data_PCOD9417755
_publ_section_title
;
Structure prediction by ZEFSAII (Michael W. Deem and Ramdas Pophale) SiO2 
 PCOD9417755
Probable space group: P M N A
;
_chemical_formula_sum "Si O2"
_cell_formula_units_Z 48
_cell_length_a 8.728014
_cell_length_b 10.456724
_cell_length_c 28.697362
_cell_angle_alpha 90.000000
_cell_angle_beta 90.000000
_cell_angle_gamma 90.000000
_cell_volume 2619.105880
_symmetry_space_group_name_H-M "P M N A"
_symmetry_group_IT_number 53
_symmetry_cell_setting 'orthorhombic'
loop_
_space_group_symop_operation_xyz
x,y,z
1/2-x,-y,1/2+z
x,-y,-z
1/2-x,y,1/2-z
-x,-y,-z
1/2+x,y,1/2-z
-x,y,z
1/2+x,-y,1/2+z
loop_
_atom_site_type_symbol
_atom_site_label
_atom_site_fract_x
_atom_site_fract_y
_atom_site_fract_z
Si Si1 0.682411 0.505562 0.554962
Si Si2 0.682413 0.642020 0.200124
Si Si3 0.315030 0.988261 0.554190
Si Si4 0.681182 0.254102 0.107916
Si Si5 0.317108 0.358155 0.300226
Si Si6 0.816500 0.754731 0.109825
O O1 0.712481 0.500000 0.500000
O O2 0.500000 0.530360 0.561506
O O3 0.773867 0.618754 0.579353
O O4 0.717638 0.369643 0.578410
O O5 0.750000 0.682528 0.250000
O O6 0.500000 0.630150 0.203022
O O7 0.753423 0.501434 0.190140
O O8 0.732079 0.735050 0.158666
O O9 0.500000 0.973714 0.555232
O O10 0.240931 0.867139 0.579226
O O11 0.269654 0.000000 0.500000
O O12 0.275312 0.117291 0.582087
O O13 0.500000 0.247605 0.114424
O O14 0.762047 0.268256 0.158043
O O15 0.250000 0.319988 0.250000
O O16 0.500000 0.363762 0.298250
O O17 0.000000 0.756153 0.117910
#
# Coordination Sequence:
#
# PCOD9417755 Si02
#       6
#     8   8   8   8   8   8
#     4  10  20  36  60  87 115 152 199 251 299 353
#     4  11  21  35  58  88 122 156 194 242 300 358
#     4  10  22  42  65  87 116 162 209 249 299 361
#     4  12  24  38  58  89 124 160 199 246 303 360
#     4  11  21  37  61  89 121 156 198 247 300 358
#     4  10  20  36  60  88 118 154 200 248 296 353
#
# _framework density 18.326865999999999
#
# number of rings (size 3 to 8) (size 9 to 14) (size 15 to 20)
#    0.000    1.333    1.667    6.500    0.000    4.000 
#    0.000    2.500    0.000    4.000    0.000    0.000 
#    0.000    0.000    0.000    0.000    0.000    0.000 
#
# Total GULP energy -268364.424764 kJ/mol
# GULP energy per Si atom -5590.925516 kJ/mol
# Density = 1.828515 g / cm^3
# Si number density = 18.326866 Si / 1000 Ang^3
#
#
#
# Elastic Constant Matrix: (Units=GPa)
#
#
# Indices 1 2 3 4 5 6 
#
# 1 112.4475 64.6744 78.1907 0.0000 0.0000 0.0000
# 2 64.6744 106.2627 65.3528 0.0000 0.0000 0.0000
# 3 78.1907 65.3528 153.6104 0.0000 0.0000 0.0000
# 4 0.0000 0.0000 0.0000 31.9172 0.0000 0.0000
# 5 0.0000 0.0000 0.0000 0.0000 30.1276 0.0000
# 6 0.0000 0.0000 0.0000 0.0000 0.0000 37.6452
#
#
#
# Elastic Compliance Matrix: (Units=1/GPa)
#
#
# Indices 1 2 3 4 5 6 
#
# 1 0.016646 -0.006664 -0.005638 0.000000 0.000000 0.000000
# 2 -0.006664 0.015413 -0.003165 0.000000 0.000000 0.000000
# 3 -0.005638 -0.003165 0.010727 0.000000 0.000000 0.000000
# 4 0.000000 0.000000 0.000000 0.031331 0.000000 0.000000
# 5 0.000000 0.000000 0.000000 0.000000 0.033192 0.000000
# 6 0.000000 0.000000 0.000000 0.000000 0.000000 0.026564
#
#
# Mechanical properties :
#
#
# Convention : Reuss Voigt Hill
#
# Bulk Modulus (GPa) = 84.37965 87.63962 86.00964
# Shear Modulus (GPa) = 29.62812 30.87818 30.25315
#
# Velocity S-wave (km/s) = 4.02512 4.10916 4.06736
# Velocity P-wave (km/s) = 8.23065 8.39271 8.31208
#
# Compressibility (1/GPa) = 0.01185120
#
# Stress axis : x y z
#
# Youngs Moduli (GPa) = 60.07345 64.87929 93.22565
#
# Poissons Ratio (x) = 0.43234 0.52562
# Poissons Ratio (y) = 0.40032 0.29510
# Poissons Ratio (z) = 0.33871 0.20537
#
# Static dielectric constant tensor:
#      x y z
#    x 1.616000 0.000000 0.000000 
#    y 0.000000 1.599890 0.000000 
#    z 0.000000 0.000000 1.627930 
# 
# From -- ./inp_files/37666.got.cif
#   From: 2010.05.17/outbox.cif.g08.bks.cpg/sg53_19_cif.got.tgz:37666.got - 2010.06.03 12:45:16.
