data_PCOD9417610
_publ_section_title
;
Structure prediction by ZEFSAII (Michael W. Deem and Ramdas Pophale) SiO2 
 PCOD9417610
Probable space group: P M N A
;
_chemical_formula_sum "Si O2"
_cell_formula_units_Z 48
_cell_length_a 8.650923
_cell_length_b 31.813596
_cell_length_c 9.249740
_cell_angle_alpha 90.000000
_cell_angle_beta 90.000000
_cell_angle_gamma 90.000000
_cell_volume 2545.685410
_symmetry_space_group_name_H-M "P M N A"
_symmetry_group_IT_number 53
_symmetry_cell_setting 'orthorhombic'
loop_
_space_group_symop_operation_xyz
x,y,z
1/2-x,-y,1/2+z
x,-y,-z
1/2-x,y,1/2-z
-x,-y,-z
1/2+x,y,1/2-z
-x,y,z
1/2+x,-y,1/2+z
loop_
_atom_site_type_symbol
_atom_site_label
_atom_site_fract_x
_atom_site_fract_y
_atom_site_fract_z
Si Si1 0.814135 0.878336 0.587603
Si Si2 0.185823 0.365993 0.913123
Si Si3 0.685696 0.287663 0.088654
Si Si4 0.813672 0.540161 0.089060
Si Si5 0.813628 0.795070 0.411819
Si Si6 0.314469 0.042258 0.587633
O O1 0.750000 0.879110 0.750000
O O2 0.766213 0.835600 0.505419
O O3 0.752448 0.917866 0.497353
O O4 0.000000 0.879781 0.592474
O O5 0.250000 0.361201 0.750000
O O6 0.229055 0.413141 0.965623
O O7 0.000000 0.362896 0.909056
O O8 0.253561 0.329923 0.013758
O O9 0.750000 0.283691 0.250000
O O10 0.500000 0.288378 0.093139
O O11 0.735315 0.247596 0.992549
O O12 0.750000 0.537010 0.250000
O O13 0.000000 0.538759 0.092736
O O14 0.757386 0.500000 0.000000
O O15 0.750000 0.797144 0.250000
O O16 0.000000 0.795057 0.404677
O O17 0.250000 0.040628 0.750000
O O18 0.500000 0.045350 0.592947
O O19 0.273032 0.000000 0.500000
#
# Coordination Sequence:
#
# PCOD9417610 Si02
#       6
#     8   8   8   8   8   8
#     4  11  23  40  62  89 120 154 194 239 288 339
#     4  10  20  36  57  81 110 145 186 230 277 332
#     4  11  23  39  58  83 114 148 187 231 282 335
#     4   9  19  35  54  78 108 142 181 225 274 328
#     4  10  23  40  60  86 115 150 190 233 281 336
#     4  11  24  41  62  89 121 157 197 241 289 342
#
# _framework density 18.855433000000001
#
# number of rings (size 3 to 8) (size 9 to 14) (size 15 to 20)
#    0.000    1.667    0.000    4.000    0.000    9.667 
#    0.000    1.667    0.000    0.000    0.000    0.000 
#    0.000    0.000    0.000    0.000    0.000    0.000 
#
# Total GULP energy -268269.227232 kJ/mol
# GULP energy per Si atom -5588.942234 kJ/mol
# Density = 1.881252 g / cm^3
# Si number density = 18.855433 Si / 1000 Ang^3
#
#
#
# Elastic Constant Matrix: (Units=GPa)
#
#
# Indices 1 2 3 4 5 6 
#
# 1 44.6820 56.4174 45.0704 0.0000 0.0000 0.0000
# 2 56.4174 213.9772 122.4543 0.0000 0.0000 0.0000
# 3 45.0704 122.4543 175.8467 0.0000 0.0000 0.0000
# 4 0.0000 0.0000 0.0000 41.2467 0.0000 0.0000
# 5 0.0000 0.0000 0.0000 0.0000 39.6046 0.0000
# 6 0.0000 0.0000 0.0000 0.0000 0.0000 29.1312
#
#
#
# Elastic Compliance Matrix: (Units=1/GPa)
#
#
# Indices 1 2 3 4 5 6 
#
# 1 0.035384 -0.006882 -0.004277 0.000000 0.000000 0.000000
# 2 -0.006882 0.009108 -0.004579 0.000000 0.000000 0.000000
# 3 -0.004277 -0.004579 0.009971 0.000000 0.000000 0.000000
# 4 0.000000 0.000000 0.000000 0.024244 0.000000 0.000000
# 5 0.000000 0.000000 0.000000 0.000000 0.025250 0.000000
# 6 0.000000 0.000000 0.000000 0.000000 0.000000 0.034327
#
#
# Mechanical properties :
#
#
# Convention : Reuss Voigt Hill
#
# Bulk Modulus (GPa) = 43.49993 98.04332 70.77162
# Shear Modulus (GPa) = 28.18137 36.03409 32.10773
#
# Velocity S-wave (km/s) = 3.87020 4.37632 4.13102
# Velocity P-wave (km/s) = 6.56442 8.81173 7.76975
#
# Compressibility (1/GPa) = 0.02298854
#
# Stress axis : x y z
#
# Youngs Moduli (GPa) = 28.26174 109.79082 100.28595
#
# Poissons Ratio (x) = 0.75556 0.42889
# Poissons Ratio (y) = 0.19449 0.45919
# Poissons Ratio (z) = 0.12087 0.50272
#
# Static dielectric constant tensor:
#      x y z
#    x 1.639320 0.000000 0.000000 
#    y 0.000000 1.656470 0.000000 
#    z 0.000000 0.000000 1.599920 
# 
# From -- ./inp_files/6623.got.cif
#   From: 2010.05.17/outbox.cif.g08.bks.cpg/sg53_4_cif.got.tgz:6623.got - 2010.06.03 12:45:16.
