data_PCOD9417570
_publ_section_title
;
Structure prediction by ZEFSAII (Michael W. Deem and Ramdas Pophale) SiO2 
 PCOD9417570
Probable space group: P M N A
;
_chemical_formula_sum "Si O2"
_cell_formula_units_Z 56
_cell_length_a 9.188717
_cell_length_b 15.048103
_cell_length_c 20.085604
_cell_angle_alpha 90.000000
_cell_angle_beta 90.000000
_cell_angle_gamma 90.000000
_cell_volume 2777.291898
_symmetry_space_group_name_H-M "P M N A"
_symmetry_group_IT_number 53
_symmetry_cell_setting 'orthorhombic'
loop_
_space_group_symop_operation_xyz
x,y,z
1/2-x,-y,1/2+z
x,-y,-z
1/2-x,y,1/2-z
-x,-y,-z
1/2+x,y,1/2-z
-x,y,z
1/2+x,-y,1/2+z
loop_
_atom_site_type_symbol
_atom_site_label
_atom_site_fract_x
_atom_site_fract_y
_atom_site_fract_z
Si Si1 0.170650 0.910458 0.542466
Si Si2 0.326464 0.797905 0.181190
Si Si3 0.332471 0.515664 0.183478
Si Si4 0.669422 0.301465 0.182245
Si Si5 0.825665 0.352476 0.572318
Si Si6 0.673853 0.003679 0.181670
Si Si7 0.827223 0.736211 0.955399
O O1 0.208289 0.936299 0.618253
O O2 0.272183 0.831601 0.517962
O O3 0.000000 0.882714 0.538713
O O4 0.184281 0.000000 0.500000
O O5 0.250000 0.771626 0.250000
O O6 0.500000 0.795892 0.191078
O O7 0.294702 0.730687 0.121468
O O8 0.285422 0.900599 0.166999
O O9 0.250000 0.544330 0.250000
O O10 0.500000 0.543632 0.190905
O O11 0.326883 0.409229 0.180160
O O12 0.281062 0.561748 0.115612
O O13 0.750000 0.273248 0.250000
O O14 0.500000 0.273324 0.181582
O O15 0.754359 0.270982 0.117064
O O16 0.740023 0.337344 0.504436
O O17 0.000000 0.355389 0.558895
O O18 0.750000 0.030791 0.250000
O O19 0.500000 0.006195 0.190427
O O20 0.000000 0.730393 0.951900
#
# Coordination Sequence:
#
# PCOD9417570 Si02
#       7
#     8   8   8   8   8   8   8
#     4  10  21  40  63  82 107 147 191 235 287 346
#     4   9  17  30  51  79 112 148 184 224 273 331
#     4   9  19  35  60  90 118 152 192 235 284 338
#     4  10  21  41  65  88 116 150 191 239 290 344
#     4  10  20  36  56  81 116 155 193 232 279 340
#     4   9  18  32  52  78 105 137 177 221 272 329
#     4  12  26  40  57  85 116 150 192 239 291 341
#
# _framework density 20.163526999999998
#
# number of rings (size 3 to 8) (size 9 to 14) (size 15 to 20)
#    0.000    2.143    0.000    3.000    0.000    6.000 
#    0.000    7.143    0.000    0.000    0.000    0.000 
#    0.000    0.000    0.000    0.000    0.000    0.000 
#
# Total GULP energy -312907.870190 kJ/mol
# GULP energy per Si atom -5587.640539 kJ/mol
# Density = 2.011763 g / cm^3
# Si number density = 20.163527 Si / 1000 Ang^3
#
#
#
# Elastic Constant Matrix: (Units=GPa)
#
#
# Indices 1 2 3 4 5 6 
#
# 1 78.1798 22.4550 48.0890 0.0000 0.0000 0.0000
# 2 22.4550 26.3459 8.8170 0.0000 0.0000 0.0000
# 3 48.0890 8.8170 96.5570 0.0000 0.0000 0.0000
# 4 0.0000 0.0000 0.0000 25.1951 0.0000 0.0000
# 5 0.0000 0.0000 0.0000 0.0000 34.2871 0.0000
# 6 0.0000 0.0000 0.0000 0.0000 0.0000 23.7528
#
#
#
# Elastic Compliance Matrix: (Units=1/GPa)
#
#
# Indices 1 2 3 4 5 6 
#
# 1 0.024123 -0.017061 -0.010456 0.000000 0.000000 0.000000
# 2 -0.017061 0.051220 0.003820 0.000000 0.000000 0.000000
# 3 -0.010456 0.003820 0.015215 0.000000 0.000000 0.000000
# 4 0.000000 0.000000 0.000000 0.039690 0.000000 0.000000
# 5 0.000000 0.000000 0.000000 0.000000 0.029165 0.000000
# 6 0.000000 0.000000 0.000000 0.000000 0.000000 0.042100
#
#
# Mechanical properties :
#
#
# Convention : Reuss Voigt Hill
#
# Bulk Modulus (GPa) = 23.16784 39.97831 31.57308
# Shear Modulus (GPa) = 18.98997 24.76178 21.87588
#
# Velocity S-wave (km/s) = 3.07220 3.50815 3.29739
# Velocity P-wave (km/s) = 4.90912 6.02326 5.49450
#
# Compressibility (1/GPa) = 0.04316328
#
# Stress axis : x y z
#
# Youngs Moduli (GPa) = 41.45402 19.52374 65.72304
#
# Poissons Ratio (x) = 0.33310 0.68722
# Poissons Ratio (y) = 0.70725 -0.25106
# Poissons Ratio (z) = 0.43345 -0.07458
#
# Static dielectric constant tensor:
#      x y z
#    x 1.669990 0.000000 0.000000 
#    y 0.000000 1.759710 0.000000 
#    z 0.000000 0.000000 1.705230 
# 
# From -- ./inp_files/30771.got.cif
#   From: 2010.05.17/outbox.cif.g08.bks.cpg/sg53_16_cif.got.tgz:30771.got - 2010.06.03 12:45:16.
