data_PCOD9417308
_publ_section_title
;
Structure prediction by ZEFSAII (Michael W. Deem and Ramdas Pophale) SiO2 
 PCOD9417308
Probable space group: P M N A
;
_chemical_formula_sum "Si O2"
_cell_formula_units_Z 48
_cell_length_a 8.416595
_cell_length_b 31.676194
_cell_length_c 9.669983
_cell_angle_alpha 90.000000
_cell_angle_beta 90.000000
_cell_angle_gamma 90.000000
_cell_volume 2578.072548
_symmetry_space_group_name_H-M "P M N A"
_symmetry_group_IT_number 53
_symmetry_cell_setting 'orthorhombic'
loop_
_space_group_symop_operation_xyz
x,y,z
1/2-x,-y,1/2+z
x,-y,-z
1/2-x,y,1/2-z
-x,-y,-z
1/2+x,y,1/2-z
-x,y,z
1/2+x,-y,1/2+z
loop_
_atom_site_type_symbol
_atom_site_label
_atom_site_fract_x
_atom_site_fract_y
_atom_site_fract_z
Si Si1 0.690513 0.382470 0.595034
Si Si2 0.191970 0.133062 0.593571
Si Si3 0.808017 0.961596 0.405786
Si Si4 0.192031 0.539779 0.907081
Si Si5 0.190531 0.711307 0.404588
Si Si6 0.192133 0.211003 0.406418
O O1 0.750000 0.392671 0.750000
O O2 0.500000 0.382198 0.598436
O O3 0.744306 0.417527 0.485294
O O4 0.749380 0.335513 0.559922
O O5 0.250000 0.140516 0.750000
O O6 0.242863 0.085697 0.550596
O O7 0.247077 0.169699 0.490896
O O8 0.000000 0.133772 0.595599
O O9 0.750000 0.967640 0.250000
O O10 0.000000 0.962108 0.407381
O O11 0.750031 0.000000 0.500000
O O12 0.250000 0.537212 0.750000
O O13 0.000000 0.539544 0.905027
O O14 0.244557 0.500000 0.000000
O O15 0.250000 0.721348 0.250000
O O16 0.244515 0.747089 0.511333
O O17 0.000000 0.710592 0.402048
O O18 0.250000 0.210725 0.250000
O O19 0.000000 0.210785 0.406719
#
# Coordination Sequence:
#
# PCOD9417308 Si02
#       6
#     8   8   8   8   8   8
#     4  10  20  35  56  81 107 136 172 211 253 302
#     4   9  18  34  53  73  98 130 169 208 249 299
#     4   9  18  32  50  73 101 131 164 205 250 298
#     4  10  22  38  56  80 108 139 175 213 255 303
#     4  10  20  35  55  78 103 134 172 210 252 302
#     4  10  22  36  51  74 103 134 168 209 255 301
#
# _framework density 18.618562000000001
#
# number of rings (size 3 to 8) (size 9 to 14) (size 15 to 20)
#    0.000    2.333    0.000    3.000    0.000    5.333 
#    0.000    3.333    0.000    0.000    0.000    0.000 
#    0.000    0.000    0.000    0.000    0.000    0.000 
#
# Total GULP energy -267920.862700 kJ/mol
# GULP energy per Si atom -5581.684640 kJ/mol
# Density = 1.857619 g / cm^3
# Si number density = 18.618562 Si / 1000 Ang^3
#
#
#
# Elastic Constant Matrix: (Units=GPa)
#
#
# Indices 1 2 3 4 5 6 
#
# 1 17.4657 28.4400 19.6339 0.0000 0.0000 0.0000
# 2 28.4400 184.6563 145.8274 0.0000 0.0000 0.0000
# 3 19.6339 145.8274 156.3279 0.0000 0.0000 0.0000
# 4 0.0000 0.0000 0.0000 39.5263 0.0000 0.0000
# 5 0.0000 0.0000 0.0000 0.0000 33.0645 0.0000
# 6 0.0000 0.0000 0.0000 0.0000 0.0000 64.9226
#
#
#
# Elastic Compliance Matrix: (Units=1/GPa)
#
#
# Indices 1 2 3 4 5 6 
#
# 1 0.077571 -0.016152 0.005325 0.000000 0.000000 0.000000
# 2 -0.016152 0.023929 -0.020293 0.000000 0.000000 0.000000
# 3 0.005325 -0.020293 0.024658 0.000000 0.000000 0.000000
# 4 0.000000 0.000000 0.000000 0.025300 0.000000 0.000000
# 5 0.000000 0.000000 0.000000 0.000000 0.030244 0.000000
# 6 0.000000 0.000000 0.000000 0.000000 0.000000 0.015403
#
#
# Mechanical properties :
#
#
# Convention : Reuss Voigt Hill
#
# Bulk Modulus (GPa) = 15.64536 82.91693 49.28115
# Shear Modulus (GPa) = 17.81568 38.47257 28.14413
#
# Velocity S-wave (km/s) = 3.09670 4.55065 3.89217
# Velocity P-wave (km/s) = 4.60515 8.49956 6.83556
#
# Compressibility (1/GPa) = 0.06391671
#
# Stress axis : x y z
#
# Youngs Moduli (GPa) = 12.89148 41.78977 40.55437
#
# Poissons Ratio (x) = 0.67500 -0.21595
# Poissons Ratio (y) = 0.20823 0.82298
# Poissons Ratio (z) = -0.06865 0.84805
#
# Static dielectric constant tensor:
#      x y z
#    x 1.643150 0.000000 0.000000 
#    y 0.000000 1.661180 0.000000 
#    z 0.000000 0.000000 1.595370 
# 
# From -- ./inp_files/6758.got.cif
#   From: 2010.05.17/outbox.cif.g08.bks.cpg/sg53_4_cif.got.tgz:6758.got - 2010.06.03 12:45:16.
