data_PCOD9417052
_publ_section_title
;
Structure prediction by ZEFSAII (Michael W. Deem and Ramdas Pophale) SiO2 
 PCOD9417052
Probable space group: P M N A
;
_chemical_formula_sum "Si O2"
_cell_formula_units_Z 64
_cell_length_a 9.175878
_cell_length_b 22.468213
_cell_length_c 17.708515
_cell_angle_alpha 90.000000
_cell_angle_beta 90.000000
_cell_angle_gamma 90.000000
_cell_volume 3650.886290
_symmetry_space_group_name_H-M "P M N A"
_symmetry_group_IT_number 53
_symmetry_cell_setting 'orthorhombic'
loop_
_space_group_symop_operation_xyz
x,y,z
1/2-x,-y,1/2+z
x,-y,-z
1/2-x,y,1/2-z
-x,-y,-z
1/2+x,y,1/2-z
-x,y,z
1/2+x,-y,1/2+z
loop_
_atom_site_type_symbol
_atom_site_label
_atom_site_fract_x
_atom_site_fract_y
_atom_site_fract_z
Si Si1 0.332815 0.546025 0.429411
Si Si2 0.174295 0.789976 0.173979
Si Si3 0.670929 0.925787 0.369029
Si Si4 0.174085 0.452229 0.329428
Si Si5 0.173093 0.637295 0.532104
Si Si6 0.173378 0.754152 0.007196
Si Si7 0.330809 0.109993 0.458835
Si Si8 0.672328 0.044930 0.174683
O O1 0.336056 0.500000 0.500000
O O2 0.500000 0.558490 0.407534
O O3 0.244419 0.512134 0.364353
O O4 0.251999 0.603229 0.463093
O O5 0.250000 0.768279 0.250000
O O6 0.206800 0.860335 0.162515
O O7 0.217099 0.758279 0.095676
O O8 0.000000 0.784936 0.180600
O O9 0.500000 0.938221 0.352465
O O10 0.686147 0.921085 0.459632
O O11 0.771058 0.977629 0.337779
O O12 0.250000 0.438777 0.250000
O O13 0.201510 0.400494 0.391569
O O14 0.000000 0.458582 0.321029
O O15 0.237902 0.703178 0.534536
O O16 0.000000 0.637661 0.520307
O O17 0.000000 0.741491 0.004218
O O18 0.194247 0.819903 0.972807
O O19 0.500000 0.101519 0.435760
O O20 0.226393 0.082185 0.397115
O O21 0.750000 0.068265 0.250000
O O22 0.500000 0.046325 0.182501
#
# Coordination Sequence:
#
# PCOD9417052 Si02
#       8
#     8   8   8   8   8   8   8   8
#     4   9  17  31  53  78 104 136 170 205 251 302
#     4   9  18  32  51  76 103 132 166 207 256 308
#     4   9  18  34  55  77 102 131 164 205 259 320
#     4  10  20  34  53  80 112 141 173 215 261 307
#     4  10  20  34  54  80 108 139 178 220 257 300
#     4   9  19  36  56  76 101 137 179 216 255 308
#     4   9  19  37  57  75 100 135 171 212 263 315
#     4  12  24  35  50  74 103 133 169 213 262 316
#
# _framework density 17.529990000000002
#
# number of rings (size 3 to 8) (size 9 to 14) (size 15 to 20)
#    0.000    2.375    0.000    4.500    0.000    7.500 
#    0.000    3.750    0.000    3.000    0.000    0.000 
#    0.000    0.000    0.000    0.000    0.000    0.000 
#
# Total GULP energy -357171.819989 kJ/mol
# GULP energy per Si atom -5580.809687 kJ/mol
# Density = 1.749009 g / cm^3
# Si number density = 17.529990 Si / 1000 Ang^3
#
#
#
# Elastic Constant Matrix: (Units=GPa)
#
#
# Indices 1 2 3 4 5 6 
#
# 1 99.1122 40.0962 60.5736 0.0000 0.0000 0.0000
# 2 40.0962 43.0637 25.8460 0.0000 0.0000 0.0000
# 3 60.5736 25.8460 83.6865 0.0000 0.0000 0.0000
# 4 0.0000 0.0000 0.0000 14.1146 0.0000 0.0000
# 5 0.0000 0.0000 0.0000 0.0000 20.5806 0.0000
# 6 0.0000 0.0000 0.0000 0.0000 0.0000 27.9669
#
#
#
# Elastic Compliance Matrix: (Units=1/GPa)
#
#
# Indices 1 2 3 4 5 6 
#
# 1 0.023681 -0.014438 -0.012682 0.000000 0.000000 0.000000
# 2 -0.014438 0.037308 -0.001072 0.000000 0.000000 0.000000
# 3 -0.012682 -0.001072 0.021460 0.000000 0.000000 0.000000
# 4 0.000000 0.000000 0.000000 0.070849 0.000000 0.000000
# 5 0.000000 0.000000 0.000000 0.000000 0.048589 0.000000
# 6 0.000000 0.000000 0.000000 0.000000 0.000000 0.035757
#
#
# Mechanical properties :
#
#
# Convention : Reuss Voigt Hill
#
# Bulk Modulus (GPa) = 38.36485 53.21044 45.78765
# Shear Modulus (GPa) = 16.51722 19.15552 17.83637
#
# Velocity S-wave (km/s) = 3.07290 3.30923 3.19325
# Velocity P-wave (km/s) = 5.87563 6.70978 6.30651
#
# Compressibility (1/GPa) = 0.02606553
#
# Stress axis : x y z
#
# Youngs Moduli (GPa) = 42.22794 26.80409 46.59931
#
# Poissons Ratio (x) = 0.38699 0.59096
# Poissons Ratio (y) = 0.60968 0.04995
# Poissons Ratio (z) = 0.53552 0.02873
#
# Static dielectric constant tensor:
#      x y z
#    x 1.580700 0.000000 0.000000 
#    y 0.000000 1.587000 0.000000 
#    z 0.000000 0.000000 1.596270 
# 
# From -- ./inp_files/26829.got.cif
#   From: 2010.05.17/outbox.cif.g08.bks.cpg/sg53_14_cif.got.tgz:26829.got - 2010.06.03 12:45:16.
