data_PCOD9417334
_publ_section_title
;
Structure prediction by ZEFSAII (Michael W. Deem and Ramdas Pophale) SiO2 
 PCOD9417334
Probable space group: P M N A
;
_chemical_formula_sum "Si O2"
_cell_formula_units_Z 56
_cell_length_a 16.005086
_cell_length_b 17.513152
_cell_length_c 9.204508
_cell_angle_alpha 90.000000
_cell_angle_beta 90.000000
_cell_angle_gamma 90.000000
_cell_volume 2580.019026
_symmetry_space_group_name_H-M "P M N A"
_symmetry_group_IT_number 53
_symmetry_cell_setting 'orthorhombic'
loop_
_space_group_symop_operation_xyz
x,y,z
1/2-x,-y,1/2+z
x,-y,-z
1/2-x,y,1/2-z
-x,-y,-z
1/2+x,y,1/2-z
-x,y,z
1/2+x,-y,1/2+z
loop_
_atom_site_type_symbol
_atom_site_label
_atom_site_fract_x
_atom_site_fract_y
_atom_site_fract_z
Si Si1 0.595201 0.831752 0.178950
Si Si2 0.671523 0.224963 0.361163
Si Si3 0.898697 0.912911 0.043409
Si Si4 0.836807 0.309534 0.839606
Si Si5 0.338187 0.517278 0.332311
Si Si6 0.902613 0.427925 0.412781
Si Si7 0.097067 0.261141 0.424742
O O1 0.500000 0.856355 0.151806
O O2 0.630629 0.893437 0.291671
O O3 0.601572 0.753104 0.270763
O O4 0.634956 0.806032 0.025391
O O5 0.750000 0.224069 0.250000
O O6 0.648864 0.145152 0.437079
O O7 0.677067 0.285731 0.492486
O O8 0.600231 0.245584 0.245465
O O9 0.000000 0.898436 0.036607
O O10 0.884718 0.000000 0.000000
O O11 0.750000 0.302614 0.750000
O O12 0.869119 0.395511 0.818919
O O13 0.329243 0.500000 0.500000
O O14 0.250000 0.513100 0.250000
O O15 0.393294 0.453300 0.253329
O O16 0.867309 0.500000 0.500000
O O17 0.864667 0.345533 0.447853
O O18 0.000000 0.422678 0.449658
O O19 0.000000 0.264580 0.468949
#
# Coordination Sequence:
#
# PCOD9417334 Si02
#       7
#     8   8   8   8   8   8   8
#     4   9  18  34  58  82 104 138 182 224 269 329
#     4  11  22  36  57  84 113 144 180 229 285 335
#     4   9  19  39  63  85 113 149 187 226 274 337
#     4  10  21  36  53  74 104 143 186 226 272 334
#     4  11  23  36  51  73 102 141 186 231 278 332
#     4  10  21  36  54  77 108 144 182 232 288 334
#     4  10  20  35  55  81 111 143 184 231 281 338
#
# _framework density 21.705266999999999
#
# number of rings (size 3 to 8) (size 9 to 14) (size 15 to 20)
#    0.000    2.000    0.000    3.429    0.000    7.143 
#    0.000    5.000    0.000    3.429    0.000    0.000 
#    0.000    0.000    0.000    0.000    0.000    0.000 
#
# Total GULP energy -312434.850156 kJ/mol
# GULP energy per Si atom -5579.193753 kJ/mol
# Density = 2.165586 g / cm^3
# Si number density = 21.705267 Si / 1000 Ang^3
#
#
#
# Elastic Constant Matrix: (Units=GPa)
#
#
# Indices 1 2 3 4 5 6 
#
# 1 30.4983 1.1227 1.7120 0.0000 0.0000 0.0000
# 2 1.1227 97.7167 33.4525 0.0000 0.0000 0.0000
# 3 1.7120 33.4525 155.9344 0.0000 0.0000 0.0000
# 4 0.0000 0.0000 0.0000 29.2893 0.0000 0.0000
# 5 0.0000 0.0000 0.0000 0.0000 29.2229 0.0000
# 6 0.0000 0.0000 0.0000 0.0000 0.0000 14.4832
#
#
#
# Elastic Compliance Matrix: (Units=1/GPa)
#
#
# Indices 1 2 3 4 5 6 
#
# 1 0.032816 -0.000274 -0.000302 0.000000 0.000000 0.000000
# 2 -0.000274 0.011047 -0.002367 0.000000 0.000000 0.000000
# 3 -0.000302 -0.002367 0.006924 0.000000 0.000000 0.000000
# 4 0.000000 0.000000 0.000000 0.034142 0.000000 0.000000
# 5 0.000000 0.000000 0.000000 0.000000 0.034220 0.000000
# 6 0.000000 0.000000 0.000000 0.000000 0.000000 0.069045
#
#
# Mechanical properties :
#
#
# Convention : Reuss Voigt Hill
#
# Bulk Modulus (GPa) = 22.27056 39.63599 30.95327
# Shear Modulus (GPa) = 23.91817 31.12323 27.52070
#
# Velocity S-wave (km/s) = 3.32317 3.79080 3.56466
# Velocity P-wave (km/s) = 5.00073 6.12053 5.58875
#
# Compressibility (1/GPa) = 0.04490233
#
# Stress axis : x y z
#
# Youngs Moduli (GPa) = 30.47317 90.52141 144.42442
#
# Poissons Ratio (x) = 0.02479 0.04355
# Poissons Ratio (y) = 0.00834 0.34184
# Poissons Ratio (z) = 0.00919 0.21426
#
# Static dielectric constant tensor:
#      x y z
#    x 1.866670 0.000000 0.000000 
#    y 0.000000 1.777180 0.000000 
#    z 0.000000 0.000000 1.368720 
# 
# From -- ./inp_files/11164.got.cif
#   From: 2010.05.17/outbox.cif.g08.bks.cpg/sg53_6_cif.got.tgz:11164.got - 2010.06.03 12:45:16.
