data_PCOD9417331
_publ_section_title
;
Structure prediction by ZEFSAII (Michael W. Deem and Ramdas Pophale) SiO2 
 PCOD9417331
Probable space group: P M N A
;
_chemical_formula_sum "Si O2"
_cell_formula_units_Z 64
_cell_length_a 8.792673
_cell_length_b 18.165567
_cell_length_c 20.575006
_cell_angle_alpha 90.000000
_cell_angle_beta 90.000000
_cell_angle_gamma 90.000000
_cell_volume 3286.320005
_symmetry_space_group_name_H-M "P M N A"
_symmetry_group_IT_number 53
_symmetry_cell_setting 'orthorhombic'
loop_
_space_group_symop_operation_xyz
x,y,z
1/2-x,-y,1/2+z
x,-y,-z
1/2-x,y,1/2-z
-x,-y,-z
1/2+x,y,1/2-z
-x,y,z
1/2+x,-y,1/2+z
loop_
_atom_site_type_symbol
_atom_site_label
_atom_site_fract_x
_atom_site_fract_y
_atom_site_fract_z
Si Si1 0.168130 0.896167 0.310081
Si Si2 0.181253 0.329446 0.936048
Si Si3 0.817942 0.512247 0.423703
Si Si4 0.168471 0.275169 0.687436
Si Si5 0.680328 0.100907 0.060693
Si Si6 0.823768 0.050536 0.927684
Si Si7 0.816540 0.738098 0.923633
Si Si8 0.316725 0.391605 0.323698
O O1 0.250000 0.934524 0.250000
O O2 0.147323 0.810370 0.296172
O O3 0.288347 0.900312 0.366968
O O4 0.000000 0.926236 0.326114
O O5 0.258028 0.405548 0.914576
O O6 0.233435 0.277174 0.877879
O O7 0.000000 0.337696 0.937960
O O8 0.229429 0.300597 0.007608
O O9 0.777341 0.500000 0.500000
O O10 0.744087 0.456210 0.371801
O O11 0.000000 0.506846 0.417824
O O12 0.250000 0.310590 0.750000
O O13 0.000000 0.307163 0.676499
O O14 0.500000 0.096411 0.070438
O O15 0.741519 0.181308 0.079662
O O16 0.768048 0.031398 0.091770
O O17 0.722750 0.083690 0.985628
O O18 0.000000 0.051339 0.945921
O O19 0.778914 0.683976 0.863410
O O20 0.000000 0.746700 0.925514
O O21 0.250000 0.393961 0.250000
O O22 0.500000 0.396886 0.319756
#
# Coordination Sequence:
#
# PCOD9417331 Si02
#       8
#     8   8   8   8   8   8   8   8
#     4  10  20  35  55  80 111 150 193 238 289 349
#     4  11  22  37  61  89 120 157 197 243 295 355
#     4  11  23  40  64  93 123 156 199 248 297 355
#     4  10  21  36  54  81 118 157 197 243 296 354
#     4  11  22  36  58  86 117 151 194 248 300 355
#     4  11  21  36  57  82 116 154 196 245 299 357
#     4  10  22  40  62  89 121 158 199 243 301 365
#     4  11  24  44  68  94 126 163 204 250 304 363
#
# _framework density 19.47467
#
# number of rings (size 3 to 8) (size 9 to 14) (size 15 to 20)
#    0.000    1.375    1.250    5.625    0.000    6.500 
#    0.000    3.125    0.000    1.500    0.000    0.000 
#    0.000    0.000    0.000    0.000    0.000    0.000 
#
# Total GULP energy -356763.490857 kJ/mol
# GULP energy per Si atom -5574.429545 kJ/mol
# Density = 1.943034 g / cm^3
# Si number density = 19.474670 Si / 1000 Ang^3
#
#
#
# Elastic Constant Matrix: (Units=GPa)
#
#
# Indices 1 2 3 4 5 6 
#
# 1 47.8720 19.6816 39.3246 0.0000 0.0000 0.0000
# 2 19.6816 85.7149 29.0472 0.0000 0.0000 0.0000
# 3 39.3246 29.0472 110.2902 0.0000 0.0000 0.0000
# 4 0.0000 0.0000 0.0000 10.6677 0.0000 0.0000
# 5 0.0000 0.0000 0.0000 0.0000 18.8666 0.0000
# 6 0.0000 0.0000 0.0000 0.0000 0.0000 28.3428
#
#
#
# Elastic Compliance Matrix: (Units=1/GPa)
#
#
# Indices 1 2 3 4 5 6 
#
# 1 0.030547 -0.003649 -0.009931 0.000000 0.000000 0.000000
# 2 -0.003649 0.013246 -0.002188 0.000000 0.000000 0.000000
# 3 -0.009931 -0.002188 0.013184 0.000000 0.000000 0.000000
# 4 0.000000 0.000000 0.000000 0.093741 0.000000 0.000000
# 5 0.000000 0.000000 0.000000 0.000000 0.053004 0.000000
# 6 0.000000 0.000000 0.000000 0.000000 0.000000 0.035282
#
#
# Mechanical properties :
#
#
# Convention : Reuss Voigt Hill
#
# Bulk Modulus (GPa) = 39.30430 46.66487 42.98459
# Shear Modulus (GPa) = 17.92001 21.96367 19.94184
#
# Velocity S-wave (km/s) = 3.03672 3.36193 3.20345
# Velocity P-wave (km/s) = 5.70278 6.25171 5.98354
#
# Compressibility (1/GPa) = 0.02544251
#
# Stress axis : x y z
#
# Youngs Moduli (GPa) = 32.73685 75.49606 75.84989
#
# Poissons Ratio (x) = 0.27546 0.75323
# Poissons Ratio (y) = 0.11945 0.16593
# Poissons Ratio (z) = 0.32510 0.16515
#
# Static dielectric constant tensor:
#      x y z
#    x 1.780330 0.000000 0.000000 
#    y 0.000000 1.726990 0.000000 
#    z 0.000000 0.000000 1.542980 
# 
# From -- ./inp_files/31259.got.cif
#   From: 2010.05.17/outbox.cif.g08.bks.cpg/sg53_16_cif.got.tgz:31259.got - 2010.06.03 12:45:16.
