data_PCOD9417759
_publ_section_title
;
Structure prediction by ZEFSAII (Michael W. Deem and Ramdas Pophale) SiO2 
 PCOD9417759
Probable space group: P M N A
;
_chemical_formula_sum "Si O2"
_cell_formula_units_Z 64
_cell_length_a 8.638494
_cell_length_b 24.424891
_cell_length_c 15.859623
_cell_angle_alpha 90.000000
_cell_angle_beta 90.000000
_cell_angle_gamma 90.000000
_cell_volume 3346.289646
_symmetry_space_group_name_H-M "P M N A"
_symmetry_group_IT_number 53
_symmetry_cell_setting 'orthorhombic'
loop_
_space_group_symop_operation_xyz
x,y,z
1/2-x,-y,1/2+z
x,-y,-z
1/2-x,y,1/2-z
-x,-y,-z
1/2+x,y,1/2-z
-x,y,z
1/2+x,-y,1/2+z
loop_
_atom_site_type_symbol
_atom_site_label
_atom_site_fract_x
_atom_site_fract_y
_atom_site_fract_z
Si Si1 0.313365 0.060454 0.898309
Si Si2 0.313146 0.369227 0.505631
Si Si3 0.187314 0.939829 0.597842
Si Si4 0.815534 0.826343 0.161867
Si Si5 0.185581 0.176788 0.338968
Si Si6 0.187145 0.241920 0.001848
Si Si7 0.685820 0.561962 0.659202
Si Si8 0.815462 0.560233 0.341017
O O1 0.500000 0.063557 0.889939
O O2 0.238812 0.111277 0.851491
O O3 0.259842 0.999629 0.871375
O O4 0.276363 0.065238 0.998253
O O5 0.500000 0.372738 0.513527
O O6 0.269539 0.305528 0.503841
O O7 0.269884 0.398925 0.418095
O O8 0.239140 0.400612 0.584172
O O9 0.242865 0.885722 0.644921
O O10 0.000000 0.940658 0.602821
O O11 0.750000 0.805223 0.250000
O O12 0.762406 0.791001 0.081572
O O13 0.000000 0.824726 0.164584
O O14 0.250000 0.196629 0.250000
O O15 0.242657 0.213288 0.416297
O O16 0.000000 0.176330 0.337467
O O17 0.000000 0.238684 0.007101
O O18 0.750000 0.580385 0.750000
O O19 0.500000 0.559216 0.663710
O O20 0.750143 0.500926 0.643676
O O21 0.750000 0.578173 0.250000
O O22 0.000000 0.557787 0.336863
#
# Coordination Sequence:
#
# PCOD9417759 Si02
#       8
#     8   8   8   8   8   8   8   8
#     4   9  16  33  58  83 112 144 183 228 285 347
#     4  10  22  40  61  85 117 155 195 241 290 338
#     4   8  16  31  56  84 112 146 180 227 285 344
#     4  11  23  38  58  83 112 147 189 237 289 345
#     4  11  22  38  60  85 113 150 192 236 289 346
#     4  10  23  43  61  82 114 151 195 245 288 334
#     4  10  20  36  60  88 121 157 191 233 285 338
#     4  11  22  37  60  90 124 157 192 235 283 338
#
# _framework density 19.12566
#
# number of rings (size 3 to 8) (size 9 to 14) (size 15 to 20)
#    0.000    2.000    1.250    4.125    0.000    5.000 
#    0.000    6.250    0.000    0.000    0.000    0.000 
#    0.000    0.000    0.000    0.000    0.000    0.000 
#
# Total GULP energy -357496.778138 kJ/mol
# GULP energy per Si atom -5585.887158 kJ/mol
# Density = 1.908213 g / cm^3
# Si number density = 19.125660 Si / 1000 Ang^3
#
#
#
# Elastic Constant Matrix: (Units=GPa)
#
#
# Indices 1 2 3 4 5 6 
#
# 1 45.1327 42.0813 50.0364 0.0000 0.0000 0.0000
# 2 42.0813 123.7530 100.6872 0.0000 0.0000 0.0000
# 3 50.0364 100.6872 170.3975 0.0000 0.0000 0.0000
# 4 0.0000 0.0000 0.0000 -9.9497 0.0000 0.0000
# 5 0.0000 0.0000 0.0000 0.0000 29.7318 0.0000
# 6 0.0000 0.0000 0.0000 0.0000 0.0000 -37.9765
#
#
#
# Elastic Compliance Matrix: (Units=1/GPa)
#
#
# Indices 1 2 3 4 5 6 
#
# 1 0.035711 -0.006955 -0.006377 0.000000 0.000000 0.000000
# 2 -0.006955 0.016917 -0.007954 0.000000 0.000000 0.000000
# 3 -0.006377 -0.007954 0.012441 0.000000 0.000000 0.000000
# 4 0.000000 0.000000 0.000000 -0.100506 0.000000 0.000000
# 5 0.000000 0.000000 0.000000 0.000000 0.033634 0.000000
# 6 0.000000 0.000000 0.000000 0.000000 0.000000 -0.026332
#
#
# Mechanical properties :
#
#
# Convention : Reuss Voigt Hill
#
# Bulk Modulus (GPa) = 44.44853 80.54366 62.49609
# Shear Modulus (GPa) = 227.93020 6.12633 117.02827
#
# Velocity S-wave (km/s) = 10.92858 1.79169 7.83083
# Velocity P-wave (km/s) = 13.51058 6.81795 10.70094
#
# Compressibility (1/GPa) = 0.02249793
#
# Stress axis : x y z
#
# Youngs Moduli (GPa) = 28.00227 59.11184 80.37953
#
# Poissons Ratio (x) = 0.41114 0.51255
# Poissons Ratio (y) = 0.19476 0.63933
# Poissons Ratio (z) = 0.17856 0.47017
#
# Static dielectric constant tensor:
#      x y z
#    x 1.643470 0.000000 0.000000 
#    y 0.000000 1.653400 0.000000 
#    z 0.000000 0.000000 1.656300 
# 
# From -- ./inp_files/20956.got.cif
#   From: 2010.05.17/outbox.cif.g08.bks.cpg/sg53_11_cif.got.tgz:20956.got - 2010.06.03 12:45:16.
