data_PCOD9417386
_publ_section_title
;
Structure prediction by ZEFSAII (Michael W. Deem and Ramdas Pophale) SiO2 
 PCOD9417386
Probable space group: P M N A
;
_chemical_formula_sum "Si O2"
_cell_formula_units_Z 56
_cell_length_a 8.926308
_cell_length_b 16.660418
_cell_length_c 19.329796
_cell_angle_alpha 90.000000
_cell_angle_beta 90.000000
_cell_angle_gamma 90.000000
_cell_volume 2874.650376
_symmetry_space_group_name_H-M "P M N A"
_symmetry_group_IT_number 53
_symmetry_cell_setting 'orthorhombic'
loop_
_space_group_symop_operation_xyz
x,y,z
1/2-x,-y,1/2+z
x,-y,-z
1/2-x,y,1/2-z
-x,-y,-z
1/2+x,y,1/2-z
-x,y,z
1/2+x,-y,1/2+z
loop_
_atom_site_type_symbol
_atom_site_label
_atom_site_fract_x
_atom_site_fract_y
_atom_site_fract_z
Si Si1 0.177009 0.252048 0.940844
Si Si2 0.679520 0.147161 0.826997
Si Si3 0.176143 0.824399 0.916005
Si Si4 0.179764 0.419020 0.541744
Si Si5 0.820073 0.994735 0.081518
Si Si6 0.678299 0.689089 0.825190
Si Si7 0.678809 0.509338 0.823901
O O1 0.264032 0.222964 0.872745
O O2 0.236394 0.336177 0.971386
O O3 0.000000 0.256812 0.926580
O O4 0.200574 0.187067 0.001923
O O5 0.750000 0.147001 0.750000
O O6 0.500000 0.146928 0.822353
O O7 0.737182 0.070351 0.871416
O O8 0.209001 0.914674 0.892532
O O9 0.268040 0.757895 0.875819
O O10 0.000000 0.809292 0.904202
O O11 0.219369 0.500000 0.500000
O O12 0.216486 0.442660 0.620486
O O13 0.000000 0.407582 0.532699
O O14 0.000000 0.978783 0.084212
O O15 0.778848 0.000000 0.000000
O O16 0.750000 0.700876 0.750000
O O17 0.500000 0.690890 0.819372
O O18 0.722968 0.599009 0.848805
O O19 0.750000 0.495207 0.750000
O O20 0.500000 0.510187 0.817129
#
# Coordination Sequence:
#
# PCOD9417386 Si02
#       7
#     8   8   8   8   8   8   8
#     4  11  23  41  63  90 123 162 205 253 311 368
#     4  12  26  44  67  95 127 164 210 258 310 370
#     4  10  21  37  61  88 119 158 197 241 297 359
#     4  10  21  38  59  86 121 158 203 257 309 360
#     4  10  20  41  67  90 123 162 199 247 306 361
#     4  10  20  35  56  83 117 155 197 247 299 356
#     4   9  19  35  55  78 109 150 192 239 298 354
#
# _framework density 19.480630999999999
#
# number of rings (size 3 to 8) (size 9 to 14) (size 15 to 20)
#    0.000    1.714    1.429    3.000    0.000    5.714 
#    0.000    1.429    0.000    0.000    0.000    0.000 
#    0.000    0.000    0.000    0.000    0.000    0.000 
#
# Total GULP energy -312714.232447 kJ/mol
# GULP energy per Si atom -5584.182722 kJ/mol
# Density = 1.943629 g / cm^3
# Si number density = 19.480631 Si / 1000 Ang^3
#
#
#
# Elastic Constant Matrix: (Units=GPa)
#
#
# Indices 1 2 3 4 5 6 
#
# 1 59.5145 44.3481 38.3321 0.0000 0.0000 0.0000
# 2 44.3481 85.6548 33.2420 0.0000 0.0000 0.0000
# 3 38.3321 33.2420 61.3327 0.0000 0.0000 0.0000
# 4 0.0000 0.0000 0.0000 25.9200 0.0000 0.0000
# 5 0.0000 0.0000 0.0000 0.0000 24.6993 0.0000
# 6 0.0000 0.0000 0.0000 0.0000 0.0000 -2.0817
#
#
#
# Elastic Compliance Matrix: (Units=1/GPa)
#
#
# Indices 1 2 3 4 5 6 
#
# 1 0.036573 -0.012746 -0.015949 0.000000 0.000000 0.000000
# 2 -0.012746 0.019227 -0.002455 0.000000 0.000000 0.000000
# 3 -0.015949 -0.002455 0.027603 0.000000 0.000000 0.000000
# 4 0.000000 0.000000 0.000000 0.038580 0.000000 0.000000
# 5 0.000000 0.000000 0.000000 0.000000 0.040487 0.000000
# 6 0.000000 0.000000 0.000000 0.000000 0.000000 -0.480373
#
#
# Mechanical properties :
#
#
# Convention : Reuss Voigt Hill
#
# Bulk Modulus (GPa) = 47.38731 48.70516 48.04624
# Shear Modulus (GPa) = -20.11523 15.74617 -2.18453
#
# Velocity S-wave (km/s) = -3.21686 2.84614 -1.06010
# Velocity P-wave (km/s) = 3.25278 5.98806 4.81858
#
# Compressibility (1/GPa) = 0.02110269
#
# Stress axis : x y z
#
# Youngs Moduli (GPa) = 27.34235 52.01088 36.22776
#
# Poissons Ratio (x) = 0.66294 0.57781
# Poissons Ratio (y) = 0.34851 0.08893
# Poissons Ratio (z) = 0.43610 0.12767
#
# Static dielectric constant tensor:
#      x y z
#    x 1.648690 0.000000 0.000000 
#    y 0.000000 1.689310 0.000000 
#    z 0.000000 0.000000 1.677180 
# 
# From -- ./inp_files/30842.got.cif
#   From: 2010.05.17/outbox.cif.g08.bks.cpg/sg53_16_cif.got.tgz:30842.got - 2010.06.03 12:45:16.
