data_PCOD9417841
_publ_section_title
;
Structure prediction by ZEFSAII (Michael W. Deem and Ramdas Pophale) SiO2 
 PCOD9417841
Probable space group: P M N A
;
_chemical_formula_sum "Si O2"
_cell_formula_units_Z 48
_cell_length_a 8.832833
_cell_length_b 19.536601
_cell_length_c 15.305459
_cell_angle_alpha 90.000000
_cell_angle_beta 90.000000
_cell_angle_gamma 90.000000
_cell_volume 2641.164095
_symmetry_space_group_name_H-M "P M N A"
_symmetry_group_IT_number 53
_symmetry_cell_setting 'orthorhombic'
loop_
_space_group_symop_operation_xyz
x,y,z
1/2-x,-y,1/2+z
x,-y,-z
1/2-x,y,1/2-z
-x,-y,-z
1/2+x,y,1/2-z
-x,y,z
1/2+x,-y,1/2+z
loop_
_atom_site_type_symbol
_atom_site_label
_atom_site_fract_x
_atom_site_fract_y
_atom_site_fract_z
Si Si1 0.177526 0.499174 0.395246
Si Si2 0.683708 0.104270 0.496153
Si Si3 0.316665 0.738227 0.498355
Si Si4 0.318332 0.651583 0.158040
Si Si5 0.320070 0.357154 0.340455
Si Si6 0.683467 0.996671 0.348384
O O1 0.190633 0.500000 0.500000
O O2 0.229702 0.572930 0.360961
O O3 0.266283 0.434380 0.359131
O O4 0.000000 0.490740 0.372865
O O5 0.500000 0.102430 0.495829
O O6 0.731784 0.182954 0.494006
O O7 0.729045 0.061914 0.409184
O O8 0.728258 0.066225 0.586657
O O9 0.500000 0.736726 0.491408
O O10 0.244941 0.701023 0.415798
O O11 0.272013 0.692931 0.581770
O O12 0.250000 0.672657 0.250000
O O13 0.500000 0.652896 0.158424
O O14 0.250000 0.333599 0.250000
O O15 0.500000 0.356358 0.335187
O O16 0.750000 0.995360 0.250000
O O17 0.500000 0.996509 0.340849
#
# Coordination Sequence:
#
# PCOD9417841 Si02
#       6
#     8   8   8   8   8   8
#     4  10  20  37  59  80 105 138 179 230 279 323
#     4   8  17  35  56  78 109 146 178 212 262 319
#     4  10  21  38  57  79 109 145 184 223 267 323
#     4  11  23  38  57  80 108 142 181 226 276 325
#     4  11  23  36  55  80 108 143 183 227 275 327
#     4   9  17  33  58  83 108 141 178 217 260 310
#
# _framework density 18.173804000000001
#
# number of rings (size 3 to 8) (size 9 to 14) (size 15 to 20)
#    0.000    2.167    1.667    2.500    0.000    5.000 
#    0.000    5.000    0.000    0.000    0.000    0.000 
#    0.000    0.000    0.000    0.000    0.000    0.000 
#
# Total GULP energy -267845.225310 kJ/mol
# GULP energy per Si atom -5580.108861 kJ/mol
# Density = 1.813244 g / cm^3
# Si number density = 18.173804 Si / 1000 Ang^3
#
#
#
# Elastic Constant Matrix: (Units=GPa)
#
#
# Indices 1 2 3 4 5 6 
#
# 1 16.6143 27.7397 36.1065 0.0000 0.0000 0.0000
# 2 27.7397 137.7378 75.9268 0.0000 0.0000 0.0000
# 3 36.1065 75.9268 161.8196 0.0000 0.0000 0.0000
# 4 0.0000 0.0000 0.0000 59.8621 0.0000 0.0000
# 5 0.0000 0.0000 0.0000 0.0000 33.4738 0.0000
# 6 0.0000 0.0000 0.0000 0.0000 0.0000 -2.8266
#
#
#
# Elastic Compliance Matrix: (Units=1/GPa)
#
#
# Indices 1 2 3 4 5 6 
#
# 1 0.134844 -0.014260 -0.023397 0.000000 0.000000 0.000000
# 2 -0.014260 0.011301 -0.002121 0.000000 0.000000 0.000000
# 3 -0.023397 -0.002121 0.012395 0.000000 0.000000 0.000000
# 4 0.000000 0.000000 0.000000 0.016705 0.000000 0.000000
# 5 0.000000 0.000000 0.000000 0.000000 0.029874 0.000000
# 6 0.000000 0.000000 0.000000 0.000000 0.000000 -0.353781
#
#
# Mechanical properties :
#
#
# Convention : Reuss Voigt Hill
#
# Bulk Modulus (GPa) = 12.66048 66.19085 39.42567
# Shear Modulus (GPa) = -116.88052 29.86178 -43.50937
#
# Velocity S-wave (km/s) = -8.02822 4.05794 -4.89823
# Velocity P-wave (km/s) = 8.88566 7.64565 3.20148
#
# Compressibility (1/GPa) = 0.07898594
#
# Stress axis : x y z
#
# Youngs Moduli (GPa) = 7.41597 88.48726 80.67571
#
# Poissons Ratio (x) = 1.26180 1.88755
# Poissons Ratio (y) = 0.10575 0.17110
# Poissons Ratio (z) = 0.17351 0.18766
#
# Static dielectric constant tensor:
#      x y z
#    x 1.614940 0.000000 0.000000 
#    y 0.000000 1.621080 0.000000 
#    z 0.000000 0.000000 1.632080 
# 
# From -- ./inp_files/20156.got.cif
#   From: 2010.05.17/outbox.cif.g08.bks.cpg/sg53_11_cif.got.tgz:20156.got - 2010.06.03 12:45:16.
