data_PCOD9417328
_publ_section_title
;
Structure prediction by ZEFSAII (Michael W. Deem and Ramdas Pophale) SiO2 
 PCOD9417328
Probable space group: P M N A
;
_chemical_formula_sum "Si O2"
_cell_formula_units_Z 64
_cell_length_a 17.165651
_cell_length_b 21.401023
_cell_length_c 9.308552
_cell_angle_alpha 90.000000
_cell_angle_beta 90.000000
_cell_angle_gamma 90.000000
_cell_volume 3419.612858
_symmetry_space_group_name_H-M "P M N A"
_symmetry_group_IT_number 53
_symmetry_cell_setting 'orthorhombic'
loop_
_space_group_symop_operation_xyz
x,y,z
1/2-x,-y,1/2+z
x,-y,-z
1/2-x,y,1/2-z
-x,-y,-z
1/2+x,y,1/2-z
-x,y,z
1/2+x,-y,1/2+z
loop_
_atom_site_type_symbol
_atom_site_label
_atom_site_fract_x
_atom_site_fract_y
_atom_site_fract_z
Si Si1 0.169732 0.004060 0.671418
Si Si2 0.592944 0.873447 0.815264
Si Si3 0.904977 0.634369 0.681617
Si Si4 0.336522 0.751801 0.308625
Si Si5 0.406431 0.363695 0.852237
Si Si6 0.909975 0.498119 0.675071
Si Si7 0.408484 0.132788 0.850746
Si Si8 0.905604 0.752364 0.879475
O O1 0.250000 0.017809 0.750000
O O2 0.111554 0.061965 0.692132
O O3 0.182076 0.000000 0.500000
O O4 0.135949 0.937733 0.723190
O O5 0.500000 0.884985 0.811931
O O6 0.609407 0.814777 0.713590
O O7 0.612914 0.858370 0.981273
O O8 0.879792 0.646106 0.516985
O O9 0.876375 0.564730 0.724295
O O10 0.885370 0.691191 0.785589
O O11 0.000000 0.631533 0.679340
O O12 0.250000 0.741157 0.250000
O O13 0.386033 0.695195 0.242551
O O14 0.363816 0.817737 0.244868
O O15 0.354347 0.752865 0.477385
O O16 0.500000 0.370068 0.858622
O O17 0.375227 0.430102 0.791553
O O18 0.911311 0.500000 0.500000
O O19 0.000000 0.497556 0.724826
O O20 0.500000 0.144191 0.836717
O O21 0.000000 0.750767 0.910477
#
# Coordination Sequence:
#
# PCOD9417328 Si02
#       8
#     8   8   8   8   8   8   8   8
#     4  10  21  36  56  83 114 144 173 209 256 311
#     4   9  19  36  59  84 106 134 175 222 266 310
#     4   8  14  28  54  84 106 129 172 227 270 308
#     4  12  25  37  49  72 108 145 179 217 264 319
#     4   9  16  31  55  78 102 138 179 215 261 321
#     4   7  11  22  47  81 106 126 165 219 264 306
#     4  10  20  38  61  80 101 135 180 222 262 312
#     4  10  20  35  55  80 109 137 173 223 271 311
#
# _framework density 18.71557
#
# number of rings (size 3 to 8) (size 9 to 14) (size 15 to 20)
#    0.000    2.625    0.000    4.125    0.000    6.500 
#    0.000    2.500    0.000   10.500    0.000    0.000 
#    0.000    0.000    0.000    0.000    0.000    0.000 
#
# Total GULP energy -356729.470771 kJ/mol
# GULP energy per Si atom -5573.897981 kJ/mol
# Density = 1.867297 g / cm^3
# Si number density = 18.715570 Si / 1000 Ang^3
#
#
#
# Elastic Constant Matrix: (Units=GPa)
#
#
# Indices 1 2 3 4 5 6 
#
# 1 18.4725 16.7490 25.0477 0.0000 0.0000 0.0000
# 2 16.7490 107.6567 57.7119 0.0000 0.0000 0.0000
# 3 25.0477 57.7119 70.9952 0.0000 0.0000 0.0000
# 4 0.0000 0.0000 0.0000 -12.9960 0.0000 0.0000
# 5 0.0000 0.0000 0.0000 0.0000 15.1524 0.0000
# 6 0.0000 0.0000 0.0000 0.0000 0.0000 -14.9791
#
#
#
# Elastic Compliance Matrix: (Units=1/GPa)
#
#
# Indices 1 2 3 4 5 6 
#
# 1 0.106149 0.006312 -0.042582 0.000000 0.000000 0.000000
# 2 0.006312 0.016838 -0.015915 0.000000 0.000000 0.000000
# 3 -0.042582 -0.015915 0.042046 0.000000 0.000000 0.000000
# 4 0.000000 0.000000 0.000000 -0.076947 0.000000 0.000000
# 5 0.000000 0.000000 0.000000 0.000000 0.065996 0.000000
# 6 0.000000 0.000000 0.000000 0.000000 0.000000 -0.066760
#
#
# Mechanical properties :
#
#
# Convention : Reuss Voigt Hill
#
# Bulk Modulus (GPa) = 16.48394 44.01574 30.24984
# Shear Modulus (GPa) = 23.59462 3.94320 13.76891
#
# Velocity S-wave (km/s) = 3.55448 1.45309 2.71531
# Velocity P-wave (km/s) = 5.06680 5.13660 5.10182
#
# Compressibility (1/GPa) = 0.06066511
#
# Stress axis : x y z
#
# Youngs Moduli (GPa) = 9.42069 59.38853 23.78358
#
# Poissons Ratio (x) = -0.37489 1.01275
# Poissons Ratio (y) = -0.05947 0.37851
# Poissons Ratio (z) = 0.40115 0.94516
#
# Static dielectric constant tensor:
#      x y z
#    x 1.638900 0.000000 0.000000 
#    y 0.000000 1.659380 0.000000 
#    z 0.000000 0.000000 1.625530 
# 
# From -- ./inp_files/10238.got.cif
#   From: 2010.05.17/outbox.cif.g08.bks.cpg/sg53_6_cif.got.tgz:10238.got - 2010.06.03 12:45:16.
