data_PCOD9417757
_publ_section_title
;
Structure prediction by ZEFSAII (Michael W. Deem and Ramdas Pophale) SiO2 
 PCOD9417757
Probable space group: P M N A
;
_chemical_formula_sum "Si O2"
_cell_formula_units_Z 48
_cell_length_a 8.678071
_cell_length_b 12.868313
_cell_length_c 24.094102
_cell_angle_alpha 90.000000
_cell_angle_beta 90.000000
_cell_angle_gamma 90.000000
_cell_volume 2690.639784
_symmetry_space_group_name_H-M "P M N A"
_symmetry_group_IT_number 53
_symmetry_cell_setting 'orthorhombic'
loop_
_space_group_symop_operation_xyz
x,y,z
1/2-x,-y,1/2+z
x,-y,-z
1/2-x,y,1/2-z
-x,-y,-z
1/2+x,y,1/2-z
-x,y,z
1/2+x,-y,1/2+z
loop_
_atom_site_type_symbol
_atom_site_label
_atom_site_fract_x
_atom_site_fract_y
_atom_site_fract_z
Si Si1 0.814027 0.192990 0.389966
Si Si2 0.184880 0.202448 0.620594
Si Si3 0.185386 0.001574 0.311405
Si Si4 0.314943 0.618318 0.810086
Si Si5 0.183893 0.388810 0.810511
Si Si6 0.184348 0.121617 0.994776
O O1 0.774799 0.298055 0.357051
O O2 0.737260 0.179548 0.449551
O O3 0.000000 0.189181 0.396393
O O4 0.766480 0.095853 0.351353
O O5 0.232254 0.107228 0.660839
O O6 0.258486 0.307251 0.644126
O O7 0.239537 0.172185 0.559252
O O8 0.000000 0.210947 0.621773
O O9 0.250000 0.013099 0.250000
O O10 0.000000 0.003452 0.308659
O O11 0.250000 0.651880 0.750000
O O12 0.500000 0.611382 0.806228
O O13 0.246783 0.504568 0.821778
O O14 0.250000 0.357830 0.750000
O O15 0.000000 0.390636 0.807743
O O16 0.000000 0.125155 0.989274
O O17 0.231234 0.000000 0.000000
#
# Coordination Sequence:
#
# PCOD9417757 Si02
#       6
#     8   8   8   8   8   8
#     4  10  21  38  58  83 114 152 193 234 283 343
#     4  11  22  38  60  83 114 153 194 238 287 343
#     4  10  21  34  53  82 114 147 182 228 284 338
#     4  10  20  36  60  87 117 152 193 235 286 343
#     4  11  22  38  60  86 119 153 193 238 288 344
#     4  11  23  38  58  85 115 153 195 238 286 341
#
# _framework density 17.839623
#
# number of rings (size 3 to 8) (size 9 to 14) (size 15 to 20)
#    0.000    1.500    1.667    5.000    0.000    5.333 
#    0.000    0.833    0.000    5.000    0.000    0.000 
#    0.000    0.000    0.000    0.000    0.000    0.000 
#
# Total GULP energy -268278.679859 kJ/mol
# GULP energy per Si atom -5589.139164 kJ/mol
# Density = 1.779902 g / cm^3
# Si number density = 17.839623 Si / 1000 Ang^3
#
#
#
# Elastic Constant Matrix: (Units=GPa)
#
#
# Indices 1 2 3 4 5 6 
#
# 1 66.0391 39.3382 33.6745 0.0000 0.0000 0.0000
# 2 39.3382 85.9939 48.8491 0.0000 0.0000 0.0000
# 3 33.6745 48.8491 96.4023 0.0000 0.0000 0.0000
# 4 0.0000 0.0000 0.0000 24.9817 0.0000 0.0000
# 5 0.0000 0.0000 0.0000 0.0000 37.1281 0.0000
# 6 0.0000 0.0000 0.0000 0.0000 0.0000 12.4764
#
#
#
# Elastic Compliance Matrix: (Units=1/GPa)
#
#
# Indices 1 2 3 4 5 6 
#
# 1 0.021657 -0.007877 -0.003574 0.000000 0.000000 0.000000
# 2 -0.007877 0.019194 -0.006974 0.000000 0.000000 0.000000
# 3 -0.003574 -0.006974 0.015156 0.000000 0.000000 0.000000
# 4 0.000000 0.000000 0.000000 0.040029 0.000000 0.000000
# 5 0.000000 0.000000 0.000000 0.000000 0.026934 0.000000
# 6 0.000000 0.000000 0.000000 0.000000 0.000000 0.080152
#
#
# Mechanical properties :
#
#
# Convention : Reuss Voigt Hill
#
# Bulk Modulus (GPa) = 52.20194 54.68432 53.44313
# Shear Modulus (GPa) = 20.29577 23.35548 21.82562
#
# Velocity S-wave (km/s) = 3.37661 3.62220 3.50156
# Velocity P-wave (km/s) = 6.67288 6.94360 6.80959
#
# Compressibility (1/GPa) = 0.01915638
#
# Stress axis : x y z
#
# Youngs Moduli (GPa) = 46.17447 52.09968 65.98233
#
# Poissons Ratio (x) = 0.41039 0.23579
# Poissons Ratio (y) = 0.36372 0.46019
# Poissons Ratio (z) = 0.16501 0.36337
#
# Static dielectric constant tensor:
#      x y z
#    x 1.599870 0.000000 0.000000 
#    y 0.000000 1.599160 0.000000 
#    z 0.000000 0.000000 1.575010 
# 
# From -- ./inp_files/33878.got.cif
#   From: 2010.05.17/outbox.cif.g08.bks.cpg/sg53_17_cif.got.tgz:33878.got - 2010.06.03 12:45:16.
