data_PCOD9417215
_publ_section_title
;
Structure prediction by ZEFSAII (Michael W. Deem and Ramdas Pophale) SiO2 
 PCOD9417215
Probable space group: P M N A
;
_chemical_formula_sum "Si O2"
_cell_formula_units_Z 64
_cell_length_a 18.724913
_cell_length_b 16.017734
_cell_length_c 11.724795
_cell_angle_alpha 90.000000
_cell_angle_beta 90.000000
_cell_angle_gamma 90.000000
_cell_volume 3516.625686
_symmetry_space_group_name_H-M "P M N A"
_symmetry_group_IT_number 53
_symmetry_cell_setting 'orthorhombic'
loop_
_space_group_symop_operation_xyz
x,y,z
1/2-x,-y,1/2+z
x,-y,-z
1/2-x,y,1/2-z
-x,-y,-z
1/2+x,y,1/2-z
-x,y,z
1/2+x,-y,1/2+z
loop_
_atom_site_type_symbol
_atom_site_label
_atom_site_fract_x
_atom_site_fract_y
_atom_site_fract_z
Si Si1 0.299145 0.591526 0.456252
Si Si2 0.787472 0.261649 0.129043
Si Si3 0.578396 0.352045 0.710651
Si Si4 0.081701 0.835809 0.770327
Si Si5 0.866846 0.408700 0.554371
Si Si6 0.584350 0.981958 0.372356
Si Si7 0.083453 0.836623 0.291454
Si Si8 0.141380 0.777073 0.531130
O O1 0.314822 0.500000 0.500000
O O2 0.303525 0.654737 0.561471
O O3 0.356368 0.618090 0.364250
O O4 0.217304 0.592733 0.412986
O O5 0.750000 0.280064 0.250000
O O6 0.859365 0.211490 0.154094
O O7 0.725792 0.214838 0.057393
O O8 0.500000 0.370279 0.661881
O O9 0.586093 0.394345 0.834285
O O10 0.584890 0.252890 0.729710
O O11 0.099537 0.814802 0.638887
O O12 0.000000 0.811283 0.796257
O O13 0.088906 0.933363 0.799677
O O14 0.880800 0.500000 0.500000
O O15 0.875409 0.323186 0.479873
O O16 0.500000 0.961308 0.389636
O O17 0.613587 0.906458 0.294792
O O18 0.613679 0.000000 0.500000
O O19 0.121377 0.821666 0.412813
O O20 0.000000 0.856932 0.315686
#
# Coordination Sequence:
#
# PCOD9417215 Si02
#       8
#     8   8   8   8   8   8   8   8
#     4  10  21  35  55  78 105 146 192 228 266 325
#     4   9  20  37  56  76 112 147 180 226 280 330
#     4  10  21  34  53  83 114 142 175 232 291 325
#     4  10  20  34  58  83 107 143 186 229 275 334
#     4   9  19  37  59  78 105 151 196 226 261 329
#     4   9  19  34  55  82 108 144 188 221 260 331
#     4   9  18  34  57  82 111 145 184 229 273 326
#     4   9  18  35  57  81 111 142 184 235 281 319
#
# _framework density 18.199263999999999
#
# number of rings (size 3 to 8) (size 9 to 14) (size 15 to 20)
#    0.000    2.625    0.000    0.750    1.750    6.000 
#    0.000    3.125    8.250    0.000    0.000    0.000 
#    0.000    0.000    0.000    0.000    0.000    0.250 
#
# Total GULP energy -356704.393686 kJ/mol
# GULP energy per Si atom -5573.506151 kJ/mol
# Density = 1.815784 g / cm^3
# Si number density = 18.199264 Si / 1000 Ang^3
#
#
#
# Elastic Constant Matrix: (Units=GPa)
#
#
# Indices 1 2 3 4 5 6 
#
# 1 67.6009 44.5562 44.5187 0.0000 0.0000 0.0000
# 2 44.5562 82.8219 55.1502 0.0000 0.0000 0.0000
# 3 44.5187 55.1502 89.7596 0.0000 0.0000 0.0000
# 4 0.0000 0.0000 0.0000 18.2676 0.0000 0.0000
# 5 0.0000 0.0000 0.0000 0.0000 29.5766 0.0000
# 6 0.0000 0.0000 0.0000 0.0000 0.0000 23.2618
#
#
#
# Elastic Compliance Matrix: (Units=1/GPa)
#
#
# Indices 1 2 3 4 5 6 
#
# 1 0.025334 -0.008906 -0.007093 0.000000 0.000000 0.000000
# 2 -0.008906 0.023565 -0.010062 0.000000 0.000000 0.000000
# 3 -0.007093 -0.010062 0.020841 0.000000 0.000000 0.000000
# 4 0.000000 0.000000 0.000000 0.054742 0.000000 0.000000
# 5 0.000000 0.000000 0.000000 0.000000 0.033811 0.000000
# 6 0.000000 0.000000 0.000000 0.000000 0.000000 0.042989
#
#
# Mechanical properties :
#
#
# Convention : Reuss Voigt Hill
#
# Bulk Modulus (GPa) = 56.75816 58.73696 57.74756
# Shear Modulus (GPa) = 19.28448 20.61835 19.95142
#
# Velocity S-wave (km/s) = 3.25873 3.36954 3.31460
# Velocity P-wave (km/s) = 6.73898 6.89078 6.81530
#
# Compressibility (1/GPa) = 0.01761861
#
# Stress axis : x y z
#
# Youngs Moduli (GPa) = 39.47320 42.43527 47.98189
#
# Poissons Ratio (x) = 0.37791 0.34034
# Poissons Ratio (y) = 0.35154 0.48279
# Poissons Ratio (z) = 0.27999 0.42698
#
# Static dielectric constant tensor:
#      x y z
#    x 1.643580 0.000000 0.000000 
#    y 0.000000 1.608830 0.000000 
#    z 0.000000 0.000000 1.625790 
# 
# From -- ./inp_files/17193.got.cif
#   From: 2010.05.17/outbox.cif.g08.bks.cpg/sg53_9_cif.got.tgz:17193.got - 2010.06.03 12:45:16.
