data_PCOD9417118
_publ_section_title
;
Structure prediction by ZEFSAII (Michael W. Deem and Ramdas Pophale) SiO2 
 PCOD9417118
Probable space group: P M N A
;
_chemical_formula_sum "Si O2"
_cell_formula_units_Z 64
_cell_length_a 8.472035
_cell_length_b 28.861651
_cell_length_c 12.756126
_cell_angle_alpha 90.000000
_cell_angle_beta 90.000000
_cell_angle_gamma 90.000000
_cell_volume 3119.088608
_symmetry_space_group_name_H-M "P M N A"
_symmetry_group_IT_number 53
_symmetry_cell_setting 'orthorhombic'
loop_
_space_group_symop_operation_xyz
x,y,z
1/2-x,-y,1/2+z
x,-y,-z
1/2-x,y,1/2-z
-x,-y,-z
1/2+x,y,1/2-z
-x,y,z
1/2+x,-y,1/2+z
loop_
_atom_site_type_symbol
_atom_site_label
_atom_site_fract_x
_atom_site_fract_y
_atom_site_fract_z
Si Si1 0.314885 0.238661 0.077928
Si Si2 0.314598 0.897615 0.421780
Si Si3 0.682971 0.507777 0.146484
Si Si4 0.312830 0.662113 0.637514
Si Si5 0.686604 0.791133 0.362047
Si Si6 0.683252 0.991938 0.129265
Si Si7 0.689809 0.864408 0.861548
Si Si8 0.685810 0.427656 0.471434
O O1 0.500000 0.242028 0.099260
O O2 0.235641 0.285114 0.118105
O O3 0.258552 0.189584 0.125740
O O4 0.279592 0.233421 0.955154
O O5 0.500000 0.909330 0.411773
O O6 0.287936 0.846424 0.375349
O O7 0.209589 0.936718 0.368982
O O8 0.266727 0.892606 0.543789
O O9 0.750000 0.530410 0.250000
O O10 0.500000 0.495750 0.151723
O O11 0.713469 0.545196 0.056641
O O12 0.786620 0.461698 0.127001
O O13 0.250000 0.647549 0.750000
O O14 0.500000 0.659490 0.638478
O O15 0.258795 0.624153 0.553032
O O16 0.750000 0.776450 0.250000
O O17 0.500000 0.782643 0.373623
O O18 0.750000 0.006742 0.250000
O O19 0.500000 0.006290 0.129325
O O20 0.737423 0.000000 0.000000
O O21 0.750000 0.881134 0.750000
O O22 0.500000 0.866414 0.869703
O O23 0.500000 0.427984 0.498856
#
# Coordination Sequence:
#
# PCOD9417118 Si02
#       8
#     8   8   8   8   8   8   8   8
#     4  10  21  36  55  79 110 147 187 231 279 333
#     4  10  21  37  60  88 118 154 195 244 297 351
#     4  11  21  35  57  82 109 141 176 220 272 323
#     4  11  23  37  56  80 109 144 181 222 269 323
#     4  10  20  35  57  84 113 145 185 231 281 335
#     4  11  25  44  66  93 126 165 209 257 309 368
#     4  10  20  34  54  82 116 154 196 243 295 351
#     4  10  21  37  56  81 110 140 179 224 268 321
#
# _framework density 20.518815
#
# number of rings (size 3 to 8) (size 9 to 14) (size 15 to 20)
#    0.000    1.625    0.000    5.625    0.000    9.500 
#    0.000    1.875    0.000    3.000    0.000    0.000 
#    0.000    0.000    0.000    0.000    0.000    0.000 
#
# Total GULP energy -356893.354908 kJ/mol
# GULP energy per Si atom -5576.458670 kJ/mol
# Density = 2.047211 g / cm^3
# Si number density = 20.518815 Si / 1000 Ang^3
#
#
#
# Elastic Constant Matrix: (Units=GPa)
#
#
# Indices 1 2 3 4 5 6 
#
# 1 26.9967 7.3493 -2.4707 0.0000 0.0000 0.0000
# 2 7.3493 72.6464 4.3986 0.0000 0.0000 0.0000
# 3 -2.4707 4.3986 99.7576 0.0000 0.0000 0.0000
# 4 0.0000 0.0000 0.0000 8.7339 0.0000 0.0000
# 5 0.0000 0.0000 0.0000 0.0000 30.7007 0.0000
# 6 0.0000 0.0000 0.0000 0.0000 0.0000 -1.5422
#
#
#
# Elastic Compliance Matrix: (Units=1/GPa)
#
#
# Indices 1 2 3 4 5 6 
#
# 1 0.038215 -0.003934 0.001120 0.000000 0.000000 0.000000
# 2 -0.003934 0.014207 -0.000724 0.000000 0.000000 0.000000
# 3 0.001120 -0.000724 0.010084 0.000000 0.000000 0.000000
# 4 0.000000 0.000000 0.000000 0.114497 0.000000 0.000000
# 5 0.000000 0.000000 0.000000 0.000000 0.032573 0.000000
# 6 0.000000 0.000000 0.000000 0.000000 0.000000 -0.648423
#
#
# Mechanical properties :
#
#
# Convention : Reuss Voigt Hill
#
# Bulk Modulus (GPa) = 18.04061 24.21724 21.12893
# Shear Modulus (GPa) = -12.09789 20.25337 4.07774
#
# Velocity S-wave (km/s) = -2.43080 3.14516 1.41125
# Velocity P-wave (km/s) = 0.96588 5.00175 3.60211
#
# Compressibility (1/GPa) = 0.05543049
#
# Stress axis : x y z
#
# Youngs Moduli (GPa) = 26.16771 70.38726 99.16747
#
# Poissons Ratio (x) = 0.27689 -0.11106
# Poissons Ratio (y) = 0.10294 0.07178
# Poissons Ratio (z) = -0.02931 0.05095
#
# Static dielectric constant tensor:
#      x y z
#    x 1.687640 0.000000 0.000000 
#    y 0.000000 1.727180 0.000000 
#    z 0.000000 0.000000 6.701370 
# 
# From -- ./inp_files/14258.got.cif
#   From: 2010.05.17/outbox.cif.g08.bks.cpg/sg53_8_cif.got.tgz:14258.got - 2010.06.03 12:45:16.
