data_PCOD9417330
_publ_section_title
;
Structure prediction by ZEFSAII (Michael W. Deem and Ramdas Pophale) SiO2 
 PCOD9417330
Probable space group: P M N A
;
_chemical_formula_sum "Si O2"
_cell_formula_units_Z 64
_cell_length_a 8.662524
_cell_length_b 22.342596
_cell_length_c 16.634196
_cell_angle_alpha 90.000000
_cell_angle_beta 90.000000
_cell_angle_gamma 90.000000
_cell_volume 3219.436755
_symmetry_space_group_name_H-M "P M N A"
_symmetry_group_IT_number 53
_symmetry_cell_setting 'orthorhombic'
loop_
_space_group_symop_operation_xyz
x,y,z
1/2-x,-y,1/2+z
x,-y,-z
1/2-x,y,1/2-z
-x,-y,-z
1/2+x,y,1/2-z
-x,y,z
1/2+x,-y,1/2+z
loop_
_atom_site_type_symbol
_atom_site_label
_atom_site_fract_x
_atom_site_fract_y
_atom_site_fract_z
Si Si1 0.314917 0.429368 0.997512
Si Si2 0.813737 0.126695 0.837797
Si Si3 0.314731 0.248632 0.579666
Si Si4 0.811812 0.000138 0.092808
Si Si5 0.183459 0.368311 0.836400
Si Si6 0.182860 0.755935 0.590289
Si Si7 0.313685 0.366365 0.164297
Si Si8 0.815632 0.126906 0.162420
O O1 0.500000 0.420296 0.993265
O O2 0.244602 0.401878 0.916047
O O3 0.283243 0.500000 0.000000
O O4 0.262633 0.400673 0.082848
O O5 0.750000 0.138626 0.750000
O O6 0.768810 0.181844 0.894475
O O7 0.759138 0.061411 0.866586
O O8 0.000000 0.125657 0.836161
O O9 0.500000 0.249542 0.565351
O O10 0.280517 0.298101 0.647078
O O11 0.227085 0.265380 0.498615
O O12 0.000000 0.000150 0.095328
O O13 0.759258 0.061529 0.134005
O O14 0.765858 0.000000 0.000000
O O15 0.250000 0.387305 0.750000
O O16 0.000000 0.375247 0.833650
O O17 0.231952 0.703164 0.650648
O O18 0.263822 0.818999 0.605972
O O19 0.000000 0.763719 0.597557
O O20 0.250000 0.388110 0.250000
O O21 0.500000 0.369555 0.166791
O O22 0.750000 0.139696 0.250000
O O23 0.000000 0.125289 0.164503
#
# Coordination Sequence:
#
# PCOD9417330 Si02
#       8
#     8   8   8   8   8   8   8   8
#     4  10  22  43  67  92 126 165 206 254 305 359
#     4  10  20  35  55  80 110 146 191 238 294 353
#     4  10  21  37  59  87 117 155 199 246 299 357
#     4   9  18  34  55  76 103 144 189 238 292 351
#     4  11  23  39  63  94 129 168 209 255 307 363
#     4  11  22  37  59  86 116 152 196 247 302 355
#     4  10  22  39  61  90 121 158 199 247 302 357
#     4  11  22  36  55  80 112 149 192 240 294 355
#
# _framework density 19.879254
#
# number of rings (size 3 to 8) (size 9 to 14) (size 15 to 20)
#    0.000    1.750    1.250    3.000    0.000    6.250 
#    0.000    1.875    0.000    2.625    0.000    0.000 
#    0.000    0.000    0.000    0.000    0.000    0.000 
#
# Total GULP energy -357405.760821 kJ/mol
# GULP energy per Si atom -5584.465013 kJ/mol
# Density = 1.983401 g / cm^3
# Si number density = 19.879254 Si / 1000 Ang^3
#
#
#
# Elastic Constant Matrix: (Units=GPa)
#
#
# Indices 1 2 3 4 5 6 
#
# 1 18.0007 34.9168 26.9473 0.0000 0.0000 0.0000
# 2 34.9168 98.0539 49.1380 0.0000 0.0000 0.0000
# 3 26.9473 49.1380 137.3310 0.0000 0.0000 0.0000
# 4 0.0000 0.0000 0.0000 21.1491 0.0000 0.0000
# 5 0.0000 0.0000 0.0000 0.0000 33.0647 0.0000
# 6 0.0000 0.0000 0.0000 0.0000 0.0000 -36.4441
#
#
#
# Elastic Compliance Matrix: (Units=1/GPa)
#
#
# Indices 1 2 3 4 5 6 
#
# 1 0.209439 -0.065781 -0.017559 0.000000 0.000000 0.000000
# 2 -0.065781 0.033087 0.001069 0.000000 0.000000 0.000000
# 3 -0.017559 0.001069 0.010345 0.000000 0.000000 0.000000
# 4 0.000000 0.000000 0.000000 0.047283 0.000000 0.000000
# 5 0.000000 0.000000 0.000000 0.000000 0.030244 0.000000
# 6 0.000000 0.000000 0.000000 0.000000 0.000000 -0.027439
#
#
# Mechanical properties :
#
#
# Convention : Reuss Voigt Hill
#
# Bulk Modulus (GPa) = 11.32151 52.82108 32.07130
# Shear Modulus (GPa) = 10.06149 13.04619 11.55384
#
# Velocity S-wave (km/s) = 2.25217 2.56456 2.41343
# Velocity P-wave (km/s) = 3.53137 5.94962 4.89226
#
# Compressibility (1/GPa) = 0.08832741
#
# Stress axis : x y z
#
# Youngs Moduli (GPa) = 4.77467 30.22300 96.66691
#
# Poissons Ratio (x) = 1.98810 1.69741
# Poissons Ratio (y) = 0.31408 -0.10331
# Poissons Ratio (z) = 0.08384 -0.03230
#
# Static dielectric constant tensor:
#      x y z
#    x 1.673930 0.000000 0.000000 
#    y 0.000000 1.726520 0.000000 
#    z 0.000000 0.000000 1.692050 
# 
# From -- ./inp_files/20922.got.cif
#   From: 2010.05.17/outbox.cif.g08.bks.cpg/sg53_11_cif.got.tgz:20922.got - 2010.06.03 12:45:16.
