data_PCOD9417809
_publ_section_title
;
Structure prediction by ZEFSAII (Michael W. Deem and Ramdas Pophale) SiO2 
 PCOD9417809
Probable space group: P M N A
;
_chemical_formula_sum "Si O2"
_cell_formula_units_Z 48
_cell_length_a 24.160919
_cell_length_b 8.873576
_cell_length_c 10.522681
_cell_angle_alpha 90.000000
_cell_angle_beta 90.000000
_cell_angle_gamma 90.000000
_cell_volume 2255.997050
_symmetry_space_group_name_H-M "P M N A"
_symmetry_group_IT_number 53
_symmetry_cell_setting 'orthorhombic'
loop_
_space_group_symop_operation_xyz
x,y,z
1/2-x,-y,1/2+z
x,-y,-z
1/2-x,y,1/2-z
-x,-y,-z
1/2+x,y,1/2-z
-x,y,z
1/2+x,-y,1/2+z
loop_
_atom_site_type_symbol
_atom_site_label
_atom_site_fract_x
_atom_site_fract_y
_atom_site_fract_z
Si Si1 0.062043 0.211481 0.694664
Si Si2 0.340340 0.702166 0.726753
Si Si3 0.285361 0.179602 0.511546
Si Si4 0.936468 0.081817 0.134497
Si Si5 0.125845 0.401283 0.874349
Si Si6 0.337692 0.820294 0.011418
O O1 0.072911 0.327264 0.809511
O O2 0.111063 0.235877 0.594589
O O3 0.000000 0.226763 0.642566
O O4 0.067730 0.045608 0.756591
O O5 0.291925 0.754459 0.631158
O O6 0.393926 0.786596 0.666012
O O7 0.346796 0.523511 0.718297
O O8 0.337343 0.754187 0.870482
O O9 0.331304 0.267633 0.592463
O O10 0.223941 0.207580 0.565119
O O11 0.294081 0.000000 0.500000
O O12 0.000000 0.135325 0.129418
O O13 0.924752 0.000000 0.000000
O O14 0.114572 0.500000 0.000000
O O15 0.343796 0.000000 0.000000
#
# Coordination Sequence:
#
# PCOD9417809 Si02
#       6
#     8   8   8   8   8   8
#     4  11  24  43  66  96 134 179 230 276 331 403
#     4  11  21  41  64  96 136 170 224 269 336 406
#     4  10  22  42  69  95 127 171 226 279 332 396
#     4  10  20  36  65  97 130 175 229 286 330 381
#     4  10  23  43  65 100 131 174 218 285 337 395
#     4  11  24  42  66  98 132 180 219 273 331 404
#
# _framework density 21.276624999999999
#
# number of rings (size 3 to 8) (size 9 to 14) (size 15 to 20)
#    0.000    1.500    1.667    4.000    0.000    3.333 
#   15.000    0.833    0.000    0.000    0.000    0.000 
#    0.000    0.000    0.000    0.000    0.000    0.000 
#
# Total GULP energy -268329.615940 kJ/mol
# GULP energy per Si atom -5590.200332 kJ/mol
# Density = 2.122820 g / cm^3
# Si number density = 21.276625 Si / 1000 Ang^3
#
#
#
# Elastic Constant Matrix: (Units=GPa)
#
#
# Indices 1 2 3 4 5 6 
#
# 1 154.2057 36.0617 37.8152 0.0000 0.0000 0.0000
# 2 36.0617 102.4037 14.1590 0.0000 0.0000 0.0000
# 3 37.8152 14.1590 59.3148 0.0000 0.0000 0.0000
# 4 0.0000 0.0000 0.0000 26.3795 0.0000 0.0000
# 5 0.0000 0.0000 0.0000 0.0000 36.5836 0.0000
# 6 0.0000 0.0000 0.0000 0.0000 0.0000 -50.4795
#
#
#
# Elastic Compliance Matrix: (Units=1/GPa)
#
#
# Indices 1 2 3 4 5 6 
#
# 1 0.008149 -0.002225 -0.004664 0.000000 0.000000 0.000000
# 2 -0.002225 0.010706 -0.001137 0.000000 0.000000 0.000000
# 3 -0.004664 -0.001137 0.020104 0.000000 0.000000 0.000000
# 4 0.000000 0.000000 0.000000 0.037908 0.000000 0.000000
# 5 0.000000 0.000000 0.000000 0.000000 0.027335 0.000000
# 6 0.000000 0.000000 0.000000 0.000000 0.000000 -0.019810
#
#
# Mechanical properties :
#
#
# Convention : Reuss Voigt Hill
#
# Bulk Modulus (GPa) = 43.65517 54.66621 49.16069
# Shear Modulus (GPa) = 46.26210 17.68926 31.97568
#
# Velocity S-wave (km/s) = 4.66801 2.88652 3.88087
# Velocity P-wave (km/s) = 7.04388 6.07109 6.57550
#
# Compressibility (1/GPa) = 0.02290679
#
# Stress axis : x y z
#
# Youngs Moduli (GPa) = 122.71636 93.40582 49.74084
#
# Poissons Ratio (x) = 0.20780 0.23200
# Poissons Ratio (y) = 0.27301 0.05657
# Poissons Ratio (z) = 0.57236 0.10623
#
# Static dielectric constant tensor:
#      x y z
#    x 1.776950 0.000000 0.000000 
#    y 0.000000 1.744320 0.000000 
#    z 0.000000 0.000000 1.765040 
# 
# From -- ./inp_files/18248.got.cif
#   From: 2010.05.17/outbox.cif.g08.bks.cpg/sg53_10_cif.got.tgz:18248.got - 2010.06.03 12:45:16.
