data_PCOD9417369
_publ_section_title
;
Structure prediction by ZEFSAII (Michael W. Deem and Ramdas Pophale) SiO2 
 PCOD9417369
Probable space group: P M N A
;
_chemical_formula_sum "Si O2"
_cell_formula_units_Z 64
_cell_length_a 8.717193
_cell_length_b 20.779564
_cell_length_c 19.552015
_cell_angle_alpha 90.000000
_cell_angle_beta 90.000000
_cell_angle_gamma 90.000000
_cell_volume 3541.641631
_symmetry_space_group_name_H-M "P M N A"
_symmetry_group_IT_number 53
_symmetry_cell_setting 'orthorhombic'
loop_
_space_group_symop_operation_xyz
x,y,z
1/2-x,-y,1/2+z
x,-y,-z
1/2-x,y,1/2-z
-x,-y,-z
1/2+x,y,1/2-z
-x,y,z
1/2+x,-y,1/2+z
loop_
_atom_site_type_symbol
_atom_site_label
_atom_site_fract_x
_atom_site_fract_y
_atom_site_fract_z
Si Si1 0.823130 0.004165 0.416929
Si Si2 0.316120 0.498048 0.080036
Si Si3 0.182954 0.246381 0.324741
Si Si4 0.681123 0.862106 0.578876
Si Si5 0.816863 0.392577 0.825318
Si Si6 0.815639 0.137266 0.573436
Si Si7 0.183138 0.758131 0.174916
Si Si8 0.683555 0.386546 0.325549
O O1 0.773242 0.932762 0.394953
O O2 0.000000 0.015292 0.396659
O O3 0.820475 0.000000 0.500000
O O4 0.723974 0.065639 0.396906
O O5 0.500000 0.492923 0.085054
O O6 0.259608 0.561781 0.118930
O O7 0.240790 0.438395 0.119872
O O8 0.273934 0.500000 0.000000
O O9 0.250000 0.230664 0.250000
O O10 0.232683 0.191196 0.376784
O O11 0.254170 0.315640 0.343876
O O12 0.000000 0.252134 0.321149
O O13 0.500000 0.852069 0.582850
O O14 0.737954 0.857044 0.500643
O O15 0.750000 0.407136 0.750000
O O16 0.786301 0.317263 0.839895
O O17 0.000000 0.402613 0.824321
O O18 0.761717 0.194951 0.621001
O O19 0.000000 0.136891 0.564834
O O20 0.250000 0.771381 0.250000
O O21 0.000000 0.767454 0.174588
O O22 0.750000 0.402169 0.250000
O O23 0.500000 0.385836 0.321878
#
# Coordination Sequence:
#
# PCOD9417369 Si02
#       8
#     8   8   8   8   8   8   8   8
#     4   8  16  32  52  76 107 144 185 227 274 328
#     4  11  24  40  58  83 115 148 183 226 275 323
#     4  11  22  39  60  83 113 146 184 228 276 328
#     4  11  21  34  55  83 112 145 186 229 276 329
#     4  10  21  38  60  83 109 144 184 225 270 325
#     4  10  20  35  56  81 111 147 186 230 279 329
#     4  10  21  37  57  82 112 145 184 229 278 332
#     4  11  22  39  62  85 112 146 186 226 269 327
#
# _framework density 18.070716000000001
#
# number of rings (size 3 to 8) (size 9 to 14) (size 15 to 20)
#    0.000    1.750    0.000    6.750    0.000    6.250 
#    0.000    3.125    0.000    3.000    0.000    0.000 
#    0.000    0.000    0.000    0.000    0.000    0.000 
#
# Total GULP energy -357505.938114 kJ/mol
# GULP energy per Si atom -5586.030283 kJ/mol
# Density = 1.802959 g / cm^3
# Si number density = 18.070716 Si / 1000 Ang^3
#
#
#
# Elastic Constant Matrix: (Units=GPa)
#
#
# Indices 1 2 3 4 5 6 
#
# 1 120.7069 62.9980 53.0332 0.0000 0.0000 0.0000
# 2 62.9980 112.1373 81.5707 0.0000 0.0000 0.0000
# 3 53.0332 81.5707 85.9147 0.0000 0.0000 0.0000
# 4 0.0000 0.0000 0.0000 35.9690 0.0000 0.0000
# 5 0.0000 0.0000 0.0000 0.0000 28.8877 0.0000
# 6 0.0000 0.0000 0.0000 0.0000 0.0000 40.8442
#
#
#
# Elastic Compliance Matrix: (Units=1/GPa)
#
#
# Indices 1 2 3 4 5 6 
#
# 1 0.011996 -0.004373 -0.003253 0.000000 0.000000 0.000000
# 2 -0.004373 0.030420 -0.026183 0.000000 0.000000 0.000000
# 3 -0.003253 -0.026183 0.038506 0.000000 0.000000 0.000000
# 4 0.000000 0.000000 0.000000 0.027802 0.000000 0.000000
# 5 0.000000 0.000000 0.000000 0.000000 0.034617 0.000000
# 6 0.000000 0.000000 0.000000 0.000000 0.000000 0.024483
#
#
# Mechanical properties :
#
#
# Convention : Reuss Voigt Hill
#
# Bulk Modulus (GPa) = 75.15906 79.32921 77.24414
# Shear Modulus (GPa) = 20.84403 29.21731 25.03067
#
# Velocity S-wave (km/s) = 3.39996 4.02535 3.72580
# Velocity P-wave (km/s) = 7.55612 8.09933 7.83244
#
# Compressibility (1/GPa) = 0.01330512
#
# Stress axis : x y z
#
# Youngs Moduli (GPa) = 83.36062 32.87294 25.96977
#
# Poissons Ratio (x) = 0.14376 0.08448
# Poissons Ratio (y) = 0.36454 0.67996
# Poissons Ratio (z) = 0.27117 0.86070
#
# Static dielectric constant tensor:
#      x y z
#    x 1.603770 0.000000 0.000000 
#    y 0.000000 1.625060 0.000000 
#    z 0.000000 0.000000 1.590170 
# 
# From -- ./inp_files/27001.got.cif
#   From: 2010.05.17/outbox.cif.g08.bks.cpg/sg53_14_cif.got.tgz:27001.got - 2010.06.03 12:45:16.
