data_PCOD9417666
_publ_section_title
;
Structure prediction by ZEFSAII (Michael W. Deem and Ramdas Pophale) SiO2 
 PCOD9417666
Probable space group: P M N A
;
_chemical_formula_sum "Si O2"
_cell_formula_units_Z 48
_cell_length_a 8.194456
_cell_length_b 10.052714
_cell_length_c 23.925110
_cell_angle_alpha 90.000000
_cell_angle_beta 90.000000
_cell_angle_gamma 90.000000
_cell_volume 1970.867364
_symmetry_space_group_name_H-M "P M N A"
_symmetry_group_IT_number 53
_symmetry_cell_setting 'orthorhombic'
loop_
_space_group_symop_operation_xyz
x,y,z
1/2-x,-y,1/2+z
x,-y,-z
1/2-x,y,1/2-z
-x,-y,-z
1/2+x,y,1/2-z
-x,y,z
1/2+x,-y,1/2+z
loop_
_atom_site_type_symbol
_atom_site_label
_atom_site_fract_x
_atom_site_fract_y
_atom_site_fract_z
Si Si1 0.196009 0.181121 0.690472
Si Si2 0.684814 0.163497 0.454780
Si Si3 0.803828 0.745218 0.432511
Si Si4 0.312170 0.553283 0.926586
Si Si5 0.687687 0.398254 0.310751
Si Si6 0.810129 0.112758 0.338035
O O1 0.250000 0.239137 0.750000
O O2 0.258085 0.234631 0.630676
O O3 0.000000 0.188959 0.688687
O O4 0.243140 0.025399 0.688346
O O5 0.500000 0.119086 0.447697
O O6 0.737230 0.157721 0.519391
O O7 0.700768 0.321628 0.441000
O O8 0.792539 0.100870 0.405442
O O9 0.768220 0.591769 0.448866
O O10 0.000000 0.758523 0.432056
O O11 0.500000 0.585900 0.941499
O O12 0.298740 0.541735 0.859452
O O13 0.750000 0.435291 0.250000
O O14 0.500000 0.435981 0.318912
O O15 0.707187 0.238417 0.317685
O O16 0.000000 0.138843 0.325066
#
# Coordination Sequence:
#
# PCOD9417666 Si02
#       6
#     8   8   8   8   8   8
#     4  10  23  41  61  84 112 149 189 230 276 330
#     4  11  22  36  58  88 117 145 184 234 283 330
#     4  10  22  40  59  82 114 152 189 225 275 336
#     4  10  20  36  58  82 112 150 189 231 281 337
#     4  11  21  34  54  81 113 146 187 237 285 335
#     4  10  20  37  60  84 112 146 185 231 284 336
#
# _framework density 24.354756999999999
#
# number of rings (size 3 to 8) (size 9 to 14) (size 15 to 20)
#    0.000    1.667    0.000    7.000    0.000    8.000 
#    0.000    5.000    0.000    0.000    0.000    0.000 
#    0.000    0.000    0.000    0.000    0.000    0.000 
#
# Total GULP energy -268585.047465 kJ/mol
# GULP energy per Si atom -5595.521822 kJ/mol
# Density = 2.429932 g / cm^3
# Si number density = 24.354757 Si / 1000 Ang^3
#
#
#
# Elastic Constant Matrix: (Units=GPa)
#
#
# Indices 1 2 3 4 5 6 
#
# 1 36.5642 7.5189 -6.4669 0.0000 0.0000 0.0000
# 2 7.5189 47.0296 6.2825 0.0000 0.0000 0.0000
# 3 -6.4669 6.2825 156.9194 0.0000 0.0000 0.0000
# 4 0.0000 0.0000 0.0000 20.2592 0.0000 0.0000
# 5 0.0000 0.0000 0.0000 0.0000 221.1952 0.0000
# 6 0.0000 0.0000 0.0000 0.0000 0.0000 11.1709
#
#
#
# Elastic Compliance Matrix: (Units=1/GPa)
#
#
# Indices 1 2 3 4 5 6 
#
# 1 0.028568 -0.004750 0.001367 0.000000 0.000000 0.000000
# 2 -0.004750 0.022167 -0.001083 0.000000 0.000000 0.000000
# 3 0.001367 -0.001083 0.006472 0.000000 0.000000 0.000000
# 4 0.000000 0.000000 0.000000 0.049360 0.000000 0.000000
# 5 0.000000 0.000000 0.000000 0.000000 0.004521 0.000000
# 6 0.000000 0.000000 0.000000 0.000000 0.000000 0.089518
#
#
# Mechanical properties :
#
#
# Convention : Reuss Voigt Hill
#
# Bulk Modulus (GPa) = 20.71423 28.35359 24.53391
# Shear Modulus (GPa) = 22.16011 66.07031 44.11521
#
# Velocity S-wave (km/s) = 3.01971 5.21413 4.26062
# Velocity P-wave (km/s) = 4.54773 6.92219 5.85656
#
# Compressibility (1/GPa) = 0.04827600
#
# Stress axis : x y z
#
# Youngs Moduli (GPa) = 35.00448 45.11149 154.50160
#
# Poissons Ratio (x) = 0.21428 -0.21128
# Poissons Ratio (y) = 0.16627 0.16736
# Poissons Ratio (z) = -0.04787 0.04887
#
# Static dielectric constant tensor:
#      x y z
#    x 1.814240 0.000000 0.000000 
#    y 0.000000 1.961980 0.000000 
#    z 0.000000 0.000000 2.009550 
# 
# From -- ./inp_files/33929.got.cif
#   From: 2010.05.17/outbox.cif.g08.bks.cpg/sg53_17_cif.got.tgz:33929.got - 2010.06.03 12:45:16.
