data_PCOD9417786
_publ_section_title
;
Structure prediction by ZEFSAII (Michael W. Deem and Ramdas Pophale) SiO2 
 PCOD9417786
Probable space group: P M N A
;
_chemical_formula_sum "Si O2"
_cell_formula_units_Z 40
_cell_length_a 13.389921
_cell_length_b 9.639073
_cell_length_c 15.656694
_cell_angle_alpha 90.000000
_cell_angle_beta 90.000000
_cell_angle_gamma 90.000000
_cell_volume 2020.753537
_symmetry_space_group_name_H-M "P M N A"
_symmetry_group_IT_number 53
_symmetry_cell_setting 'orthorhombic'
loop_
_space_group_symop_operation_xyz
x,y,z
1/2-x,-y,1/2+z
x,-y,-z
1/2-x,y,1/2-z
-x,-y,-z
1/2+x,y,1/2-z
-x,y,z
1/2+x,-y,1/2+z
loop_
_atom_site_type_symbol
_atom_site_label
_atom_site_fract_x
_atom_site_fract_y
_atom_site_fract_z
Si Si1 0.879857 0.204167 0.808041
Si Si2 0.250000 0.669628 0.750000
Si Si3 0.380537 0.570789 0.166459
Si Si4 0.618060 0.894599 0.652899
Si Si5 0.773845 0.500000 0.500000
Si Si6 0.883799 0.715879 0.999757
O O1 0.852497 0.297027 0.726029
O O2 0.000000 0.194652 0.804446
O O3 0.844663 0.045670 0.817820
O O4 0.859524 0.275013 0.899703
O O5 0.173794 0.565119 0.703185
O O6 0.180576 0.774060 0.803138
O O7 0.500000 0.556869 0.169547
O O8 0.341962 0.576596 0.069477
O O9 0.500000 0.883821 0.674309
O O10 0.625029 0.859697 0.551790
O O11 0.695634 0.390308 0.460758
O O12 0.000000 0.671947 0.990461
#
# Coordination Sequence:
#
# PCOD9417786 Si02
#       6
#     8   4   8   8   4   8
#     4   9  20  39  63  88 120 159 201 255 314 374
#     4  12  22  38  60  88 120 160 198 256 310 374
#     4  11  24  41  60  88 124 165 210 253 301 367
#     4  10  21  38  61  91 123 156 200 256 316 373
#     4  12  22  38  60  88 126 170 210 250 306 368
#     4  10  20  36  61  93 127 155 198 260 321 374
#
# _framework density 19.794595999999999
#
# number of rings (size 3 to 8) (size 9 to 14) (size 15 to 20)
#    0.000    1.600    2.000    3.000    0.000    4.800 
#    0.000    0.000    0.000    0.000    0.000    7.000 
#    0.000    0.000    0.000    0.000    0.000    0.000 
#
# Total GULP energy -223051.658725 kJ/mol
# GULP energy per Si atom -5576.291468 kJ/mol
# Density = 1.974954 g / cm^3
# Si number density = 19.794596 Si / 1000 Ang^3
#
#
#
# Elastic Constant Matrix: (Units=GPa)
#
#
# Indices 1 2 3 4 5 6 
#
# 1 115.0113 39.8007 37.2030 0.0000 0.0000 0.0000
# 2 39.8007 130.8392 50.6704 0.0000 0.0000 0.0000
# 3 37.2030 50.6704 103.3837 0.0000 0.0000 0.0000
# 4 0.0000 0.0000 0.0000 33.5572 0.0000 0.0000
# 5 0.0000 0.0000 0.0000 0.0000 24.1259 0.0000
# 6 0.0000 0.0000 0.0000 0.0000 0.0000 14.5220
#
#
#
# Elastic Compliance Matrix: (Units=1/GPa)
#
#
# Indices 1 2 3 4 5 6 
#
# 1 0.010284 -0.002092 -0.002675 0.000000 0.000000 0.000000
# 2 -0.002092 0.009859 -0.004079 0.000000 0.000000 0.000000
# 3 -0.002675 -0.004079 0.012635 0.000000 0.000000 0.000000
# 4 0.000000 0.000000 0.000000 0.029800 0.000000 0.000000
# 5 0.000000 0.000000 0.000000 0.000000 0.041449 0.000000
# 6 0.000000 0.000000 0.000000 0.000000 0.000000 0.068861
#
#
# Mechanical properties :
#
#
# Convention : Reuss Voigt Hill
#
# Bulk Modulus (GPa) = 66.29375 67.17582 66.73478
# Shear Modulus (GPa) = 25.56100 29.21170 27.38635
#
# Velocity S-wave (km/s) = 3.59738 3.84571 3.72361
# Velocity P-wave (km/s) = 7.12870 7.33003 7.23007
#
# Compressibility (1/GPa) = 0.01508438
#
# Stress axis : x y z
#
# Youngs Moduli (GPa) = 97.23585 101.42774 79.14679
#
# Poissons Ratio (x) = 0.21222 0.21174
# Poissons Ratio (y) = 0.20345 0.32286
# Poissons Ratio (z) = 0.26014 0.41375
#
# Static dielectric constant tensor:
#      x y z
#    x 1.682570 0.000000 0.000000 
#    y 0.000000 1.708310 0.000000 
#    z 0.000000 0.000000 1.748180 
# 
# From -- ./inp_files/22469.got.cif
#   From: 2010.05.17/outbox.cif.g08.bks.cpg/sg53_12_cif.got.tgz:22469.got - 2010.06.03 12:45:16.
