data_PCOD9417545
_publ_section_title
;
Structure prediction by ZEFSAII (Michael W. Deem and Ramdas Pophale) SiO2 
 PCOD9417545
Probable space group: P M N A
;
_chemical_formula_sum "Si O2"
_cell_formula_units_Z 64
_cell_length_a 8.544711
_cell_length_b 19.709620
_cell_length_c 19.590418
_cell_angle_alpha 90.000000
_cell_angle_beta 90.000000
_cell_angle_gamma 90.000000
_cell_volume 3299.281200
_symmetry_space_group_name_H-M "P M N A"
_symmetry_group_IT_number 53
_symmetry_cell_setting 'orthorhombic'
loop_
_space_group_symop_operation_xyz
x,y,z
1/2-x,-y,1/2+z
x,-y,-z
1/2-x,y,1/2-z
-x,-y,-z
1/2+x,y,1/2-z
-x,y,z
1/2+x,-y,1/2+z
loop_
_atom_site_type_symbol
_atom_site_label
_atom_site_fract_x
_atom_site_fract_y
_atom_site_fract_z
Si Si1 0.175470 0.785397 0.966546
Si Si2 0.822141 0.277868 0.883418
Si Si3 0.187190 0.527596 0.827012
Si Si4 0.686299 0.932918 0.958958
Si Si5 0.688195 0.007030 0.327283
Si Si6 0.688551 0.859885 0.325306
Si Si7 0.310002 0.643081 0.572207
Si Si8 0.183322 0.587554 0.427789
O O1 0.256039 0.857665 0.978574
O O2 0.247085 0.721678 0.924727
O O3 0.000000 0.800002 0.940508
O O4 0.162984 0.749356 0.039798
O O5 0.749025 0.212697 0.847372
O O6 0.718464 0.344282 0.884703
O O7 0.000000 0.293243 0.858881
O O8 0.250000 0.517997 0.750000
O O9 0.234206 0.599261 0.861697
O O10 0.242451 0.472213 0.882898
O O11 0.000000 0.524676 0.823656
O O12 0.500000 0.933896 0.964669
O O13 0.739095 0.941401 0.880512
O O14 0.747359 0.000000 0.000000
O O15 0.750000 0.015049 0.250000
O O16 0.500000 0.010871 0.325987
O O17 0.733089 0.932035 0.357318
O O18 0.750000 0.869319 0.250000
O O19 0.500000 0.855058 0.330166
O O20 0.500000 0.645780 0.567984
O O21 0.253481 0.604018 0.503168
O O22 0.000000 0.575292 0.435784
#
# Coordination Sequence:
#
# PCOD9417545 Si02
#       8
#     8   8   8   8   8   8   8   8
#     4   9  18  35  58  81 105 138 183 230 278 332
#     4   9  18  34  53  75 107 144 181 223 272 325
#     4  11  23  40  61  85 115 148 184 229 281 331
#     4  11  23  36  53  82 117 149 184 230 280 328
#     4  10  20  36  56  77 104 140 183 228 277 333
#     4   9  18  31  49  72  99 136 179 221 267 324
#     4   9  20  40  63  84 110 147 187 229 279 333
#     4  11  22  35  56  86 116 148 187 228 272 327
#
# _framework density 19.398164999999999
#
# number of rings (size 3 to 8) (size 9 to 14) (size 15 to 20)
#    0.000    2.125    0.000    4.125    0.000    8.000 
#    0.000    1.875    0.000    1.500    0.000    0.000 
#    0.000    0.000    0.000    0.000    0.000    0.000 
#
# Total GULP energy -356414.583766 kJ/mol
# GULP energy per Si atom -5568.977871 kJ/mol
# Density = 1.935401 g / cm^3
# Si number density = 19.398165 Si / 1000 Ang^3
#
#
#
# Elastic Constant Matrix: (Units=GPa)
#
#
# Indices 1 2 3 4 5 6 
#
# 1 39.3465 28.9882 10.1828 0.0000 0.0000 0.0000
# 2 28.9882 117.7271 34.7860 0.0000 0.0000 0.0000
# 3 10.1828 34.7860 54.5720 0.0000 0.0000 0.0000
# 4 0.0000 0.0000 0.0000 31.4845 0.0000 0.0000
# 5 0.0000 0.0000 0.0000 0.0000 22.6011 0.0000
# 6 0.0000 0.0000 0.0000 0.0000 0.0000 19.9627
#
#
#
# Elastic Compliance Matrix: (Units=1/GPa)
#
#
# Indices 1 2 3 4 5 6 
#
# 1 0.031105 -0.007323 -0.001136 0.000000 0.000000 0.000000
# 2 -0.007323 0.012190 -0.006404 0.000000 0.000000 0.000000
# 3 -0.001136 -0.006404 0.022618 0.000000 0.000000 0.000000
# 4 0.000000 0.000000 0.000000 0.031762 0.000000 0.000000
# 5 0.000000 0.000000 0.000000 0.000000 0.044246 0.000000
# 6 0.000000 0.000000 0.000000 0.000000 0.000000 0.050094
#
#
# Mechanical properties :
#
#
# Convention : Reuss Voigt Hill
#
# Bulk Modulus (GPa) = 27.63426 39.95106 33.79266
# Shear Modulus (GPa) = 21.38572 23.98889 22.68731
#
# Velocity S-wave (km/s) = 3.32393 3.52043 3.42359
# Velocity P-wave (km/s) = 5.38592 6.09627 5.75207
#
# Compressibility (1/GPa) = 0.03618696
#
# Stress axis : x y z
#
# Youngs Moduli (GPa) = 32.14961 82.03722 44.21215
#
# Poissons Ratio (x) = 0.60079 0.05022
# Poissons Ratio (y) = 0.23544 0.28312
# Poissons Ratio (z) = 0.03652 0.52533
#
# Static dielectric constant tensor:
#      x y z
#    x 1.669370 0.000000 0.000000 
#    y 0.000000 1.750390 0.000000 
#    z 0.000000 0.000000 1.720430 
# 
# From -- ./inp_files/31183.got.cif
#   From: 2010.05.17/outbox.cif.g08.bks.cpg/sg53_16_cif.got.tgz:31183.got - 2010.06.03 12:45:16.
