data_PCOD9417680
_publ_section_title
;
Structure prediction by ZEFSAII (Michael W. Deem and Ramdas Pophale) SiO2 
 PCOD9417680
Probable space group: P M N A
;
_chemical_formula_sum "Si O2"
_cell_formula_units_Z 64
_cell_length_a 7.833511
_cell_length_b 12.210612
_cell_length_c 30.961706
_cell_angle_alpha 90.000000
_cell_angle_beta 90.000000
_cell_angle_gamma 90.000000
_cell_volume 2961.547970
_symmetry_space_group_name_H-M "P M N A"
_symmetry_group_IT_number 53
_symmetry_cell_setting 'orthorhombic'
loop_
_space_group_symop_operation_xyz
x,y,z
1/2-x,-y,1/2+z
x,-y,-z
1/2-x,y,1/2-z
-x,-y,-z
1/2+x,y,1/2-z
-x,y,z
1/2+x,-y,1/2+z
loop_
_atom_site_type_symbol
_atom_site_label
_atom_site_fract_x
_atom_site_fract_y
_atom_site_fract_z
Si Si1 0.795448 0.904742 0.202792
Si Si2 0.295670 0.939314 0.940073
Si Si3 0.709031 0.574998 0.041097
Si Si4 0.208328 0.828145 0.470554
Si Si5 0.793905 0.106652 0.153125
Si Si6 0.205200 0.343820 0.798099
Si Si7 0.196931 0.310784 0.202523
Si Si8 0.196411 0.485188 0.367119
O O1 0.750000 0.948819 0.250000
O O2 0.728989 0.987905 0.167429
O O3 0.000000 0.897998 0.199681
O O4 0.731921 0.781217 0.199775
O O5 0.500000 0.944715 0.943290
O O6 0.248745 0.877577 0.896571
O O7 0.235699 0.067025 0.941363
O O8 0.238741 0.870458 0.981838
O O9 0.500000 0.577020 0.041807
O O10 0.765067 0.703222 0.038705
O O11 0.765684 0.517381 0.085803
O O12 0.758898 0.500000 0.000000
O O13 0.000000 0.824402 0.468999
O O14 0.721838 0.198169 0.185358
O O15 0.000000 0.105642 0.156405
O O16 0.250000 0.385162 0.750000
O O17 0.291254 0.409173 0.836491
O O18 0.000000 0.349877 0.803029
O O19 0.250000 0.349745 0.250000
O O20 0.217039 0.394471 0.162982
O O21 0.000000 0.287905 0.208327
O O22 0.000000 0.451166 0.372769
#
# Coordination Sequence:
#
# PCOD9417680 Si02
#       8
#     8   8   8   8   8   8   8   8
#     4   9  19  35  54  78 109 144 179 220 271 329
#     4   9  18  32  57  85 111 147 187 233 276 332
#     4   9  19  34  55  83 117 150 185 236 286 334
#     4   8  16  33  53  81 116 146 185 233 284 327
#     4  10  22  37  55  82 116 148 183 230 287 343
#     4  10  20  36  58  83 115 150 185 229 281 336
#     4  11  24  42  62  83 115 153 194 243 291 345
#     4  11  23  37  59  88 114 147 193 237 285 340
#
# _framework density 21.610320999999999
#
# number of rings (size 3 to 8) (size 9 to 14) (size 15 to 20)
#    0.000    2.375    0.000    2.625    3.500    2.000 
#    0.000    1.250    0.000    3.000    0.000    0.000 
#    0.000    0.000    0.000    0.000    0.000    0.000 
#
# Total GULP energy -356964.491575 kJ/mol
# GULP energy per Si atom -5577.570181 kJ/mol
# Density = 2.156113 g / cm^3
# Si number density = 21.610321 Si / 1000 Ang^3
#
#
#
# Elastic Constant Matrix: (Units=GPa)
#
#
# Indices 1 2 3 4 5 6 
#
# 1 22.0315 -1.9803 -4.9765 0.0000 0.0000 0.0000
# 2 -1.9803 89.5566 48.2259 0.0000 0.0000 0.0000
# 3 -4.9765 48.2259 126.5063 0.0000 0.0000 0.0000
# 4 0.0000 0.0000 0.0000 26.0918 0.0000 0.0000
# 5 0.0000 0.0000 0.0000 0.0000 19.8115 0.0000
# 6 0.0000 0.0000 0.0000 0.0000 0.0000 68.0131
#
#
#
# Elastic Compliance Matrix: (Units=1/GPa)
#
#
# Indices 1 2 3 4 5 6 
#
# 1 0.045797 0.000054 0.001781 0.000000 0.000000 0.000000
# 2 0.000054 0.014050 -0.005354 0.000000 0.000000 0.000000
# 3 0.001781 -0.005354 0.010016 0.000000 0.000000 0.000000
# 4 0.000000 0.000000 0.000000 0.038326 0.000000 0.000000
# 5 0.000000 0.000000 0.000000 0.000000 0.050476 0.000000
# 6 0.000000 0.000000 0.000000 0.000000 0.000000 0.014703
#
#
# Mechanical properties :
#
#
# Convention : Reuss Voigt Hill
#
# Bulk Modulus (GPa) = 15.91748 35.62586 25.77167
# Shear Modulus (GPa) = 24.83259 35.90495 30.36877
#
# Velocity S-wave (km/s) = 3.39353 4.08054 3.75279
# Velocity P-wave (km/s) = 4.76827 6.22273 5.54341
#
# Compressibility (1/GPa) = 0.06282403
#
# Stress axis : x y z
#
# Youngs Moduli (GPa) = 21.83568 71.17187 99.84145
#
# Poissons Ratio (x) = -0.00381 -0.17783
# Poissons Ratio (y) = -0.00117 0.53456
# Poissons Ratio (z) = -0.03889 0.38106
#
# Static dielectric constant tensor:
#      x y z
#    x 1.747030 0.000000 0.000000 
#    y 0.000000 1.818000 0.000000 
#    z 0.000000 0.000000 1.788170 
# 
# From -- ./inp_files/38295.got.cif
#   From: 2010.05.17/outbox.cif.g08.bks.cpg/sg53_20_cif.got.tgz:38295.got - 2010.06.03 12:45:16.
