data_PCOD9417952
_publ_section_title
;
Structure prediction by ZEFSAII (Michael W. Deem and Ramdas Pophale) SiO2 
 PCOD9417952
Probable space group: P M N A
;
_chemical_formula_sum "Si O2"
_cell_formula_units_Z 64
_cell_length_a 8.834738
_cell_length_b 12.109982
_cell_length_c 31.463333
_cell_angle_alpha 90.000000
_cell_angle_beta 90.000000
_cell_angle_gamma 90.000000
_cell_volume 3366.215374
_symmetry_space_group_name_H-M "P M N A"
_symmetry_group_IT_number 53
_symmetry_cell_setting 'orthorhombic'
loop_
_space_group_symop_operation_xyz
x,y,z
1/2-x,-y,1/2+z
x,-y,-z
1/2-x,y,1/2-z
-x,-y,-z
1/2+x,y,1/2-z
-x,y,z
1/2+x,-y,1/2+z
loop_
_atom_site_type_symbol
_atom_site_label
_atom_site_fract_x
_atom_site_fract_y
_atom_site_fract_z
Si Si1 0.818540 0.632131 0.628210
Si Si2 0.182165 0.610194 0.125405
Si Si3 0.818837 0.233461 0.794482
Si Si4 0.819408 0.238692 0.954370
Si Si5 0.317816 0.767939 0.956025
Si Si6 0.820260 0.998393 0.323255
Si Si7 0.179752 0.990692 0.425036
Si Si8 0.319424 0.771383 0.705215
O O1 0.764885 0.506318 0.627147
O O2 0.775757 0.693002 0.584210
O O3 0.741296 0.695770 0.667113
O O4 0.000000 0.640105 0.632679
O O5 0.216342 0.683993 0.166833
O O6 0.227251 0.679403 0.083613
O O7 0.000000 0.593458 0.124214
O O8 0.750000 0.273051 0.750000
O O9 0.747689 0.114386 0.805072
O O10 0.000000 0.223156 0.791264
O O11 0.000000 0.239135 0.956391
O O12 0.763223 0.116046 0.942753
O O13 0.751941 0.270685 0.999814
O O14 0.500000 0.767357 0.959280
O O15 0.270960 0.894414 0.946298
O O16 0.000000 0.004290 0.314728
O O17 0.798488 0.999455 0.374278
O O18 0.739059 0.104633 0.303769
O O19 0.000000 0.977367 0.432907
O O20 0.250000 0.734113 0.750000
O O21 0.500000 0.769344 0.706880
#
# Coordination Sequence:
#
# PCOD9417952 Si02
#       8
#     8   8   8   8   8   8   8   8
#     4  11  24  44  67  91 121 160 211 260 308 366
#     4  10  24  44  62  86 124 164 207 259 312 366
#     4  11  23  41  63  91 126 162 205 253 308 368
#     4  11  23  39  61  92 126 161 206 253 304 367
#     4  10  22  41  62  90 125 161 202 251 309 370
#     4  11  21  38  64  94 127 163 205 249 306 369
#     4  10  20  37  62  89 125 163 199 248 309 371
#     4  12  25  42  66  94 128 165 204 251 308 367
#
# _framework density 19.012449
#
# number of rings (size 3 to 8) (size 9 to 14) (size 15 to 20)
#    0.000    1.250    2.500    3.375    0.000    6.500 
#    0.000    3.750    0.000    0.000    0.000    0.000 
#    0.000    0.000    0.000    0.000    0.000    0.000 
#
# Total GULP energy -358004.983534 kJ/mol
# GULP energy per Si atom -5593.827868 kJ/mol
# Density = 1.896918 g / cm^3
# Si number density = 19.012449 Si / 1000 Ang^3
#
#
#
# Elastic Constant Matrix: (Units=GPa)
#
#
# Indices 1 2 3 4 5 6 
#
# 1 80.1776 60.1060 81.9760 0.0000 0.0000 0.0000
# 2 60.1060 130.4866 83.7617 0.0000 0.0000 0.0000
# 3 81.9760 83.7617 181.1452 0.0000 0.0000 0.0000
# 4 0.0000 0.0000 0.0000 -0.6875 0.0000 0.0000
# 5 0.0000 0.0000 0.0000 0.0000 36.5852 0.0000
# 6 0.0000 0.0000 0.0000 0.0000 0.0000 30.3767
#
#
#
# Elastic Compliance Matrix: (Units=1/GPa)
#
#
# Indices 1 2 3 4 5 6 
#
# 1 0.026519 -0.006416 -0.009034 0.000000 0.000000 0.000000
# 2 -0.006416 0.012451 -0.002854 0.000000 0.000000 0.000000
# 3 -0.009034 -0.002854 0.010928 0.000000 0.000000 0.000000
# 4 0.000000 0.000000 0.000000 -1.454511 0.000000 0.000000
# 5 0.000000 0.000000 0.000000 0.000000 0.027333 0.000000
# 6 0.000000 0.000000 0.000000 0.000000 0.000000 0.032920
#
#
# Mechanical properties :
#
#
# Convention : Reuss Voigt Hill
#
# Bulk Modulus (GPa) = 75.24366 93.72187 84.48276
# Shear Modulus (GPa) = -3.83635 24.31925 10.24145
#
# Velocity S-wave (km/s) = -1.42204 3.58036 2.32345
# Velocity P-wave (km/s) = 6.07994 8.15439 7.19235
#
# Compressibility (1/GPa) = 0.01329016
#
# Stress axis : x y z
#
# Youngs Moduli (GPa) = 37.70863 80.31470 91.50539
#
# Poissons Ratio (x) = 0.51533 0.82667
# Poissons Ratio (y) = 0.24195 0.26113
# Poissons Ratio (z) = 0.34066 0.22919
#
# Static dielectric constant tensor:
#      x y z
#    x 1.635900 0.000000 0.000000 
#    y 0.000000 1.623170 0.000000 
#    z 0.000000 0.000000 1.660110 
# 
# From -- ./inp_files/38273.got.cif
#   From: 2010.05.17/outbox.cif.g08.bks.cpg/sg53_20_cif.got.tgz:38273.got - 2010.06.03 12:45:16.
