data_PCOD9417614
_publ_section_title
;
Structure prediction by ZEFSAII (Michael W. Deem and Ramdas Pophale) SiO2 
 PCOD9417614
Probable space group: P M N A
;
_chemical_formula_sum "Si O2"
_cell_formula_units_Z 64
_cell_length_a 9.142614
_cell_length_b 12.153985
_cell_length_c 31.699154
_cell_angle_alpha 90.000000
_cell_angle_beta 90.000000
_cell_angle_gamma 90.000000
_cell_volume 3522.384424
_symmetry_space_group_name_H-M "P M N A"
_symmetry_group_IT_number 53
_symmetry_cell_setting 'orthorhombic'
loop_
_space_group_symop_operation_xyz
x,y,z
1/2-x,-y,1/2+z
x,-y,-z
1/2-x,y,1/2-z
-x,-y,-z
1/2+x,y,1/2-z
-x,y,z
1/2+x,-y,1/2+z
loop_
_atom_site_type_symbol
_atom_site_label
_atom_site_fract_x
_atom_site_fract_y
_atom_site_fract_z
Si Si1 0.329524 0.113277 0.138649
Si Si2 0.831347 0.185979 0.999291
Si Si3 0.323664 0.597060 0.968291
Si Si4 0.174620 0.630110 0.626638
Si Si5 0.674446 0.258771 0.704557
Si Si6 0.676524 0.504568 0.703288
Si Si7 0.169288 0.011182 0.932341
Si Si8 0.826263 0.979265 0.204851
O O1 0.500000 0.101374 0.148234
O O2 0.303237 0.238217 0.124408
O O3 0.278553 0.027899 0.103242
O O4 0.234263 0.080371 0.178616
O O5 0.000000 0.222360 0.995703
O O6 0.790458 0.124080 0.955917
O O7 0.734964 0.287439 0.013945
O O8 0.828148 0.087997 0.033651
O O9 0.500000 0.600419 0.967919
O O10 0.278037 0.583142 0.919165
O O11 0.276947 0.500000 0.000000
O O12 0.258679 0.583412 0.667279
O O13 0.000000 0.610232 0.631920
O O14 0.750000 0.256521 0.750000
O O15 0.500000 0.258536 0.710255
O O16 0.711002 0.379413 0.687269
O O17 0.710845 0.140725 0.683995
O O18 0.750000 0.518952 0.750000
O O19 0.500000 0.516383 0.707192
O O20 0.000000 0.019785 0.917169
O O21 0.750000 0.980161 0.250000
O O22 0.000000 0.986008 0.209080
#
# Coordination Sequence:
#
# PCOD9417614 Si02
#       8
#     8   8   8   8   8   8   8   8
#     4  11  22  36  55  80 110 147 189 231 278 333
#     4   9  18  34  58  84 109 139 180 224 275 333
#     4  10  21  39  60  81 113 153 192 236 288 336
#     4  10  22  39  56  79 113 151 190 236 282 333
#     4   8  16  32  54  78 104 136 174 219 271 324
#     4  10  20  36  60  87 113 147 189 233 280 334
#     4   9  18  34  56  82 110 140 175 224 278 330
#     4  10  20  36  57  81 113 148 183 227 277 332
#
# _framework density 18.169511
#
# number of rings (size 3 to 8) (size 9 to 14) (size 15 to 20)
#    0.000    2.375    1.250    1.875    0.000    3.750 
#    2.250    1.250    0.000    0.000    0.000    0.000 
#    0.000    0.000    0.000    0.000    0.000    0.000 
#
# Total GULP energy -356497.332331 kJ/mol
# GULP energy per Si atom -5570.270818 kJ/mol
# Density = 1.812816 g / cm^3
# Si number density = 18.169511 Si / 1000 Ang^3
#
#
#
# Elastic Constant Matrix: (Units=GPa)
#
#
# Indices 1 2 3 4 5 6 
#
# 1 44.3589 34.0767 43.3958 0.0000 0.0000 0.0000
# 2 34.0767 59.2692 43.4690 0.0000 0.0000 0.0000
# 3 43.3958 43.4690 88.6119 0.0000 0.0000 0.0000
# 4 0.0000 0.0000 0.0000 28.1162 0.0000 0.0000
# 5 0.0000 0.0000 0.0000 0.0000 27.4722 0.0000
# 6 0.0000 0.0000 0.0000 0.0000 0.0000 35.8077
#
#
#
# Elastic Compliance Matrix: (Units=1/GPa)
#
#
# Indices 1 2 3 4 5 6 
#
# 1 0.053201 -0.017930 -0.017258 0.000000 0.000000 0.000000
# 2 -0.017930 0.032397 -0.007111 0.000000 0.000000 0.000000
# 3 -0.017258 -0.007111 0.023226 0.000000 0.000000 0.000000
# 4 0.000000 0.000000 0.000000 0.035567 0.000000 0.000000
# 5 0.000000 0.000000 0.000000 0.000000 0.036400 0.000000
# 6 0.000000 0.000000 0.000000 0.000000 0.000000 0.027927
#
#
# Mechanical properties :
#
#
# Convention : Reuss Voigt Hill
#
# Bulk Modulus (GPa) = 41.28240 48.23591 44.75915
# Shear Modulus (GPa) = 16.58965 23.03244 19.81104
#
# Velocity S-wave (km/s) = 3.02495 3.56426 3.30562
# Velocity P-wave (km/s) = 5.91358 6.59878 6.26556
#
# Compressibility (1/GPa) = 0.02422340
#
# Stress axis : x y z
#
# Youngs Moduli (GPa) = 18.79655 30.86715 43.05588
#
# Poissons Ratio (x) = 0.55346 0.74307
# Poissons Ratio (y) = 0.33703 0.30619
# Poissons Ratio (z) = 0.32440 0.21951
#
# Static dielectric constant tensor:
#      x y z
#    x 1.610060 0.000000 0.000000 
#    y 0.000000 1.644140 0.000000 
#    z 0.000000 0.000000 1.673610 
# 
# From -- ./inp_files/38223.got.cif
#   From: 2010.05.17/outbox.cif.g08.bks.cpg/sg53_20_cif.got.tgz:38223.got - 2010.06.03 12:45:16.
