data_PCOD9417821
_publ_section_title
;
Structure prediction by ZEFSAII (Michael W. Deem and Ramdas Pophale) SiO2 
 PCOD9417821
Probable space group: P M N A
;
_chemical_formula_sum "Si O2"
_cell_formula_units_Z 64
_cell_length_a 8.528144
_cell_length_b 20.391097
_cell_length_c 20.736902
_cell_angle_alpha 90.000000
_cell_angle_beta 90.000000
_cell_angle_gamma 90.000000
_cell_volume 3606.110171
_symmetry_space_group_name_H-M "P M N A"
_symmetry_group_IT_number 53
_symmetry_cell_setting 'orthorhombic'
loop_
_space_group_symop_operation_xyz
x,y,z
1/2-x,-y,1/2+z
x,-y,-z
1/2-x,y,1/2-z
-x,-y,-z
1/2+x,y,1/2-z
-x,y,z
1/2+x,-y,1/2+z
loop_
_atom_site_type_symbol
_atom_site_label
_atom_site_fract_x
_atom_site_fract_y
_atom_site_fract_z
Si Si1 0.687217 0.074728 0.320860
Si Si2 0.810726 0.575756 0.821096
Si Si3 0.313016 0.827414 0.929266
Si Si4 0.189771 0.425586 0.821223
Si Si5 0.311503 0.828796 0.427263
Si Si6 0.813033 0.072136 0.679710
Si Si7 0.690474 0.321659 0.573168
Si Si8 0.309741 0.681622 0.573637
O O1 0.750000 0.093885 0.250000
O O2 0.500000 0.075934 0.320163
O O3 0.751120 0.122621 0.375708
O O4 0.744862 0.000427 0.332732
O O5 0.750000 0.592855 0.750000
O O6 0.761356 0.500723 0.835356
O O7 0.758629 0.627609 0.874712
O O8 0.000000 0.576542 0.820076
O O9 0.500000 0.829823 0.932152
O O10 0.257293 0.753653 0.912947
O O11 0.244057 0.843417 0.999997
O O12 0.250000 0.408658 0.750000
O O13 0.246243 0.374232 0.874764
O O14 0.000000 0.424319 0.820494
O O15 0.500000 0.832168 0.425143
O O16 0.240767 0.878256 0.375552
O O17 0.262901 0.753421 0.412861
O O18 0.750000 0.093227 0.750000
O O19 0.000000 0.068016 0.682187
O O20 0.500000 0.322963 0.574581
O O21 0.736706 0.336863 0.499528
O O22 0.500000 0.685945 0.575096
#
# Coordination Sequence:
#
# PCOD9417821 Si02
#       8
#     8   8   8   8   8   8   8   8
#     4  11  22  39  60  83 110 142 177 219 266 316
#     4   9  18  31  50  73 101 133 170 212 260 312
#     4  11  22  37  56  81 109 141 178 220 266 320
#     4   9  17  31  49  73 101 133 169 212 260 311
#     4  10  20  37  57  80 109 143 180 224 270 317
#     4  11  22  38  58  83 112 144 180 221 265 316
#     4   8  16  31  52  74 100 131 171 217 262 308
#     4   9  18  34  52  73 100 135 174 217 262 310
#
# _framework density 17.747655000000002
#
# number of rings (size 3 to 8) (size 9 to 14) (size 15 to 20)
#    0.000    2.250    0.000    5.250    0.000    2.500 
#    0.000   10.625    0.000    0.000    0.000    7.000 
#    0.000    0.000    0.000    0.000    0.000    0.000 
#
# Total GULP energy -357206.342818 kJ/mol
# GULP energy per Si atom -5581.349107 kJ/mol
# Density = 1.770726 g / cm^3
# Si number density = 17.747655 Si / 1000 Ang^3
#
#
#
# Elastic Constant Matrix: (Units=GPa)
#
#
# Indices 1 2 3 4 5 6 
#
# 1 60.1254 23.2939 23.1586 0.0000 0.0000 0.0000
# 2 23.2939 110.9468 116.2010 0.0000 0.0000 0.0000
# 3 23.1586 116.2010 144.8129 0.0000 0.0000 0.0000
# 4 0.0000 0.0000 0.0000 45.2520 0.0000 0.0000
# 5 0.0000 0.0000 0.0000 0.0000 31.6847 0.0000
# 6 0.0000 0.0000 0.0000 0.0000 0.0000 24.8949
#
#
#
# Elastic Compliance Matrix: (Units=1/GPa)
#
#
# Indices 1 2 3 4 5 6 
#
# 1 0.018126 -0.004823 0.000971 0.000000 0.000000 0.000000
# 2 -0.004823 0.057766 -0.045581 0.000000 0.000000 0.000000
# 3 0.000971 -0.045581 0.043325 0.000000 0.000000 0.000000
# 4 0.000000 0.000000 0.000000 0.022098 0.000000 0.000000
# 5 0.000000 0.000000 0.000000 0.000000 0.031561 0.000000
# 6 0.000000 0.000000 0.000000 0.000000 0.000000 0.040169
#
#
# Mechanical properties :
#
#
# Convention : Reuss Voigt Hill
#
# Bulk Modulus (GPa) = 49.13590 71.24355 60.18973
# Shear Modulus (GPa) = 15.68894 30.58176 23.13535
#
# Velocity S-wave (km/s) = 2.97644 4.15558 3.61442
# Velocity P-wave (km/s) = 6.28953 7.95329 7.16983
#
# Compressibility (1/GPa) = 0.02035172
#
# Stress axis : x y z
#
# Youngs Moduli (GPa) = 55.16839 17.31126 23.08110
#
# Poissons Ratio (x) = 0.08349 -0.02242
# Poissons Ratio (y) = 0.26609 1.05207
# Poissons Ratio (z) = -0.05359 0.78907
#
# Static dielectric constant tensor:
#      x y z
#    x 1.605180 0.000000 0.000000 
#    y 0.000000 1.591040 0.000000 
#    z 0.000000 0.000000 1.581030 
# 
# From -- ./inp_files/31288.got.cif
#   From: 2010.05.17/outbox.cif.g08.bks.cpg/sg53_16_cif.got.tgz:31288.got - 2010.06.03 12:45:16.
