data_PCOD9417024
_publ_section_title
;
Structure prediction by ZEFSAII (Michael W. Deem and Ramdas Pophale) SiO2 
 PCOD9417024
Probable space group: P M N A
;
_chemical_formula_sum "Si O2"
_cell_formula_units_Z 48
_cell_length_a 8.602769
_cell_length_b 31.932418
_cell_length_c 9.437596
_cell_angle_alpha 90.000000
_cell_angle_beta 90.000000
_cell_angle_gamma 90.000000
_cell_volume 2592.575720
_symmetry_space_group_name_H-M "P M N A"
_symmetry_group_IT_number 53
_symmetry_cell_setting 'orthorhombic'
loop_
_space_group_symop_operation_xyz
x,y,z
1/2-x,-y,1/2+z
x,-y,-z
1/2-x,y,1/2-z
-x,-y,-z
1/2+x,y,1/2-z
-x,y,z
1/2+x,-y,1/2+z
loop_
_atom_site_type_symbol
_atom_site_label
_atom_site_fract_x
_atom_site_fract_y
_atom_site_fract_z
Si Si1 0.687566 0.292453 0.092217
Si Si2 0.686736 0.628407 0.090849
Si Si3 0.313527 0.540413 0.409391
Si Si4 0.186613 0.958697 0.909853
Si Si5 0.187618 0.198435 0.408745
Si Si6 0.313103 0.881121 0.090860
O O1 0.750000 0.298570 0.250000
O O2 0.500000 0.292995 0.094620
O O3 0.736124 0.245491 0.046959
O O4 0.739608 0.330748 0.994781
O O5 0.750000 0.631374 0.250000
O O6 0.500000 0.627165 0.093230
O O7 0.748566 0.584277 0.031171
O O8 0.267128 0.500000 0.500000
O O9 0.250000 0.536179 0.250000
O O10 0.500000 0.542775 0.404984
O O11 0.250000 0.960956 0.750000
O O12 0.000000 0.955934 0.904624
O O13 0.252912 0.918713 0.992623
O O14 0.229270 0.000000 0.000000
O O15 0.250000 0.190627 0.250000
O O16 0.237437 0.162457 0.517146
O O17 0.000000 0.197583 0.401907
O O18 0.250000 0.884908 0.250000
O O19 0.500000 0.882282 0.094834
#
# Coordination Sequence:
#
# PCOD9417024 Si02
#       6
#     8   8   8   8   8   8
#     4   9  19  35  54  78 107 139 177 219 264 315
#     4  10  20  34  53  76 104 137 172 213 260 311
#     4  10  21  36  54  76 102 134 172 213 259 312
#     4  11  24  41  62  87 116 150 187 229 277 328
#     4   9  19  36  56  79 108 142 180 222 268 319
#     4  11  23  38  58  84 115 149 187 231 276 326
#
# _framework density 18.514405
#
# number of rings (size 3 to 8) (size 9 to 14) (size 15 to 20)
#    0.000    2.000    0.000    4.000    0.000    9.333 
#    0.000    3.333    0.000    0.000    0.000    0.000 
#    0.000    0.000    0.000    0.000    0.000    0.000 
#
# Total GULP energy -268018.571003 kJ/mol
# GULP energy per Si atom -5583.720229 kJ/mol
# Density = 1.847227 g / cm^3
# Si number density = 18.514405 Si / 1000 Ang^3
#
#
#
# Elastic Constant Matrix: (Units=GPa)
#
#
# Indices 1 2 3 4 5 6 
#
# 1 37.1051 48.9459 32.2217 0.0000 0.0000 0.0000
# 2 48.9459 202.3119 112.4925 0.0000 0.0000 0.0000
# 3 32.2217 112.4925 122.8213 0.0000 0.0000 0.0000
# 4 0.0000 0.0000 0.0000 41.2675 0.0000 0.0000
# 5 0.0000 0.0000 0.0000 0.0000 30.4712 0.0000
# 6 0.0000 0.0000 0.0000 0.0000 0.0000 -70.0577
#
#
#
# Elastic Compliance Matrix: (Units=1/GPa)
#
#
# Indices 1 2 3 4 5 6 
#
# 1 0.040245 -0.007878 -0.003343 0.000000 0.000000 0.000000
# 2 -0.007878 0.011615 -0.008571 0.000000 0.000000 0.000000
# 3 -0.003343 -0.008571 0.016869 0.000000 0.000000 0.000000
# 4 0.000000 0.000000 0.000000 0.024232 0.000000 0.000000
# 5 0.000000 0.000000 0.000000 0.000000 0.032818 0.000000
# 6 0.000000 0.000000 0.000000 0.000000 0.000000 -0.014274
#
#
# Mechanical properties :
#
#
# Convention : Reuss Voigt Hill
#
# Bulk Modulus (GPa) = 34.31079 83.28431 58.79755
# Shear Modulus (GPa) = 31.09378 11.57474 21.33426
#
# Velocity S-wave (km/s) = 4.10254 2.50306 3.39825
# Velocity P-wave (km/s) = 6.40416 7.30992 6.87198
#
# Compressibility (1/GPa) = 0.02914535
#
# Stress axis : x y z
#
# Youngs Moduli (GPa) = 24.84772 86.09804 59.27957
#
# Poissons Ratio (x) = 0.67828 0.19815
# Poissons Ratio (y) = 0.19575 0.50809
# Poissons Ratio (z) = 0.08306 0.73796
#
# Static dielectric constant tensor:
#      x y z
#    x 1.627650 0.000000 0.000000 
#    y 0.000000 1.659300 0.000000 
#    z 0.000000 0.000000 1.592980 
# 
# From -- ./inp_files/6707.got.cif
#   From: 2010.05.17/outbox.cif.g08.bks.cpg/sg53_4_cif.got.tgz:6707.got - 2010.06.03 12:45:16.
