data_PCOD9417523
_publ_section_title
;
Structure prediction by ZEFSAII (Michael W. Deem and Ramdas Pophale) SiO2 
 PCOD9417523
Probable space group: P M N A
;
_chemical_formula_sum "Si O2"
_cell_formula_units_Z 56
_cell_length_a 14.560896
_cell_length_b 33.415244
_cell_length_c 5.270140
_cell_angle_alpha 90.000000
_cell_angle_beta 90.000000
_cell_angle_gamma 90.000000
_cell_volume 2564.217672
_symmetry_space_group_name_H-M "P M N A"
_symmetry_group_IT_number 53
_symmetry_cell_setting 'orthorhombic'
loop_
_space_group_symop_operation_xyz
x,y,z
1/2-x,-y,1/2+z
x,-y,-z
1/2-x,y,1/2-z
-x,-y,-z
1/2+x,y,1/2-z
-x,y,z
1/2+x,-y,1/2+z
loop_
_atom_site_type_symbol
_atom_site_label
_atom_site_fract_x
_atom_site_fract_y
_atom_site_fract_z
Si Si1 0.390832 0.668882 0.615002
Si Si2 0.813125 0.543851 0.499389
Si Si3 0.111843 0.885180 0.647234
Si Si4 0.192979 0.751491 0.008256
Si Si5 0.110843 0.024606 0.245449
Si Si6 0.109181 0.371537 0.611696
Si Si7 0.610710 0.163399 0.650746
O O1 0.500000 0.662112 0.628623
O O2 0.374186 0.715317 0.561132
O O3 0.353857 0.641142 0.386899
O O4 0.352173 0.656229 0.887490
O O5 0.860078 0.500000 0.500000
O O6 0.750000 0.547397 0.750000
O O7 0.874800 0.582848 0.468710
O O8 0.750000 0.543664 0.250000
O O9 0.143689 0.930440 0.698173
O O10 0.143804 0.861367 0.397079
O O11 0.000000 0.887060 0.625529
O O12 0.134833 0.860400 0.896877
O O13 0.250000 0.736360 0.250000
O O14 0.147480 0.792006 0.113571
O O15 0.250000 0.760054 0.750000
O O16 0.000000 0.027825 0.209187
O O17 0.127135 0.000000 0.500000
O O18 0.145862 0.000000 0.000000
O O19 0.000000 0.364702 0.627316
O O20 0.500000 0.165432 0.667883
#
# Coordination Sequence:
#
# PCOD9417523 Si02
#       7
#     8   8   8   8   8   8   8
#     4  10  22  40  59  82 112 145 181 223 279 338
#     4  10  21  36  55  81 114 151 188 227 274 327
#     4   9  17  29  48  73 101 141 184 213 257 323
#     4  12  25  39  57  83 110 138 180 229 277 327
#     4   9  15  23  38  65 103 138 167 209 262 309
#     4  10  21  37  59  84 110 143 184 228 272 326
#     4  10  20  36  55  74 104 144 181 219 264 320
#
# _framework density 21.839020999999999
#
# number of rings (size 3 to 8) (size 9 to 14) (size 15 to 20)
#    0.000    2.000    0.000    3.857    0.000    7.143 
#    0.000    5.714    0.000    5.143    0.000    0.000 
#    0.000   32.000    0.000    0.000    0.000    0.000 
#
# Total GULP energy -312922.192657 kJ/mol
# GULP energy per Si atom -5587.896297 kJ/mol
# Density = 2.178931 g / cm^3
# Si number density = 21.839021 Si / 1000 Ang^3
#
#
#
# Elastic Constant Matrix: (Units=GPa)
#
#
# Indices 1 2 3 4 5 6 
#
# 1 31.5741 -5.6399 19.0591 0.0000 0.0000 0.0000
# 2 -5.6399 121.2490 43.0763 0.0000 0.0000 0.0000
# 3 19.0591 43.0763 158.8770 0.0000 0.0000 0.0000
# 4 0.0000 0.0000 0.0000 82.4322 0.0000 0.0000
# 5 0.0000 0.0000 0.0000 0.0000 13.3147 0.0000
# 6 0.0000 0.0000 0.0000 0.0000 0.0000 15.6019
#
#
#
# Elastic Compliance Matrix: (Units=1/GPa)
#
#
# Indices 1 2 3 4 5 6 
#
# 1 0.035434 0.003495 -0.005198 0.000000 0.000000 0.000000
# 2 0.003495 0.009471 -0.002987 0.000000 0.000000 0.000000
# 3 -0.005198 -0.002987 0.007728 0.000000 0.000000 0.000000
# 4 0.000000 0.000000 0.000000 0.012131 0.000000 0.000000
# 5 0.000000 0.000000 0.000000 0.000000 0.075105 0.000000
# 6 0.000000 0.000000 0.000000 0.000000 0.000000 0.064095
#
#
# Mechanical properties :
#
#
# Convention : Reuss Voigt Hill
#
# Bulk Modulus (GPa) = 23.12045 47.18789 35.15417
# Shear Modulus (GPa) = 21.95275 39.28340 30.61807
#
# Velocity S-wave (km/s) = 3.17394 4.24579 3.74838
# Velocity P-wave (km/s) = 4.90322 6.75942 5.90472
#
# Compressibility (1/GPa) = 0.04325175
#
# Stress axis : x y z
#
# Youngs Moduli (GPa) = 28.22172 105.58165 129.40470
#
# Poissons Ratio (x) = -0.36901 0.67268
# Poissons Ratio (y) = -0.09864 0.38656
# Poissons Ratio (z) = 0.14670 0.31540
#
# Static dielectric constant tensor:
#      x y z
#    x 1.832040 0.000000 0.000000 
#    y 0.000000 1.790220 0.000000 
#    z 0.000000 0.000000 1.785580 
# 
# From -- ./inp_files/1470.got.cif
#   From: 2010.05.17/outbox.cif.g08.bks.cpg/sg53_1_cif.got.tgz:1470.got - 2010.06.03 12:45:16.
