data_PCOD9417803
_publ_section_title
;
Structure prediction by ZEFSAII (Michael W. Deem and Ramdas Pophale) SiO2 
 PCOD9417803
Probable space group: P M N A
;
_chemical_formula_sum "Si O2"
_cell_formula_units_Z 48
_cell_length_a 8.943716
_cell_length_b 15.436155
_cell_length_c 19.397067
_cell_angle_alpha 90.000000
_cell_angle_beta 90.000000
_cell_angle_gamma 90.000000
_cell_volume 2677.892857
_symmetry_space_group_name_H-M "P M N A"
_symmetry_group_IT_number 53
_symmetry_cell_setting 'orthorhombic'
loop_
_space_group_symop_operation_xyz
x,y,z
1/2-x,-y,1/2+z
x,-y,-z
1/2-x,y,1/2-z
-x,-y,-z
1/2+x,y,1/2-z
-x,y,z
1/2+x,-y,1/2+z
loop_
_atom_site_type_symbol
_atom_site_label
_atom_site_fract_x
_atom_site_fract_y
_atom_site_fract_z
Si Si1 0.819992 0.124549 0.674772
Si Si2 0.179116 0.523499 0.420712
Si Si3 0.321028 0.779254 0.574127
Si Si4 0.680012 0.965655 0.923472
Si Si5 0.680051 0.276971 0.929027
Si Si6 0.178965 0.622036 0.825402
O O1 0.750000 0.125789 0.750000
O O2 0.776317 0.208091 0.629337
O O3 0.000000 0.125122 0.680331
O O4 0.777552 0.038750 0.631825
O O5 0.215864 0.500000 0.500000
O O6 0.216407 0.624313 0.409603
O O7 0.262020 0.459435 0.369179
O O8 0.000000 0.512565 0.412510
O O9 0.500000 0.783156 0.569835
O O10 0.255820 0.873799 0.589684
O O11 0.255251 0.748130 0.501067
O O12 0.279726 0.708514 0.631845
O O13 0.500000 0.955186 0.922063
O O14 0.719250 0.000000 0.000000
O O15 0.500000 0.271431 0.938275
O O16 0.250000 0.622764 0.750000
O O17 0.000000 0.618257 0.820218
#
# Coordination Sequence:
#
# PCOD9417803 Si02
#       6
#     8   8   8   8   8   8
#     4  10  22  39  59  85 119 154 190 237 294 352
#     4  10  20  36  64  93 117 154 200 246 296 354
#     4  11  23  37  59  91 120 152 197 250 298 344
#     4  10  20  38  63  86 113 154 199 241 291 355
#     4  10  20  38  62  88 119 157 200 238 288 360
#     4  11  25  42  60  86 124 161 199 249 304 355
#
# _framework density 17.924541000000001
#
# number of rings (size 3 to 8) (size 9 to 14) (size 15 to 20)
#    0.000    1.667    3.333    1.000    0.000    6.000 
#    0.000    5.000    0.000    0.000    0.000    0.000 
#    0.000    0.000    0.000    0.000    0.000    0.000 
#
# Total GULP energy -268186.664626 kJ/mol
# GULP energy per Si atom -5587.222180 kJ/mol
# Density = 1.788374 g / cm^3
# Si number density = 17.924541 Si / 1000 Ang^3
#
#
#
# Elastic Constant Matrix: (Units=GPa)
#
#
# Indices 1 2 3 4 5 6 
#
# 1 33.2351 65.6157 61.0589 0.0000 0.0000 0.0000
# 2 65.6157 208.3779 118.4715 0.0000 0.0000 0.0000
# 3 61.0589 118.4715 188.7706 0.0000 0.0000 0.0000
# 4 0.0000 0.0000 0.0000 29.8171 0.0000 0.0000
# 5 0.0000 0.0000 0.0000 0.0000 30.3709 0.0000
# 6 0.0000 0.0000 0.0000 0.0000 0.0000 388.5684
#
#
#
# Elastic Compliance Matrix: (Units=1/GPa)
#
#
# Indices 1 2 3 4 5 6 
#
# 1 0.126162 -0.025694 -0.024682 0.000000 0.000000 0.000000
# 2 -0.025694 0.012694 0.000344 0.000000 0.000000 0.000000
# 3 -0.024682 0.000344 0.013065 0.000000 0.000000 0.000000
# 4 0.000000 0.000000 0.000000 0.033538 0.000000 0.000000
# 5 0.000000 0.000000 0.000000 0.000000 0.032926 0.000000
# 6 0.000000 0.000000 0.000000 0.000000 0.000000 0.002574
#
#
# Mechanical properties :
#
#
# Convention : Reuss Voigt Hill
#
# Bulk Modulus (GPa) = 19.28396 102.29731 60.79064
# Shear Modulus (GPa) = 14.77944 102.10046 58.43995
#
# Velocity S-wave (km/s) = 2.87459 7.55546 5.71613
# Velocity P-wave (km/s) = 4.66899 11.54592 8.80647
#
# Compressibility (1/GPa) = 0.05185658
#
# Stress axis : x y z
#
# Youngs Moduli (GPa) = 7.92634 78.77733 76.53972
#
# Poissons Ratio (x) = 2.02409 1.88918
# Poissons Ratio (y) = 0.20366 -0.02634
# Poissons Ratio (z) = 0.19564 -0.02711
#
# Static dielectric constant tensor:
#      x y z
#    x 1.600760 0.000000 0.000000 
#    y 0.000000 1.602740 0.000000 
#    z 0.000000 0.000000 1.573650 
# 
# From -- ./inp_files/26163.got.cif
#   From: 2010.05.17/outbox.cif.g08.bks.cpg/sg53_14_cif.got.tgz:26163.got - 2010.06.03 12:45:16.
