data_PCOD9417621
_publ_section_title
;
Structure prediction by ZEFSAII (Michael W. Deem and Ramdas Pophale) SiO2 
 PCOD9417621
Probable space group: P M N A
;
_chemical_formula_sum "Si O2"
_cell_formula_units_Z 64
_cell_length_a 8.827074
_cell_length_b 12.286570
_cell_length_c 31.853221
_cell_angle_alpha 90.000000
_cell_angle_beta 90.000000
_cell_angle_gamma 90.000000
_cell_volume 3454.623966
_symmetry_space_group_name_H-M "P M N A"
_symmetry_group_IT_number 53
_symmetry_cell_setting 'orthorhombic'
loop_
_space_group_symop_operation_xyz
x,y,z
1/2-x,-y,1/2+z
x,-y,-z
1/2-x,y,1/2-z
-x,-y,-z
1/2+x,y,1/2-z
-x,y,z
1/2+x,-y,1/2+z
loop_
_atom_site_type_symbol
_atom_site_label
_atom_site_fract_x
_atom_site_fract_y
_atom_site_fract_z
Si Si1 0.181885 0.491022 0.795330
Si Si2 0.818288 0.100082 0.629672
Si Si3 0.181570 0.237020 0.795178
Si Si4 0.824045 0.883941 0.977794
Si Si5 0.178114 0.253969 0.940140
Si Si6 0.818833 0.372325 0.123104
Si Si7 0.678476 0.143849 0.110423
Si Si8 0.681619 0.513237 0.048958
O O1 0.250000 0.522015 0.750000
O O2 0.219464 0.364123 0.803386
O O3 0.231543 0.561587 0.835353
O O4 0.000000 0.499244 0.792218
O O5 0.754941 0.161460 0.669981
O O6 0.747908 0.162768 0.589998
O O7 0.000000 0.107037 0.627551
O O8 0.776080 0.972872 0.629330
O O9 0.250000 0.209636 0.750000
O O10 0.000000 0.226610 0.795240
O O11 0.714911 0.866011 0.938976
O O12 0.000000 0.884090 0.963210
O O13 0.807048 0.790796 0.012601
O O14 0.796760 0.000000 0.000000
O O15 0.260840 0.368832 0.935930
O O16 0.000000 0.266822 0.930459
O O17 0.768472 0.247651 0.126933
O O18 0.748864 0.424336 0.080847
O O19 0.000000 0.380558 0.119971
O O20 0.500000 0.160267 0.117052
O O21 0.500000 0.507732 0.050440
O O22 0.728948 0.500000 0.000000
#
# Coordination Sequence:
#
# PCOD9417621 Si02
#       8
#     8   8   8   8   8   8   8   8
#     4   9  20  38  62  92 118 146 186 235 292 353
#     4  11  23  38  57  84 116 151 193 238 287 344
#     4  10  20  37  62  90 120 149 183 232 291 354
#     4  10  20  36  57  82 112 151 197 242 291 345
#     4  11  22  36  58  85 114 149 193 242 291 345
#     4  11  23  40  62  87 118 157 202 246 297 358
#     4  11  24  39  57  83 117 157 199 244 294 346
#     4  11  24  40  58  84 119 157 198 244 298 356
#
# _framework density 18.525894999999998
#
# number of rings (size 3 to 8) (size 9 to 14) (size 15 to 20)
#    0.000    1.500    1.250    3.750    0.000    8.250 
#    0.000    0.625    0.000    1.500    0.000    0.000 
#    0.000    0.000    0.000    0.000    0.000    0.000 
#
# Total GULP energy -357716.636801 kJ/mol
# GULP energy per Si atom -5589.322450 kJ/mol
# Density = 1.848373 g / cm^3
# Si number density = 18.525895 Si / 1000 Ang^3
#
#
#
# Elastic Constant Matrix: (Units=GPa)
#
#
# Indices 1 2 3 4 5 6 
#
# 1 49.4812 38.2238 42.3249 0.0000 0.0000 0.0000
# 2 38.2238 104.9647 59.5400 0.0000 0.0000 0.0000
# 3 42.3249 59.5400 113.9960 0.0000 0.0000 0.0000
# 4 0.0000 0.0000 0.0000 45.4303 0.0000 0.0000
# 5 0.0000 0.0000 0.0000 0.0000 27.8458 0.0000
# 6 0.0000 0.0000 0.0000 0.0000 0.0000 17.2181
#
#
#
# Elastic Compliance Matrix: (Units=1/GPa)
#
#
# Indices 1 2 3 4 5 6 
#
# 1 0.033058 -0.007213 -0.008507 0.000000 0.000000 0.000000
# 2 -0.007213 0.015112 -0.005215 0.000000 0.000000 0.000000
# 3 -0.008507 -0.005215 0.014654 0.000000 0.000000 0.000000
# 4 0.000000 0.000000 0.000000 0.022012 0.000000 0.000000
# 5 0.000000 0.000000 0.000000 0.000000 0.035912 0.000000
# 6 0.000000 0.000000 0.000000 0.000000 0.000000 0.058078
#
#
# Mechanical properties :
#
#
# Convention : Reuss Voigt Hill
#
# Bulk Modulus (GPa) = 47.72077 60.95771 54.33924
# Shear Modulus (GPa) = 21.96064 26.65571 24.30817
#
# Velocity S-wave (km/s) = 3.44670 3.79731 3.62625
# Velocity P-wave (km/s) = 6.45403 7.22507 6.85041
#
# Compressibility (1/GPa) = 0.02095524
#
# Stress axis : x y z
#
# Youngs Moduli (GPa) = 30.24978 66.17373 68.23980
#
# Poissons Ratio (x) = 0.47732 0.58048
# Poissons Ratio (y) = 0.21820 0.35585
# Poissons Ratio (z) = 0.25732 0.34508
#
# Static dielectric constant tensor:
#      x y z
#    x 1.621170 0.000000 0.000000 
#    y 0.000000 1.633450 0.000000 
#    z 0.000000 0.000000 1.466300 
# 
# From -- ./inp_files/38244.got.cif
#   From: 2010.05.17/outbox.cif.g08.bks.cpg/sg53_20_cif.got.tgz:38244.got - 2010.06.03 12:45:16.
