data_PCOD9417038
_publ_section_title
;
Structure prediction by ZEFSAII (Michael W. Deem and Ramdas Pophale) SiO2 
 PCOD9417038
Probable space group: P M N A
;
_chemical_formula_sum "Si O2"
_cell_formula_units_Z 64
_cell_length_a 7.532851
_cell_length_b 12.426792
_cell_length_c 32.455166
_cell_angle_alpha 90.000000
_cell_angle_beta 90.000000
_cell_angle_gamma 90.000000
_cell_volume 3038.101234
_symmetry_space_group_name_H-M "P M N A"
_symmetry_group_IT_number 53
_symmetry_cell_setting 'orthorhombic'
loop_
_space_group_symop_operation_xyz
x,y,z
1/2-x,-y,1/2+z
x,-y,-z
1/2-x,y,1/2-z
-x,-y,-z
1/2+x,y,1/2-z
-x,y,z
1/2+x,-y,1/2+z
loop_
_atom_site_type_symbol
_atom_site_label
_atom_site_fract_x
_atom_site_fract_y
_atom_site_fract_z
Si Si1 0.715432 0.884408 0.018842
Si Si2 0.787337 0.502720 0.796516
Si Si3 0.718871 0.635086 0.374896
Si Si4 0.284669 0.890956 0.628964
Si Si5 0.712329 0.252609 0.296053
Si Si6 0.795143 0.872338 0.113826
Si Si7 0.291076 0.266366 0.053466
Si Si8 0.703522 0.495782 0.546185
O O1 0.500000 0.882873 0.020660
O O2 0.788024 0.871874 0.064342
O O3 0.773789 0.788770 0.988670
O O4 0.767247 0.000000 0.000000
O O5 0.750000 0.463445 0.750000
O O6 0.724018 0.431481 0.834704
O O7 0.717906 0.625289 0.799806
O O8 0.000000 0.507395 0.800184
O O9 0.500000 0.634060 0.375851
O O10 0.780601 0.758263 0.372161
O O11 0.779217 0.579633 0.417765
O O12 0.500000 0.895554 0.629376
O O13 0.220702 0.826277 0.668785
O O14 0.235337 0.821483 0.589011
O O15 0.216520 0.013084 0.627070
O O16 0.750000 0.214071 0.250000
O O17 0.500000 0.258439 0.300973
O O18 0.000000 0.872735 0.127565
O O19 0.500000 0.286918 0.049345
O O20 0.205066 0.381280 0.062171
O O21 0.784284 0.500000 0.500000
O O22 0.500000 0.459327 0.540518
#
# Coordination Sequence:
#
# PCOD9417038 Si02
#       8
#     8   8   8   8   8   8   8   8
#     4  10  20  35  50  69 104 143 173 209 261 309
#     4   9  17  32  54  75 100 132 168 211 260 315
#     4   9  18  34  54  77 106 139 171 215 273 313
#     4  10  20  34  53  78 105 132 170 216 257 301
#     4   9  18  33  53  77 103 132 164 207 262 314
#     4  10  20  34  55  79 101 134 181 221 251 303
#     4  11  22  34  52  76 104 137 174 215 260 310
#     4  10  20  35  55  77 105 139 176 218 265 319
#
# _framework density 21.06579
#
# number of rings (size 3 to 8) (size 9 to 14) (size 15 to 20)
#    0.000    2.250    1.250    1.875    0.000    5.000 
#    0.000    5.000    0.000    0.000    0.000    0.000 
#    0.000    0.000    0.000    0.000    0.000    0.000 
#
# Total GULP energy -357439.077847 kJ/mol
# GULP energy per Si atom -5584.985591 kJ/mol
# Density = 2.101784 g / cm^3
# Si number density = 21.065790 Si / 1000 Ang^3
#
#
#
# Elastic Constant Matrix: (Units=GPa)
#
#
# Indices 1 2 3 4 5 6 
#
# 1 56.0365 1.5154 -1.4237 0.0000 0.0000 0.0000
# 2 1.5154 131.3795 71.4719 0.0000 0.0000 0.0000
# 3 -1.4237 71.4719 142.6405 0.0000 0.0000 0.0000
# 4 0.0000 0.0000 0.0000 36.8503 0.0000 0.0000
# 5 0.0000 0.0000 0.0000 0.0000 15.7286 0.0000
# 6 0.0000 0.0000 0.0000 0.0000 0.0000 -10.5329
#
#
#
# Elastic Compliance Matrix: (Units=1/GPa)
#
#
# Indices 1 2 3 4 5 6 
#
# 1 0.017867 -0.000417 0.000387 0.000000 0.000000 0.000000
# 2 -0.000417 0.010474 -0.005252 0.000000 0.000000 0.000000
# 3 0.000387 -0.005252 0.009646 0.000000 0.000000 0.000000
# 4 0.000000 0.000000 0.000000 0.027137 0.000000 0.000000
# 5 0.000000 0.000000 0.000000 0.000000 0.063579 0.000000
# 6 0.000000 0.000000 0.000000 0.000000 0.000000 -0.094940
#
#
# Mechanical properties :
#
#
# Convention : Reuss Voigt Hill
#
# Bulk Modulus (GPa) = 36.46571 52.57596 44.52083
# Shear Modulus (GPa) = 93.51800 25.64205 59.58002
#
# Velocity S-wave (km/s) = 6.67006 3.49268 5.32393
# Velocity P-wave (km/s) = 8.75600 6.42473 7.67935
#
# Compressibility (1/GPa) = 0.02742302
#
# Stress axis : x y z
#
# Youngs Moduli (GPa) = 55.97028 95.47890 103.66881
#
# Poissons Ratio (x) = 0.03978 -0.04013
# Poissons Ratio (y) = 0.02332 0.54447
# Poissons Ratio (z) = -0.02167 0.50146
#
# Static dielectric constant tensor:
#      x y z
#    x 1.823620 0.000000 0.000000 
#    y 0.000000 1.762490 0.000000 
#    z 0.000000 0.000000 1.727320 
# 
# From -- ./inp_files/38287.got.cif
#   From: 2010.05.17/outbox.cif.g08.bks.cpg/sg53_20_cif.got.tgz:38287.got - 2010.06.03 12:45:16.
