data_PCOD9417885
_publ_section_title
;
Structure prediction by ZEFSAII (Michael W. Deem and Ramdas Pophale) SiO2 
 PCOD9417885
Probable space group: P M N A
;
_chemical_formula_sum "Si O2"
_cell_formula_units_Z 48
_cell_length_a 8.865908
_cell_length_b 18.238789
_cell_length_c 15.473708
_cell_angle_alpha 90.000000
_cell_angle_beta 90.000000
_cell_angle_gamma 90.000000
_cell_volume 2502.151586
_symmetry_space_group_name_H-M "P M N A"
_symmetry_group_IT_number 53
_symmetry_cell_setting 'orthorhombic'
loop_
_space_group_symop_operation_xyz
x,y,z
1/2-x,-y,1/2+z
x,-y,-z
1/2-x,y,1/2-z
-x,-y,-z
1/2+x,y,1/2-z
-x,y,z
1/2+x,-y,1/2+z
loop_
_atom_site_type_symbol
_atom_site_label
_atom_site_fract_x
_atom_site_fract_y
_atom_site_fract_z
Si Si1 0.679529 0.059343 0.657690
Si Si2 0.679719 0.333087 0.974319
Si Si3 0.820075 0.555395 0.159110
Si Si4 0.320431 0.885368 0.657935
Si Si5 0.820003 0.606026 0.660580
Si Si6 0.680245 0.166883 0.982336
O O1 0.750000 0.080360 0.750000
O O2 0.500000 0.069605 0.659459
O O3 0.750355 0.107103 0.581737
O O4 0.709296 0.972615 0.645193
O O5 0.500000 0.345290 0.961436
O O6 0.710538 0.346264 0.075783
O O7 0.769641 0.390673 0.916752
O O8 0.715768 0.249311 0.951522
O O9 0.750000 0.581905 0.250000
O O10 0.751226 0.474384 0.145224
O O11 0.000000 0.550676 0.165305
O O12 0.250000 0.864162 0.750000
O O13 0.500000 0.874600 0.659274
O O14 0.246467 0.844504 0.577677
O O15 0.750000 0.634851 0.750000
O O16 0.000000 0.598581 0.670811
O O17 0.500000 0.159135 0.985290
#
# Coordination Sequence:
#
# PCOD9417885 Si02
#       6
#     8   8   8   8   8   8
#     4  10  21  38  60  85 112 146 188 234 282 332
#     4  10  23  40  56  80 115 152 186 225 276 330
#     4  11  22  37  60  86 111 143 185 231 277 328
#     4  10  21  38  60  85 113 146 188 234 280 332
#     4  10  20  37  60  83 111 145 183 229 276 325
#     4  11  23  38  57  83 116 152 188 228 279 336
#
# _framework density 19.183489000000002
#
# number of rings (size 3 to 8) (size 9 to 14) (size 15 to 20)
#    0.000    1.667    0.000    5.500    0.000   10.000 
#    0.000    1.667    0.000    0.000    0.000    0.000 
#    0.000    0.000    0.000    0.000    0.000    0.000 
#
# Total GULP energy -268345.848980 kJ/mol
# GULP energy per Si atom -5590.538520 kJ/mol
# Density = 1.913983 g / cm^3
# Si number density = 19.183489 Si / 1000 Ang^3
#
#
#
# Elastic Constant Matrix: (Units=GPa)
#
#
# Indices 1 2 3 4 5 6 
#
# 1 61.1306 17.8425 19.8424 0.0000 0.0000 0.0000
# 2 17.8425 15.4622 5.5667 0.0000 0.0000 0.0000
# 3 19.8424 5.5667 57.2241 0.0000 0.0000 0.0000
# 4 0.0000 0.0000 0.0000 -27.6624 0.0000 0.0000
# 5 0.0000 0.0000 0.0000 0.0000 41.7178 0.0000
# 6 0.0000 0.0000 0.0000 0.0000 0.0000 10.9280
#
#
#
# Elastic Compliance Matrix: (Units=1/GPa)
#
#
# Indices 1 2 3 4 5 6 
#
# 1 0.026824 -0.028606 -0.006518 0.000000 0.000000 0.000000
# 2 -0.028606 0.097528 0.000432 0.000000 0.000000 0.000000
# 3 -0.006518 0.000432 0.019693 0.000000 0.000000 0.000000
# 4 0.000000 0.000000 0.000000 -0.036150 0.000000 0.000000
# 5 0.000000 0.000000 0.000000 0.000000 0.023971 0.000000
# 6 0.000000 0.000000 0.000000 0.000000 0.000000 0.091508
#
#
# Mechanical properties :
#
#
# Convention : Reuss Voigt Hill
#
# Bulk Modulus (GPa) = 13.39412 24.48003 18.93707
# Shear Modulus (GPa) = 15.74077 11.03436 13.38757
#
# Velocity S-wave (km/s) = 2.86761 2.40094 2.64459
# Velocity P-wave (km/s) = 4.23810 4.52490 4.38385
#
# Compressibility (1/GPa) = 0.07465965
#
# Stress axis : x y z
#
# Youngs Moduli (GPa) = 37.28055 10.25342 50.77858
#
# Poissons Ratio (x) = 0.29331 0.33099
# Poissons Ratio (y) = 1.06646 -0.02192
# Poissons Ratio (z) = 0.24300 -0.00443
#
# Static dielectric constant tensor:
#      x y z
#    x 1.638500 0.000000 0.000000 
#    y 0.000000 1.648590 0.000000 
#    z 0.000000 0.000000 1.652810 
# 
# From -- ./inp_files/20181.got.cif
#   From: 2010.05.17/outbox.cif.g08.bks.cpg/sg53_11_cif.got.tgz:20181.got - 2010.06.03 12:45:16.
