data_PCOD9417835
_publ_section_title
;
Structure prediction by ZEFSAII (Michael W. Deem and Ramdas Pophale) SiO2 
 PCOD9417835
Probable space group: P M N A
;
_chemical_formula_sum "Si O2"
_cell_formula_units_Z 48
_cell_length_a 8.687077
_cell_length_b 9.847774
_cell_length_c 31.271771
_cell_angle_alpha 90.000000
_cell_angle_beta 90.000000
_cell_angle_gamma 90.000000
_cell_volume 2675.249068
_symmetry_space_group_name_H-M "P M N A"
_symmetry_group_IT_number 53
_symmetry_cell_setting 'orthorhombic'
loop_
_space_group_symop_operation_xyz
x,y,z
1/2-x,-y,1/2+z
x,-y,-z
1/2-x,y,1/2-z
-x,-y,-z
1/2+x,y,1/2-z
-x,y,z
1/2+x,-y,1/2+z
loop_
_atom_site_type_symbol
_atom_site_label
_atom_site_fract_x
_atom_site_fract_y
_atom_site_fract_z
Si Si1 0.683402 0.696659 0.110648
Si Si2 0.315656 0.189842 0.297101
Si Si3 0.314803 0.417052 0.362856
Si Si4 0.183653 0.346435 0.983643
Si Si5 0.684195 0.213780 0.065979
Si Si6 0.685246 0.009967 0.626792
O O1 0.500000 0.698400 0.113434
O O2 0.750830 0.568237 0.136120
O O3 0.735631 0.676610 0.061548
O O4 0.753073 0.838157 0.126544
O O5 0.250000 0.176550 0.250000
O O6 0.500000 0.186129 0.294517
O O7 0.273373 0.330825 0.320705
O O8 0.268658 0.071364 0.330192
O O9 0.500000 0.417468 0.367550
O O10 0.244748 0.333318 0.402671
O O11 0.000000 0.330788 0.978701
O O12 0.213410 0.500000 0.000000
O O13 0.247007 0.244677 0.019537
O O14 0.500000 0.214516 0.064696
O O15 0.745474 0.075409 0.087261
O O16 0.500000 0.007482 0.623639
#
# Coordination Sequence:
#
# PCOD9417835 Si02
#       6
#     8   8   8   8   8   8
#     4  12  24  37  57  87 117 149 193 246 291 329
#     4   9  20  38  64  90 113 144 186 231 279 343
#     4  10  20  37  58  83 115 153 189 226 282 346
#     4  11  22  36  57  81 113 158 200 237 285 343
#     4  11  21  35  57  85 114 148 196 247 282 324
#     4  10  22  41  60  82 117 158 192 229 289 356
#
# _framework density 17.942253999999998
#
# number of rings (size 3 to 8) (size 9 to 14) (size 15 to 20)
#    0.000    1.500    1.667    5.500    0.000    5.333 
#    0.000    4.167    0.000    0.000    0.000    0.000 
#    0.000    0.000    0.000    0.000    0.000    0.000 
#
# Total GULP energy -268261.237089 kJ/mol
# GULP energy per Si atom -5588.775773 kJ/mol
# Density = 1.790142 g / cm^3
# Si number density = 17.942254 Si / 1000 Ang^3
#
#
#
# Elastic Constant Matrix: (Units=GPa)
#
#
# Indices 1 2 3 4 5 6 
#
# 1 87.5152 43.3955 29.1128 0.0000 0.0000 0.0000
# 2 43.3955 143.9167 41.2211 0.0000 0.0000 0.0000
# 3 29.1128 41.2211 92.9571 0.0000 0.0000 0.0000
# 4 0.0000 0.0000 0.0000 13.4385 0.0000 0.0000
# 5 0.0000 0.0000 0.0000 0.0000 33.1648 0.0000
# 6 0.0000 0.0000 0.0000 0.0000 0.0000 26.6112
#
#
#
# Elastic Compliance Matrix: (Units=1/GPa)
#
#
# Indices 1 2 3 4 5 6 
#
# 1 0.014084 -0.003418 -0.002896 0.000000 0.000000 0.000000
# 2 -0.003418 0.008789 -0.002827 0.000000 0.000000 0.000000
# 3 -0.002896 -0.002827 0.012918 0.000000 0.000000 0.000000
# 4 0.000000 0.000000 0.000000 0.074413 0.000000 0.000000
# 5 0.000000 0.000000 0.000000 0.000000 0.030152 0.000000
# 6 0.000000 0.000000 0.000000 0.000000 0.000000 0.037578
#
#
# Mechanical properties :
#
#
# Convention : Reuss Voigt Hill
#
# Bulk Modulus (GPa) = 57.10664 61.31643 59.21153
# Shear Modulus (GPa) = 24.74612 28.68688 26.71650
#
# Velocity S-wave (km/s) = 3.71780 4.00289 3.86298
# Velocity P-wave (km/s) = 7.09412 7.45739 7.27802
#
# Compressibility (1/GPa) = 0.01751110
#
# Stress axis : x y z
#
# Youngs Moduli (GPa) = 71.00019 113.78287 77.41092
#
# Poissons Ratio (x) = 0.38886 0.22415
# Poissons Ratio (y) = 0.24265 0.21884
# Poissons Ratio (z) = 0.20559 0.32166
#
# Static dielectric constant tensor:
#      x y z
#    x 1.596870 0.000000 0.000000 
#    y 0.000000 1.614460 0.000000 
#    z 0.000000 0.000000 1.590720 
# 
# From -- ./inp_files/37684.got.cif
#   From: 2010.05.17/outbox.cif.g08.bks.cpg/sg53_19_cif.got.tgz:37684.got - 2010.06.03 12:45:16.
