data_PCOD9417633
_publ_section_title
;
Structure prediction by ZEFSAII (Michael W. Deem and Ramdas Pophale) SiO2 
 PCOD9417633
Probable space group: P M N A
;
_chemical_formula_sum "Si O2"
_cell_formula_units_Z 48
_cell_length_a 8.832833
_cell_length_b 14.821696
_cell_length_c 20.912218
_cell_angle_alpha 90.000000
_cell_angle_beta 90.000000
_cell_angle_gamma 90.000000
_cell_volume 2737.776671
_symmetry_space_group_name_H-M "P M N A"
_symmetry_group_IT_number 53
_symmetry_cell_setting 'orthorhombic'
loop_
_space_group_symop_operation_xyz
x,y,z
1/2-x,-y,1/2+z
x,-y,-z
1/2-x,y,1/2-z
-x,-y,-z
1/2+x,y,1/2-z
-x,y,z
1/2+x,-y,1/2+z
loop_
_atom_site_type_symbol
_atom_site_label
_atom_site_fract_x
_atom_site_fract_y
_atom_site_fract_z
Si Si1 0.317285 0.250709 0.123508
Si Si2 0.817408 0.062106 0.560912
Si Si3 0.682217 0.554207 0.435361
Si Si4 0.317614 0.941137 0.818546
Si Si5 0.818723 0.248331 0.981388
Si Si6 0.318758 0.556327 0.818898
O O1 0.500000 0.248943 0.117213
O O2 0.270636 0.159767 0.160155
O O3 0.274137 0.341585 0.160751
O O4 0.247225 0.251271 0.053015
O O5 0.744660 0.159737 0.552895
O O6 0.000000 0.070955 0.560053
O O7 0.775678 0.000000 0.500000
O O8 0.772729 0.010154 0.625417
O O9 0.724220 0.500000 0.500000
O O10 0.500000 0.547362 0.428593
O O11 0.723110 0.658626 0.446032
O O12 0.759123 0.509289 0.374302
O O13 0.250000 0.963858 0.750000
O O14 0.500000 0.941885 0.814880
O O15 0.000000 0.244321 0.984962
O O16 0.250000 0.534614 0.750000
O O17 0.500000 0.552407 0.815898
#
# Coordination Sequence:
#
# PCOD9417633 Si02
#       6
#     8   8   8   8   8   8
#     4  10  20  36  57  84 118 152 186 227 284 348
#     4  10  20  38  60  80 113 154 190 230 279 337
#     4  10  21  39  59  82 117 153 190 239 289 338
#     4  10  21  37  57  82 114 152 185 227 282 334
#     4  11  22  35  58  89 115 145 188 241 286 328
#     4  11  23  37  59  87 118 155 193 237 287 345
#
# _framework density 17.532475000000002
#
# number of rings (size 3 to 8) (size 9 to 14) (size 15 to 20)
#    0.000    1.667    3.333    1.500    0.000    4.000 
#    0.000    0.833    0.000    2.000    0.000    0.000 
#    0.000    0.000    0.000    0.000    0.000    0.000 
#
# Total GULP energy -268146.140602 kJ/mol
# GULP energy per Si atom -5586.377929 kJ/mol
# Density = 1.749257 g / cm^3
# Si number density = 17.532475 Si / 1000 Ang^3
#
#
#
# Elastic Constant Matrix: (Units=GPa)
#
#
# Indices 1 2 3 4 5 6 
#
# 1 19.7330 39.4626 43.4710 0.0000 0.0000 0.0000
# 2 39.4626 150.6319 89.9382 0.0000 0.0000 0.0000
# 3 43.4710 89.9382 178.5879 0.0000 0.0000 0.0000
# 4 0.0000 0.0000 0.0000 20.5673 0.0000 0.0000
# 5 0.0000 0.0000 0.0000 0.0000 32.1320 0.0000
# 6 0.0000 0.0000 0.0000 0.0000 0.0000 27.5354
#
#
#
# Elastic Compliance Matrix: (Units=1/GPa)
#
#
# Indices 1 2 3 4 5 6 
#
# 1 0.160750 -0.026813 -0.025626 0.000000 0.000000 0.000000
# 2 -0.026813 0.013966 -0.000507 0.000000 0.000000 0.000000
# 3 -0.025626 -0.000507 0.012092 0.000000 0.000000 0.000000
# 4 0.000000 0.000000 0.000000 0.048621 0.000000 0.000000
# 5 0.000000 0.000000 0.000000 0.000000 0.031122 0.000000
# 6 0.000000 0.000000 0.000000 0.000000 0.000000 0.036317
#
#
# Mechanical properties :
#
#
# Convention : Reuss Voigt Hill
#
# Bulk Modulus (GPa) = 12.35826 77.18848 44.77337
# Shear Modulus (GPa) = 11.47500 27.78568 19.63034
#
# Velocity S-wave (km/s) = 2.56109 3.98529 3.34976
# Velocity P-wave (km/s) = 3.97614 8.08074 6.36820
#
# Compressibility (1/GPa) = 0.08091754
#
# Stress axis : x y z
#
# Youngs Moduli (GPa) = 6.22084 71.60480 82.69744
#
# Poissons Ratio (x) = 1.91993 2.11919
# Poissons Ratio (y) = 0.16680 0.04189
# Poissons Ratio (z) = 0.15941 0.03627
#
# Static dielectric constant tensor:
#      x y z
#    x 1.589500 0.000000 0.000000 
#    y 0.000000 1.588830 0.000000 
#    z 0.000000 0.000000 1.560150 
# 
# From -- ./inp_files/26175.got.cif
#   From: 2010.05.17/outbox.cif.g08.bks.cpg/sg53_14_cif.got.tgz:26175.got - 2010.06.03 12:45:16.
