data_PCOD9417480
_publ_section_title
;
Structure prediction by ZEFSAII (Michael W. Deem and Ramdas Pophale) SiO2 
 PCOD9417480
Probable space group: P M N A
;
_chemical_formula_sum "Si O2"
_cell_formula_units_Z 48
_cell_length_a 8.733296
_cell_length_b 15.432210
_cell_length_c 19.674187
_cell_angle_alpha 90.000000
_cell_angle_beta 90.000000
_cell_angle_gamma 90.000000
_cell_volume 2651.570017
_symmetry_space_group_name_H-M "P M N A"
_symmetry_group_IT_number 53
_symmetry_cell_setting 'orthorhombic'
loop_
_space_group_symop_operation_xyz
x,y,z
1/2-x,-y,1/2+z
x,-y,-z
1/2-x,y,1/2-z
-x,-y,-z
1/2+x,y,1/2-z
-x,y,z
1/2+x,-y,1/2+z
loop_
_atom_site_type_symbol
_atom_site_label
_atom_site_fract_x
_atom_site_fract_y
_atom_site_fract_z
Si Si1 0.684143 0.374819 0.324638
Si Si2 0.683194 0.766209 0.562874
Si Si3 0.815319 0.726992 0.415490
Si Si4 0.815275 0.892861 0.325446
Si Si5 0.315171 0.956894 0.927884
Si Si6 0.315929 0.437103 0.824652
O O1 0.750000 0.354590 0.250000
O O2 0.500000 0.379450 0.320897
O O3 0.729228 0.302450 0.379242
O O4 0.749108 0.469270 0.343993
O O5 0.500000 0.769331 0.561130
O O6 0.744519 0.736649 0.489637
O O7 0.746664 0.861702 0.578070
O O8 0.768242 0.808213 0.368460
O O9 0.774260 0.638014 0.377569
O O10 0.000000 0.730341 0.421873
O O11 0.750000 0.891436 0.250000
O O12 0.000000 0.892134 0.322006
O O13 0.768678 0.978053 0.367750
O O14 0.500000 0.950313 0.927831
O O15 0.270969 0.000000 0.000000
O O16 0.250000 0.415791 0.750000
O O17 0.500000 0.442227 0.820285
#
# Coordination Sequence:
#
# PCOD9417480 Si02
#       6
#     8   8   8   8   8   8
#     4  10  22  40  59  82 114 150 191 238 288 340
#     4  11  24  38  58  87 115 147 190 241 289 332
#     4  10  21  38  58  83 117 154 191 227 280 350
#     4  10  21  37  58  85 115 149 187 230 281 336
#     4  10  20  39  62  80 110 153 190 228 280 342
#     4  10  20  35  59  86 114 152 193 236 284 338
#
# _framework density 18.102481000000001
#
# number of rings (size 3 to 8) (size 9 to 14) (size 15 to 20)
#    0.000    1.833    1.667    3.000    0.000    7.000 
#    0.000    6.667    0.000    0.000    0.000    0.000 
#    0.000    0.000    0.000    0.000    0.000    0.000 
#
# Total GULP energy -268144.677220 kJ/mol
# GULP energy per Si atom -5586.347442 kJ/mol
# Density = 1.806128 g / cm^3
# Si number density = 18.102481 Si / 1000 Ang^3
#
#
#
# Elastic Constant Matrix: (Units=GPa)
#
#
# Indices 1 2 3 4 5 6 
#
# 1 34.6449 54.7248 47.6153 0.0000 0.0000 0.0000
# 2 54.7248 195.0278 138.0077 0.0000 0.0000 0.0000
# 3 47.6153 138.0077 167.5132 0.0000 0.0000 0.0000
# 4 0.0000 0.0000 0.0000 39.1308 0.0000 0.0000
# 5 0.0000 0.0000 0.0000 0.0000 25.8482 0.0000
# 6 0.0000 0.0000 0.0000 0.0000 0.0000 34.0162
#
#
#
# Elastic Compliance Matrix: (Units=1/GPa)
#
#
# Indices 1 2 3 4 5 6 
#
# 1 0.055073 -0.010494 -0.007009 0.000000 0.000000 0.000000
# 2 -0.010494 0.014295 -0.008795 0.000000 0.000000 0.000000
# 3 -0.007009 -0.008795 0.015207 0.000000 0.000000 0.000000
# 4 0.000000 0.000000 0.000000 0.025555 0.000000 0.000000
# 5 0.000000 0.000000 0.000000 0.000000 0.038687 0.000000
# 6 0.000000 0.000000 0.000000 0.000000 0.000000 0.029398
#
#
# Mechanical properties :
#
#
# Convention : Reuss Voigt Hill
#
# Bulk Modulus (GPa) = 31.26818 97.54238 64.40528
# Shear Modulus (GPa) = 20.70635 30.25490 25.48062
#
# Velocity S-wave (km/s) = 3.38574 4.09260 3.75584
# Velocity P-wave (km/s) = 5.70918 8.73687 7.37996
#
# Compressibility (1/GPa) = 0.03198139
#
# Stress axis : x y z
#
# Youngs Moduli (GPa) = 18.15762 69.95300 65.75714
#
# Poissons Ratio (x) = 0.73407 0.46090
# Poissons Ratio (y) = 0.19054 0.57830
# Poissons Ratio (z) = 0.12727 0.61520
#
# Static dielectric constant tensor:
#      x y z
#    x 1.612710 0.000000 0.000000 
#    y 0.000000 1.605570 0.000000 
#    z 0.000000 0.000000 1.588180 
# 
# From -- ./inp_files/26261.got.cif
#   From: 2010.05.17/outbox.cif.g08.bks.cpg/sg53_14_cif.got.tgz:26261.got - 2010.06.03 12:45:16.
