data_PCOD9417069
_publ_section_title
;
Structure prediction by ZEFSAII (Michael W. Deem and Ramdas Pophale) SiO2 
 PCOD9417069
Probable space group: P M N A
;
_chemical_formula_sum "Si O2"
_cell_formula_units_Z 64
_cell_length_a 9.382830
_cell_length_b 22.406021
_cell_length_c 16.612151
_cell_angle_alpha 90.000000
_cell_angle_beta 90.000000
_cell_angle_gamma 90.000000
_cell_volume 3492.403836
_symmetry_space_group_name_H-M "P M N A"
_symmetry_group_IT_number 53
_symmetry_cell_setting 'orthorhombic'
loop_
_space_group_symop_operation_xyz
x,y,z
1/2-x,-y,1/2+z
x,-y,-z
1/2-x,y,1/2-z
-x,-y,-z
1/2+x,y,1/2-z
-x,y,z
1/2+x,-y,1/2+z
loop_
_atom_site_type_symbol
_atom_site_label
_atom_site_fract_x
_atom_site_fract_y
_atom_site_fract_z
Si Si1 0.667632 0.053605 0.331181
Si Si2 0.665560 0.419637 0.621328
Si Si3 0.163102 0.534598 0.678011
Si Si4 0.829593 0.739958 0.991588
Si Si5 0.663121 0.714355 0.325691
Si Si6 0.167593 0.090270 0.831566
Si Si7 0.328733 0.123662 0.489034
Si Si8 0.335907 0.373568 0.031844
O O1 0.750000 0.072466 0.250000
O O2 0.500000 0.069134 0.323128
O O3 0.721676 0.082023 0.415412
O O4 0.677095 0.981827 0.336369
O O5 0.500000 0.436078 0.610347
O O6 0.754374 0.473746 0.657663
O O7 0.668898 0.357943 0.671109
O O8 0.740471 0.402320 0.537940
O O9 0.250000 0.563923 0.750000
O O10 0.163132 0.579457 0.603751
O O11 0.000000 0.521007 0.700186
O O12 0.804781 0.807537 0.965554
O O13 0.738003 0.689389 0.947864
O O14 0.000000 0.726736 0.986796
O O15 0.788813 0.735415 0.086287
O O16 0.750000 0.736544 0.250000
O O17 0.500000 0.732822 0.317132
O O18 0.250000 0.108936 0.750000
O O19 0.000000 0.106642 0.823963
O O20 0.222568 0.112883 0.919011
O O21 0.500000 0.113855 0.494596
O O22 0.500000 0.364631 0.005156
#
# Coordination Sequence:
#
# PCOD9417069 Si02
#       8
#     8   8   8   8   8   8   8   8
#     4   9  17  31  52  77 104 136 173 214 261 309
#     4  10  20  34  54  78 102 130 164 201 246 303
#     4  11  23  36  52  76 103 129 160 202 251 302
#     4   9  19  35  52  70  94 129 174 214 249 297
#     4   9  18  30  45  68  96 126 159 196 240 291
#     4   9  17  30  50  78 110 140 171 207 251 308
#     4   9  17  32  54  75  99 137 180 216 253 307
#     4  10  21  37  54  73  99 130 165 206 251 298
#
# _framework density 18.325486999999999
#
# number of rings (size 3 to 8) (size 9 to 14) (size 15 to 20)
#    0.000    2.500    0.000    3.000    0.000    9.000 
#    0.000    2.500    0.000    6.000    0.000    0.000 
#    0.000    0.000    0.000    0.000    0.000    0.000 
#
# Total GULP energy -356805.595268 kJ/mol
# GULP energy per Si atom -5575.087426 kJ/mol
# Density = 1.828378 g / cm^3
# Si number density = 18.325487 Si / 1000 Ang^3
#
#
#
# Elastic Constant Matrix: (Units=GPa)
#
#
# Indices 1 2 3 4 5 6 
#
# 1 82.0928 26.4873 36.1739 0.0000 0.0000 0.0000
# 2 26.4873 50.5428 25.8142 0.0000 0.0000 0.0000
# 3 36.1739 25.8142 74.7608 0.0000 0.0000 0.0000
# 4 0.0000 0.0000 0.0000 -3.0693 0.0000 0.0000
# 5 0.0000 0.0000 0.0000 0.0000 29.7166 0.0000
# 6 0.0000 0.0000 0.0000 0.0000 0.0000 15.4560
#
#
#
# Elastic Compliance Matrix: (Units=1/GPa)
#
#
# Indices 1 2 3 4 5 6 
#
# 1 0.016699 -0.005615 -0.006141 0.000000 0.000000 0.000000
# 2 -0.005615 0.025909 -0.006230 0.000000 0.000000 0.000000
# 3 -0.006141 -0.006230 0.018499 0.000000 0.000000 0.000000
# 4 0.000000 0.000000 0.000000 -0.325804 0.000000 0.000000
# 5 0.000000 0.000000 0.000000 0.000000 0.033651 0.000000
# 6 0.000000 0.000000 0.000000 0.000000 0.000000 0.064700
#
#
# Mechanical properties :
#
#
# Convention : Reuss Voigt Hill
#
# Bulk Modulus (GPa) = 39.78378 42.70523 41.24450
# Shear Modulus (GPa) = -40.98470 16.34871 -12.31799
#
# Velocity S-wave (km/s) = -4.73428 2.99009 -2.59545
# Velocity P-wave (km/s) = 2.85095 5.93929 3.68425
#
# Compressibility (1/GPa) = 0.02513587
#
# Stress axis : x y z
#
# Youngs Moduli (GPa) = 59.88354 38.59622 54.05832
#
# Poissons Ratio (x) = 0.21670 0.33199
# Poissons Ratio (y) = 0.33622 0.33676
# Poissons Ratio (z) = 0.36777 0.24044
#
# Static dielectric constant tensor:
#      x y z
#    x 1.630830 0.000000 0.000000 
#    y 0.000000 1.644030 0.000000 
#    z 0.000000 0.000000 1.650360 
# 
# From -- ./inp_files/20987.got.cif
#   From: 2010.05.17/outbox.cif.g08.bks.cpg/sg53_11_cif.got.tgz:20987.got - 2010.06.03 12:45:16.
