data_PCOD9417847
_publ_section_title
;
Structure prediction by ZEFSAII (Michael W. Deem and Ramdas Pophale) SiO2 
 PCOD9417847
Probable space group: P M N A
;
_chemical_formula_sum "Si O2"
_cell_formula_units_Z 48
_cell_length_a 8.538236
_cell_length_b 9.684769
_cell_length_c 31.440693
_cell_angle_alpha 90.000000
_cell_angle_beta 90.000000
_cell_angle_gamma 90.000000
_cell_volume 2599.857419
_symmetry_space_group_name_H-M "P M N A"
_symmetry_group_IT_number 53
_symmetry_cell_setting 'orthorhombic'
loop_
_space_group_symop_operation_xyz
x,y,z
1/2-x,-y,1/2+z
x,-y,-z
1/2-x,y,1/2-z
-x,-y,-z
1/2+x,y,1/2-z
-x,y,z
1/2+x,-y,1/2+z
loop_
_atom_site_type_symbol
_atom_site_label
_atom_site_fract_x
_atom_site_fract_y
_atom_site_fract_z
Si Si1 0.687603 0.844802 0.625023
Si Si2 0.689529 0.661040 0.951277
Si Si3 0.811170 0.655417 0.796642
Si Si4 0.312072 0.662919 0.296816
Si Si5 0.190384 0.656084 0.451684
Si Si6 0.812071 0.844996 0.373931
O O1 0.500000 0.849931 0.626290
O O2 0.740904 0.764420 0.582891
O O3 0.742716 0.756772 0.666052
O O4 0.752918 0.998933 0.625917
O O5 0.500000 0.667733 0.949331
O O6 0.737014 0.502119 0.942131
O O7 0.737644 0.691228 0.000034
O O8 0.750000 0.694548 0.750000
O O9 0.762644 0.496481 0.805187
O O10 0.000000 0.657545 0.795629
O O11 0.250000 0.699812 0.250000
O O12 0.500000 0.668360 0.296897
O O13 0.246386 0.762949 0.332695
O O14 0.244303 0.761769 0.415797
O O15 0.000000 0.656648 0.451653
O O16 0.000000 0.844831 0.374288
#
# Coordination Sequence:
#
# PCOD9417847 Si02
#       6
#     8   8   8   8   8   8
#     4  11  23  37  51  77 114 147 177 219 270 321
#     4   9  17  35  60  82 103 136 180 226 270 321
#     4   9  20  37  58  80 105 136 175 219 265 313
#     4  10  20  37  59  83 107 136 174 220 267 316
#     4   8  17  34  58  83 106 134 178 228 272 318
#     4  11  22  36  54  79 109 145 181 218 265 319
#
# _framework density 18.462548999999999
#
# number of rings (size 3 to 8) (size 9 to 14) (size 15 to 20)
#    0.000    2.333    0.000    3.500    0.000    3.333 
#    0.000    9.167    0.000    0.000    0.000    0.000 
#    0.000    0.000    0.000    0.000    0.000    0.000 
#
# Total GULP energy -267988.982014 kJ/mol
# GULP energy per Si atom -5583.103792 kJ/mol
# Density = 1.842053 g / cm^3
# Si number density = 18.462549 Si / 1000 Ang^3
#
#
#
# Elastic Constant Matrix: (Units=GPa)
#
#
# Indices 1 2 3 4 5 6 
#
# 1 35.9316 38.2964 38.1539 0.0000 0.0000 0.0000
# 2 38.2964 160.7514 144.9107 0.0000 0.0000 0.0000
# 3 38.1539 144.9107 182.0070 0.0000 0.0000 0.0000
# 4 0.0000 0.0000 0.0000 -10.5885 0.0000 0.0000
# 5 0.0000 0.0000 0.0000 0.0000 29.7379 0.0000
# 6 0.0000 0.0000 0.0000 0.0000 0.0000 29.0682
#
#
#
# Elastic Compliance Matrix: (Units=1/GPa)
#
#
# Indices 1 2 3 4 5 6 
#
# 1 0.037663 -0.006573 -0.002662 0.000000 0.000000 0.000000
# 2 -0.006573 0.023185 -0.017082 0.000000 0.000000 0.000000
# 3 -0.002662 -0.017082 0.019652 0.000000 0.000000 0.000000
# 4 0.000000 0.000000 0.000000 -0.094442 0.000000 0.000000
# 5 0.000000 0.000000 0.000000 0.000000 0.033627 0.000000
# 6 0.000000 0.000000 0.000000 0.000000 0.000000 0.034402
#
#
# Mechanical properties :
#
#
# Convention : Reuss Voigt Hill
#
# Bulk Modulus (GPa) = 35.88451 91.26802 63.57626
# Shear Modulus (GPa) = 43.10006 20.13213 31.61610
#
# Velocity S-wave (km/s) = 4.83687 3.30575 4.14266
# Velocity P-wave (km/s) = 7.11845 8.00700 7.57576
#
# Compressibility (1/GPa) = 0.02786718
#
# Stress axis : x y z
#
# Youngs Moduli (GPa) = 26.55145 43.13107 50.88413
#
# Poissons Ratio (x) = 0.28349 0.13545
# Poissons Ratio (y) = 0.17452 0.86919
# Poissons Ratio (z) = 0.07068 0.73675
#
# Static dielectric constant tensor:
#      x y z
#    x 1.632180 0.000000 0.000000 
#    y 0.000000 1.611600 0.000000 
#    z 0.000000 0.000000 1.620210 
# 
# From -- ./inp_files/37689.got.cif
#   From: 2010.05.17/outbox.cif.g08.bks.cpg/sg53_19_cif.got.tgz:37689.got - 2010.06.03 12:45:16.
