data_PCOD9417120
_publ_section_title
;
Structure prediction by ZEFSAII (Michael W. Deem and Ramdas Pophale) SiO2 
 PCOD9417120
Probable space group: P M N A
;
_chemical_formula_sum "Si O2"
_cell_formula_units_Z 64
_cell_length_a 9.060414
_cell_length_b 14.548920
_cell_length_c 25.206431
_cell_angle_alpha 90.000000
_cell_angle_beta 90.000000
_cell_angle_gamma 90.000000
_cell_volume 3322.692539
_symmetry_space_group_name_H-M "P M N A"
_symmetry_group_IT_number 53
_symmetry_cell_setting 'orthorhombic'
loop_
_space_group_symop_operation_xyz
x,y,z
1/2-x,-y,1/2+z
x,-y,-z
1/2-x,y,1/2-z
-x,-y,-z
1/2+x,y,1/2-z
-x,y,z
1/2+x,-y,1/2+z
loop_
_atom_site_type_symbol
_atom_site_label
_atom_site_fract_x
_atom_site_fract_y
_atom_site_fract_z
Si Si1 0.322962 0.785444 0.806236
Si Si2 0.831276 0.215664 0.009948
Si Si3 0.323677 0.517653 0.061551
Si Si4 0.325658 0.729128 0.093255
Si Si5 0.826107 0.346229 0.106817
Si Si6 0.828667 0.999730 0.669143
Si Si7 0.824878 0.184621 0.803792
Si Si8 0.661823 0.057055 0.053650
O O1 0.250000 0.761645 0.750000
O O2 0.500000 0.775752 0.804806
O O3 0.256294 0.719844 0.851579
O O4 0.291602 0.894008 0.817019
O O5 0.726134 0.217374 0.959373
O O6 0.000000 0.211558 0.992050
O O7 0.809757 0.302286 0.048153
O O8 0.789912 0.130247 0.047073
O O9 0.500000 0.501366 0.064039
O O10 0.295844 0.622260 0.079352
O O11 0.242925 0.446789 0.100540
O O12 0.278956 0.500000 0.000000
O O13 0.500000 0.741886 0.101558
O O14 0.239496 0.764242 0.144649
O O15 0.000000 0.348811 0.119451
O O16 0.819914 0.004519 0.605300
O O17 0.000000 0.016984 0.684809
O O18 0.723404 0.077612 0.691559
O O19 0.750000 0.220979 0.750000
O O20 0.000000 0.192772 0.801444
O O21 0.500000 0.103831 0.060065
O O22 0.659475 0.000000 0.000000
#
# Coordination Sequence:
#
# PCOD9417120 Si02
#       8
#     8   8   8   8   8   8   8   8
#     4  11  23  40  63  89 123 164 211 259 307 365
#     4  11  22  35  56  89 126 162 199 246 306 365
#     4  10  21  39  65  95 124 161 205 250 305 369
#     4  11  23  41  66  93 125 162 205 254 307 369
#     4  11  23  38  60  91 128 163 200 251 307 364
#     4  10  21  38  61  91 123 163 211 257 306 360
#     4  12  26  44  66  91 124 163 208 258 308 363
#     4  10  20  34  54  82 119 164 207 250 304 365
#
# _framework density 19.261486999999999
#
# number of rings (size 3 to 8) (size 9 to 14) (size 15 to 20)
#    0.000    1.250    2.500    3.750    0.000    6.000 
#    0.000    0.625    0.000    3.000    0.000    0.000 
#    0.000    0.000    0.000    0.000    0.000    0.000 
#
# Total GULP energy -357656.940633 kJ/mol
# GULP energy per Si atom -5588.389697 kJ/mol
# Density = 1.921765 g / cm^3
# Si number density = 19.261487 Si / 1000 Ang^3
#
#
#
# Elastic Constant Matrix: (Units=GPa)
#
#
# Indices 1 2 3 4 5 6 
#
# 1 100.0087 55.1648 67.6035 0.0000 0.0000 0.0000
# 2 55.1648 68.2768 32.9782 0.0000 0.0000 0.0000
# 3 67.6035 32.9782 116.9625 0.0000 0.0000 0.0000
# 4 0.0000 0.0000 0.0000 11.3676 0.0000 0.0000
# 5 0.0000 0.0000 0.0000 0.0000 30.6089 0.0000
# 6 0.0000 0.0000 0.0000 0.0000 0.0000 13.9195
#
#
#
# Elastic Compliance Matrix: (Units=1/GPa)
#
#
# Indices 1 2 3 4 5 6 
#
# 1 0.025751 -0.015763 -0.010439 0.000000 0.000000 0.000000
# 2 -0.015763 0.026605 0.001610 0.000000 0.000000 0.000000
# 3 -0.010439 0.001610 0.014130 0.000000 0.000000 0.000000
# 4 0.000000 0.000000 0.000000 0.087969 0.000000 0.000000
# 5 0.000000 0.000000 0.000000 0.000000 0.032670 0.000000
# 6 0.000000 0.000000 0.000000 0.000000 0.000000 0.071842
#
#
# Mechanical properties :
#
#
# Convention : Reuss Voigt Hill
#
# Bulk Modulus (GPa) = 57.80460 66.30455 62.05458
# Shear Modulus (GPa) = 15.92767 19.81265 17.87016
#
# Velocity S-wave (km/s) = 2.87874 3.21068 3.04923
# Velocity P-wave (km/s) = 6.41289 6.94570 6.68460
#
# Compressibility (1/GPa) = 0.01729966
#
# Stress axis : x y z
#
# Youngs Moduli (GPa) = 38.83350 37.58694 70.77298
#
# Poissons Ratio (x) = 0.59250 0.73882
# Poissons Ratio (y) = 0.61215 -0.11393
# Poissons Ratio (z) = 0.40539 -0.06051
#
# Static dielectric constant tensor:
#      x y z
#    x 1.659280 0.000000 0.000000 
#    y 0.000000 1.676710 0.000000 
#    z 0.000000 0.000000 1.667670 
# 
# From -- ./inp_files/34251.got.cif
#   From: 2010.05.17/outbox.cif.g08.bks.cpg/sg53_18_cif.got.tgz:34251.got - 2010.06.03 12:45:16.
