data_PCOD9417944
_publ_section_title
;
Structure prediction by ZEFSAII (Michael W. Deem and Ramdas Pophale) SiO2 
 PCOD9417944
Probable space group: P M N A
;
_chemical_formula_sum "Si O2"
_cell_formula_units_Z 48
_cell_length_a 7.820960
_cell_length_b 15.445985
_cell_length_c 18.017084
_cell_angle_alpha 90.000000
_cell_angle_beta 90.000000
_cell_angle_gamma 90.000000
_cell_volume 2176.507544
_symmetry_space_group_name_H-M "P M N A"
_symmetry_group_IT_number 53
_symmetry_cell_setting 'orthorhombic'
loop_
_space_group_symop_operation_xyz
x,y,z
1/2-x,-y,1/2+z
x,-y,-z
1/2-x,y,1/2-z
-x,-y,-z
1/2+x,y,1/2-z
-x,y,z
1/2+x,-y,1/2+z
loop_
_atom_site_type_symbol
_atom_site_label
_atom_site_fract_x
_atom_site_fract_y
_atom_site_fract_z
Si Si1 0.295689 0.518905 0.332259
Si Si2 0.709133 0.878825 0.434238
Si Si3 0.207569 0.935677 0.898846
Si Si4 0.295685 0.763413 0.668653
Si Si5 0.307598 0.624886 0.949694
Si Si6 0.195907 0.690036 0.103118
O O1 0.250000 0.487082 0.250000
O O2 0.500000 0.521087 0.337570
O O3 0.235035 0.457458 0.398909
O O4 0.225708 0.616312 0.344571
O O5 0.500000 0.875142 0.433703
O O6 0.756195 0.898930 0.519755
O O7 0.773036 0.785981 0.406015
O O8 0.765124 0.965271 0.390631
O O9 0.261870 0.862879 0.841079
O O10 0.000000 0.938703 0.898177
O O11 0.250000 0.731621 0.750000
O O12 0.500000 0.758123 0.657816
O O13 0.211100 0.705310 0.606038
O O14 0.500000 0.616905 0.977590
O O15 0.195788 0.646198 0.021423
O O16 0.000000 0.703036 0.127523
#
# Coordination Sequence:
#
# PCOD9417944 Si02
#       6
#     8   8   8   8   8   8
#     4  11  24  41  60  82 112 150 188 231 281 337
#     4   8  13  27  53  84 107 135 181 226 267 317
#     4   8  14  26  51  80 108 140 180 225 266 319
#     4  11  21  35  54  80 115 152 189 233 283 339
#     4  12  24  38  58  84 113 146 186 236 287 339
#     4  10  20  37  62  88 113 145 189 234 277 333
#
# _framework density 22.053678999999999
#
# number of rings (size 3 to 8) (size 9 to 14) (size 15 to 20)
#    0.000    2.000    1.667    4.500    0.000    3.333 
#    0.000    0.833    0.000    3.000    0.000    0.000 
#    0.000    0.000    0.000    0.000    0.000    0.000 
#
# Total GULP energy -267984.949659 kJ/mol
# GULP energy per Si atom -5583.019785 kJ/mol
# Density = 2.200348 g / cm^3
# Si number density = 22.053679 Si / 1000 Ang^3
#
#
#
# Elastic Constant Matrix: (Units=GPa)
#
#
# Indices 1 2 3 4 5 6 
#
# 1 50.4291 4.6153 -13.2151 0.0000 0.0000 0.0000
# 2 4.6153 160.6052 8.1602 0.0000 0.0000 0.0000
# 3 -13.2151 8.1602 32.5243 0.0000 0.0000 0.0000
# 4 0.0000 0.0000 0.0000 -12.7742 0.0000 0.0000
# 5 0.0000 0.0000 0.0000 0.0000 12.5187 0.0000
# 6 0.0000 0.0000 0.0000 0.0000 0.0000 -22.7043
#
#
#
# Elastic Compliance Matrix: (Units=1/GPa)
#
#
# Indices 1 2 3 4 5 6 
#
# 1 0.022390 -0.001120 0.009378 0.000000 0.000000 0.000000
# 2 -0.001120 0.006363 -0.002051 0.000000 0.000000 0.000000
# 3 0.009378 -0.002051 0.035071 0.000000 0.000000 0.000000
# 4 0.000000 0.000000 0.000000 -0.078283 0.000000 0.000000
# 5 0.000000 0.000000 0.000000 0.000000 0.079881 0.000000
# 6 0.000000 0.000000 0.000000 0.000000 0.000000 -0.044044
#
#
# Mechanical properties :
#
#
# Convention : Reuss Voigt Hill
#
# Bulk Modulus (GPa) = 13.11678 26.96438 20.04058
# Shear Modulus (GPa) = 145.44944 11.67459 78.56202
#
# Velocity S-wave (km/s) = 8.12992 2.30330 5.97498
# Velocity P-wave (km/s) = 9.69990 4.39623 7.53044
#
# Compressibility (1/GPa) = 0.07623824
#
# Stress axis : x y z
#
# Youngs Moduli (GPa) = 44.66290 157.16199 28.51320
#
# Poissons Ratio (x) = 0.17601 -0.26741
# Poissons Ratio (y) = 0.05002 0.05849
# Poissons Ratio (z) = -0.41886 0.32241
#
# Static dielectric constant tensor:
#      x y z
#    x 1.807160 0.000000 0.000000 
#    y 0.000000 1.871580 0.000000 
#    z 0.000000 0.000000 1.772070 
# 
# From -- ./inp_files/26254.got.cif
#   From: 2010.05.17/outbox.cif.g08.bks.cpg/sg53_14_cif.got.tgz:26254.got - 2010.06.03 12:45:16.
