data_PCOD9417322
_publ_section_title
;
Structure prediction by ZEFSAII (Michael W. Deem and Ramdas Pophale) SiO2 
 PCOD9417322
Probable space group: P M N A
;
_chemical_formula_sum "Si O2"
_cell_formula_units_Z 64
_cell_length_a 7.984523
_cell_length_b 13.126794
_cell_length_c 29.955861
_cell_angle_alpha 90.000000
_cell_angle_beta 90.000000
_cell_angle_gamma 90.000000
_cell_volume 3139.709397
_symmetry_space_group_name_H-M "P M N A"
_symmetry_group_IT_number 53
_symmetry_cell_setting 'orthorhombic'
loop_
_space_group_symop_operation_xyz
x,y,z
1/2-x,-y,1/2+z
x,-y,-z
1/2-x,y,1/2-z
-x,-y,-z
1/2+x,y,1/2-z
-x,y,z
1/2+x,-y,1/2+z
loop_
_atom_site_type_symbol
_atom_site_label
_atom_site_fract_x
_atom_site_fract_y
_atom_site_fract_z
Si Si1 0.296479 0.042525 0.451971
Si Si2 0.794618 0.483992 0.050696
Si Si3 0.800903 0.029882 0.646382
Si Si4 0.307887 0.260636 0.428863
Si Si5 0.695780 0.193869 0.164319
Si Si6 0.197052 0.767191 0.198102
Si Si7 0.199181 0.607227 0.796787
Si Si8 0.795152 0.576173 0.140282
O O1 0.500000 0.044027 0.451001
O O2 0.245099 0.985126 0.406151
O O3 0.231421 0.158739 0.449465
O O4 0.244273 0.000000 0.500000
O O5 0.733805 0.370963 0.063280
O O6 0.741801 0.564445 0.088652
O O7 0.000000 0.484919 0.051761
O O8 0.742570 0.500000 0.000000
O O9 0.751279 0.923268 0.670848
O O10 0.000000 0.039069 0.649073
O O11 0.729280 0.128017 0.671340
O O12 0.500000 0.265993 0.444817
O O13 0.302672 0.237134 0.376586
O O14 0.500000 0.190470 0.151435
O O15 0.717874 0.281466 0.200555
O O16 0.250000 0.771297 0.250000
O O17 0.267857 0.672539 0.168782
O O18 0.000000 0.750765 0.199495
O O19 0.250000 0.558197 0.750000
O O20 0.252561 0.529341 0.835376
O O21 0.000000 0.619172 0.799199
O O22 0.000000 0.579727 0.140434
#
# Coordination Sequence:
#
# PCOD9417322 Si02
#       8
#     8   8   8   8   8   8   8   8
#     4   9  18  32  54  86 118 152 199 248 295 345
#     4   9  16  28  51  83 113 145 187 230 279 336
#     4  10  22  39  58  82 115 153 197 241 292 352
#     4   9  16  30  52  76 108 149 185 230 284 335
#     4  10  20  35  55  79 107 144 183 227 280 334
#     4  11  23  40  62  84 114 153 197 246 299 355
#     4  11  21  35  56  83 113 142 180 225 275 336
#     4   9  19  35  55  82 114 148 186 234 285 339
#
# _framework density 20.384050999999999
#
# number of rings (size 3 to 8) (size 9 to 14) (size 15 to 20)
#    0.000    2.250    1.250    1.875    0.000    3.250 
#    0.000    5.625    0.000    0.375    0.000    0.000 
#    0.000    0.000    0.000    0.000    0.000    0.000 
#
# Total GULP energy -356671.397562 kJ/mol
# GULP energy per Si atom -5572.990587 kJ/mol
# Density = 2.033766 g / cm^3
# Si number density = 20.384051 Si / 1000 Ang^3
#
#
#
# Elastic Constant Matrix: (Units=GPa)
#
#
# Indices 1 2 3 4 5 6 
#
# 1 26.5149 8.8901 4.9256 0.0000 0.0000 0.0000
# 2 8.8901 141.6311 79.0788 0.0000 0.0000 0.0000
# 3 4.9256 79.0788 128.2976 0.0000 0.0000 0.0000
# 4 0.0000 0.0000 0.0000 23.3055 0.0000 0.0000
# 5 0.0000 0.0000 0.0000 0.0000 16.1434 0.0000
# 6 0.0000 0.0000 0.0000 0.0000 0.0000 8.2701
#
#
#
# Elastic Compliance Matrix: (Units=1/GPa)
#
#
# Indices 1 2 3 4 5 6 
#
# 1 0.038525 -0.002428 0.000017 0.000000 0.000000 0.000000
# 2 -0.002428 0.010919 -0.006637 0.000000 0.000000 0.000000
# 3 0.000017 -0.006637 0.011884 0.000000 0.000000 0.000000
# 4 0.000000 0.000000 0.000000 0.042908 0.000000 0.000000
# 5 0.000000 0.000000 0.000000 0.000000 0.061945 0.000000
# 6 0.000000 0.000000 0.000000 0.000000 0.000000 0.120918
#
#
# Mechanical properties :
#
#
# Convention : Reuss Voigt Hill
#
# Bulk Modulus (GPa) = 23.12993 53.58140 38.35567
# Shear Modulus (GPa) = 15.64432 23.11374 19.37903
#
# Velocity S-wave (km/s) = 2.77335 3.37102 3.08668
# Velocity P-wave (km/s) = 4.65048 6.44164 5.61790
#
# Compressibility (1/GPa) = 0.04323403
#
# Stress axis : x y z
#
# Youngs Moduli (GPa) = 25.95685 91.58747 84.14440
#
# Poissons Ratio (x) = 0.22237 -0.00147
# Poissons Ratio (y) = 0.06302 0.55844
# Poissons Ratio (z) = -0.00045 0.60783
#
# Static dielectric constant tensor:
#      x y z
#    x 1.755770 0.000000 0.000000 
#    y 0.000000 1.759370 0.000000 
#    z 0.000000 0.000000 1.766520 
# 
# From -- ./inp_files/38302.got.cif
#   From: 2010.05.17/outbox.cif.g08.bks.cpg/sg53_20_cif.got.tgz:38302.got - 2010.06.03 12:45:16.
