data_PCOD9417649
_publ_section_title
;
Structure prediction by ZEFSAII (Michael W. Deem and Ramdas Pophale) SiO2 
 PCOD9417649
Probable space group: P M N A
;
_chemical_formula_sum "Si O2"
_cell_formula_units_Z 40
_cell_length_a 10.203647
_cell_length_b 24.876884
_cell_length_c 8.678035
_cell_angle_alpha 90.000000
_cell_angle_beta 90.000000
_cell_angle_gamma 90.000000
_cell_volume 2202.788518
_symmetry_space_group_name_H-M "P M N A"
_symmetry_group_IT_number 53
_symmetry_cell_setting 'orthorhombic'
loop_
_space_group_symop_operation_xyz
x,y,z
1/2-x,-y,1/2+z
x,-y,-z
1/2-x,y,1/2-z
-x,-y,-z
1/2+x,y,1/2-z
-x,y,z
1/2+x,-y,1/2+z
loop_
_atom_site_type_symbol
_atom_site_label
_atom_site_fract_x
_atom_site_fract_y
_atom_site_fract_z
Si Si1 0.500000 0.558127 0.572065
Si Si2 0.254122 0.369688 0.436076
Si Si3 0.846879 0.947606 0.105961
Si Si4 0.343653 0.261511 0.603624
Si Si5 0.848743 0.843981 0.891998
Si Si6 0.000000 0.561443 0.558399
O O1 0.500000 0.500000 0.500000
O O2 0.373195 0.591116 0.524959
O O3 0.500000 0.555626 0.756826
O O4 0.250000 0.361603 0.250000
O O5 0.284486 0.313620 0.517898
O O6 0.124821 0.402165 0.484876
O O7 0.750000 0.948610 0.250000
O O8 0.000000 0.947007 0.155368
O O9 0.823929 0.894710 0.003003
O O10 0.827248 0.000000 0.000000
O O11 0.250000 0.251786 0.750000
O O12 0.500000 0.269348 0.640262
O O13 0.335799 0.210392 0.490722
O O14 0.750000 0.844050 0.750000
O O15 0.000000 0.847793 0.838020
O O16 0.000000 0.500000 0.500000
#
# Coordination Sequence:
#
# PCOD9417649 Si02
#       6
#     4   8   8   8   8   4
#     4  10  20  36  58  80 114 150 181 232 283 332
#     4  10  21  39  59  82 113 150 188 233 284 345
#     4  10  21  37  59  89 125 163 206 254 299 351
#     4  11  24  40  59  86 117 151 192 242 292 346
#     4  10  22  40  61  88 121 157 200 246 296 352
#     4  10  22  36  58  88 112 144 191 230 283 348
#
# _framework density 18.158801
#
# number of rings (size 3 to 8) (size 9 to 14) (size 15 to 20)
#    0.000    1.800    1.000    2.400    1.400    3.600 
#    0.000    0.000    0.000    0.000    0.000    0.000 
#    0.000    0.000    0.000    0.000    0.000    0.000 
#
# Total GULP energy -223340.076269 kJ/mol
# GULP energy per Si atom -5583.501907 kJ/mol
# Density = 1.811747 g / cm^3
# Si number density = 18.158801 Si / 1000 Ang^3
#
#
#
# Elastic Constant Matrix: (Units=GPa)
#
#
# Indices 1 2 3 4 5 6 
#
# 1 190.2774 91.4743 97.6141 0.0000 0.0000 0.0000
# 2 91.4743 162.1569 60.6939 0.0000 0.0000 0.0000
# 3 97.6141 60.6939 89.4447 0.0000 0.0000 0.0000
# 4 0.0000 0.0000 0.0000 23.1232 0.0000 0.0000
# 5 0.0000 0.0000 0.0000 0.0000 -20.5579 0.0000
# 6 0.0000 0.0000 0.0000 0.0000 0.0000 26.7932
#
#
#
# Elastic Compliance Matrix: (Units=1/GPa)
#
#
# Indices 1 2 3 4 5 6 
#
# 1 0.012742 -0.002658 -0.012102 0.000000 0.000000 0.000000
# 2 -0.002658 0.008821 -0.003085 0.000000 0.000000 0.000000
# 3 -0.012102 -0.003085 0.026480 0.000000 0.000000 0.000000
# 4 0.000000 0.000000 0.000000 0.043247 0.000000 0.000000
# 5 0.000000 0.000000 0.000000 0.000000 -0.048643 0.000000
# 6 0.000000 0.000000 0.000000 0.000000 0.000000 0.037323
#
#
# Mechanical properties :
#
#
# Convention : Reuss Voigt Hill
#
# Bulk Modulus (GPa) = 80.94648 104.60483 92.77566
# Shear Modulus (GPa) = 41.74469 18.67817 30.21143
#
# Velocity S-wave (km/s) = 4.79985 3.21066 4.08332
# Velocity P-wave (km/s) = 8.68285 8.45429 8.56933
#
# Compressibility (1/GPa) = 0.01235384
#
# Stress axis : x y z
#
# Youngs Moduli (GPa) = 78.48299 113.36727 37.76416
#
# Poissons Ratio (x) = 0.30134 0.45701
# Poissons Ratio (y) = 0.20862 0.11649
# Poissons Ratio (z) = 0.94977 0.34969
#
# Static dielectric constant tensor:
#      x y z
#    x 1.625280 0.000000 0.000000 
#    y 0.000000 1.596070 0.000000 
#    z 0.000000 0.000000 1.596870 
# 
# From -- ./inp_files/6354.got.cif
#   From: 2010.05.17/outbox.cif.g08.bks.cpg/sg53_4_cif.got.tgz:6354.got - 2010.06.03 12:45:16.
