data_PCOD9417295
_publ_section_title
;
Structure prediction by ZEFSAII (Michael W. Deem and Ramdas Pophale) SiO2 
 PCOD9417295
Probable space group: P M N A
;
_chemical_formula_sum "Si O2"
_cell_formula_units_Z 44
_cell_length_a 19.480228
_cell_length_b 9.183784
_cell_length_c 14.313508
_cell_angle_alpha 90.000000
_cell_angle_beta 90.000000
_cell_angle_gamma 90.000000
_cell_volume 2560.718160
_symmetry_space_group_name_H-M "P M N A"
_symmetry_group_IT_number 53
_symmetry_cell_setting 'orthorhombic'
loop_
_space_group_symop_operation_xyz
x,y,z
1/2-x,-y,1/2+z
x,-y,-z
1/2-x,y,1/2-z
-x,-y,-z
1/2+x,y,1/2-z
-x,y,z
1/2+x,-y,1/2+z
loop_
_atom_site_type_symbol
_atom_site_label
_atom_site_fract_x
_atom_site_fract_y
_atom_site_fract_z
Si Si1 0.812068 0.521712 0.890818
Si Si2 0.580159 0.706162 0.714977
Si Si3 0.795335 0.224275 0.339892
Si Si4 0.227334 0.000000 0.500000
Si Si5 0.421312 0.015372 0.610173
Si Si6 0.295125 0.191107 0.660073
O O1 0.881545 0.584107 0.845704
O O2 0.751286 0.639127 0.873412
O O3 0.795073 0.364545 0.849190
O O4 0.821796 0.500000 0.000000
O O5 0.500000 0.677623 0.734406
O O6 0.630430 0.726727 0.803180
O O7 0.584704 0.856627 0.656527
O O8 0.750000 0.169669 0.250000
O O9 0.805314 0.105245 0.421019
O O10 0.266649 0.885206 0.433703
O O11 0.500000 0.064094 0.616237
O O12 0.371385 0.125080 0.663511
O O13 0.404552 0.000000 0.500000
O O14 0.250000 0.153188 0.750000
#
# Coordination Sequence:
#
# PCOD9417295 Si02
#       6
#     8   8   8   4   8   8
#     4  11  21  38  58  85 117 146 191 243 288 341
#     4  10  21  38  58  81 117 156 189 230 290 350
#     4  10  21  38  57  84 116 152 190 239 289 338
#     4  12  20  34  58  82 114 148 192 238 280 342
#     4  10  20  35  54  81 117 149 180 228 287 344
#     4  12  22  34  57  88 113 145 191 237 284 338
#
# _framework density 17.182680000000001
#
# number of rings (size 3 to 8) (size 9 to 14) (size 15 to 20)
#    0.000    1.273    2.727    6.545    0.000    1.091 
#    0.000    0.455    0.000    1.636    0.000    0.000 
#    0.000    0.000    0.000    0.000    0.000    0.000 
#
# Total GULP energy -245341.446418 kJ/mol
# GULP energy per Si atom -5575.941964 kJ/mol
# Density = 1.714357 g / cm^3
# Si number density = 17.182680 Si / 1000 Ang^3
#
#
#
# Elastic Constant Matrix: (Units=GPa)
#
#
# Indices 1 2 3 4 5 6 
#
# 1 146.2895 56.4511 70.8359 0.0000 0.0000 0.0000
# 2 56.4511 113.2956 45.9937 0.0000 0.0000 0.0000
# 3 70.8359 45.9937 111.9335 0.0000 0.0000 0.0000
# 4 0.0000 0.0000 0.0000 33.1075 0.0000 0.0000
# 5 0.0000 0.0000 0.0000 0.0000 18.5902 0.0000
# 6 0.0000 0.0000 0.0000 0.0000 0.0000 -102.8496
#
#
#
# Elastic Compliance Matrix: (Units=1/GPa)
#
#
# Indices 1 2 3 4 5 6 
#
# 1 0.010691 -0.003097 -0.005493 0.000000 0.000000 0.000000
# 2 -0.003097 0.011491 -0.002762 0.000000 0.000000 0.000000
# 3 -0.005493 -0.002762 0.013545 0.000000 0.000000 0.000000
# 4 0.000000 0.000000 0.000000 0.030205 0.000000 0.000000
# 5 0.000000 0.000000 0.000000 0.000000 0.053792 0.000000
# 6 0.000000 0.000000 0.000000 0.000000 0.000000 -0.009723
#
#
# Mechanical properties :
#
#
# Convention : Reuss Voigt Hill
#
# Bulk Modulus (GPa) = 76.78677 79.78668 78.28672
# Shear Modulus (GPa) = 36.48474 2.98546 19.73510
#
# Velocity S-wave (km/s) = 4.61297 1.31957 3.39270
# Velocity P-wave (km/s) = 8.55326 6.98977 7.81073
#
# Compressibility (1/GPa) = 0.01302308
#
# Stress axis : x y z
#
# Youngs Moduli (GPa) = 93.54063 87.02724 73.82896
#
# Poissons Ratio (x) = 0.26951 0.40554
# Poissons Ratio (y) = 0.28968 0.20390
# Poissons Ratio (z) = 0.51381 0.24035
#
# Static dielectric constant tensor:
#      x y z
#    x 1.590690 0.000000 0.000000 
#    y 0.000000 1.600110 0.000000 
#    z 0.000000 0.000000 1.571920 
# 
# From -- ./inp_files/23499.got.cif
#   From: 2010.05.17/outbox.cif.g08.bks.cpg/sg53_12_cif.got.tgz:23499.got - 2010.06.03 12:45:16.
