data_PCOD9417193
_publ_section_title
;
Structure prediction by ZEFSAII (Michael W. Deem and Ramdas Pophale) SiO2 
 PCOD9417193
Probable space group: P M N A
;
_chemical_formula_sum "Si O2"
_cell_formula_units_Z 48
_cell_length_a 19.391018
_cell_length_b 13.967320
_cell_length_c 7.693142
_cell_angle_alpha 90.000000
_cell_angle_beta 90.000000
_cell_angle_gamma 90.000000
_cell_volume 2083.614838
_symmetry_space_group_name_H-M "P M N A"
_symmetry_group_IT_number 53
_symmetry_cell_setting 'orthorhombic'
loop_
_space_group_symop_operation_xyz
x,y,z
1/2-x,-y,1/2+z
x,-y,-z
1/2-x,y,1/2-z
-x,-y,-z
1/2+x,y,1/2-z
-x,y,z
1/2+x,-y,1/2+z
loop_
_atom_site_type_symbol
_atom_site_label
_atom_site_fract_x
_atom_site_fract_y
_atom_site_fract_z
Si Si1 0.779298 0.608853 0.443802
Si Si2 0.672577 0.042230 0.696085
Si Si3 0.425416 0.884451 0.785752
Si Si4 0.576815 0.206294 0.604003
Si Si5 0.078283 0.676772 0.568104
Si Si6 0.867155 0.389404 0.060324
O O1 0.791387 0.500000 0.500000
O O2 0.750000 0.613141 0.250000
O O3 0.853897 0.656137 0.456096
O O4 0.713907 0.641560 0.561724
O O5 0.750000 0.058261 0.750000
O O6 0.630561 0.140730 0.704342
O O7 0.671451 0.000000 0.500000
O O8 0.634834 0.960012 0.806200
O O9 0.500000 0.932896 0.805403
O O10 0.423647 0.840920 0.589732
O O11 0.422075 0.790598 0.902031
O O12 0.500000 0.198760 0.677038
O O13 0.596435 0.316193 0.571674
O O14 0.096862 0.626575 0.753698
O O15 0.000000 0.647973 0.515395
O O16 0.870111 0.500000 0.000000
#
# Coordination Sequence:
#
# PCOD9417193 Si02
#       6
#     8   8   8   8   8   8
#     4  11  23  41  62  86 123 169 211 259 320 387
#     4  10  20  34  56  85 117 156 202 251 303 366
#     4   8  16  33  58  85 111 146 195 249 303 360
#     4   9  18  33  56  86 117 151 195 251 307 360
#     4  10  21  38  62  92 123 158 207 264 320 383
#     4  10  20  37  62  89 123 166 214 262 314 375
#
# _framework density 23.036887
#
# number of rings (size 3 to 8) (size 9 to 14) (size 15 to 20)
#    0.000    2.333    0.000    4.500    0.000    8.333 
#    0.000    1.667    0.000    4.500    0.000    0.000 
#    0.000    0.000    0.000    0.000    0.000    0.000 
#
# Total GULP energy -268351.085183 kJ/mol
# GULP energy per Si atom -5590.647608 kJ/mol
# Density = 2.298445 g / cm^3
# Si number density = 23.036887 Si / 1000 Ang^3
#
#
#
# Elastic Constant Matrix: (Units=GPa)
#
#
# Indices 1 2 3 4 5 6 
#
# 1 242.2145 87.2247 40.8769 0.0000 0.0000 0.0000
# 2 87.2247 110.7482 28.8203 0.0000 0.0000 0.0000
# 3 40.8769 28.8203 62.8507 0.0000 0.0000 0.0000
# 4 0.0000 0.0000 0.0000 11.2378 0.0000 0.0000
# 5 0.0000 0.0000 0.0000 0.0000 14.2016 0.0000
# 6 0.0000 0.0000 0.0000 0.0000 0.0000 -7.4623
#
#
#
# Elastic Compliance Matrix: (Units=1/GPa)
#
#
# Indices 1 2 3 4 5 6 
#
# 1 0.005968 -0.004191 -0.001960 0.000000 0.000000 0.000000
# 2 -0.004191 0.013195 -0.003325 0.000000 0.000000 0.000000
# 3 -0.001960 -0.003325 0.018710 0.000000 0.000000 0.000000
# 4 0.000000 0.000000 0.000000 0.088985 0.000000 0.000000
# 5 0.000000 0.000000 0.000000 0.000000 0.070414 0.000000
# 6 0.000000 0.000000 0.000000 0.000000 0.000000 -0.134007
#
#
# Mechanical properties :
#
#
# Convention : Reuss Voigt Hill
#
# Bulk Modulus (GPa) = 52.84821 81.07303 66.96062
# Shear Modulus (GPa) = 56.48050 20.85486 38.66768
#
# Velocity S-wave (km/s) = 4.95688 3.01205 4.10141
# Velocity P-wave (km/s) = 7.46668 6.88228 7.18043
#
# Compressibility (1/GPa) = 0.01892212
#
# Stress axis : x y z
#
# Youngs Moduli (GPa) = 167.54673 75.78424 53.44633
#
# Poissons Ratio (x) = 0.31759 0.10476
# Poissons Ratio (y) = 0.70213 0.17772
# Poissons Ratio (z) = 0.32842 0.25200
#
# Static dielectric constant tensor:
#      x y z
#    x 1.855110 0.000000 0.000000 
#    y 0.000000 1.812380 0.000000 
#    z 0.000000 0.000000 1.952190 
# 
# From -- ./inp_files/9916.got.cif
#   From: 2010.05.17/outbox.cif.g08.bks.cpg/sg53_5_cif.got.tgz:9916.got - 2010.06.03 12:45:16.
