data_PCOD9417720
_publ_section_title
;
Structure prediction by ZEFSAII (Michael W. Deem and Ramdas Pophale) SiO2 
 PCOD9417720
Probable space group: P M N A
;
_chemical_formula_sum "Si O2"
_cell_formula_units_Z 64
_cell_length_a 8.912019
_cell_length_b 22.258375
_cell_length_c 16.564658
_cell_angle_alpha 90.000000
_cell_angle_beta 90.000000
_cell_angle_gamma 90.000000
_cell_volume 3285.882522
_symmetry_space_group_name_H-M "P M N A"
_symmetry_group_IT_number 53
_symmetry_cell_setting 'orthorhombic'
loop_
_space_group_symop_operation_xyz
x,y,z
1/2-x,-y,1/2+z
x,-y,-z
1/2-x,y,1/2-z
-x,-y,-z
1/2+x,y,1/2-z
-x,y,z
1/2+x,-y,1/2+z
loop_
_atom_site_type_symbol
_atom_site_label
_atom_site_fract_x
_atom_site_fract_y
_atom_site_fract_z
Si Si1 0.326735 0.994906 0.096101
Si Si2 0.818379 0.124132 0.337499
Si Si3 0.179293 0.875801 0.162041
Si Si4 0.680071 0.752749 0.916676
Si Si5 0.179370 0.372579 0.834817
Si Si6 0.676504 0.571757 0.004406
Si Si7 0.319660 0.632212 0.834819
Si Si8 0.820012 0.249908 0.912383
O O1 0.500000 0.985998 0.122978
O O2 0.232339 0.937720 0.122499
O O3 0.271993 0.058504 0.131033
O O4 0.326319 0.000000 0.000000
O O5 0.750000 0.133640 0.250000
O O6 0.770816 0.180228 0.392680
O O7 0.000000 0.124624 0.334548
O O8 0.250000 0.872789 0.250000
O O9 0.230023 0.816406 0.113980
O O10 0.000000 0.874570 0.167076
O O11 0.500000 0.752687 0.923705
O O12 0.719818 0.702210 0.851033
O O13 0.748821 0.734819 0.001895
O O14 0.250000 0.393373 0.750000
O O15 0.238927 0.405031 0.915821
O O16 0.218511 0.302161 0.849207
O O17 0.000000 0.378625 0.830693
O O18 0.500000 0.588319 0.012976
O O19 0.688160 0.500000 0.000000
O O20 0.727743 0.598397 0.917578
O O21 0.250000 0.611652 0.750000
O O22 0.500000 0.626613 0.829205
O O23 0.000000 0.249425 0.920349
#
# Coordination Sequence:
#
# PCOD9417720 Si02
#       8
#     8   8   8   8   8   8   8   8
#     4  10  21  38  57  78 107 145 188 235 292 355
#     4  10  21  35  53  79 109 144 187 235 289 350
#     4  11  23  38  56  81 112 147 191 240 295 353
#     4  10  20  36  59  85 113 150 196 242 296 356
#     4  11  23  40  64  93 126 164 207 254 307 363
#     4  10  22  42  65  92 128 166 206 252 301 358
#     4  10  21  37  60  90 122 160 202 248 301 357
#     4  10  22  38  58  87 118 151 194 247 300 353
#
# _framework density 19.477263000000001
#
# number of rings (size 3 to 8) (size 9 to 14) (size 15 to 20)
#    0.000    1.750    1.250    2.625    0.000    6.500 
#    0.000    1.250    0.000    0.000    0.000    0.000 
#    0.000    0.000    0.000    0.000    0.000    0.000 
#
# Total GULP energy -357391.166534 kJ/mol
# GULP energy per Si atom -5584.236977 kJ/mol
# Density = 1.943293 g / cm^3
# Si number density = 19.477263 Si / 1000 Ang^3
#
#
#
# Elastic Constant Matrix: (Units=GPa)
#
#
# Indices 1 2 3 4 5 6 
#
# 1 27.5812 28.4675 39.2240 0.0000 0.0000 0.0000
# 2 28.4675 79.3139 41.0357 0.0000 0.0000 0.0000
# 3 39.2240 41.0357 143.9708 0.0000 0.0000 0.0000
# 4 0.0000 0.0000 0.0000 20.5238 0.0000 0.0000
# 5 0.0000 0.0000 0.0000 0.0000 -48.7259 0.0000
# 6 0.0000 0.0000 0.0000 0.0000 0.0000 36.1852
#
#
#
# Elastic Compliance Matrix: (Units=1/GPa)
#
#
# Indices 1 2 3 4 5 6 
#
# 1 0.080161 -0.020494 -0.015998 0.000000 0.000000 0.000000
# 2 -0.020494 0.020029 -0.000125 0.000000 0.000000 0.000000
# 3 -0.015998 -0.000125 0.011340 0.000000 0.000000 0.000000
# 4 0.000000 0.000000 0.000000 0.048724 0.000000 0.000000
# 5 0.000000 0.000000 0.000000 0.000000 -0.020523 0.000000
# 6 0.000000 0.000000 0.000000 0.000000 0.000000 0.027636
#
#
# Mechanical properties :
#
#
# Convention : Reuss Voigt Hill
#
# Bulk Modulus (GPa) = 26.11330 52.03559 39.07444
# Shear Modulus (GPa) = 19.73430 11.07254 15.40342
#
# Velocity S-wave (km/s) = 3.18653 2.38688 2.81524
# Velocity P-wave (km/s) = 5.19373 5.86262 5.53828
#
# Compressibility (1/GPa) = 0.03829466
#
# Stress axis : x y z
#
# Youngs Moduli (GPa) = 12.47493 49.92800 88.18310
#
# Poissons Ratio (x) = 1.02325 1.41074
# Poissons Ratio (y) = 0.25567 0.01104
# Poissons Ratio (z) = 0.19957 0.00625
#
# Static dielectric constant tensor:
#      x y z
#    x 1.668390 0.000000 0.000000 
#    y 0.000000 1.722220 0.000000 
#    z 0.000000 0.000000 1.608850 
# 
# From -- ./inp_files/21003.got.cif
#   From: 2010.05.17/outbox.cif.g08.bks.cpg/sg53_11_cif.got.tgz:21003.got - 2010.06.03 12:45:16.
