data_PCOD9417039
_publ_section_title
;
Structure prediction by ZEFSAII (Michael W. Deem and Ramdas Pophale) SiO2 
 PCOD9417039
Probable space group: P M N A
;
_chemical_formula_sum "Si O2"
_cell_formula_units_Z 64
_cell_length_a 9.017234
_cell_length_b 22.398062
_cell_length_c 17.959787
_cell_angle_alpha 90.000000
_cell_angle_beta 90.000000
_cell_angle_gamma 90.000000
_cell_volume 3627.312430
_symmetry_space_group_name_H-M "P M N A"
_symmetry_group_IT_number 53
_symmetry_cell_setting 'orthorhombic'
loop_
_space_group_symop_operation_xyz
x,y,z
1/2-x,-y,1/2+z
x,-y,-z
1/2-x,y,1/2-z
-x,-y,-z
1/2+x,y,1/2-z
-x,y,z
1/2+x,-y,1/2+z
loop_
_atom_site_type_symbol
_atom_site_label
_atom_site_fract_x
_atom_site_fract_y
_atom_site_fract_z
Si Si1 0.330202 0.545351 0.429596
Si Si2 0.177492 0.794733 0.174815
Si Si3 0.824719 0.916624 0.375538
Si Si4 0.177824 0.449623 0.330174
Si Si5 0.176400 0.637326 0.532878
Si Si6 0.174784 0.754907 0.011144
Si Si7 0.324227 0.107167 0.471000
Si Si8 0.675629 0.051257 0.173262
O O1 0.332099 0.500000 0.500000
O O2 0.500000 0.557100 0.407484
O O3 0.241801 0.510892 0.365300
O O4 0.252025 0.603399 0.463343
O O5 0.250000 0.770301 0.250000
O O6 0.239186 0.861778 0.162382
O O7 0.214774 0.759498 0.098892
O O8 0.000000 0.797006 0.181232
O O9 0.759791 0.921335 0.458730
O O10 0.000000 0.903036 0.377676
O O11 0.803850 0.979925 0.336091
O O12 0.250000 0.438351 0.250000
O O13 0.215303 0.398125 0.390999
O O14 0.000000 0.452863 0.324094
O O15 0.232761 0.704807 0.530743
O O16 0.000000 0.634002 0.525013
O O17 0.000000 0.740467 0.006132
O O18 0.195842 0.821423 0.979098
O O19 0.500000 0.094713 0.475678
O O20 0.255098 0.082808 0.395653
O O21 0.750000 0.070633 0.250000
O O22 0.500000 0.063261 0.172468
#
# Coordination Sequence:
#
# PCOD9417039 Si02
#       8
#     8   8   8   8   8   8   8   8
#     4   9  17  31  53  78 105 138 170 204 251 302
#     4  10  20  34  53  78 106 136 171 215 267 319
#     4  10  20  34  54  79 105 134 170 213 263 323
#     4  10  20  34  53  81 113 141 175 218 262 308
#     4  10  20  34  55  81 107 139 180 222 260 305
#     4   9  20  37  55  76 103 138 180 220 260 312
#     4  10  21  37  56  77 103 137 176 219 266 317
#     4  11  23  36  52  76 105 136 172 216 268 323
#
# _framework density 17.643917999999999
#
# number of rings (size 3 to 8) (size 9 to 14) (size 15 to 20)
#    0.000    2.125    0.000    4.125    0.000   10.500 
#    0.000    1.250    0.000    3.000    0.000    0.000 
#    0.000    0.000    0.000    0.000    0.000    0.000 
#
# Total GULP energy -357261.559105 kJ/mol
# GULP energy per Si atom -5582.211861 kJ/mol
# Density = 1.760376 g / cm^3
# Si number density = 17.643918 Si / 1000 Ang^3
#
#
#
# Elastic Constant Matrix: (Units=GPa)
#
#
# Indices 1 2 3 4 5 6 
#
# 1 79.2599 34.4648 50.6057 0.0000 0.0000 0.0000
# 2 34.4648 31.2200 22.7459 0.0000 0.0000 0.0000
# 3 50.6057 22.7459 107.6934 0.0000 0.0000 0.0000
# 4 0.0000 0.0000 0.0000 14.2924 0.0000 0.0000
# 5 0.0000 0.0000 0.0000 0.0000 23.7395 0.0000
# 6 0.0000 0.0000 0.0000 0.0000 0.0000 29.6695
#
#
#
# Elastic Compliance Matrix: (Units=1/GPa)
#
#
# Indices 1 2 3 4 5 6 
#
# 1 0.029343 -0.026411 -0.008210 0.000000 0.000000 0.000000
# 2 -0.026411 0.061628 -0.000606 0.000000 0.000000 0.000000
# 3 -0.008210 -0.000606 0.013272 0.000000 0.000000 0.000000
# 4 0.000000 0.000000 0.000000 0.069967 0.000000 0.000000
# 5 0.000000 0.000000 0.000000 0.000000 0.042124 0.000000
# 6 0.000000 0.000000 0.000000 0.000000 0.000000 0.033705
#
#
# Mechanical properties :
#
#
# Convention : Reuss Voigt Hill
#
# Bulk Modulus (GPa) = 29.59564 48.20066 38.89815
# Shear Modulus (GPa) = 15.07129 20.89740 17.98434
#
# Velocity S-wave (km/s) = 2.92583 3.44524 3.19610
# Velocity P-wave (km/s) = 5.31265 6.57298 5.97613
#
# Compressibility (1/GPa) = 0.03378876
#
# Stress axis : x y z
#
# Youngs Moduli (GPa) = 34.07938 16.22627 75.34896
#
# Poissons Ratio (x) = 0.42856 0.61863
# Poissons Ratio (y) = 0.90008 0.04564
# Poissons Ratio (z) = 0.27980 0.00983
#
# Static dielectric constant tensor:
#      x y z
#    x 1.589100 0.000000 0.000000 
#    y 0.000000 1.590490 0.000000 
#    z 0.000000 0.000000 1.603450 
# 
# From -- ./inp_files/26830.got.cif
#   From: 2010.05.17/outbox.cif.g08.bks.cpg/sg53_14_cif.got.tgz:26830.got - 2010.06.03 12:45:16.
