data_PCOD9417766
_publ_section_title
;
Structure prediction by ZEFSAII (Michael W. Deem and Ramdas Pophale) SiO2 
 PCOD9417766
Probable space group: P M N A
;
_chemical_formula_sum "Si O2"
_cell_formula_units_Z 40
_cell_length_a 8.763280
_cell_length_b 8.019133
_cell_length_c 29.121398
_cell_angle_alpha 90.000000
_cell_angle_beta 90.000000
_cell_angle_gamma 90.000000
_cell_volume 2046.474439
_symmetry_space_group_name_H-M "P M N A"
_symmetry_group_IT_number 53
_symmetry_cell_setting 'orthorhombic'
loop_
_space_group_symop_operation_xyz
x,y,z
1/2-x,-y,1/2+z
x,-y,-z
1/2-x,y,1/2-z
-x,-y,-z
1/2+x,y,1/2-z
-x,y,z
1/2+x,-y,1/2+z
loop_
_atom_site_type_symbol
_atom_site_label
_atom_site_fract_x
_atom_site_fract_y
_atom_site_fract_z
Si Si1 0.818308 0.747899 0.199106
Si Si2 0.818044 0.081366 0.548694
Si Si3 0.181215 0.443849 0.948678
Si Si4 0.317589 0.936020 0.853254
Si Si5 0.817527 0.563483 0.643684
O O1 0.750000 0.744838 0.250000
O O2 0.758087 0.587206 0.171385
O O3 0.000000 0.743305 0.200823
O O4 0.764065 0.916327 0.173824
O O5 0.726648 0.251011 0.556136
O O6 0.000000 0.118887 0.547712
O O7 0.776962 0.000000 0.500000
O O8 0.790297 0.963441 0.592362
O O9 0.269151 0.543071 0.909286
O O10 0.000000 0.465918 0.942651
O O11 0.223356 0.500000 0.000000
O O12 0.500000 0.952393 0.845931
O O13 0.271416 0.748520 0.839979
O O14 0.000000 0.549536 0.647342
#
# Coordination Sequence:
#
# PCOD9417766 Si02
#       5
#     8   8   8   8   8
#     4  12  26  45  70  97 130 170 215 269 329 387
#     4  10  20  36  60  90 125 169 218 264 316 381
#     4  11  23  37  56  89 131 174 217 265 322 382
#     4  10  22  41  66  96 130 169 214 267 323 382
#     4  11  23  42  68  96 130 170 216 268 323 387
#
# _framework density 19.545809999999999
#
# number of rings (size 3 to 8) (size 9 to 14) (size 15 to 20)
#    0.000    1.200    2.000    4.200    0.000    6.000 
#    0.000    0.000    0.000    0.000    0.000    0.000 
#    0.000    0.000    0.000    0.000    0.000    0.000 
#
# Total GULP energy -223696.277080 kJ/mol
# GULP energy per Si atom -5592.406927 kJ/mol
# Density = 1.950132 g / cm^3
# Si number density = 19.545810 Si / 1000 Ang^3
#
#
#
# Elastic Constant Matrix: (Units=GPa)
#
#
# Indices 1 2 3 4 5 6 
#
# 1 75.2833 71.3789 55.2774 0.0000 0.0000 0.0000
# 2 71.3789 172.0294 67.3438 0.0000 0.0000 0.0000
# 3 55.2774 67.3438 121.1562 0.0000 0.0000 0.0000
# 4 0.0000 0.0000 0.0000 22.0453 0.0000 0.0000
# 5 0.0000 0.0000 0.0000 0.0000 35.4877 0.0000
# 6 0.0000 0.0000 0.0000 0.0000 0.0000 -134.2521
#
#
#
# Elastic Compliance Matrix: (Units=1/GPa)
#
#
# Indices 1 2 3 4 5 6 
#
# 1 0.026466 -0.007994 -0.007632 0.000000 0.000000 0.000000
# 2 -0.007994 0.009844 -0.001825 0.000000 0.000000 0.000000
# 3 -0.007632 -0.001825 0.012750 0.000000 0.000000 0.000000
# 4 0.000000 0.000000 0.000000 0.045361 0.000000 0.000000
# 5 0.000000 0.000000 0.000000 0.000000 0.028179 0.000000
# 6 0.000000 0.000000 0.000000 0.000000 0.000000 -0.007449
#
#
# Mechanical properties :
#
#
# Convention : Reuss Voigt Hill
#
# Bulk Modulus (GPa) = 70.62280 84.05213 77.33747
# Shear Modulus (GPa) = 32.30562 -3.71257 14.29653
#
# Velocity S-wave (km/s) = 4.06989 -1.37969 2.70744
# Velocity P-wave (km/s) = 7.63517 6.36851 7.03042
#
# Compressibility (1/GPa) = 0.01415973
#
# Stress axis : x y z
#
# Youngs Moduli (GPa) = 37.78412 101.58453 78.43124
#
# Poissons Ratio (x) = 0.81204 0.59858
# Poissons Ratio (y) = 0.30204 0.14310
# Poissons Ratio (z) = 0.28836 0.18535
#
# Static dielectric constant tensor:
#      x y z
#    x 1.651630 0.000000 0.000000 
#    y 0.000000 1.679520 0.000000 
#    z 0.000000 0.000000 1.681540 
# 
# From -- ./inp_files/33609.got.cif
#   From: 2010.05.17/outbox.cif.g08.bks.cpg/sg53_17_cif.got.tgz:33609.got - 2010.06.03 12:45:16.
