data_PCOD9417810
_publ_section_title
;
Structure prediction by ZEFSAII (Michael W. Deem and Ramdas Pophale) SiO2 
 PCOD9417810
Probable space group: P M N A
;
_chemical_formula_sum "Si O2"
_cell_formula_units_Z 56
_cell_length_a 16.587081
_cell_length_b 16.138932
_cell_length_c 9.748998
_cell_angle_alpha 90.000000
_cell_angle_beta 90.000000
_cell_angle_gamma 90.000000
_cell_volume 2609.785047
_symmetry_space_group_name_H-M "P M N A"
_symmetry_group_IT_number 53
_symmetry_cell_setting 'orthorhombic'
loop_
_space_group_symop_operation_xyz
x,y,z
1/2-x,-y,1/2+z
x,-y,-z
1/2-x,y,1/2-z
-x,-y,-z
1/2+x,y,1/2-z
-x,y,z
1/2+x,-y,1/2+z
loop_
_atom_site_type_symbol
_atom_site_label
_atom_site_fract_x
_atom_site_fract_y
_atom_site_fract_z
Si Si1 0.322893 0.244759 0.053690
Si Si2 0.906813 0.975082 0.656461
Si Si3 0.588980 0.750888 0.424406
Si Si4 0.142957 0.572026 0.099437
Si Si5 0.150673 0.819210 0.819312
Si Si6 0.163848 0.423032 0.589764
Si Si7 0.837655 0.137603 0.710133
O O1 0.372425 0.241137 0.194423
O O2 0.234385 0.214463 0.110717
O O3 0.336281 0.333569 0.984367
O O4 0.344259 0.176134 0.940799
O O5 0.854635 0.908122 0.742178
O O6 0.000000 0.946820 0.648891
O O7 0.880033 0.000000 0.500000
O O8 0.899845 0.063661 0.731121
O O9 0.500000 0.746758 0.364600
O O10 0.617534 0.659591 0.464116
O O11 0.591445 0.811533 0.553784
O O12 0.648988 0.786322 0.311883
O O13 0.239744 0.563424 0.104439
O O14 0.121668 0.575121 0.261115
O O15 0.111406 0.500000 0.000000
O O16 0.132772 0.500000 0.500000
O O17 0.750000 0.103300 0.750000
#
# Coordination Sequence:
#
# PCOD9417810 Si02
#       7
#     8   8   8   8   8   8   8
#     4  11  22  40  68 101 131 171 228 278 337 391
#     4  11  25  44  64  94 135 179 223 272 339 408
#     4  12  25  43  66  96 135 178 219 278 348 412
#     4  10  21  37  62  95 133 172 215 273 339 401
#     4  11  24  41  66  96 135 170 224 285 330 403
#     4  10  20  36  66 101 132 167 221 283 332 396
#     4  12  23  43  70  94 131 172 226 284 337 399
#
# _framework density 21.457706000000002
#
# number of rings (size 3 to 8) (size 9 to 14) (size 15 to 20)
#    0.000    1.000    5.714    0.857    4.000    2.000 
#    0.000    1.429    0.000    0.429    0.000    0.000 
#    0.000    0.000    0.000    0.000    0.000    0.000 
#
# Total GULP energy -312054.062755 kJ/mol
# GULP energy per Si atom -5572.393978 kJ/mol
# Density = 2.140887 g / cm^3
# Si number density = 21.457706 Si / 1000 Ang^3
#
#
#
# Elastic Constant Matrix: (Units=GPa)
#
#
# Indices 1 2 3 4 5 6 
#
# 1 32.6432 4.6117 3.7863 0.0000 0.0000 0.0000
# 2 4.6117 153.1894 57.7680 0.0000 0.0000 0.0000
# 3 3.7863 57.7680 125.8000 0.0000 0.0000 0.0000
# 4 0.0000 0.0000 0.0000 -27.9751 0.0000 0.0000
# 5 0.0000 0.0000 0.0000 0.0000 1.8270 0.0000
# 6 0.0000 0.0000 0.0000 0.0000 0.0000 -6.8392
#
#
#
# Elastic Compliance Matrix: (Units=1/GPa)
#
#
# Indices 1 2 3 4 5 6 
#
# 1 0.030803 -0.000699 -0.000606 0.000000 0.000000 0.000000
# 2 -0.000699 0.007911 -0.003612 0.000000 0.000000 0.000000
# 3 -0.000606 -0.003612 0.009626 0.000000 0.000000 0.000000
# 4 0.000000 0.000000 0.000000 -0.035746 0.000000 0.000000
# 5 0.000000 0.000000 0.000000 0.000000 0.547340 0.000000
# 6 0.000000 0.000000 0.000000 0.000000 0.000000 -0.146216
#
#
# Mechanical properties :
#
#
# Convention : Reuss Voigt Hill
#
# Bulk Modulus (GPa) = 25.96947 49.32940 37.64943
# Shear Modulus (GPa) = 11.45774 9.76700 10.61237
#
# Velocity S-wave (km/s) = 2.31328 2.13580 2.22631
# Velocity P-wave (km/s) = 4.38907 5.39641 4.91859
#
# Compressibility (1/GPa) = 0.03850676
#
# Stress axis : x y z
#
# Youngs Moduli (GPa) = 32.46405 126.40832 103.88668
#
# Poissons Ratio (x) = 0.08832 0.06298
# Poissons Ratio (y) = 0.02268 0.37521
# Poissons Ratio (z) = 0.01968 0.45655
#
# Static dielectric constant tensor:
#      x y z
#    x 1.830100 0.000000 0.000000 
#    y 0.000000 1.787040 0.000000 
#    z 0.000000 0.000000 1.826160 
# 
# From -- ./inp_files/11042.got.cif
#   From: 2010.05.17/outbox.cif.g08.bks.cpg/sg53_6_cif.got.tgz:11042.got - 2010.06.03 12:45:16.
