data_PCOD9417465
_publ_section_title
;
Structure prediction by ZEFSAII (Michael W. Deem and Ramdas Pophale) SiO2 
 PCOD9417465
Probable space group: P M N A
;
_chemical_formula_sum "Si O2"
_cell_formula_units_Z 64
_cell_length_a 17.488240
_cell_length_b 16.591031
_cell_length_c 10.962309
_cell_angle_alpha 90.000000
_cell_angle_beta 90.000000
_cell_angle_gamma 90.000000
_cell_volume 3180.691286
_symmetry_space_group_name_H-M "P M N A"
_symmetry_group_IT_number 53
_symmetry_cell_setting 'orthorhombic'
loop_
_space_group_symop_operation_xyz
x,y,z
1/2-x,-y,1/2+z
x,-y,-z
1/2-x,y,1/2-z
-x,-y,-z
1/2+x,y,1/2-z
-x,y,z
1/2+x,-y,1/2+z
loop_
_atom_site_type_symbol
_atom_site_label
_atom_site_fract_x
_atom_site_fract_y
_atom_site_fract_z
Si Si1 0.585699 0.334970 0.575761
Si Si2 0.329058 0.905055 0.996117
Si Si3 0.406592 0.187023 0.226703
Si Si4 0.083043 0.084800 0.735288
Si Si5 0.812740 0.516036 0.146792
Si Si6 0.202913 0.196011 0.864896
Si Si7 0.086020 0.633392 0.788742
Si Si8 0.586691 0.938907 0.597826
O O1 0.500000 0.318832 0.624144
O O2 0.622868 0.414990 0.633275
O O3 0.646180 0.264023 0.590669
O O4 0.578539 0.347434 0.431685
O O5 0.397337 0.905305 0.094914
O O6 0.261509 0.847699 0.044821
O O7 0.361794 0.863298 0.875320
O O8 0.305062 0.000000 0.000000
O O9 0.500000 0.178268 0.217631
O O10 0.390645 0.282467 0.224859
O O11 0.382646 0.146099 0.356438
O O12 0.149122 0.127166 0.809597
O O13 0.000000 0.119200 0.763632
O O14 0.082574 0.992859 0.780111
O O15 0.750000 0.540412 0.250000
O O16 0.852409 0.437636 0.208305
O O17 0.789546 0.500000 0.000000
O O18 0.250000 0.229937 0.750000
O O19 0.000000 0.610371 0.745105
O O20 0.500000 0.923441 0.551982
O O21 0.622444 0.000000 0.500000
#
# Coordination Sequence:
#
# PCOD9417465 Si02
#       8
#     8   8   8   8   8   8   8   8
#     4  10  20  39  67  91 116 157 211 258 298 359
#     4  11  22  39  57  81 122 167 206 249 310 375
#     4  10  20  35  58  88 120 160 209 258 303 358
#     4  10  20  36  59  80 106 152 209 260 300 349
#     4  10  21  39  68  99 132 165 196 242 312 386
#     4  10  23  38  53  80 119 154 196 247 309 362
#     4   9  20  37  59  93 126 156 203 256 303 359
#     4   9  18  30  51  81 111 146 198 259 307 342
#
# _framework density 20.121410999999998
#
# number of rings (size 3 to 8) (size 9 to 14) (size 15 to 20)
#    0.000    2.125    1.250    1.500    1.750    4.500 
#    0.000    0.000    0.000    4.875    0.000    0.000 
#    0.000    0.000    0.000    0.000    0.000    0.625 
#
# Total GULP energy -356524.450619 kJ/mol
# GULP energy per Si atom -5570.694541 kJ/mol
# Density = 2.007561 g / cm^3
# Si number density = 20.121411 Si / 1000 Ang^3
#
#
#
# Elastic Constant Matrix: (Units=GPa)
#
#
# Indices 1 2 3 4 5 6 
#
# 1 95.8429 33.7216 44.2289 0.0000 0.0000 0.0000
# 2 33.7216 100.7105 36.8690 0.0000 0.0000 0.0000
# 3 44.2289 36.8690 78.7997 0.0000 0.0000 0.0000
# 4 0.0000 0.0000 0.0000 23.2090 0.0000 0.0000
# 5 0.0000 0.0000 0.0000 0.0000 67.6193 0.0000
# 6 0.0000 0.0000 0.0000 0.0000 0.0000 1.7098
#
#
#
# Elastic Compliance Matrix: (Units=1/GPa)
#
#
# Indices 1 2 3 4 5 6 
#
# 1 0.014496 -0.002263 -0.007078 0.000000 0.000000 0.000000
# 2 -0.002263 0.012335 -0.004501 0.000000 0.000000 0.000000
# 3 -0.007078 -0.004501 0.018769 0.000000 0.000000 0.000000
# 4 0.000000 0.000000 0.000000 0.043087 0.000000 0.000000
# 5 0.000000 0.000000 0.000000 0.000000 0.014789 0.000000
# 6 0.000000 0.000000 0.000000 0.000000 0.000000 0.584860
#
#
# Mechanical properties :
#
#
# Convention : Reuss Voigt Hill
#
# Bulk Modulus (GPa) = 55.81399 56.11024 55.96211
# Shear Modulus (GPa) = 6.92529 29.20987 18.06758
#
# Velocity S-wave (km/s) = 1.85721 3.81423 2.99980
# Velocity P-wave (km/s) = 5.69191 6.88071 6.31435
#
# Compressibility (1/GPa) = 0.01791665
#
# Stress axis : x y z
#
# Youngs Moduli (GPa) = 68.98445 81.07033 53.27930
#
# Poissons Ratio (x) = 0.18344 0.37709
# Poissons Ratio (y) = 0.15610 0.23982
# Poissons Ratio (z) = 0.48825 0.36492
#
# Static dielectric constant tensor:
#      x y z
#    x 1.892420 0.000000 0.000000 
#    y 0.000000 1.757820 0.000000 
#    z 0.000000 0.000000 1.783970 
# 
# From -- ./inp_files/17128.got.cif
#   From: 2010.05.17/outbox.cif.g08.bks.cpg/sg53_9_cif.got.tgz:17128.got - 2010.06.03 12:45:16.
