data_PCOD9417839
_publ_section_title
;
Structure prediction by ZEFSAII (Michael W. Deem and Ramdas Pophale) SiO2 
 PCOD9417839
Probable space group: P M N A
;
_chemical_formula_sum "Si O2"
_cell_formula_units_Z 56
_cell_length_a 14.265519
_cell_length_b 6.062395
_cell_length_c 28.334366
_cell_angle_alpha 90.000000
_cell_angle_beta 90.000000
_cell_angle_gamma 90.000000
_cell_volume 2450.446955
_symmetry_space_group_name_H-M "P M N A"
_symmetry_group_IT_number 53
_symmetry_cell_setting 'orthorhombic'
loop_
_space_group_symop_operation_xyz
x,y,z
1/2-x,-y,1/2+z
x,-y,-z
1/2-x,y,1/2-z
-x,-y,-z
1/2+x,y,1/2-z
-x,y,z
1/2+x,-y,1/2+z
loop_
_atom_site_type_symbol
_atom_site_label
_atom_site_fract_x
_atom_site_fract_y
_atom_site_fract_z
Si Si1 0.105673 0.011066 0.218217
Si Si2 0.246146 0.989165 0.077988
Si Si3 0.901110 0.688836 0.601247
Si Si4 0.269714 0.675432 0.332693
Si Si5 0.605889 0.694148 0.038291
Si Si6 0.394418 0.285912 0.378691
Si Si7 0.107830 0.378984 0.292478
O O1 0.164704 0.795058 0.205902
O O2 0.100390 0.141117 0.168772
O O3 0.000000 0.951041 0.233042
O O4 0.140560 0.193449 0.255585
O O5 0.317349 0.190464 0.077492
O O6 0.253430 0.859491 0.127940
O O7 0.296989 0.829757 0.040150
O O8 0.147211 0.118959 0.081450
O O9 0.000000 0.770443 0.582318
O O10 0.896883 0.432125 0.588838
O O11 0.898321 0.733875 0.656289
O O12 0.182421 0.569311 0.304739
O O13 0.326139 0.486758 0.362657
O O14 0.500000 0.791537 0.032837
O O15 0.611763 0.500000 0.000000
O O16 0.500000 0.363420 0.390216
O O17 0.000000 0.446351 0.279960
#
# Coordination Sequence:
#
# PCOD9417839 Si02
#       7
#     8   8   8   8   8   8   8
#     4   9  21  40  59  83 116 157 207 260 312 361
#     4  11  20  37  60  90 120 162 208 252 310 371
#     4  10  20  37  58  87 128 163 203 250 299 375
#     4  11  21  39  63  85 115 163 210 258 315 372
#     4  10  21  37  61  96 135 171 204 246 307 385
#     4  10  21  39  59  85 117 153 209 266 313 368
#     4  10  20  39  60  87 124 162 206 258 314 375
#
# _framework density 22.852975000000001
#
# number of rings (size 3 to 8) (size 9 to 14) (size 15 to 20)
#    0.000    1.857    2.857    0.857    0.000    2.286 
#    5.143    2.143    0.000    2.143    0.000    4.000 
#    0.000    0.000    0.000    0.000    0.000    0.000 
#
# Total GULP energy -312142.054520 kJ/mol
# GULP energy per Si atom -5573.965259 kJ/mol
# Density = 2.280096 g / cm^3
# Si number density = 22.852975 Si / 1000 Ang^3
#
#
#
# Elastic Constant Matrix: (Units=GPa)
#
#
# Indices 1 2 3 4 5 6 
#
# 1 133.3619 58.7429 25.3961 0.0000 0.0000 0.0000
# 2 58.7429 88.6542 14.4423 0.0000 0.0000 0.0000
# 3 25.3961 14.4423 53.8960 0.0000 0.0000 0.0000
# 4 0.0000 0.0000 0.0000 52.3034 0.0000 0.0000
# 5 0.0000 0.0000 0.0000 0.0000 27.1554 0.0000
# 6 0.0000 0.0000 0.0000 0.0000 0.0000 55.5064
#
#
#
# Elastic Compliance Matrix: (Units=1/GPa)
#
#
# Indices 1 2 3 4 5 6 
#
# 1 0.011163 -0.006839 -0.003428 0.000000 0.000000 0.000000
# 2 -0.006839 0.015984 -0.001061 0.000000 0.000000 0.000000
# 3 -0.003428 -0.001061 0.020454 0.000000 0.000000 0.000000
# 4 0.000000 0.000000 0.000000 0.019119 0.000000 0.000000
# 5 0.000000 0.000000 0.000000 0.000000 0.036825 0.000000
# 6 0.000000 0.000000 0.000000 0.000000 0.000000 0.018016
#
#
# Mechanical properties :
#
#
# Convention : Reuss Voigt Hill
#
# Bulk Modulus (GPa) = 40.08530 52.56384 46.32457
# Shear Modulus (GPa) = 32.78027 38.81509 35.79768
#
# Velocity S-wave (km/s) = 3.79145 4.12572 3.96211
# Velocity P-wave (km/s) = 6.06180 6.76360 6.42229
#
# Compressibility (1/GPa) = 0.02494680
#
# Stress axis : x y z
#
# Youngs Moduli (GPa) = 89.57876 62.56318 48.89096
#
# Poissons Ratio (x) = 0.42784 0.16759
# Poissons Ratio (y) = 0.61259 0.05186
# Poissons Ratio (z) = 0.30705 0.06636
#
# Static dielectric constant tensor:
#      x y z
#    x 1.923250 0.000000 0.000000 
#    y 0.000000 1.877730 0.000000 
#    z 0.000000 0.000000 1.899190 
# 
# From -- ./inp_files/38865.got.cif
#   From: 2010.05.17/outbox.cif.g08.bks.cpg/sg53_20_cif.got.tgz:38865.got - 2010.06.03 12:45:16.
