data_PCOD9417849
_publ_section_title
;
Structure prediction by ZEFSAII (Michael W. Deem and Ramdas Pophale) SiO2 
 PCOD9417849
Probable space group: P M N A
;
_chemical_formula_sum "Si O2"
_cell_formula_units_Z 48
_cell_length_a 8.650395
_cell_length_b 9.741920
_cell_length_c 31.021092
_cell_angle_alpha 90.000000
_cell_angle_beta 90.000000
_cell_angle_gamma 90.000000
_cell_volume 2614.192591
_symmetry_space_group_name_H-M "P M N A"
_symmetry_group_IT_number 53
_symmetry_cell_setting 'orthorhombic'
loop_
_space_group_symop_operation_xyz
x,y,z
1/2-x,-y,1/2+z
x,-y,-z
1/2-x,y,1/2-z
-x,-y,-z
1/2+x,y,1/2-z
-x,y,z
1/2+x,-y,1/2+z
loop_
_atom_site_type_symbol
_atom_site_label
_atom_site_fract_x
_atom_site_fract_y
_atom_site_fract_z
Si Si1 0.814021 0.340510 0.451142
Si Si2 0.686895 0.656367 0.050706
Si Si3 0.813815 0.846018 0.875846
Si Si4 0.813935 0.651839 0.797368
Si Si5 0.315391 0.350053 0.797387
Si Si6 0.314598 0.162372 0.627300
O O1 0.770901 0.314016 0.500971
O O2 0.768815 0.497701 0.440284
O O3 0.745435 0.233614 0.417735
O O4 0.000000 0.335237 0.449035
O O5 0.500000 0.665265 0.054310
O O6 0.763829 0.758268 0.084258
O O7 0.765656 0.761282 0.833393
O O8 0.000000 0.845156 0.876752
O O9 0.763155 0.003940 0.874369
O O10 0.750000 0.686551 0.750000
O O11 0.749556 0.501135 0.808776
O O12 0.000000 0.645231 0.795615
O O13 0.250000 0.316553 0.750000
O O14 0.500000 0.356158 0.795842
O O15 0.259425 0.241593 0.832486
O O16 0.500000 0.166400 0.631422
#
# Coordination Sequence:
#
# PCOD9417849 Si02
#       6
#     8   8   8   8   8   8
#     4   9  19  36  59  82 108 140 182 230 275 323
#     4   9  19  37  58  83 109 140 182 229 275 323
#     4  10  23  38  53  78 114 148 182 222 271 325
#     4  10  20  37  59  83 109 141 180 225 270 319
#     4  11  22  38  60  85 110 141 181 226 271 322
#     4  11  23  38  54  79 114 150 183 222 270 324
#
# _framework density 18.361308999999999
#
# number of rings (size 3 to 8) (size 9 to 14) (size 15 to 20)
#    0.000    2.000    0.000    5.500    0.000    8.000 
#    0.000    6.667    0.000    0.000    0.000    0.000 
#    0.000    0.000    0.000    0.000    0.000    0.000 
#
# Total GULP energy -268151.714422 kJ/mol
# GULP energy per Si atom -5586.494050 kJ/mol
# Density = 1.831952 g / cm^3
# Si number density = 18.361309 Si / 1000 Ang^3
#
#
#
# Elastic Constant Matrix: (Units=GPa)
#
#
# Indices 1 2 3 4 5 6 
#
# 1 60.2499 50.4585 45.4514 0.0000 0.0000 0.0000
# 2 50.4585 173.3042 135.4343 0.0000 0.0000 0.0000
# 3 45.4514 135.4343 139.1096 0.0000 0.0000 0.0000
# 4 0.0000 0.0000 0.0000 -30.7946 0.0000 0.0000
# 5 0.0000 0.0000 0.0000 0.0000 33.5910 0.0000
# 6 0.0000 0.0000 0.0000 0.0000 0.0000 29.7384
#
#
#
# Elastic Compliance Matrix: (Units=1/GPa)
#
#
# Indices 1 2 3 4 5 6 
#
# 1 0.022487 -0.003368 -0.004068 0.000000 0.000000 0.000000
# 2 -0.003368 0.024631 -0.022880 0.000000 0.000000 0.000000
# 3 -0.004068 -0.022880 0.030793 0.000000 0.000000 0.000000
# 4 0.000000 0.000000 0.000000 -0.032473 0.000000 0.000000
# 5 0.000000 0.000000 0.000000 0.000000 0.029770 0.000000
# 6 0.000000 0.000000 0.000000 0.000000 0.000000 0.033627
#
#
# Mechanical properties :
#
#
# Convention : Reuss Voigt Hill
#
# Bulk Modulus (GPa) = 57.87306 92.81690 75.34498
# Shear Modulus (GPa) = 28.53445 15.92826 22.23135
#
# Velocity S-wave (km/s) = 3.94642 2.94851 3.48339
# Velocity P-wave (km/s) = 7.23555 7.88997 7.56983
#
# Compressibility (1/GPa) = 0.01727920
#
# Stress axis : x y z
#
# Youngs Moduli (GPa) = 44.46975 40.59909 32.47466
#
# Poissons Ratio (x) = 0.13674 0.13211
# Poissons Ratio (y) = 0.14977 0.74302
# Poissons Ratio (z) = 0.18091 0.92890
#
# Static dielectric constant tensor:
#      x y z
#    x 1.622100 0.000000 0.000000 
#    y 0.000000 1.611490 0.000000 
#    z 0.000000 0.000000 1.612900 
# 
# From -- ./inp_files/37690.got.cif
#   From: 2010.05.17/outbox.cif.g08.bks.cpg/sg53_19_cif.got.tgz:37690.got - 2010.06.03 12:45:16.
