data_PCOD9417586
_publ_section_title
;
Structure prediction by ZEFSAII (Michael W. Deem and Ramdas Pophale) SiO2 
 PCOD9417586
Probable space group: P M N A
;
_chemical_formula_sum "Si O2"
_cell_formula_units_Z 48
_cell_length_a 9.722809
_cell_length_b 12.138022
_cell_length_c 21.923760
_cell_angle_alpha 90.000000
_cell_angle_beta 90.000000
_cell_angle_gamma 90.000000
_cell_volume 2587.347215
_symmetry_space_group_name_H-M "P M N A"
_symmetry_group_IT_number 53
_symmetry_cell_setting 'orthorhombic'
loop_
_space_group_symop_operation_xyz
x,y,z
1/2-x,-y,1/2+z
x,-y,-z
1/2-x,y,1/2-z
-x,-y,-z
1/2+x,y,1/2-z
-x,y,z
1/2+x,-y,1/2+z
loop_
_atom_site_type_symbol
_atom_site_label
_atom_site_fract_x
_atom_site_fract_y
_atom_site_fract_z
Si Si1 0.662967 0.381840 0.309316
Si Si2 0.659663 0.236352 0.572373
Si Si3 0.660903 0.506403 0.430816
Si Si4 0.340567 0.106053 0.694041
Si Si5 0.661694 0.123032 0.027280
Si Si6 0.342709 0.863895 0.646597
O O1 0.750000 0.416082 0.250000
O O2 0.500000 0.409371 0.302040
O O3 0.713678 0.435245 0.373550
O O4 0.673318 0.249839 0.317372
O O5 0.500000 0.210544 0.556691
O O6 0.666655 0.365437 0.586746
O O7 0.698938 0.163948 0.630833
O O8 0.758208 0.205428 0.517172
O O9 0.719698 0.500000 0.500000
O O10 0.500000 0.471504 0.436877
O O11 0.250000 0.144436 0.750000
O O12 0.500000 0.132177 0.704977
O O13 0.327717 0.974581 0.685744
O O14 0.500000 0.147001 0.030659
O O15 0.733987 0.129917 0.092431
O O16 0.678787 0.000000 0.000000
O O17 0.500000 0.865069 0.621640
#
# Coordination Sequence:
#
# PCOD9417586 Si02
#       6
#     8   8   8   8   8   8
#     4  10  21  37  59  86 115 151 195 239 289 340
#     4  10  20  36  57  79 107 145 186 223 269 335
#     4   9  18  35  59  84 109 144 192 240 279 326
#     4  10  21  34  51  76 105 141 181 220 267 323
#     4  11  22  34  53  84 116 143 175 226 288 339
#     4  10  20  36  57  80 109 148 188 225 270 336
#
# _framework density 18.551819999999999
#
# number of rings (size 3 to 8) (size 9 to 14) (size 15 to 20)
#    0.000    2.000    1.667    2.000    0.000    6.000 
#    0.000    0.833    0.000    2.000    0.000    0.000 
#    0.000    0.000    0.000    0.000    0.000    0.000 
#
# Total GULP energy -267796.289909 kJ/mol
# GULP energy per Si atom -5579.089373 kJ/mol
# Density = 1.850959 g / cm^3
# Si number density = 18.551820 Si / 1000 Ang^3
#
#
#
# Elastic Constant Matrix: (Units=GPa)
#
#
# Indices 1 2 3 4 5 6 
#
# 1 54.3907 2.6796 43.9907 0.0000 0.0000 0.0000
# 2 2.6796 40.8281 8.8555 0.0000 0.0000 0.0000
# 3 43.9907 8.8555 96.0324 0.0000 0.0000 0.0000
# 4 0.0000 0.0000 0.0000 11.5128 0.0000 0.0000
# 5 0.0000 0.0000 0.0000 0.0000 39.2812 0.0000
# 6 0.0000 0.0000 0.0000 0.0000 0.0000 6.6594
#
#
#
# Elastic Compliance Matrix: (Units=1/GPa)
#
#
# Indices 1 2 3 4 5 6 
#
# 1 0.029247 0.001007 -0.013490 0.000000 0.000000 0.000000
# 2 0.001007 0.025027 -0.002769 0.000000 0.000000 0.000000
# 3 -0.013490 -0.002769 0.016848 0.000000 0.000000 0.000000
# 4 0.000000 0.000000 0.000000 0.086860 0.000000 0.000000
# 5 0.000000 0.000000 0.000000 0.000000 0.025457 0.000000
# 6 0.000000 0.000000 0.000000 0.000000 0.000000 0.150164
#
#
# Mechanical properties :
#
#
# Convention : Reuss Voigt Hill
#
# Bulk Modulus (GPa) = 24.62023 33.58920 29.10471
# Shear Modulus (GPa) = 13.23985 20.53903 16.88944
#
# Velocity S-wave (km/s) = 2.67436 3.33095 3.02054
# Velocity P-wave (km/s) = 4.77871 5.73921 5.28084
#
# Compressibility (1/GPa) = 0.04061701
#
# Stress axis : x y z
#
# Youngs Moduli (GPa) = 34.19192 39.95607 59.35387
#
# Poissons Ratio (x) = -0.04022 0.80070
# Poissons Ratio (y) = -0.03441 0.16435
# Poissons Ratio (z) = 0.46126 0.11064
#
# Static dielectric constant tensor:
#      x y z
#    x 1.627560 0.000000 0.000000 
#    y 0.000000 1.644100 0.000000 
#    z 0.000000 0.000000 1.587420 
# 
# From -- ./inp_files/33902.got.cif
#   From: 2010.05.17/outbox.cif.g08.bks.cpg/sg53_17_cif.got.tgz:33902.got - 2010.06.03 12:45:16.
