data_PCOD9417535
_publ_section_title
;
Structure prediction by ZEFSAII (Michael W. Deem and Ramdas Pophale) SiO2 
 PCOD9417535
Probable space group: P M N A
;
_chemical_formula_sum "Si O2"
_cell_formula_units_Z 64
_cell_length_a 8.729789
_cell_length_b 12.255911
_cell_length_c 31.926983
_cell_angle_alpha 90.000000
_cell_angle_beta 90.000000
_cell_angle_gamma 90.000000
_cell_volume 3415.916345
_symmetry_space_group_name_H-M "P M N A"
_symmetry_group_IT_number 53
_symmetry_cell_setting 'orthorhombic'
loop_
_space_group_symop_operation_xyz
x,y,z
1/2-x,-y,1/2+z
x,-y,-z
1/2-x,y,1/2-z
-x,-y,-z
1/2+x,y,1/2-z
-x,y,z
1/2+x,-y,1/2+z
loop_
_atom_site_type_symbol
_atom_site_label
_atom_site_fract_x
_atom_site_fract_y
_atom_site_fract_z
Si Si1 0.321080 0.615600 0.477042
Si Si2 0.682956 0.989866 0.951207
Si Si3 0.679829 0.642094 0.111575
Si Si4 0.681408 0.873209 0.375154
Si Si5 0.183822 0.252370 0.294292
Si Si6 0.815868 0.000745 0.704594
Si Si7 0.319487 0.756439 0.557541
Si Si8 0.814835 0.601852 0.627522
O O1 0.296346 0.500000 0.500000
O O2 0.500000 0.617749 0.463296
O O3 0.211741 0.629391 0.437844
O O4 0.298012 0.711155 0.510635
O O5 0.500000 0.003145 0.950144
O O6 0.729227 0.868600 0.936359
O O7 0.755264 0.075006 0.918533
O O8 0.733712 0.000000 0.000000
O O9 0.500000 0.660030 0.119420
O O10 0.772988 0.746463 0.126556
O O11 0.726665 0.525181 0.130434
O O12 0.500000 0.886932 0.374582
O O13 0.753662 0.932948 0.334928
O O14 0.250000 0.288169 0.250000
O O15 0.232348 0.330029 0.331848
O O16 0.000000 0.254281 0.292359
O O17 0.229918 0.126462 0.301410
O O18 0.750000 0.035325 0.750000
O O19 0.000000 0.007345 0.705706
O O20 0.500000 0.774995 0.564270
O O21 0.260648 0.661908 0.588183
O O22 0.000000 0.607393 0.622927
#
# Coordination Sequence:
#
# PCOD9417535 Si02
#       8
#     8   8   8   8   8   8   8   8
#     4  10  20  36  55  80 116 154 194 243 292 342
#     4  11  24  41  60  84 117 156 199 248 302 362
#     4  11  23  38  58  83 115 158 203 247 293 348
#     4  12  25  41  62  87 119 159 204 252 308 368
#     4   9  19  36  59  87 116 145 177 224 282 339
#     4  10  20  38  65  94 124 155 194 245 300 362
#     4  11  22  35  57  85 114 149 190 238 290 344
#     4  10  21  37  57  83 115 150 190 234 282 339
#
# _framework density 18.735821000000001
#
# number of rings (size 3 to 8) (size 9 to 14) (size 15 to 20)
#    0.000    1.500    1.250    4.125    0.000    6.750 
#    0.000    0.625    0.000    1.500    0.000    0.000 
#    0.000    0.000    0.000    0.000    0.000    0.000 
#
# Total GULP energy -357685.009919 kJ/mol
# GULP energy per Si atom -5588.828280 kJ/mol
# Density = 1.869318 g / cm^3
# Si number density = 18.735821 Si / 1000 Ang^3
#
#
#
# Elastic Constant Matrix: (Units=GPa)
#
#
# Indices 1 2 3 4 5 6 
#
# 1 51.5528 29.0939 39.5684 0.0000 0.0000 0.0000
# 2 29.0939 89.7376 48.0063 0.0000 0.0000 0.0000
# 3 39.5684 48.0063 112.9344 0.0000 0.0000 0.0000
# 4 0.0000 0.0000 0.0000 26.5010 0.0000 0.0000
# 5 0.0000 0.0000 0.0000 0.0000 27.4866 0.0000
# 6 0.0000 0.0000 0.0000 0.0000 0.0000 22.1085
#
#
#
# Elastic Compliance Matrix: (Units=1/GPa)
#
#
# Indices 1 2 3 4 5 6 
#
# 1 0.028156 -0.004985 -0.007746 0.000000 0.000000 0.000000
# 2 -0.004985 0.015306 -0.004760 0.000000 0.000000 0.000000
# 3 -0.007746 -0.004760 0.013592 0.000000 0.000000 0.000000
# 4 0.000000 0.000000 0.000000 0.037734 0.000000 0.000000
# 5 0.000000 0.000000 0.000000 0.000000 0.036381 0.000000
# 6 0.000000 0.000000 0.000000 0.000000 0.000000 0.045232
#
#
# Mechanical properties :
#
#
# Convention : Reuss Voigt Hill
#
# Bulk Modulus (GPa) = 45.30436 54.17358 49.73897
# Shear Modulus (GPa) = 22.85819 24.38963 23.62391
#
# Velocity S-wave (km/s) = 3.49668 3.61191 3.55476
# Velocity P-wave (km/s) = 6.36674 6.80968 6.59193
#
# Compressibility (1/GPa) = 0.02207293
#
# Stress axis : x y z
#
# Youngs Moduli (GPa) = 35.51643 65.33378 73.57285
#
# Poissons Ratio (x) = 0.32567 0.56990
# Poissons Ratio (y) = 0.17704 0.35020
# Poissons Ratio (z) = 0.27511 0.31098
#
# Static dielectric constant tensor:
#      x y z
#    x 1.633670 0.000000 0.000000 
#    y 0.000000 1.647300 0.000000 
#    z 0.000000 0.000000 1.630990 
# 
# From -- ./inp_files/38137.got.cif
#   From: 2010.05.17/outbox.cif.g08.bks.cpg/sg53_20_cif.got.tgz:38137.got - 2010.06.03 12:45:16.
