data_PCOD9417303
_publ_section_title
;
Structure prediction by ZEFSAII (Michael W. Deem and Ramdas Pophale) SiO2 
 PCOD9417303
Probable space group: P M N A
;
_chemical_formula_sum "Si O2"
_cell_formula_units_Z 64
_cell_length_a 8.696823
_cell_length_b 19.777434
_cell_length_c 20.959026
_cell_angle_alpha 90.000000
_cell_angle_beta 90.000000
_cell_angle_gamma 90.000000
_cell_volume 3604.970138
_symmetry_space_group_name_H-M "P M N A"
_symmetry_group_IT_number 53
_symmetry_cell_setting 'orthorhombic'
loop_
_space_group_symop_operation_xyz
x,y,z
1/2-x,-y,1/2+z
x,-y,-z
1/2-x,y,1/2-z
-x,-y,-z
1/2+x,y,1/2-z
-x,y,z
1/2+x,-y,1/2+z
loop_
_atom_site_type_symbol
_atom_site_label
_atom_site_fract_x
_atom_site_fract_y
_atom_site_fract_z
Si Si1 0.684261 0.075006 0.318614
Si Si2 0.683949 0.579529 0.681072
Si Si3 0.315324 0.832110 0.930368
Si Si4 0.185411 0.423082 0.818818
Si Si5 0.684477 0.831748 0.430491
Si Si6 0.815825 0.075932 0.681482
Si Si7 0.684958 0.326547 0.566546
Si Si8 0.183221 0.673611 0.571220
O O1 0.750000 0.098061 0.250000
O O2 0.500000 0.073024 0.316223
O O3 0.742321 0.122842 0.375066
O O4 0.749368 0.999422 0.328898
O O5 0.750000 0.599654 0.750000
O O6 0.500000 0.581975 0.683336
O O7 0.730969 0.501228 0.669630
O O8 0.743912 0.627598 0.625596
O O9 0.500000 0.839220 0.930373
O O10 0.276837 0.752898 0.919735
O O11 0.249419 0.850978 0.999904
O O12 0.250000 0.402530 0.750000
O O13 0.236656 0.374296 0.875758
O O14 0.000000 0.420704 0.816137
O O15 0.500000 0.839507 0.429720
O O16 0.759218 0.876065 0.375089
O O17 0.721573 0.752224 0.420902
O O18 0.750000 0.099212 0.750000
O O19 0.000000 0.073206 0.684151
O O20 0.500000 0.331796 0.561049
O O21 0.757384 0.346088 0.498912
O O22 0.000000 0.667663 0.573524
#
# Coordination Sequence:
#
# PCOD9417303 Si02
#       8
#     8   8   8   8   8   8   8   8
#     4  11  22  38  59  83 110 141 178 221 267 318
#     4  10  20  35  55  77 106 140 178 221 267 317
#     4  10  21  38  57  80 109 142 179 221 267 318
#     4   9  19  35  54  78 106 140 178 220 267 317
#     4  10  20  36  57  82 110 142 180 223 268 318
#     4  11  22  38  58  81 111 145 180 221 266 316
#     4   9  19  36  56  78 108 142 178 219 267 318
#     4  10  21  36  55  79 108 140 178 220 265 316
#
# _framework density 17.753267000000001
#
# number of rings (size 3 to 8) (size 9 to 14) (size 15 to 20)
#    0.000    2.000    0.000    4.500    0.000    5.000 
#    0.000    6.250    0.000    0.000    0.000    0.000 
#    0.000    0.000    0.000    0.000    0.000    0.000 
#
# Total GULP energy -357439.981584 kJ/mol
# GULP energy per Si atom -5584.999712 kJ/mol
# Density = 1.771286 g / cm^3
# Si number density = 17.753267 Si / 1000 Ang^3
#
#
#
# Elastic Constant Matrix: (Units=GPa)
#
#
# Indices 1 2 3 4 5 6 
#
# 1 87.5704 50.7778 77.3366 0.0000 0.0000 0.0000
# 2 50.7778 79.5912 115.1009 0.0000 0.0000 0.0000
# 3 77.3366 115.1009 210.6856 0.0000 0.0000 0.0000
# 4 0.0000 0.0000 0.0000 42.9813 0.0000 0.0000
# 5 0.0000 0.0000 0.0000 0.0000 38.4835 0.0000
# 6 0.0000 0.0000 0.0000 0.0000 0.0000 30.2446
#
#
#
# Elastic Compliance Matrix: (Units=1/GPa)
#
#
# Indices 1 2 3 4 5 6 
#
# 1 0.018238 -0.009308 -0.001610 0.000000 0.000000 0.000000
# 2 -0.009308 0.064595 -0.031873 0.000000 0.000000 0.000000
# 3 -0.001610 -0.031873 0.022750 0.000000 0.000000 0.000000
# 4 0.000000 0.000000 0.000000 0.023266 0.000000 0.000000
# 5 0.000000 0.000000 0.000000 0.000000 0.025985 0.000000
# 6 0.000000 0.000000 0.000000 0.000000 0.000000 0.033064
#
#
# Mechanical properties :
#
#
# Convention : Reuss Voigt Hill
#
# Bulk Modulus (GPa) = 49.99286 96.03087 73.01186
# Shear Modulus (GPa) = 17.84779 31.31734 24.58256
#
# Velocity S-wave (km/s) = 3.17412 4.20459 3.72516
# Velocity P-wave (km/s) = 6.45402 8.81935 7.72772
#
# Compressibility (1/GPa) = 0.02000286
#
# Stress axis : x y z
#
# Youngs Moduli (GPa) = 54.83037 15.48096 43.95599
#
# Poissons Ratio (x) = 0.14409 0.07076
# Poissons Ratio (y) = 0.51034 1.40101
# Poissons Ratio (z) = 0.08827 0.49342
#
# Static dielectric constant tensor:
#      x y z
#    x 1.594150 0.000000 0.000000 
#    y 0.000000 1.594690 0.000000 
#    z 0.000000 0.000000 1.572650 
# 
# From -- ./inp_files/31289.got.cif
#   From: 2010.05.17/outbox.cif.g08.bks.cpg/sg53_16_cif.got.tgz:31289.got - 2010.06.03 12:45:16.
