data_PCOD9417544
_publ_section_title
;
Structure prediction by ZEFSAII (Michael W. Deem and Ramdas Pophale) SiO2 
 PCOD9417544
Probable space group: P M N A
;
_chemical_formula_sum "Si O2"
_cell_formula_units_Z 48
_cell_length_a 17.361611
_cell_length_b 14.377274
_cell_length_c 8.078328
_cell_angle_alpha 90.000000
_cell_angle_beta 90.000000
_cell_angle_gamma 90.000000
_cell_volume 2016.452766
_symmetry_space_group_name_H-M "P M N A"
_symmetry_group_IT_number 53
_symmetry_cell_setting 'orthorhombic'
loop_
_space_group_symop_operation_xyz
x,y,z
1/2-x,-y,1/2+z
x,-y,-z
1/2-x,y,1/2-z
-x,-y,-z
1/2+x,y,1/2-z
-x,y,z
1/2+x,-y,1/2+z
loop_
_atom_site_type_symbol
_atom_site_label
_atom_site_fract_x
_atom_site_fract_y
_atom_site_fract_z
Si Si1 0.589059 0.548817 0.817220
Si Si2 0.588986 0.773462 0.505665
Si Si3 0.671725 0.060627 0.668348
Si Si4 0.410650 0.895262 0.839972
Si Si5 0.092622 0.723225 0.495064
Si Si6 0.336658 0.375405 0.684213
O O1 0.500000 0.554739 0.761609
O O2 0.619774 0.650691 0.863762
O O3 0.636275 0.482120 0.696462
O O4 0.588703 0.500000 0.000000
O O5 0.500000 0.746568 0.477867
O O6 0.616505 0.854950 0.381650
O O7 0.592391 0.826201 0.681086
O O8 0.643160 0.683597 0.478798
O O9 0.750000 0.095327 0.750000
O O10 0.686244 0.000000 0.500000
O O11 0.633451 0.987757 0.794324
O O12 0.500000 0.917811 0.870026
O O13 0.377977 0.827645 0.980958
O O14 0.113259 0.678974 0.321416
O O15 0.000000 0.726529 0.510650
O O16 0.250000 0.369799 0.750000
#
# Coordination Sequence:
#
# PCOD9417544 Si02
#       6
#     8   8   8   8   8   8
#     4   8  15  32  56  76  98 136 180 215 252 303
#     4  10  20  36  56  77 104 139 178 219 263 311
#     4  10  21  36  54  77 107 140 171 211 265 320
#     4   9  19  36  57  79 102 135 179 220 259 307
#     4   9  18  36  60  80 102 138 182 221 257 308
#     4  11  21  33  51  80 112 140 173 216 266 316
#
# _framework density 23.804178
#
# number of rings (size 3 to 8) (size 9 to 14) (size 15 to 20)
#    0.000    2.500    0.000    3.500    0.000    6.000 
#    0.000    6.667    0.000    8.000    0.000    0.000 
#    0.000    0.000    0.000    0.000    0.000    0.000 
#
# Total GULP energy -268412.266717 kJ/mol
# GULP energy per Si atom -5591.922223 kJ/mol
# Density = 2.375000 g / cm^3
# Si number density = 23.804178 Si / 1000 Ang^3
#
#
#
# Elastic Constant Matrix: (Units=GPa)
#
#
# Indices 1 2 3 4 5 6 
#
# 1 58.2847 14.1566 0.2229 0.0000 0.0000 0.0000
# 2 14.1566 113.6522 25.8331 0.0000 0.0000 0.0000
# 3 0.2229 25.8331 62.7453 0.0000 0.0000 0.0000
# 4 0.0000 0.0000 0.0000 35.4363 0.0000 0.0000
# 5 0.0000 0.0000 0.0000 0.0000 -54.7938 0.0000
# 6 0.0000 0.0000 0.0000 0.0000 0.0000 -44.7931
#
#
#
# Elastic Compliance Matrix: (Units=1/GPa)
#
#
# Indices 1 2 3 4 5 6 
#
# 1 0.017742 -0.002422 0.000934 0.000000 0.000000 0.000000
# 2 -0.002422 0.010038 -0.004124 0.000000 0.000000 0.000000
# 3 0.000934 -0.004124 0.017632 0.000000 0.000000 0.000000
# 4 0.000000 0.000000 0.000000 0.028220 0.000000 0.000000
# 5 0.000000 0.000000 0.000000 0.000000 -0.018250 0.000000
# 6 0.000000 0.000000 0.000000 0.000000 0.000000 -0.022325
#
#
# Mechanical properties :
#
#
# Convention : Reuss Voigt Hill
#
# Bulk Modulus (GPa) = 29.25039 35.01195 32.13117
# Shear Modulus (GPa) = 89.80414 0.13452 44.96933
#
# Velocity S-wave (km/s) = 6.14883 0.23798 4.35113
# Velocity P-wave (km/s) = 7.91994 3.84912 6.22660
#
# Compressibility (1/GPa) = 0.03418758
#
# Stress axis : x y z
#
# Youngs Moduli (GPa) = 56.36359 99.62228 56.71479
#
# Poissons Ratio (x) = 0.24132 -0.05299
# Poissons Ratio (y) = 0.13653 0.23390
# Poissons Ratio (z) = -0.05266 0.41086
#
# Static dielectric constant tensor:
#      x y z
#    x 1.836520 0.000000 0.000000 
#    y 0.000000 1.919770 0.000000 
#    z 0.000000 0.000000 2.003350 
# 
# From -- ./inp_files/8684.got.cif
#   From: 2010.05.17/outbox.cif.g08.bks.cpg/sg53_5_cif.got.tgz:8684.got - 2010.06.03 12:45:16.
