data_PCOD9417497
_publ_section_title
;
Structure prediction by ZEFSAII (Michael W. Deem and Ramdas Pophale) SiO2 
 PCOD9417497
Probable space group: P M N A
;
_chemical_formula_sum "Si O2"
_cell_formula_units_Z 60
_cell_length_a 23.684458
_cell_length_b 21.861363
_cell_length_c 5.427451
_cell_angle_alpha 90.000000
_cell_angle_beta 90.000000
_cell_angle_gamma 90.000000
_cell_volume 2810.195911
_symmetry_space_group_name_H-M "P M N A"
_symmetry_group_IT_number 53
_symmetry_cell_setting 'orthorhombic'
loop_
_space_group_symop_operation_xyz
x,y,z
1/2-x,-y,1/2+z
x,-y,-z
1/2-x,y,1/2-z
-x,-y,-z
1/2+x,y,1/2-z
-x,y,z
1/2+x,-y,1/2+z
loop_
_atom_site_type_symbol
_atom_site_label
_atom_site_fract_x
_atom_site_fract_y
_atom_site_fract_z
Si Si1 0.194401 0.309432 0.142057
Si Si2 0.332987 0.176705 0.388333
Si Si3 0.366602 0.662580 0.143460
Si Si4 0.500000 0.040243 0.251078
Si Si5 0.563002 0.777336 0.307661
Si Si6 0.315843 0.539373 0.247501
Si Si7 0.685136 0.055053 0.677649
Si Si8 0.401069 0.888800 0.977354
O O1 0.250000 0.341025 0.250000
O O2 0.202433 0.236890 0.133056
O O3 0.149869 0.326104 0.357830
O O4 0.178651 0.321521 0.860015
O O5 0.392579 0.202527 0.486985
O O6 0.311400 0.122146 0.555909
O O7 0.346933 0.145765 0.132514
O O8 0.415752 0.712307 0.197791
O O9 0.364943 0.590215 0.202617
O O10 0.443620 0.081654 0.220489
O O11 0.500000 0.000000 0.500000
O O12 0.500000 0.000000 0.000000
O O13 0.500000 0.770952 0.402409
O O14 0.566236 0.835297 0.122351
O O15 0.323814 0.500000 0.500000
O O16 0.250000 0.563042 0.250000
O O17 0.317769 0.500000 0.000000
O O18 0.750000 0.040814 0.750000
O O19 0.669091 0.000000 0.500000
O O20 0.631103 0.061340 0.857641
#
# Coordination Sequence:
#
# PCOD9417497 Si02
#       8
#     8   8   8   4   8   8   8   8
#     4  11  22  36  62  93 134 166 210 268 328 390
#     4  10  25  40  65  91 124 164 216 269 341 407
#     4  11  22  40  60 100 131 175 224 269 324 390
#     4  12  32  46  74 104 130 174 222 293 358 415
#     4  10  22  43  68  95 127 169 213 277 348 405
#     4  10  20  35  60  91 134 184 224 265 319 379
#     4  11  29  46  67  92 131 180 227 278 340 429
#     4  11  25  47  68  95 132 165 221 286 347 421
#
# _framework density 21.350826999999999
#
# number of rings (size 3 to 8) (size 9 to 14) (size 15 to 20)
#    0.000    1.333    2.000    2.000   10.267    1.067 
#    0.000    0.000    0.000    0.800    0.000    0.000 
#    0.000    0.000    0.000    0.000    0.000    0.000 
#
# Total GULP energy -334304.585679 kJ/mol
# GULP energy per Si atom -5571.743095 kJ/mol
# Density = 2.130223 g / cm^3
# Si number density = 21.350827 Si / 1000 Ang^3
#
#
#
# Elastic Constant Matrix: (Units=GPa)
#
#
# Indices 1 2 3 4 5 6 
#
# 1 45.1260 8.5158 1.4479 0.0000 0.0000 0.0000
# 2 8.5158 107.5241 34.6725 0.0000 0.0000 0.0000
# 3 1.4479 34.6725 57.5799 0.0000 0.0000 0.0000
# 4 0.0000 0.0000 0.0000 28.5636 0.0000 0.0000
# 5 0.0000 0.0000 0.0000 0.0000 12.9677 0.0000
# 6 0.0000 0.0000 0.0000 0.0000 0.0000 29.5775
#
#
#
# Elastic Compliance Matrix: (Units=1/GPa)
#
#
# Indices 1 2 3 4 5 6 
#
# 1 0.022515 -0.001986 0.000630 0.000000 0.000000 0.000000
# 2 -0.001986 0.011716 -0.007005 0.000000 0.000000 0.000000
# 3 0.000630 -0.007005 0.021570 0.000000 0.000000 0.000000
# 4 0.000000 0.000000 0.000000 0.035010 0.000000 0.000000
# 5 0.000000 0.000000 0.000000 0.000000 0.077114 0.000000
# 6 0.000000 0.000000 0.000000 0.000000 0.000000 0.033810
#
#
# Mechanical properties :
#
#
# Convention : Reuss Voigt Hill
#
# Bulk Modulus (GPa) = 25.59011 33.27806 29.43408
# Shear Modulus (GPa) = 21.59979 25.26135 23.43057
#
# Velocity S-wave (km/s) = 3.18411 3.44343 3.31631
# Velocity P-wave (km/s) = 5.05269 5.60623 5.33664
#
# Compressibility (1/GPa) = 0.03907760
#
# Stress axis : x y z
#
# Youngs Moduli (GPa) = 44.41523 85.34981 46.36143
#
# Poissons Ratio (x) = 0.16953 -0.02920
# Poissons Ratio (y) = 0.08822 0.32478
# Poissons Ratio (z) = -0.02798 0.59790
#
# Static dielectric constant tensor:
#      x y z
#    x 1.985020 0.000000 0.000000 
#    y 0.000000 1.820070 0.000000 
#    z 0.000000 0.000000 1.846250 
# 
# From -- ./inp_files/3846.got.cif
#   From: 2010.05.17/outbox.cif.g08.bks.cpg/sg53_2_cif.got.tgz:3846.got - 2010.06.03 12:45:16.
