data_PCOD9417795
_publ_section_title
;
Structure prediction by ZEFSAII (Michael W. Deem and Ramdas Pophale) SiO2 
 PCOD9417795
Probable space group: P M N A
;
_chemical_formula_sum "Si O2"
_cell_formula_units_Z 36
_cell_length_a 14.770503
_cell_length_b 12.549873
_cell_length_c 6.910126
_cell_angle_alpha 90.000000
_cell_angle_beta 90.000000
_cell_angle_gamma 90.000000
_cell_volume 1280.915800
_symmetry_space_group_name_H-M "P M N A"
_symmetry_group_IT_number 53
_symmetry_cell_setting 'orthorhombic'
loop_
_space_group_symop_operation_xyz
x,y,z
1/2-x,-y,1/2+z
x,-y,-z
1/2-x,y,1/2-z
-x,-y,-z
1/2+x,y,1/2-z
-x,y,z
1/2+x,-y,1/2+z
loop_
_atom_site_type_symbol
_atom_site_label
_atom_site_fract_x
_atom_site_fract_y
_atom_site_fract_z
Si Si1 0.750000 0.649377 0.250000
Si Si2 0.354419 0.013541 0.275915
Si Si3 0.600028 0.209596 0.813245
Si Si4 0.393470 0.521146 0.770095
Si Si5 0.106068 0.754450 0.850109
O O1 0.811205 0.727593 0.385101
O O2 0.672470 0.567160 0.320753
O O3 0.250000 0.985505 0.250000
O O4 0.361829 0.139228 0.241213
O O5 0.383636 0.000000 0.500000
O O6 0.400821 0.917625 0.160582
O O7 0.500000 0.252831 0.865804
O O8 0.613683 0.226940 0.580708
O O9 0.500000 0.508051 0.716127
O O10 0.361306 0.639685 0.718470
O O11 0.387833 0.500000 0.000000
O O12 0.000000 0.751810 0.809961
#
# Coordination Sequence:
#
# PCOD9417795 Si02
#       5
#     4   8   8   8   8
#     4  12  24  36  60  86 120 164 212 258 320 382
#     4  10  20  36  62  95 126 162 213 267 325 390
#     4  10  21  39  62  91 124 161 212 268 322 386
#     4  10  24  42  60  88 127 165 208 261 321 381
#     4   9  20  39  64  89 117 163 214 267 320 377
#
# _framework density 28.104894999999999
#
# number of rings (size 3 to 8) (size 9 to 14) (size 15 to 20)
#    0.000    2.000    1.111    1.333    4.667    4.444 
#    0.000    3.333    0.000    1.333    0.000    0.000 
#    0.000    0.000    0.000    0.000    0.000    0.000 
#
# Total GULP energy -201510.922357 kJ/mol
# GULP energy per Si atom -5597.525621 kJ/mol
# Density = 2.804093 g / cm^3
# Si number density = 28.104895 Si / 1000 Ang^3
#
#
#
# Elastic Constant Matrix: (Units=GPa)
#
#
# Indices 1 2 3 4 5 6 
#
# 1 201.7896 70.6809 -8.5586 0.0000 0.0000 0.0000
# 2 70.6809 278.2973 41.3521 0.0000 0.0000 0.0000
# 3 -8.5586 41.3521 149.7218 0.0000 0.0000 0.0000
# 4 0.0000 0.0000 0.0000 33.6808 0.0000 0.0000
# 5 0.0000 0.0000 0.0000 0.0000 -1.9923 0.0000
# 6 0.0000 0.0000 0.0000 0.0000 0.0000 53.9392
#
#
#
# Elastic Compliance Matrix: (Units=1/GPa)
#
#
# Indices 1 2 3 4 5 6 
#
# 1 0.005515 -0.001510 0.000732 0.000000 0.000000 0.000000
# 2 -0.001510 0.004160 -0.001235 0.000000 0.000000 0.000000
# 3 0.000732 -0.001235 0.007062 0.000000 0.000000 0.000000
# 4 0.000000 0.000000 0.000000 0.029691 0.000000 0.000000
# 5 0.000000 0.000000 0.000000 0.000000 -0.501934 0.000000
# 6 0.000000 0.000000 0.000000 0.000000 0.000000 0.018539
#
#
# Mechanical properties :
#
#
# Convention : Reuss Voigt Hill
#
# Bulk Modulus (GPa) = 78.66324 92.97308 85.81816
# Shear Modulus (GPa) = -11.66307 52.21450 20.27571
#
# Velocity S-wave (km/s) = -2.03932 4.31495 2.68886
# Velocity P-wave (km/s) = 4.74392 7.61430 6.34359
#
# Compressibility (1/GPa) = 0.01271242
#
# Stress axis : x y z
#
# Youngs Moduli (GPa) = 181.30784 240.37080 141.60095
#
# Poissons Ratio (x) = 0.36286 -0.10368
# Poissons Ratio (y) = 0.27370 0.17492
# Poissons Ratio (z) = -0.13276 0.29694
#
# Static dielectric constant tensor:
#      x y z
#    x 2.100690 0.000000 0.000000 
#    y 0.000000 2.204760 0.000000 
#    z 0.000000 0.000000 2.340900 
# 
# From -- ./inp_files/8284.got.cif
#   From: 2010.05.17/outbox.cif.g08.bks.cpg/sg53_5_cif.got.tgz:8284.got - 2010.06.03 12:45:16.
