data_PCOD9417922
_publ_section_title
;
Structure prediction by ZEFSAII (Michael W. Deem and Ramdas Pophale) SiO2 
 PCOD9417922
Probable space group: P M N A
;
_chemical_formula_sum "Si O2"
_cell_formula_units_Z 56
_cell_length_a 10.276284
_cell_length_b 16.378640
_cell_length_c 17.455537
_cell_angle_alpha 90.000000
_cell_angle_beta 90.000000
_cell_angle_gamma 90.000000
_cell_volume 2937.968596
_symmetry_space_group_name_H-M "P M N A"
_symmetry_group_IT_number 53
_symmetry_cell_setting 'orthorhombic'
loop_
_space_group_symop_operation_xyz
x,y,z
1/2-x,-y,1/2+z
x,-y,-z
1/2-x,y,1/2-z
-x,-y,-z
1/2+x,y,1/2-z
-x,y,z
1/2+x,-y,1/2+z
loop_
_atom_site_type_symbol
_atom_site_label
_atom_site_fract_x
_atom_site_fract_y
_atom_site_fract_z
Si Si1 0.846965 0.030710 0.184129
Si Si2 0.843081 0.856993 0.118339
Si Si3 0.648842 0.682126 0.314692
Si Si4 0.347474 0.831025 0.556710
Si Si5 0.351804 0.311833 0.076998
Si Si6 0.856598 0.536177 0.685300
Si Si7 0.756415 0.428357 0.945886
O O1 0.750000 0.060030 0.250000
O O2 0.839588 0.091317 0.112053
O O3 0.000000 0.027738 0.207706
O O4 0.801746 0.940137 0.159061
O O5 0.806501 0.772682 0.159190
O O6 0.000000 0.859087 0.118930
O O7 0.805349 0.853959 0.029399
O O8 0.750000 0.654388 0.250000
O O9 0.500000 0.685297 0.286367
O O10 0.653809 0.624713 0.389707
O O11 0.500000 0.804872 0.554358
O O12 0.254035 0.758885 0.584116
O O13 0.500000 0.281154 0.070574
O O14 0.345718 0.373968 0.148279
O O15 0.316645 0.366079 0.002274
O O16 0.750000 0.525700 0.750000
O O17 0.836572 0.475674 0.613556
O O18 0.000000 0.524138 0.718440
O O19 0.815745 0.500000 0.000000
#
# Coordination Sequence:
#
# PCOD9417922 Si02
#       7
#     8   8   8   8   8   8   8
#     4  10  21  37  60  86 118 156 191 236 286 339
#     4   9  18  37  61  86 115 151 195 236 281 338
#     4  11  23  38  59  89 122 153 190 238 289 346
#     4  10  20  37  61  87 114 151 198 239 281 338
#     4  10  21  38  60  85 114 150 191 239 291 340
#     4  10  22  39  58  82 113 150 193 238 288 346
#     4  10  21  38  60  84 112 150 194 240 290 344
#
# _framework density 19.060789
#
# number of rings (size 3 to 8) (size 9 to 14) (size 15 to 20)
#    0.000    2.000    1.429    1.714    0.000    8.286 
#    0.000    6.429    0.000    1.714    0.000    0.000 
#    0.000    0.000    0.000    0.000    0.000    0.000 
#
# Total GULP energy -312494.226352 kJ/mol
# GULP energy per Si atom -5580.254042 kJ/mol
# Density = 1.901741 g / cm^3
# Si number density = 19.060789 Si / 1000 Ang^3
#
#
#
# Elastic Constant Matrix: (Units=GPa)
#
#
# Indices 1 2 3 4 5 6 
#
# 1 98.7559 41.8419 49.2851 0.0000 0.0000 0.0000
# 2 41.8419 82.8271 31.5747 0.0000 0.0000 0.0000
# 3 49.2851 31.5747 90.1175 0.0000 0.0000 0.0000
# 4 0.0000 0.0000 0.0000 19.6714 0.0000 0.0000
# 5 0.0000 0.0000 0.0000 0.0000 23.1956 0.0000
# 6 0.0000 0.0000 0.0000 0.0000 0.0000 7.6122
#
#
#
# Elastic Compliance Matrix: (Units=1/GPa)
#
#
# Indices 1 2 3 4 5 6 
#
# 1 0.015776 -0.005402 -0.006735 0.000000 0.000000 0.000000
# 2 -0.005402 0.015784 -0.002576 0.000000 0.000000 0.000000
# 3 -0.006735 -0.002576 0.015683 0.000000 0.000000 0.000000
# 4 0.000000 0.000000 0.000000 0.050835 0.000000 0.000000
# 5 0.000000 0.000000 0.000000 0.000000 0.043112 0.000000
# 6 0.000000 0.000000 0.000000 0.000000 0.000000 0.131368
#
#
# Mechanical properties :
#
#
# Convention : Reuss Voigt Hill
#
# Bulk Modulus (GPa) = 56.12769 57.45600 56.79185
# Shear Modulus (GPa) = 16.23782 20.02909 18.13345
#
# Velocity S-wave (km/s) = 2.92189 3.24512 3.08774
# Velocity P-wave (km/s) = 6.39483 6.65207 6.52472
#
# Compressibility (1/GPa) = 0.01781652
#
# Stress axis : x y z
#
# Youngs Moduli (GPa) = 63.38736 63.35397 63.76486
#
# Poissons Ratio (x) = 0.34224 0.42947
# Poissons Ratio (y) = 0.34242 0.16426
# Poissons Ratio (z) = 0.42692 0.16320
#
# Static dielectric constant tensor:
#      x y z
#    x 1.647220 0.000000 0.000000 
#    y 0.000000 1.686010 0.000000 
#    z 0.000000 0.000000 1.649800 
# 
# From -- ./inp_files/21862.got.cif
#   From: 2010.05.17/outbox.cif.g08.bks.cpg/sg53_11_cif.got.tgz:21862.got - 2010.06.03 12:45:16.
