data_PCOD9417114
_publ_section_title
;
Structure prediction by ZEFSAII (Michael W. Deem and Ramdas Pophale) SiO2 
 PCOD9417114
Probable space group: P M N A
;
_chemical_formula_sum "Si O2"
_cell_formula_units_Z 64
_cell_length_a 7.726405
_cell_length_b 22.389601
_cell_length_c 17.552284
_cell_angle_alpha 90.000000
_cell_angle_beta 90.000000
_cell_angle_gamma 90.000000
_cell_volume 3036.389357
_symmetry_space_group_name_H-M "P M N A"
_symmetry_group_IT_number 53
_symmetry_cell_setting 'orthorhombic'
loop_
_space_group_symop_operation_xyz
x,y,z
1/2-x,-y,1/2+z
x,-y,-z
1/2-x,y,1/2-z
-x,-y,-z
1/2+x,y,1/2-z
-x,y,z
1/2+x,-y,1/2+z
loop_
_atom_site_type_symbol
_atom_site_label
_atom_site_fract_x
_atom_site_fract_y
_atom_site_fract_z
Si Si1 0.298174 0.065643 0.989901
Si Si2 0.706942 0.494772 0.333970
Si Si3 0.703018 0.607349 0.947953
Si Si4 0.292121 0.712872 0.838077
Si Si5 0.291915 0.247792 0.611277
Si Si6 0.706362 0.121714 0.666723
Si Si7 0.791337 0.810031 0.549732
Si Si8 0.700364 0.621247 0.379580
O O1 0.500000 0.061426 0.012822
O O2 0.287177 0.084460 0.901749
O O3 0.222898 0.123094 0.034647
O O4 0.219604 0.000000 0.000000
O O5 0.750000 0.470505 0.250000
O O6 0.500000 0.495856 0.342582
O O7 0.777826 0.454008 0.401726
O O8 0.777807 0.562375 0.341019
O O9 0.500000 0.618107 0.963037
O O10 0.771321 0.658631 0.890995
O O11 0.793308 0.609467 0.029532
O O12 0.250000 0.706099 0.750000
O O13 0.500000 0.712019 0.843960
O O14 0.229938 0.774746 0.875920
O O15 0.500000 0.250553 0.617728
O O16 0.229842 0.190380 0.658487
O O17 0.251027 0.230703 0.523817
O O18 0.221838 0.312916 0.633252
O O19 0.750000 0.098734 0.750000
O O20 0.500000 0.121561 0.655576
O O21 0.000000 0.814248 0.552507
O O22 0.500000 0.624113 0.355149
#
# Coordination Sequence:
#
# PCOD9417114 Si02
#       8
#     8   8   8   8   8   8   8   8
#     4   9  18  34  58  83 109 146 185 223 271 321
#     4  11  24  40  55  75 105 141 179 222 274 324
#     4  11  22  37  57  80 104 136 180 223 270 326
#     4  10  21  34  51  77 105 135 171 216 266 315
#     4   9  18  33  54  79 105 137 176 217 265 319
#     4  10  20  34  54  82 114 147 185 227 271 319
#     4   9  17  33  53  76 107 137 173 218 261 315
#     4  10  21  37  57  80 107 139 176 222 273 326
#
# _framework density 21.077667000000002
#
# number of rings (size 3 to 8) (size 9 to 14) (size 15 to 20)
#    0.000    2.125    1.250    1.875    0.000    6.250 
#    0.000    0.625    0.000    1.500    0.000    0.000 
#    0.000    0.000    0.000    0.000    0.000    0.000 
#
# Total GULP energy -357334.978582 kJ/mol
# GULP energy per Si atom -5583.359040 kJ/mol
# Density = 2.102969 g / cm^3
# Si number density = 21.077667 Si / 1000 Ang^3
#
#
#
# Elastic Constant Matrix: (Units=GPa)
#
#
# Indices 1 2 3 4 5 6 
#
# 1 41.4751 -0.8521 -16.2099 0.0000 0.0000 0.0000
# 2 -0.8521 124.6197 5.9550 0.0000 0.0000 0.0000
# 3 -16.2099 5.9550 54.3235 0.0000 0.0000 0.0000
# 4 0.0000 0.0000 0.0000 12.5441 0.0000 0.0000
# 5 0.0000 0.0000 0.0000 0.0000 17.8025 0.0000
# 6 0.0000 0.0000 0.0000 0.0000 0.0000 7.0603
#
#
#
# Elastic Compliance Matrix: (Units=1/GPa)
#
#
# Indices 1 2 3 4 5 6 
#
# 1 0.027299 -0.000204 0.008168 0.000000 0.000000 0.000000
# 2 -0.000204 0.008068 -0.000945 0.000000 0.000000 0.000000
# 3 0.008168 -0.000945 0.020949 0.000000 0.000000 0.000000
# 4 0.000000 0.000000 0.000000 0.079719 0.000000 0.000000
# 5 0.000000 0.000000 0.000000 0.000000 0.056172 0.000000
# 6 0.000000 0.000000 0.000000 0.000000 0.000000 0.141637
#
#
# Mechanical properties :
#
#
# Convention : Reuss Voigt Hill
#
# Bulk Modulus (GPa) = 14.21356 22.02268 18.11812
# Shear Modulus (GPa) = 14.56632 22.91640 18.74136
#
# Velocity S-wave (km/s) = 2.63169 3.30090 2.98511
# Velocity P-wave (km/s) = 3.99906 4.99990 4.52722
#
# Compressibility (1/GPa) = 0.07035535
#
# Stress axis : x y z
#
# Youngs Moduli (GPa) = 36.63124 123.94355 47.73443
#
# Poissons Ratio (x) = 0.02524 -0.38991
# Poissons Ratio (y) = 0.00746 0.04512
# Poissons Ratio (z) = -0.29921 0.11715
#
# Static dielectric constant tensor:
#      x y z
#    x 1.801900 0.000000 0.000000 
#    y 0.000000 1.809900 0.000000 
#    z 0.000000 0.000000 1.717220 
# 
# From -- ./inp_files/26876.got.cif
#   From: 2010.05.17/outbox.cif.g08.bks.cpg/sg53_14_cif.got.tgz:26876.got - 2010.06.03 12:45:16.
