data_PCOD9417833
_publ_section_title
;
Structure prediction by ZEFSAII (Michael W. Deem and Ramdas Pophale) SiO2 
 PCOD9417833
Probable space group: P M N A
;
_chemical_formula_sum "Si O2"
_cell_formula_units_Z 48
_cell_length_a 8.528403
_cell_length_b 15.395625
_cell_length_c 19.812619
_cell_angle_alpha 90.000000
_cell_angle_beta 90.000000
_cell_angle_gamma 90.000000
_cell_volume 2601.398746
_symmetry_space_group_name_H-M "P M N A"
_symmetry_group_IT_number 53
_symmetry_cell_setting 'orthorhombic'
loop_
_space_group_symop_operation_xyz
x,y,z
1/2-x,-y,1/2+z
x,-y,-z
1/2-x,y,1/2-z
-x,-y,-z
1/2+x,y,1/2-z
-x,y,z
1/2+x,-y,1/2+z
loop_
_atom_site_type_symbol
_atom_site_label
_atom_site_fract_x
_atom_site_fract_y
_atom_site_fract_z
Si Si1 0.809103 0.961425 0.927680
Si Si2 0.310963 0.629048 0.675956
Si Si3 0.686704 0.726857 0.088108
Si Si4 0.311548 0.889371 0.325983
Si Si5 0.309807 0.763263 0.561372
Si Si6 0.311669 0.571095 0.324610
O O1 0.759335 0.861622 0.921450
O O2 0.000000 0.961928 0.928035
O O3 0.759113 0.025498 0.867919
O O4 0.758410 0.000000 0.000000
O O5 0.250000 0.653431 0.750000
O O6 0.500000 0.630759 0.677483
O O7 0.257650 0.694888 0.618058
O O8 0.263603 0.529018 0.662578
O O9 0.500000 0.730102 0.088622
O O10 0.752576 0.805247 0.133707
O O11 0.744482 0.637207 0.120972
O O12 0.748902 0.738446 0.012351
O O13 0.250000 0.889808 0.250000
O O14 0.500000 0.887552 0.325246
O O15 0.500000 0.762319 0.559233
O O16 0.250000 0.594892 0.250000
O O17 0.500000 0.575907 0.324759
#
# Coordination Sequence:
#
# PCOD9417833 Si02
#       6
#     8   8   8   8   8   8
#     4   9  17  34  60  83 107 148 190 225 273 330
#     4   9  20  37  60  85 113 148 188 233 281 335
#     4  12  24  37  55  84 115 149 189 236 288 336
#     4  11  22  38  59  85 116 150 189 234 281 338
#     4  10  20  38  61  85 113 151 192 230 279 341
#     4  10  20  37  58  82 112 150 189 231 282 337
#
# _framework density 18.451612000000001
#
# number of rings (size 3 to 8) (size 9 to 14) (size 15 to 20)
#    0.000    1.833    1.667    3.000    0.000    2.667 
#    0.000    5.833    0.000    0.000    0.000    0.000 
#    0.000    0.000    0.000    0.000    0.000    0.000 
#
# Total GULP energy -268129.562734 kJ/mol
# GULP energy per Si atom -5586.032557 kJ/mol
# Density = 1.840961 g / cm^3
# Si number density = 18.451612 Si / 1000 Ang^3
#
#
#
# Elastic Constant Matrix: (Units=GPa)
#
#
# Indices 1 2 3 4 5 6 
#
# 1 43.5991 34.2593 36.3521 0.0000 0.0000 0.0000
# 2 34.2593 148.8154 122.8734 0.0000 0.0000 0.0000
# 3 36.3521 122.8734 191.7313 0.0000 0.0000 0.0000
# 4 0.0000 0.0000 0.0000 39.6722 0.0000 0.0000
# 5 0.0000 0.0000 0.0000 0.0000 32.6058 0.0000
# 6 0.0000 0.0000 0.0000 0.0000 0.0000 12.9002
#
#
#
# Elastic Compliance Matrix: (Units=1/GPa)
#
#
# Indices 1 2 3 4 5 6 
#
# 1 0.028578 -0.004471 -0.002553 0.000000 0.000000 0.000000
# 2 -0.004471 0.014971 -0.008747 0.000000 0.000000 0.000000
# 3 -0.002553 -0.008747 0.011305 0.000000 0.000000 0.000000
# 4 0.000000 0.000000 0.000000 0.025207 0.000000 0.000000
# 5 0.000000 0.000000 0.000000 0.000000 0.030669 0.000000
# 6 0.000000 0.000000 0.000000 0.000000 0.000000 0.077518
#
#
# Mechanical properties :
#
#
# Convention : Reuss Voigt Hill
#
# Bulk Modulus (GPa) = 42.89499 85.67950 64.28725
# Shear Modulus (GPa) = 21.97216 29.74635 25.85926
#
# Velocity S-wave (km/s) = 3.45454 4.01949 3.74767
# Velocity P-wave (km/s) = 6.26175 8.25089 7.32416
#
# Compressibility (1/GPa) = 0.02331274
#
# Stress axis : x y z
#
# Youngs Moduli (GPa) = 34.99162 66.79636 88.45616
#
# Poissons Ratio (x) = 0.29865 0.22583
# Poissons Ratio (y) = 0.15645 0.77369
# Poissons Ratio (z) = 0.08934 0.58424
#
# Static dielectric constant tensor:
#      x y z
#    x 1.627490 0.000000 0.000000 
#    y 0.000000 1.633930 0.000000 
#    z 0.000000 0.000000 1.620570 
# 
# From -- ./inp_files/26273.got.cif
#   From: 2010.05.17/outbox.cif.g08.bks.cpg/sg53_14_cif.got.tgz:26273.got - 2010.06.03 12:45:16.
