data_PCOD9417040
_publ_section_title
;
Structure prediction by ZEFSAII (Michael W. Deem and Ramdas Pophale) SiO2 
 PCOD9417040
Probable space group: P M N A
;
_chemical_formula_sum "Si O2"
_cell_formula_units_Z 64
_cell_length_a 8.624962
_cell_length_b 14.443197
_cell_length_c 28.357638
_cell_angle_alpha 90.000000
_cell_angle_beta 90.000000
_cell_angle_gamma 90.000000
_cell_volume 3532.568398
_symmetry_space_group_name_H-M "P M N A"
_symmetry_group_IT_number 53
_symmetry_cell_setting 'orthorhombic'
loop_
_space_group_symop_operation_xyz
x,y,z
1/2-x,-y,1/2+z
x,-y,-z
1/2-x,y,1/2-z
-x,-y,-z
1/2+x,y,1/2-z
-x,y,z
1/2+x,-y,1/2+z
loop_
_atom_site_type_symbol
_atom_site_label
_atom_site_fract_x
_atom_site_fract_y
_atom_site_fract_z
Si Si1 0.184867 0.430867 0.605130
Si Si2 0.186625 0.867589 0.303156
Si Si3 0.187359 0.335753 0.697221
Si Si4 0.312505 0.070038 0.196901
Si Si5 0.813696 0.290858 0.968500
Si Si6 0.687436 0.897778 0.515592
Si Si7 0.685772 0.192449 0.110492
Si Si8 0.315314 0.376040 0.429989
O O1 0.236811 0.410740 0.658752
O O2 0.231073 0.342107 0.574077
O O3 0.259318 0.522415 0.583394
O O4 0.000000 0.441317 0.604688
O O5 0.250000 0.868736 0.250000
O O6 0.236386 0.766909 0.321438
O O7 0.000000 0.867216 0.302955
O O8 0.235047 0.967745 0.322618
O O9 0.250000 0.348897 0.750000
O O10 0.000000 0.336596 0.699587
O O11 0.250000 0.081659 0.250000
O O12 0.500000 0.071717 0.199528
O O13 0.261463 0.146922 0.159583
O O14 0.000000 0.294962 0.961953
O O15 0.769254 0.184356 0.979061
O O16 0.774909 0.347324 0.016400
O O17 0.500000 0.897208 0.518472
O O18 0.751686 0.866889 0.566280
O O19 0.738249 0.000000 0.500000
O O20 0.500000 0.190534 0.109221
O O21 0.742819 0.296883 0.102925
O O22 0.500000 0.370931 0.426362
#
# Coordination Sequence:
#
# PCOD9417040 Si02
#       8
#     8   8   8   8   8   8   8   8
#     4  11  22  34  53  81 106 130 168 217 264 309
#     4   8  14  28  47  67  95 129 162 198 243 290
#     4   9  19  34  51  73 103 136 168 205 249 301
#     4   9  18  31  50  76 104 135 173 215 255 303
#     4   9  19  35  54  77 104 135 173 212 251 301
#     4   9  19  36  55  77 109 146 179 209 247 304
#     4  10  20  34  53  78 106 136 172 216 265 311
#     4  10  21  38  57  75 100 136 174 213 260 313
#
# _framework density 18.117128000000001
#
# number of rings (size 3 to 8) (size 9 to 14) (size 15 to 20)
#    0.000    2.625    0.000    2.250    0.000    7.250 
#    0.000    1.875    0.000    4.500    0.000    0.000 
#    0.000    0.000    0.000    0.000    0.000    0.000 
#
# Total GULP energy -356692.897346 kJ/mol
# GULP energy per Si atom -5573.326521 kJ/mol
# Density = 1.807589 g / cm^3
# Si number density = 18.117128 Si / 1000 Ang^3
#
#
#
# Elastic Constant Matrix: (Units=GPa)
#
#
# Indices 1 2 3 4 5 6 
#
# 1 11.8297 18.8962 14.8221 0.0000 0.0000 0.0000
# 2 18.8962 104.4529 52.4845 0.0000 0.0000 0.0000
# 3 14.8221 52.4845 63.2397 0.0000 0.0000 0.0000
# 4 0.0000 0.0000 0.0000 24.7917 0.0000 0.0000
# 5 0.0000 0.0000 0.0000 0.0000 22.4697 0.0000
# 6 0.0000 0.0000 0.0000 0.0000 0.0000 28.5321
#
#
#
# Elastic Compliance Matrix: (Units=1/GPa)
#
#
# Indices 1 2 3 4 5 6 
#
# 1 0.130864 -0.014173 -0.018909 0.000000 0.000000 0.000000
# 2 -0.014173 0.017957 -0.011581 0.000000 0.000000 0.000000
# 3 -0.018909 -0.011581 0.029856 0.000000 0.000000 0.000000
# 4 0.000000 0.000000 0.000000 0.040336 0.000000 0.000000
# 5 0.000000 0.000000 0.000000 0.000000 0.044504 0.000000
# 6 0.000000 0.000000 0.000000 0.000000 0.000000 0.035048
#
#
# Mechanical properties :
#
#
# Convention : Reuss Voigt Hill
#
# Bulk Modulus (GPa) = 11.19185 39.10309 25.14747
# Shear Modulus (GPa) = 11.97101 21.38001 16.67551
#
# Velocity S-wave (km/s) = 2.57331 3.43898 3.03715
# Velocity P-wave (km/s) = 3.87558 6.11549 5.11953
#
# Compressibility (1/GPa) = 0.08935073
#
# Stress axis : x y z
#
# Youngs Moduli (GPa) = 7.64152 55.68930 33.49382
#
# Poissons Ratio (x) = 0.78927 0.63335
# Poissons Ratio (y) = 0.10830 0.38789
# Poissons Ratio (z) = 0.14450 0.64494
#
# Static dielectric constant tensor:
#      x y z
#    x 1.617710 0.000000 0.000000 
#    y 0.000000 1.645110 0.000000 
#    z 0.000000 0.000000 1.601290 
# 
# From -- ./inp_files/34274.got.cif
#   From: 2010.05.17/outbox.cif.g08.bks.cpg/sg53_18_cif.got.tgz:34274.got - 2010.06.03 12:45:16.
