data_PCOD9417926
_publ_section_title
;
Structure prediction by ZEFSAII (Michael W. Deem and Ramdas Pophale) SiO2 
 PCOD9417926
Probable space group: P M N A
;
_chemical_formula_sum "Si O2"
_cell_formula_units_Z 64
_cell_length_a 8.725959
_cell_length_b 12.832308
_cell_length_c 29.364573
_cell_angle_alpha 90.000000
_cell_angle_beta 90.000000
_cell_angle_gamma 90.000000
_cell_volume 3288.074379
_symmetry_space_group_name_H-M "P M N A"
_symmetry_group_IT_number 53
_symmetry_cell_setting 'orthorhombic'
loop_
_space_group_symop_operation_xyz
x,y,z
1/2-x,-y,1/2+z
x,-y,-z
1/2-x,y,1/2-z
-x,-y,-z
1/2+x,y,1/2-z
-x,y,z
1/2+x,-y,1/2+z
loop_
_atom_site_type_symbol
_atom_site_label
_atom_site_fract_x
_atom_site_fract_y
_atom_site_fract_z
Si Si1 0.685029 0.500943 0.798842
Si Si2 0.318013 0.105561 0.864846
Si Si3 0.182342 0.929433 0.800578
Si Si4 0.313303 0.342587 0.877558
Si Si5 0.182828 0.282328 0.341603
Si Si6 0.819154 0.741897 0.936612
Si Si7 0.815304 0.384841 0.518721
Si Si8 0.318674 0.986776 0.552801
O O1 0.750000 0.469873 0.750000
O O2 0.500000 0.497507 0.797359
O O3 0.736747 0.425624 0.839769
O O4 0.730195 0.619431 0.810942
O O5 0.500000 0.101322 0.857205
O O6 0.267206 0.225675 0.863795
O O7 0.237266 0.029513 0.829035
O O8 0.278134 0.059875 0.914448
O O9 0.250000 0.932599 0.750000
O O10 0.240394 0.824195 0.825002
O O11 0.000000 0.927367 0.798937
O O12 0.500000 0.344700 0.878278
O O13 0.264149 0.369389 0.929071
O O14 0.230375 0.305223 0.393593
O O15 0.000000 0.270473 0.339021
O O16 0.795058 0.866158 0.934801
O O17 0.000000 0.721880 0.932294
O O18 0.759041 0.696899 0.984098
O O19 0.778677 0.500000 0.500000
O O20 0.000000 0.372719 0.517268
O O21 0.500000 0.010502 0.558673
O O22 0.280035 0.000000 0.500000
#
# Coordination Sequence:
#
# PCOD9417926 Si02
#       8
#     8   8   8   8   8   8   8   8
#     4  10  22  41  64  90 120 154 197 250 310 368
#     4  11  22  38  61  88 120 160 207 253 301 363
#     4  12  25  42  63  89 123 160 203 257 315 372
#     4   9  20  39  61  88 123 161 204 253 301 360
#     4  11  22  39  64  92 123 161 203 252 309 372
#     4  11  22  35  56  87 124 162 199 252 306 362
#     4  10  20  37  61  87 119 164 211 255 306 365
#     4  10  21  37  56  82 120 163 202 248 306 358
#
# _framework density 19.464279999999999
#
# number of rings (size 3 to 8) (size 9 to 14) (size 15 to 20)
#    0.000    1.500    1.250    4.125    0.000    5.500 
#    0.000    3.750    0.000    0.000    0.000    0.000 
#    0.000    0.000    0.000    0.000    0.000    0.000 
#
# Total GULP energy -357801.432633 kJ/mol
# GULP energy per Si atom -5590.647385 kJ/mol
# Density = 1.941998 g / cm^3
# Si number density = 19.464280 Si / 1000 Ang^3
#
#
#
# Elastic Constant Matrix: (Units=GPa)
#
#
# Indices 1 2 3 4 5 6 
#
# 1 49.7971 43.9633 29.6545 0.0000 0.0000 0.0000
# 2 43.9633 119.8027 64.8618 0.0000 0.0000 0.0000
# 3 29.6545 64.8618 144.0161 0.0000 0.0000 0.0000
# 4 0.0000 0.0000 0.0000 33.1535 0.0000 0.0000
# 5 0.0000 0.0000 0.0000 0.0000 33.7206 0.0000
# 6 0.0000 0.0000 0.0000 0.0000 0.0000 13.3422
#
#
#
# Elastic Compliance Matrix: (Units=1/GPa)
#
#
# Indices 1 2 3 4 5 6 
#
# 1 0.029985 -0.010131 -0.001612 0.000000 0.000000 0.000000
# 2 -0.010131 0.014462 -0.004427 0.000000 0.000000 0.000000
# 3 -0.001612 -0.004427 0.009269 0.000000 0.000000 0.000000
# 4 0.000000 0.000000 0.000000 0.030163 0.000000 0.000000
# 5 0.000000 0.000000 0.000000 0.000000 0.029655 0.000000
# 6 0.000000 0.000000 0.000000 0.000000 0.000000 0.074950
#
#
# Mechanical properties :
#
#
# Convention : Reuss Voigt Hill
#
# Bulk Modulus (GPa) = 46.77923 65.61946 56.19935
# Shear Modulus (GPa) = 21.93463 27.71901 24.82682
#
# Velocity S-wave (km/s) = 3.36060 3.77781 3.57530
# Velocity P-wave (km/s) = 6.25649 7.26740 6.78081
#
# Compressibility (1/GPa) = 0.02137701
#
# Stress axis : x y z
#
# Youngs Moduli (GPa) = 33.34958 69.14836 107.88216
#
# Poissons Ratio (x) = 0.70055 0.17385
# Poissons Ratio (y) = 0.33787 0.47761
# Poissons Ratio (z) = 0.05374 0.30613
#
# Static dielectric constant tensor:
#      x y z
#    x 1.654520 0.000000 0.000000 
#    y 0.000000 1.670860 0.000000 
#    z 0.000000 0.000000 1.668640 
# 
# From -- ./inp_files/38246.got.cif
#   From: 2010.05.17/outbox.cif.g08.bks.cpg/sg53_20_cif.got.tgz:38246.got - 2010.06.03 12:45:16.
