data_PCOD9417410
_publ_section_title
;
Structure prediction by ZEFSAII (Michael W. Deem and Ramdas Pophale) SiO2 
 PCOD9417410
Probable space group: P M N A
;
_chemical_formula_sum "Si O2"
_cell_formula_units_Z 48
_cell_length_a 8.451602
_cell_length_b 9.343181
_cell_length_c 31.844645
_cell_angle_alpha 90.000000
_cell_angle_beta 90.000000
_cell_angle_gamma 90.000000
_cell_volume 2514.607527
_symmetry_space_group_name_H-M "P M N A"
_symmetry_group_IT_number 53
_symmetry_cell_setting 'orthorhombic'
loop_
_space_group_symop_operation_xyz
x,y,z
1/2-x,-y,1/2+z
x,-y,-z
1/2-x,y,1/2-z
-x,-y,-z
1/2+x,y,1/2-z
-x,y,z
1/2+x,-y,1/2+z
loop_
_atom_site_type_symbol
_atom_site_label
_atom_site_fract_x
_atom_site_fract_y
_atom_site_fract_z
Si Si1 0.306828 0.414208 0.458596
Si Si2 0.691420 0.409710 0.623419
Si Si3 0.689550 0.913523 0.122801
Si Si4 0.691542 0.915912 0.541856
Si Si5 0.310188 0.412389 0.295663
Si Si6 0.189739 0.911173 0.704274
O O1 0.255625 0.500000 0.500000
O O2 0.500000 0.413400 0.458809
O O3 0.256447 0.496560 0.416580
O O4 0.255453 0.249224 0.459083
O O5 0.500000 0.407724 0.623122
O O6 0.750688 0.248406 0.620251
O O7 0.743147 0.485924 0.666499
O O8 0.500000 0.914120 0.122537
O O9 0.750032 0.003968 0.083255
O O10 0.743544 0.988507 0.166134
O O11 0.500000 0.916562 0.542360
O O12 0.742905 0.000000 0.500000
O O13 0.250000 0.459912 0.250000
O O14 0.500000 0.409080 0.295061
O O15 0.250100 0.250639 0.302581
O O16 0.250000 0.958782 0.750000
O O17 0.000000 0.908320 0.705165
#
# Coordination Sequence:
#
# PCOD9417410 Si02
#       6
#     8   8   8   8   8   8
#     4   9  17  32  56  84 109 134 174 224 267 313
#     4  10  21  36  55  79 108 144 184 224 268 323
#     4  11  24  38  54  80 114 148 183 228 279 329
#     4  10  20  36  61  87 111 144 184 226 272 326
#     4  10  20  35  57  83 110 143 183 228 277 329
#     4  10  21  37  57  81 109 144 185 228 276 329
#
# _framework density 19.088467999999999
#
# number of rings (size 3 to 8) (size 9 to 14) (size 15 to 20)
#    0.000    2.000    0.000    4.500    0.000    9.000 
#    0.000    4.167    0.000    2.000    0.000    0.000 
#    0.000    0.000    0.000    0.000    0.000    0.000 
#
# Total GULP energy -268171.541329 kJ/mol
# GULP energy per Si atom -5586.907111 kJ/mol
# Density = 1.904502 g / cm^3
# Si number density = 19.088468 Si / 1000 Ang^3
#
#
#
# Elastic Constant Matrix: (Units=GPa)
#
#
# Indices 1 2 3 4 5 6 
#
# 1 21.3996 23.4969 29.9129 0.0000 0.0000 0.0000
# 2 23.4969 185.7331 144.2202 0.0000 0.0000 0.0000
# 3 29.9129 144.2202 214.2620 0.0000 0.0000 0.0000
# 4 0.0000 0.0000 0.0000 43.6691 0.0000 0.0000
# 5 0.0000 0.0000 0.0000 0.0000 20.4346 0.0000
# 6 0.0000 0.0000 0.0000 0.0000 0.0000 -243.0848
#
#
#
# Elastic Compliance Matrix: (Units=1/GPa)
#
#
# Indices 1 2 3 4 5 6 
#
# 1 0.058493 -0.002218 -0.006673 0.000000 0.000000 0.000000
# 2 -0.002218 0.011363 -0.007339 0.000000 0.000000 0.000000
# 3 -0.006673 -0.007339 0.010539 0.000000 0.000000 0.000000
# 4 0.000000 0.000000 0.000000 0.022899 0.000000 0.000000
# 5 0.000000 0.000000 0.000000 0.000000 0.048937 0.000000
# 6 0.000000 0.000000 0.000000 0.000000 0.000000 -0.004114
#
#
# Mechanical properties :
#
#
# Convention : Reuss Voigt Hill
#
# Bulk Modulus (GPa) = 20.86178 90.73941 55.80060
# Shear Modulus (GPa) = 25.43796 -20.87857 2.27970
#
# Velocity S-wave (km/s) = 3.65449 -3.31082 1.09402
# Velocity P-wave (km/s) = 5.36281 5.74666 5.55805
#
# Compressibility (1/GPa) = 0.04793454
#
# Stress axis : x y z
#
# Youngs Moduli (GPa) = 17.09600 88.00178 94.88835
#
# Poissons Ratio (x) = 0.19522 0.63319
# Poissons Ratio (y) = 0.03793 0.69639
# Poissons Ratio (z) = 0.11408 0.64585
#
# Static dielectric constant tensor:
#      x y z
#    x 1.656990 0.000000 0.000000 
#    y 0.000000 1.626790 0.000000 
#    z 0.000000 0.000000 1.652100 
# 
# From -- ./inp_files/37773.got.cif
#   From: 2010.05.17/outbox.cif.g08.bks.cpg/sg53_19_cif.got.tgz:37773.got - 2010.06.03 12:45:16.
