data_PCOD9417659
_publ_section_title
;
Structure prediction by ZEFSAII (Michael W. Deem and Ramdas Pophale) SiO2 
 PCOD9417659
Probable space group: P M N A
;
_chemical_formula_sum "Si O2"
_cell_formula_units_Z 48
_cell_length_a 8.684037
_cell_length_b 31.788628
_cell_length_c 9.247516
_cell_angle_alpha 90.000000
_cell_angle_beta 90.000000
_cell_angle_gamma 90.000000
_cell_volume 2552.810284
_symmetry_space_group_name_H-M "P M N A"
_symmetry_group_IT_number 53
_symmetry_cell_setting 'orthorhombic'
loop_
_space_group_symop_operation_xyz
x,y,z
1/2-x,-y,1/2+z
x,-y,-z
1/2-x,y,1/2-z
-x,-y,-z
1/2+x,y,1/2-z
-x,y,z
1/2+x,-y,1/2+z
loop_
_atom_site_type_symbol
_atom_site_label
_atom_site_fract_x
_atom_site_fract_y
_atom_site_fract_z
Si Si1 0.814186 0.541374 0.588088
Si Si2 0.315007 0.134110 0.087238
Si Si3 0.185204 0.625102 0.412081
Si Si4 0.684519 0.787971 0.410726
Si Si5 0.185599 0.040161 0.410603
Si Si6 0.815049 0.704196 0.911937
O O1 0.763600 0.500000 0.500000
O O2 0.750000 0.541717 0.750000
O O3 0.769105 0.583162 0.500127
O O4 0.000000 0.540625 0.596078
O O5 0.250000 0.139042 0.250000
O O6 0.500000 0.137124 0.092556
O O7 0.272131 0.086915 0.034670
O O8 0.248751 0.170125 0.985499
O O9 0.250000 0.623797 0.250000
O O10 0.248816 0.665470 0.496554
O O11 0.000000 0.627003 0.406737
O O12 0.750000 0.783120 0.250000
O O13 0.500000 0.790134 0.404320
O O14 0.727469 0.747682 0.508261
O O15 0.250000 0.036998 0.250000
O O16 0.000000 0.038706 0.406259
O O17 0.241367 0.000000 0.500000
O O18 0.750000 0.703443 0.750000
O O19 0.000000 0.701241 0.907227
#
# Coordination Sequence:
#
# PCOD9417659 Si02
#       6
#     8   8   8   8   8   8
#     4  10  22  39  59  86 118 153 194 238 286 340
#     4  10  20  36  58  82 111 147 187 231 278 332
#     4  11  23  39  61  88 119 154 193 238 287 339
#     4  11  24  40  59  84 114 148 186 231 282 335
#     4   9  19  35  54  79 110 144 183 226 274 328
#     4  11  24  41  62  87 116 151 190 233 282 337
#
# _framework density 18.802807999999999
#
# number of rings (size 3 to 8) (size 9 to 14) (size 15 to 20)
#    0.000    1.667    0.000    4.000    0.000   10.000 
#    0.000    1.667    0.000    0.000    0.000    0.000 
#    0.000    0.000    0.000    0.000    0.000    0.000 
#
# Total GULP energy -268271.509470 kJ/mol
# GULP energy per Si atom -5588.989781 kJ/mol
# Density = 1.876001 g / cm^3
# Si number density = 18.802808 Si / 1000 Ang^3
#
#
#
# Elastic Constant Matrix: (Units=GPa)
#
#
# Indices 1 2 3 4 5 6 
#
# 1 40.6192 59.7842 47.3253 0.0000 0.0000 0.0000
# 2 59.7842 215.0557 124.1180 0.0000 0.0000 0.0000
# 3 47.3253 124.1180 177.8934 0.0000 0.0000 0.0000
# 4 0.0000 0.0000 0.0000 41.4233 0.0000 0.0000
# 5 0.0000 0.0000 0.0000 0.0000 39.8169 0.0000
# 6 0.0000 0.0000 0.0000 0.0000 0.0000 34.6841
#
#
#
# Elastic Compliance Matrix: (Units=1/GPa)
#
#
# Indices 1 2 3 4 5 6 
#
# 1 0.044538 -0.009280 -0.005374 0.000000 0.000000 0.000000
# 2 -0.009280 0.009718 -0.004312 0.000000 0.000000 0.000000
# 3 -0.005374 -0.004312 0.010059 0.000000 0.000000 0.000000
# 4 0.000000 0.000000 0.000000 0.024141 0.000000 0.000000
# 5 0.000000 0.000000 0.000000 0.000000 0.025115 0.000000
# 6 0.000000 0.000000 0.000000 0.000000 0.000000 0.028832
#
#
# Mechanical properties :
#
#
# Convention : Reuss Voigt Hill
#
# Bulk Modulus (GPa) = 37.90061 99.55813 68.72937
# Shear Modulus (GPa) = 26.43689 36.67426 31.55558
#
# Velocity S-wave (km/s) = 3.75374 4.42120 4.10107
# Velocity P-wave (km/s) = 6.24405 8.89529 7.68486
#
# Compressibility (1/GPa) = 0.02638480
#
# Stress axis : x y z
#
# Youngs Moduli (GPa) = 22.45251 102.89972 99.41001
#
# Poissons Ratio (x) = 0.95489 0.53423
# Poissons Ratio (y) = 0.20836 0.42863
# Poissons Ratio (z) = 0.12066 0.44368
#
# Static dielectric constant tensor:
#      x y z
#    x 1.634240 0.000000 0.000000 
#    y 0.000000 1.653340 0.000000 
#    z 0.000000 0.000000 1.597280 
# 
# From -- ./inp_files/6562.got.cif
#   From: 2010.05.17/outbox.cif.g08.bks.cpg/sg53_4_cif.got.tgz:6562.got - 2010.06.03 12:45:16.
