data_PCOD9417453
_publ_section_title
;
Structure prediction by ZEFSAII (Michael W. Deem and Ramdas Pophale) SiO2 
 PCOD9417453
Probable space group: P M N A
;
_chemical_formula_sum "Si O2"
_cell_formula_units_Z 48
_cell_length_a 8.676502
_cell_length_b 32.068835
_cell_length_c 9.226801
_cell_angle_alpha 90.000000
_cell_angle_beta 90.000000
_cell_angle_gamma 90.000000
_cell_volume 2567.314114
_symmetry_space_group_name_H-M "P M N A"
_symmetry_group_IT_number 53
_symmetry_cell_setting 'orthorhombic'
loop_
_space_group_symop_operation_xyz
x,y,z
1/2-x,-y,1/2+z
x,-y,-z
1/2-x,y,1/2-z
-x,-y,-z
1/2+x,y,1/2-z
-x,y,z
1/2+x,-y,1/2+z
loop_
_atom_site_type_symbol
_atom_site_label
_atom_site_fract_x
_atom_site_fract_y
_atom_site_fract_z
Si Si1 0.684683 0.288588 0.086379
Si Si2 0.684744 0.619018 0.913314
Si Si3 0.315207 0.541279 0.411174
Si Si4 0.314111 0.959051 0.911939
Si Si5 0.184104 0.202441 0.086007
Si Si6 0.314478 0.875998 0.087996
O O1 0.750000 0.289966 0.250000
O O2 0.500000 0.283809 0.089908
O O3 0.722023 0.334538 0.026140
O O4 0.759285 0.246928 0.022339
O O5 0.750000 0.615803 0.750000
O O6 0.500000 0.615618 0.906551
O O7 0.752972 0.582272 0.009110
O O8 0.268417 0.500000 0.500000
O O9 0.250000 0.538862 0.250000
O O10 0.500000 0.542786 0.406890
O O11 0.250000 0.958960 0.750000
O O12 0.500000 0.959953 0.904661
O O13 0.269300 0.917258 0.997846
O O14 0.262646 0.000000 0.000000
O O15 0.250000 0.198891 0.250000
O O16 0.000000 0.201710 0.092544
O O17 0.247754 0.164450 0.992125
O O18 0.250000 0.878748 0.250000
O O19 0.500000 0.873607 0.091419
#
# Coordination Sequence:
#
# PCOD9417453 Si02
#       6
#     8   8   8   8   8   8
#     4   9  17  31  53  82 113 146 186 230 278 331
#     4  10  20  35  58  86 116 149 186 230 278 332
#     4  11  24  40  59  83 112 147 186 230 279 332
#     4  10  22  39  60  87 116 148 187 230 278 333
#     4  11  21  35  57  84 114 149 190 235 281 331
#     4  11  23  39  58  82 114 150 190 235 284 337
#
# _framework density 18.696583
#
# number of rings (size 3 to 8) (size 9 to 14) (size 15 to 20)
#    0.000    1.667    0.000    6.000    0.000    7.667 
#    0.000    0.833    0.000    4.000    0.000    0.000 
#    0.000    0.000    0.000    0.000    0.000    0.000 
#
# Total GULP energy -268142.156747 kJ/mol
# GULP energy per Si atom -5586.294932 kJ/mol
# Density = 1.865403 g / cm^3
# Si number density = 18.696583 Si / 1000 Ang^3
#
#
#
# Elastic Constant Matrix: (Units=GPa)
#
#
# Indices 1 2 3 4 5 6 
#
# 1 84.9845 75.8887 46.7353 0.0000 0.0000 0.0000
# 2 75.8887 231.0559 106.6930 0.0000 0.0000 0.0000
# 3 46.7353 106.6930 133.0254 0.0000 0.0000 0.0000
# 4 0.0000 0.0000 0.0000 33.9597 0.0000 0.0000
# 5 0.0000 0.0000 0.0000 0.0000 32.7263 0.0000
# 6 0.0000 0.0000 0.0000 0.0000 0.0000 30.0265
#
#
#
# Elastic Compliance Matrix: (Units=1/GPa)
#
#
# Indices 1 2 3 4 5 6 
#
# 1 0.017115 -0.004518 -0.002389 0.000000 0.000000 0.000000
# 2 -0.004518 0.008066 -0.004882 0.000000 0.000000 0.000000
# 3 -0.002389 -0.004882 0.012273 0.000000 0.000000 0.000000
# 4 0.000000 0.000000 0.000000 0.029447 0.000000 0.000000
# 5 0.000000 0.000000 0.000000 0.000000 0.030557 0.000000
# 6 0.000000 0.000000 0.000000 0.000000 0.000000 0.033304
#
#
# Mechanical properties :
#
#
# Convention : Reuss Voigt Hill
#
# Bulk Modulus (GPa) = 72.07263 100.85554 86.46409
# Shear Modulus (GPa) = 31.45330 33.99241 32.72286
#
# Velocity S-wave (km/s) = 4.10604 4.26855 4.18808
# Velocity P-wave (km/s) = 7.81739 8.85181 8.35063
#
# Compressibility (1/GPa) = 0.01387489
#
# Stress axis : x y z
#
# Youngs Moduli (GPa) = 58.42707 123.97167 81.48207
#
# Poissons Ratio (x) = 0.56012 0.19469
# Poissons Ratio (y) = 0.26398 0.39782
# Poissons Ratio (z) = 0.13960 0.60527
#
# Static dielectric constant tensor:
#      x y z
#    x 1.625770 0.000000 0.000000 
#    y 0.000000 1.668760 0.000000 
#    z 0.000000 0.000000 1.604120 
# 
# From -- ./inp_files/6708.got.cif
#   From: 2010.05.17/outbox.cif.g08.bks.cpg/sg53_4_cif.got.tgz:6708.got - 2010.06.03 12:45:16.
