data_PCOD9417513
_publ_section_title
;
Structure prediction by ZEFSAII (Michael W. Deem and Ramdas Pophale) SiO2 
 PCOD9417513
Probable space group: P M N A
;
_chemical_formula_sum "Si O2"
_cell_formula_units_Z 40
_cell_length_a 26.472342
_cell_length_b 5.081639
_cell_length_c 16.629329
_cell_angle_alpha 90.000000
_cell_angle_beta 90.000000
_cell_angle_gamma 90.000000
_cell_volume 2237.025321
_symmetry_space_group_name_H-M "P M N A"
_symmetry_group_IT_number 53
_symmetry_cell_setting 'orthorhombic'
loop_
_space_group_symop_operation_xyz
x,y,z
1/2-x,-y,1/2+z
x,-y,-z
1/2-x,y,1/2-z
-x,-y,-z
1/2+x,y,1/2-z
-x,y,z
1/2+x,-y,1/2+z
loop_
_atom_site_type_symbol
_atom_site_label
_atom_site_fract_x
_atom_site_fract_y
_atom_site_fract_z
Si Si1 0.941084 0.718141 0.218761
Si Si2 0.129176 0.079167 0.909093
Si Si3 0.885161 0.213300 0.247577
Si Si4 0.744320 0.137069 0.586120
Si Si5 0.218377 0.624950 0.673498
O O1 0.915170 0.749691 0.130763
O O2 0.928860 0.428319 0.248252
O O3 0.000000 0.777352 0.217196
O O4 0.908974 0.931370 0.269812
O O5 0.184792 0.206837 0.908118
O O6 0.132270 0.837580 0.845192
O O7 0.118141 0.000000 0.000000
O O8 0.838421 0.314162 0.299008
O O9 0.775473 0.399309 0.606378
O O10 0.753140 0.000000 0.500000
O O11 0.757806 0.903087 0.647440
O O12 0.250000 0.522330 0.750000
#
# Coordination Sequence:
#
# PCOD9417513 Si02
#       5
#     8   8   8   8   8
#     4  10  20  36  53  76 108 143 191 233 271 310
#     4   9  21  36  51  77 112 149 186 221 265 316
#     4  10  21  35  53  79 101 147 183 229 267 321
#     4  11  23  36  55  82 116 148 184 224 270 332
#     4  12  20  36  57  80 110 147 188 221 278 331
#
# _framework density 17.880887999999999
#
# number of rings (size 3 to 8) (size 9 to 14) (size 15 to 20)
#    1.200    0.400    2.000    4.200    0.000    1.200 
#    0.000    1.000    0.000    0.000    0.000    0.000 
#    0.000   56.000    0.000    0.000    0.000    0.000 
#
# Total GULP energy -222822.380683 kJ/mol
# GULP energy per Si atom -5570.559517 kJ/mol
# Density = 1.784019 g / cm^3
# Si number density = 17.880888 Si / 1000 Ang^3
#
#
#
# Elastic Constant Matrix: (Units=GPa)
#
#
# Indices 1 2 3 4 5 6 
#
# 1 69.6148 -2.3702 21.0989 0.0000 0.0000 0.0000
# 2 -2.3702 61.4523 2.4667 0.0000 0.0000 0.0000
# 3 21.0989 2.4667 33.0744 0.0000 0.0000 0.0000
# 4 0.0000 0.0000 0.0000 14.7793 0.0000 0.0000
# 5 0.0000 0.0000 0.0000 0.0000 17.7619 0.0000
# 6 0.0000 0.0000 0.0000 0.0000 0.0000 15.0576
#
#
#
# Elastic Compliance Matrix: (Units=1/GPa)
#
#
# Indices 1 2 3 4 5 6 
#
# 1 0.017889 0.001151 -0.011497 0.000000 0.000000 0.000000
# 2 0.001151 0.016396 -0.001957 0.000000 0.000000 0.000000
# 3 -0.011497 -0.001957 0.037715 0.000000 0.000000 0.000000
# 4 0.000000 0.000000 0.000000 0.067662 0.000000 0.000000
# 5 0.000000 0.000000 0.000000 0.000000 0.056300 0.000000
# 6 0.000000 0.000000 0.000000 0.000000 0.000000 0.066412
#
#
# Mechanical properties :
#
#
# Convention : Reuss Voigt Hill
#
# Bulk Modulus (GPa) = 21.10013 22.94804 22.02408
# Shear Modulus (GPa) = 16.51374 19.04950 17.78162
#
# Velocity S-wave (km/s) = 3.04228 3.26752 3.15691
# Velocity P-wave (km/s) = 4.91596 5.20550 5.06280
#
# Compressibility (1/GPa) = 0.04739308
#
# Stress axis : x y z
#
# Youngs Moduli (GPa) = 55.90145 60.99134 26.51440
#
# Poissons Ratio (x) = -0.07023 0.30485
# Poissons Ratio (y) = -0.06437 0.05190
# Poissons Ratio (z) = 0.64272 0.11938
#
# Static dielectric constant tensor:
#      x y z
#    x 1.591200 0.000000 0.000000 
#    y 0.000000 1.641790 0.000000 
#    z 0.000000 0.000000 1.663520 
# 
# From -- ./inp_files/24810.got.cif
#   From: 2010.05.17/outbox.cif.g08.bks.cpg/sg53_13_cif.got.tgz:24810.got - 2010.06.03 12:45:16.
