data_PCOD9417554
_publ_section_title
;
Structure prediction by ZEFSAII (Michael W. Deem and Ramdas Pophale) SiO2 
 PCOD9417554
Probable space group: P M N A
;
_chemical_formula_sum "Si O2"
_cell_formula_units_Z 48
_cell_length_a 8.690090
_cell_length_b 31.796813
_cell_length_c 9.396542
_cell_angle_alpha 90.000000
_cell_angle_beta 90.000000
_cell_angle_gamma 90.000000
_cell_volume 2596.425862
_symmetry_space_group_name_H-M "P M N A"
_symmetry_group_IT_number 53
_symmetry_cell_setting 'orthorhombic'
loop_
_space_group_symop_operation_xyz
x,y,z
1/2-x,-y,1/2+z
x,-y,-z
1/2-x,y,1/2-z
-x,-y,-z
1/2+x,y,1/2-z
-x,y,z
1/2+x,-y,1/2+z
loop_
_atom_site_type_symbol
_atom_site_label
_atom_site_fract_x
_atom_site_fract_y
_atom_site_fract_z
Si Si1 0.184950 0.633037 0.090366
Si Si2 0.184558 0.119104 0.909388
Si Si3 0.684631 0.041616 0.090280
Si Si4 0.684628 0.798644 0.591020
Si Si5 0.316294 0.709322 0.908696
Si Si6 0.685423 0.460505 0.591521
O O1 0.250000 0.635413 0.250000
O O2 0.225901 0.586100 0.034627
O O3 0.000000 0.636769 0.092065
O O4 0.256818 0.670498 0.000515
O O5 0.250000 0.117147 0.750000
O O6 0.000000 0.115615 0.903904
O O7 0.250522 0.081614 0.005730
O O8 0.224074 0.163056 0.986840
O O9 0.750000 0.039581 0.250000
O O10 0.500000 0.044384 0.097710
O O11 0.725708 0.000000 0.000000
O O12 0.750000 0.806403 0.750000
O O13 0.500000 0.795179 0.600848
O O14 0.753298 0.754372 0.538646
O O15 0.250000 0.704689 0.750000
O O16 0.500000 0.710271 0.905076
O O17 0.740885 0.500000 0.500000
O O18 0.750000 0.463702 0.750000
O O19 0.500000 0.537793 0.402145
#
# Coordination Sequence:
#
# PCOD9417554 Si02
#       6
#     8   8   8   8   8   8
#     4  10  20  36  56  79 110 145 183 227 276 331
#     4  11  24  40  61  88 119 154 193 238 285 337
#     4  11  24  41  63  90 121 157 196 239 286 338
#     4  10  21  38  59  84 113 147 188 233 283 336
#     4  11  22  37  58  83 112 147 187 231 279 332
#     4   9  19  35  54  78 107 140 179 223 271 325
#
# _framework density 18.486953
#
# number of rings (size 3 to 8) (size 9 to 14) (size 15 to 20)
#    0.000    1.667    0.000    5.500    0.000    9.000 
#    0.000    3.333    0.000    0.000    0.000    0.000 
#    0.000    0.000    0.000    0.000    0.000    0.000 
#
# Total GULP energy -268189.993493 kJ/mol
# GULP energy per Si atom -5587.291531 kJ/mol
# Density = 1.844488 g / cm^3
# Si number density = 18.486953 Si / 1000 Ang^3
#
#
#
# Elastic Constant Matrix: (Units=GPa)
#
#
# Indices 1 2 3 4 5 6 
#
# 1 81.4319 80.1955 49.5032 0.0000 0.0000 0.0000
# 2 80.1955 218.7625 114.3600 0.0000 0.0000 0.0000
# 3 49.5032 114.3600 119.1714 0.0000 0.0000 0.0000
# 4 0.0000 0.0000 0.0000 41.7820 0.0000 0.0000
# 5 0.0000 0.0000 0.0000 0.0000 35.0029 0.0000
# 6 0.0000 0.0000 0.0000 0.0000 0.0000 51.4449
#
#
#
# Elastic Compliance Matrix: (Units=1/GPa)
#
#
# Indices 1 2 3 4 5 6 
#
# 1 0.019583 -0.005872 -0.002499 0.000000 0.000000 0.000000
# 2 -0.005872 0.010934 -0.008053 0.000000 0.000000 0.000000
# 3 -0.002499 -0.008053 0.017157 0.000000 0.000000 0.000000
# 4 0.000000 0.000000 0.000000 0.023934 0.000000 0.000000
# 5 0.000000 0.000000 0.000000 0.000000 0.028569 0.000000
# 6 0.000000 0.000000 0.000000 0.000000 0.000000 0.019438
#
#
# Mechanical properties :
#
#
# Convention : Reuss Voigt Hill
#
# Bulk Modulus (GPa) = 67.45579 100.83147 84.14363
# Shear Modulus (GPa) = 31.76523 37.33310 34.54917
#
# Velocity S-wave (km/s) = 4.14968 4.49868 4.32770
# Velocity P-wave (km/s) = 7.71539 9.03574 8.40154
#
# Compressibility (1/GPa) = 0.01482452
#
# Stress axis : x y z
#
# Youngs Moduli (GPa) = 51.06570 91.46202 58.28436
#
# Poissons Ratio (x) = 0.53708 0.14568
# Poissons Ratio (y) = 0.29986 0.46935
# Poissons Ratio (z) = 0.12764 0.73653
#
# Static dielectric constant tensor:
#      x y z
#    x 1.619400 0.000000 0.000000 
#    y 0.000000 1.645810 0.000000 
#    z 0.000000 0.000000 1.582450 
# 
# From -- ./inp_files/6593.got.cif
#   From: 2010.05.17/outbox.cif.g08.bks.cpg/sg53_4_cif.got.tgz:6593.got - 2010.06.03 12:45:16.
