data_PCOD9417912
_publ_section_title
;
Structure prediction by ZEFSAII (Michael W. Deem and Ramdas Pophale) SiO2 
 PCOD9417912
Probable space group: P M N A
;
_chemical_formula_sum "Si O2"
_cell_formula_units_Z 48
_cell_length_a 14.297931
_cell_length_b 16.655805
_cell_length_c 9.882066
_cell_angle_alpha 90.000000
_cell_angle_beta 90.000000
_cell_angle_gamma 90.000000
_cell_volume 2353.350285
_symmetry_space_group_name_H-M "P M N A"
_symmetry_group_IT_number 53
_symmetry_cell_setting 'orthorhombic'
loop_
_space_group_symop_operation_xyz
x,y,z
1/2-x,-y,1/2+z
x,-y,-z
1/2-x,y,1/2-z
-x,-y,-z
1/2+x,y,1/2-z
-x,y,z
1/2+x,-y,1/2+z
loop_
_atom_site_type_symbol
_atom_site_label
_atom_site_fract_x
_atom_site_fract_y
_atom_site_fract_z
Si Si1 0.603859 0.877749 0.987507
Si Si2 0.104489 0.696462 0.466259
Si Si3 0.394618 0.276288 0.644547
Si Si4 0.683999 0.888466 0.436093
Si Si5 0.642700 0.041830 0.285514
Si Si6 0.231257 0.421583 0.910982
O O1 0.500000 0.884148 0.056160
O O2 0.594736 0.927139 0.848694
O O3 0.618753 0.782237 0.960761
O O4 0.703544 0.905015 0.052819
O O5 0.106235 0.718515 0.306874
O O6 0.182259 0.628104 0.476815
O O7 0.000000 0.667155 0.500339
O O8 0.500000 0.260945 0.598971
O O9 0.329468 0.202761 0.603950
O O10 0.354561 0.359332 0.588896
O O11 0.632192 0.906862 0.577658
O O12 0.635607 0.949466 0.331075
O O13 0.750000 0.054733 0.250000
O O14 0.250000 0.438342 0.750000
O O15 0.214841 0.500000 0.000000
#
# Coordination Sequence:
#
# PCOD9417912 Si02
#       6
#     8   8   8   8   8   8
#     4  10  20  37  60  89 118 155 210 262 309 362
#     4   9  19  37  62  89 117 155 200 249 307 374
#     4  10  21  37  61  86 118 164 208 247 299 372
#     4  10  20  38  59  83 119 165 208 250 307 366
#     4   9  21  36  54  82 121 159 197 254 304 352
#     4  10  21  40  63  92 124 158 203 256 315 380
#
# _framework density 20.396453999999999
#
# number of rings (size 3 to 8) (size 9 to 14) (size 15 to 20)
#    0.000    2.333    1.667    0.000    2.333    2.000 
#    3.000    8.333    0.000    1.000    0.000    0.000 
#    0.000    0.000    0.000    0.000    0.000    0.000 
#
# Total GULP energy -267702.931102 kJ/mol
# GULP energy per Si atom -5577.144398 kJ/mol
# Density = 2.035003 g / cm^3
# Si number density = 20.396454 Si / 1000 Ang^3
#
#
#
# Elastic Constant Matrix: (Units=GPa)
#
#
# Indices 1 2 3 4 5 6 
#
# 1 106.1319 36.6205 19.8119 0.0000 0.0000 0.0000
# 2 36.6205 128.8153 50.5895 0.0000 0.0000 0.0000
# 3 19.8119 50.5895 52.9710 0.0000 0.0000 0.0000
# 4 0.0000 0.0000 0.0000 30.3986 0.0000 0.0000
# 5 0.0000 0.0000 0.0000 0.0000 15.8961 0.0000
# 6 0.0000 0.0000 0.0000 0.0000 0.0000 -161.1590
#
#
#
# Elastic Compliance Matrix: (Units=1/GPa)
#
#
# Indices 1 2 3 4 5 6 
#
# 1 0.010545 -0.002319 -0.001730 0.000000 0.000000 0.000000
# 2 -0.002319 0.012932 -0.011484 0.000000 0.000000 0.000000
# 3 -0.001730 -0.011484 0.030493 0.000000 0.000000 0.000000
# 4 0.000000 0.000000 0.000000 0.032896 0.000000 0.000000
# 5 0.000000 0.000000 0.000000 0.000000 0.062908 0.000000
# 6 0.000000 0.000000 0.000000 0.000000 0.000000 -0.006205
#
#
# Mechanical properties :
#
#
# Convention : Reuss Voigt Hill
#
# Bulk Modulus (GPa) = 43.65650 55.77356 49.71503
# Shear Modulus (GPa) = 27.43207 -10.91311 8.25948
#
# Velocity S-wave (km/s) = 3.67133 -2.31562 2.01451
# Velocity P-wave (km/s) = 6.27869 4.50051 5.46244
#
# Compressibility (1/GPa) = 0.02290609
#
# Stress axis : x y z
#
# Youngs Moduli (GPa) = 94.83047 77.32698 32.79494
#
# Poissons Ratio (x) = 0.17928 0.05673
# Poissons Ratio (y) = 0.21987 0.37660
# Poissons Ratio (z) = 0.16403 0.88799
#
# Static dielectric constant tensor:
#      x y z
#    x 1.759320 0.000000 0.000000 
#    y 0.000000 1.705930 0.000000 
#    z 0.000000 0.000000 1.769760 
# 
# From -- ./inp_files/15921.got.cif
#   From: 2010.05.17/outbox.cif.g08.bks.cpg/sg53_8_cif.got.tgz:15921.got - 2010.06.03 12:45:16.
