data_PCOD9417884
_publ_section_title
;
Structure prediction by ZEFSAII (Michael W. Deem and Ramdas Pophale) SiO2 
 PCOD9417884
Probable space group: P M N A
;
_chemical_formula_sum "Si O2"
_cell_formula_units_Z 56
_cell_length_a 14.526858
_cell_length_b 21.827081
_cell_length_c 6.954433
_cell_angle_alpha 90.000000
_cell_angle_beta 90.000000
_cell_angle_gamma 90.000000
_cell_volume 2205.104009
_symmetry_space_group_name_H-M "P M N A"
_symmetry_group_IT_number 53
_symmetry_cell_setting 'orthorhombic'
loop_
_space_group_symop_operation_xyz
x,y,z
1/2-x,-y,1/2+z
x,-y,-z
1/2-x,y,1/2-z
-x,-y,-z
1/2+x,y,1/2-z
-x,y,z
1/2+x,-y,1/2+z
loop_
_atom_site_type_symbol
_atom_site_label
_atom_site_fract_x
_atom_site_fract_y
_atom_site_fract_z
Si Si1 0.890245 0.820095 0.304164
Si Si2 0.391151 0.145464 0.350412
Si Si3 0.108493 0.988629 0.729340
Si Si4 0.250000 0.629674 0.750000
Si Si5 0.827284 0.556616 0.106362
Si Si6 0.393082 0.275951 0.260305
Si Si7 0.250000 0.087824 0.750000
Si Si8 0.894189 0.687372 0.213116
O O1 0.813150 0.867046 0.381666
O O2 0.858471 0.749157 0.318440
O O3 0.000000 0.827540 0.357871
O O4 0.885615 0.838912 0.076995
O O5 0.500000 0.143671 0.308931
O O6 0.358867 0.206582 0.241166
O O7 0.359088 0.079308 0.283803
O O8 0.172698 0.040094 0.823301
O O9 0.000000 0.996807 0.779463
O O10 0.115280 0.000000 0.500000
O O11 0.284475 0.589701 0.576570
O O12 0.170677 0.673558 0.666448
O O13 0.750000 0.530879 0.250000
O O14 0.866504 0.615887 0.221850
O O15 0.880620 0.500000 0.000000
O O16 0.500000 0.280078 0.206458
O O17 0.387677 0.294130 0.487076
O O18 0.000000 0.688162 0.266823
#
# Coordination Sequence:
#
# PCOD9417884 Si02
#       8
#     8   8   8   4   8   8   4   8
#     4   9  19  37  59  86 114 144 193 251 298 348
#     4   8  16  35  60  79 105 146 192 245 296 349
#     4  10  23  40  52  74 115 151 190 246 304 359
#     4  10  20  37  59  90 120 162 196 250 298 352
#     4  11  22  38  61  88 127 163 200 238 295 356
#     4   8  15  32  59  88 112 145 194 246 300 352
#     4  12  24  33  55  80 108 154 198 234 292 358
#     4   8  17  36  61  86 115 151 196 247 295 351
#
# _framework density 25.395627000000001
#
# number of rings (size 3 to 8) (size 9 to 14) (size 15 to 20)
#    0.000    2.714    0.714    2.143    3.000    0.857 
#    5.143    2.857    0.000    0.857    0.000    0.000 
#    0.000    0.000    0.000    0.000    0.000    0.000 
#
# Total GULP energy -312545.858437 kJ/mol
# GULP energy per Si atom -5581.176044 kJ/mol
# Density = 2.533783 g / cm^3
# Si number density = 25.395627 Si / 1000 Ang^3
#
#
#
# Elastic Constant Matrix: (Units=GPa)
#
#
# Indices 1 2 3 4 5 6 
#
# 1 124.3682 65.4250 2.8582 0.0000 0.0000 0.0000
# 2 65.4250 227.8035 36.0784 0.0000 0.0000 0.0000
# 3 2.8582 36.0784 96.2727 0.0000 0.0000 0.0000
# 4 0.0000 0.0000 0.0000 34.6185 0.0000 0.0000
# 5 0.0000 0.0000 0.0000 0.0000 2.9049 0.0000
# 6 0.0000 0.0000 0.0000 0.0000 0.0000 31.2839
#
#
#
# Elastic Compliance Matrix: (Units=1/GPa)
#
#
# Indices 1 2 3 4 5 6 
#
# 1 0.009528 -0.002861 0.000789 0.000000 0.000000 0.000000
# 2 -0.002861 0.005526 -0.001986 0.000000 0.000000 0.000000
# 3 0.000789 -0.001986 0.011108 0.000000 0.000000 0.000000
# 4 0.000000 0.000000 0.000000 0.028886 0.000000 0.000000
# 5 0.000000 0.000000 0.000000 0.000000 0.344249 0.000000
# 6 0.000000 0.000000 0.000000 0.000000 0.000000 0.031965
#
#
# Mechanical properties :
#
#
# Convention : Reuss Voigt Hill
#
# Bulk Modulus (GPa) = 55.41399 73.01863 64.21631
# Shear Modulus (GPa) = 11.22603 36.70033 23.96318
#
# Velocity S-wave (km/s) = 2.10477 3.80563 3.07513
# Velocity P-wave (km/s) = 5.27014 6.93724 6.16034
#
# Compressibility (1/GPa) = 0.01804598
#
# Stress axis : x y z
#
# Youngs Moduli (GPa) = 104.95647 180.96057 90.02553
#
# Poissons Ratio (x) = 0.51780 -0.07107
# Poissons Ratio (y) = 0.30032 0.17879
# Poissons Ratio (z) = -0.08286 0.35938
#
# Static dielectric constant tensor:
#      x y z
#    x 2.067580 0.000000 0.000000 
#    y 0.000000 2.057460 0.000000 
#    z 0.000000 0.000000 2.148650 
# 
# From -- ./inp_files/8876.got.cif
#   From: 2010.05.17/outbox.cif.g08.bks.cpg/sg53_5_cif.got.tgz:8876.got - 2010.06.03 12:45:16.
