data_PCOD9417990
_publ_section_title
;
Structure prediction by ZEFSAII (Michael W. Deem and Ramdas Pophale) SiO2 
 PCOD9417990
Probable space group: P M N A
;
_chemical_formula_sum "Si O2"
_cell_formula_units_Z 40
_cell_length_a 26.458588
_cell_length_b 10.015517
_cell_length_c 8.536759
_cell_angle_alpha 90.000000
_cell_angle_beta 90.000000
_cell_angle_gamma 90.000000
_cell_volume 2262.210726
_symmetry_space_group_name_H-M "P M N A"
_symmetry_group_IT_number 53
_symmetry_cell_setting 'orthorhombic'
loop_
_space_group_symop_operation_xyz
x,y,z
1/2-x,-y,1/2+z
x,-y,-z
1/2-x,y,1/2-z
-x,-y,-z
1/2+x,y,1/2-z
-x,y,z
1/2+x,-y,1/2+z
loop_
_atom_site_type_symbol
_atom_site_label
_atom_site_fract_x
_atom_site_fract_y
_atom_site_fract_z
Si Si1 0.801474 0.053337 0.174787
Si Si2 0.693994 0.518844 0.314472
Si Si3 0.558469 0.840231 0.026795
Si Si4 0.638915 0.726969 0.820642
Si Si5 0.658603 0.789166 0.165566
O O1 0.750000 0.106349 0.250000
O O2 0.842749 0.169308 0.189946
O O3 0.818637 0.928247 0.280011
O O4 0.794630 0.000000 0.000000
O O5 0.693384 0.500000 0.500000
O O6 0.750000 0.487568 0.250000
O O7 0.653544 0.419886 0.233687
O O8 0.680045 0.669316 0.267253
O O9 0.500000 0.810510 0.053366
O O10 0.582227 0.761406 0.877712
O O11 0.597450 0.800776 0.164601
O O12 0.564075 0.000000 0.000000
O O13 0.669356 0.759939 0.982124
#
# Coordination Sequence:
#
# PCOD9417990 Si02
#       5
#     8   8   8   8   8
#     4  12  22  34  54  81 119 155 193 242 294 351
#     4  12  24  38  56  83 123 165 197 236 296 355
#     4   9  18  37  69  93 113 147 203 257 298 343
#     4  10  20  38  57  86 112 149 201 240 289 350
#     4  10  20  38  57  86 112 149 201 240 289 350
#
# _framework density 17.681819000000001
#
# number of rings (size 3 to 8) (size 9 to 14) (size 15 to 20)
#    1.200    0.200    2.000    6.000    0.000    0.000 
#    0.000    2.000    0.000    7.200    0.000    0.000 
#    0.000    0.000    0.000    0.000    0.000    0.000 
#
# Total GULP energy -222971.760578 kJ/mol
# GULP energy per Si atom -5574.294014 kJ/mol
# Density = 1.764157 g / cm^3
# Si number density = 17.681819 Si / 1000 Ang^3
#
#
#
# Elastic Constant Matrix: (Units=GPa)
#
#
# Indices 1 2 3 4 5 6 
#
# 1 86.7007 11.9822 13.7267 0.0000 0.0000 0.0000
# 2 11.9822 57.7057 -23.4490 0.0000 0.0000 0.0000
# 3 13.7267 -23.4490 51.2430 0.0000 0.0000 0.0000
# 4 0.0000 0.0000 0.0000 31.8989 0.0000 0.0000
# 5 0.0000 0.0000 0.0000 0.0000 14.5237 0.0000
# 6 0.0000 0.0000 0.0000 0.0000 0.0000 28.4545
#
#
#
# Elastic Compliance Matrix: (Units=1/GPa)
#
#
# Indices 1 2 3 4 5 6 
#
# 1 0.013171 -0.005121 -0.005872 0.000000 0.000000 0.000000
# 2 -0.005121 0.023279 0.012024 0.000000 0.000000 0.000000
# 3 -0.005872 0.012024 0.026590 0.000000 0.000000 0.000000
# 4 0.000000 0.000000 0.000000 0.031349 0.000000 0.000000
# 5 0.000000 0.000000 0.000000 0.000000 0.068853 0.000000
# 6 0.000000 0.000000 0.000000 0.000000 0.000000 0.035144
#
#
# Mechanical properties :
#
#
# Convention : Reuss Voigt Hill
#
# Bulk Modulus (GPa) = 15.36019 22.24103 18.80061
# Shear Modulus (GPa) = 22.93332 27.86804 25.40068
#
# Velocity S-wave (km/s) = 3.60530 3.97430 3.79429
# Velocity P-wave (km/s) = 5.10262 5.80223 5.46363
#
# Compressibility (1/GPa) = 0.06510337
#
# Stress axis : x y z
#
# Youngs Moduli (GPa) = 75.92294 42.95774 37.60816
#
# Poissons Ratio (x) = 0.21998 0.22082
# Poissons Ratio (y) = 0.38879 -0.45221
# Poissons Ratio (z) = 0.44579 -0.51653
#
# Static dielectric constant tensor:
#      x y z
#    x 1.598690 0.000000 0.000000 
#    y 0.000000 1.594720 0.000000 
#    z 0.000000 0.000000 1.600150 
# 
# From -- ./inp_files/12864.got.cif
#   From: 2010.05.17/outbox.cif.g08.bks.cpg/sg53_7_cif.got.tgz:12864.got - 2010.06.03 12:45:16.
