data_PCOD9417394
_publ_section_title
;
Structure prediction by ZEFSAII (Michael W. Deem and Ramdas Pophale) SiO2 
 PCOD9417394
Probable space group: P M N A
;
_chemical_formula_sum "Si O2"
_cell_formula_units_Z 64
_cell_length_a 8.533841
_cell_length_b 11.761781
_cell_length_c 29.809859
_cell_angle_alpha 90.000000
_cell_angle_beta 90.000000
_cell_angle_gamma 90.000000
_cell_volume 2992.110013
_symmetry_space_group_name_H-M "P M N A"
_symmetry_group_IT_number 53
_symmetry_cell_setting 'orthorhombic'
loop_
_space_group_symop_operation_xyz
x,y,z
1/2-x,-y,1/2+z
x,-y,-z
1/2-x,y,1/2-z
-x,-y,-z
1/2+x,y,1/2-z
-x,y,z
1/2+x,-y,1/2+z
loop_
_atom_site_type_symbol
_atom_site_label
_atom_site_fract_x
_atom_site_fract_y
_atom_site_fract_z
Si Si1 0.673622 0.524502 0.948518
Si Si2 0.688413 0.710072 0.098863
Si Si3 0.311899 0.851434 0.704303
Si Si4 0.172296 0.709776 0.908812
Si Si5 0.813497 0.345055 0.700442
Si Si6 0.322326 0.068635 0.113068
Si Si7 0.318927 0.404880 0.314205
Si Si8 0.319407 0.917431 0.459083
O O1 0.500000 0.557711 0.929892
O O2 0.726451 0.414289 0.920901
O O3 0.794750 0.627583 0.948959
O O4 0.653100 0.500000 0.000000
O O5 0.500000 0.720389 0.100250
O O6 0.741409 0.711681 0.152165
O O7 0.745826 0.801171 0.061296
O O8 0.250000 0.902212 0.750000
O O9 0.500000 0.851883 0.700365
O O10 0.233734 0.917691 0.663683
O O11 0.260455 0.718067 0.703162
O O12 0.303442 0.804394 0.905799
O O13 0.181710 0.624005 0.866871
O O14 0.000000 0.762779 0.908224
O O15 0.750000 0.307363 0.750000
O O16 0.771989 0.480152 0.696468
O O17 0.000000 0.331691 0.701598
O O18 0.500000 0.026613 0.109202
O O19 0.203442 0.995133 0.084559
O O20 0.500000 0.420495 0.299508
O O21 0.500000 0.894569 0.470694
O O22 0.255630 0.000000 0.500000
#
# Coordination Sequence:
#
# PCOD9417394 Si02
#       8
#     8   8   8   8   8   8   8   8
#     4  10  21  37  59  91 128 166 207 252 310 377
#     4  10  23  43  64  92 129 167 213 263 312 382
#     4  10  20  35  56  88 127 166 210 259 311 372
#     4  10  20  35  57  87 125 163 204 253 307 366
#     4  11  22  36  58  87 123 164 209 256 305 368
#     4  11  23  40  64  90 121 162 208 259 311 366
#     4   9  18  32  52  81 120 165 207 249 298 356
#     4  11  26  47  70  95 122 156 203 260 319 379
#
# _framework density 21.389586999999999
#
# number of rings (size 3 to 8) (size 9 to 14) (size 15 to 20)
#    0.000    1.750    1.250    3.750    1.750    6.250 
#    0.000    0.625    0.000    1.500    0.000    0.000 
#    0.000    0.000    0.000    0.000    0.000    0.000 
#
# Total GULP energy -356427.727738 kJ/mol
# GULP energy per Si atom -5569.183246 kJ/mol
# Density = 2.134090 g / cm^3
# Si number density = 21.389587 Si / 1000 Ang^3
#
#
#
# Elastic Constant Matrix: (Units=GPa)
#
#
# Indices 1 2 3 4 5 6 
#
# 1 24.7681 -1.2496 -9.2865 0.0000 0.0000 0.0000
# 2 -1.2496 37.2406 6.1554 0.0000 0.0000 0.0000
# 3 -9.2865 6.1554 42.8490 0.0000 0.0000 0.0000
# 4 0.0000 0.0000 0.0000 120.6067 0.0000 0.0000
# 5 0.0000 0.0000 0.0000 0.0000 8.9955 0.0000
# 6 0.0000 0.0000 0.0000 0.0000 0.0000 80.1432
#
#
#
# Elastic Compliance Matrix: (Units=1/GPa)
#
#
# Indices 1 2 3 4 5 6 
#
# 1 0.043946 -0.000102 0.009539 0.000000 0.000000 0.000000
# 2 -0.000102 0.027506 -0.003973 0.000000 0.000000 0.000000
# 3 0.009539 -0.003973 0.025976 0.000000 0.000000 0.000000
# 4 0.000000 0.000000 0.000000 0.008291 0.000000 0.000000
# 5 0.000000 0.000000 0.000000 0.000000 0.111167 0.000000
# 6 0.000000 0.000000 0.000000 0.000000 0.000000 0.012478
#
#
# Mechanical properties :
#
#
# Convention : Reuss Voigt Hill
#
# Bulk Modulus (GPa) = 9.22897 10.67734 9.95316
# Shear Modulus (GPa) = 19.64218 49.23164 34.43691
#
# Velocity S-wave (km/s) = 3.03364 4.80277 4.01681
# Velocity P-wave (km/s) = 4.07366 5.97981 5.11629
#
# Compressibility (1/GPa) = 0.10835450
#
# Stress axis : x y z
#
# Youngs Moduli (GPa) = 22.75529 36.35609 38.49724
#
# Poissons Ratio (x) = 0.00371 -0.36722
# Poissons Ratio (y) = 0.00232 0.15296
# Poissons Ratio (z) = -0.21706 0.14446
#
# Static dielectric constant tensor:
#      x y z
#    x 25.549980 0.000000 0.000000 
#    y 0.000000 1.818720 0.000000 
#    z 0.000000 0.000000 1.869620 
# 
# From -- ./inp_files/38149.got.cif
#   From: 2010.05.17/outbox.cif.g08.bks.cpg/sg53_20_cif.got.tgz:38149.got - 2010.06.03 12:45:16.
