data_PCOD9417223
_publ_section_title
;
Structure prediction by ZEFSAII (Michael W. Deem and Ramdas Pophale) SiO2 
 PCOD9417223
Probable space group: P M N A
;
_chemical_formula_sum "Si O2"
_cell_formula_units_Z 36
_cell_length_a 15.225884
_cell_length_b 12.610985
_cell_length_c 7.187510
_cell_angle_alpha 90.000000
_cell_angle_beta 90.000000
_cell_angle_gamma 90.000000
_cell_volume 1380.098195
_symmetry_space_group_name_H-M "P M N A"
_symmetry_group_IT_number 53
_symmetry_cell_setting 'orthorhombic'
loop_
_space_group_symop_operation_xyz
x,y,z
1/2-x,-y,1/2+z
x,-y,-z
1/2-x,y,1/2-z
-x,-y,-z
1/2+x,y,1/2-z
-x,y,z
1/2+x,-y,1/2+z
loop_
_atom_site_type_symbol
_atom_site_label
_atom_site_fract_x
_atom_site_fract_y
_atom_site_fract_z
Si Si1 0.652889 0.021107 0.785302
Si Si2 0.500000 0.875408 0.627096
Si Si3 0.146759 0.523617 0.282192
Si Si4 0.643011 0.711248 0.743224
Si Si5 0.098335 0.245532 0.677516
O O1 0.750000 0.976719 0.750000
O O2 0.654907 0.147295 0.752483
O O3 0.576588 0.964235 0.675229
O O4 0.631555 0.000000 0.000000
O O5 0.579403 0.784690 0.622631
O O6 0.129577 0.500000 0.500000
O O7 0.250000 0.537848 0.250000
O O8 0.123370 0.411539 0.191218
O O9 0.107587 0.637831 0.237744
O O10 0.750000 0.722761 0.750000
O O11 0.615162 0.737633 0.956670
O O12 0.000000 0.205356 0.702286
#
# Coordination Sequence:
#
# PCOD9417223 Si02
#       5
#     8   4   8   8   8
#     4  12  24  40  63  85 117 156 196 241 291 341
#     4  12  21  38  60  88 113 156 200 244 270 361
#     4   9  20  35  57  87 117 149 191 237 290 344
#     4  10  20  34  58  88 116 149 190 240 292 334
#     4  11  20  36  61  86 113 151 201 243 283 341
#
# _framework density 26.085103
#
# number of rings (size 3 to 8) (size 9 to 14) (size 15 to 20)
#    0.000    1.333    4.444    1.667    1.556    1.333 
#    0.000    0.556    0.000    0.667    0.000    0.000 
#    0.000    0.000    0.000    0.000    0.000    0.000 
#
# Total GULP energy -200576.140532 kJ/mol
# GULP energy per Si atom -5571.559459 kJ/mol
# Density = 2.602573 g / cm^3
# Si number density = 26.085103 Si / 1000 Ang^3
#
#
#
# Elastic Constant Matrix: (Units=GPa)
#
#
# Indices 1 2 3 4 5 6 
#
# 1 184.0270 64.6976 13.0472 0.0000 0.0000 0.0000
# 2 64.6976 228.9752 20.7983 0.0000 0.0000 0.0000
# 3 13.0472 20.7983 87.7628 0.0000 0.0000 0.0000
# 4 0.0000 0.0000 0.0000 0.9144 0.0000 0.0000
# 5 0.0000 0.0000 0.0000 0.0000 13.8509 0.0000
# 6 0.0000 0.0000 0.0000 0.0000 0.0000 58.5876
#
#
#
# Elastic Compliance Matrix: (Units=1/GPa)
#
#
# Indices 1 2 3 4 5 6 
#
# 1 0.006055 -0.001665 -0.000506 0.000000 0.000000 0.000000
# 2 -0.001665 0.004921 -0.000919 0.000000 0.000000 0.000000
# 3 -0.000506 -0.000919 0.011687 0.000000 0.000000 0.000000
# 4 0.000000 0.000000 0.000000 1.093671 0.000000 0.000000
# 5 0.000000 0.000000 0.000000 0.000000 0.072198 0.000000
# 6 0.000000 0.000000 0.000000 0.000000 0.000000 0.017068
#
#
# Mechanical properties :
#
#
# Convention : Reuss Voigt Hill
#
# Bulk Modulus (GPa) = 60.66132 77.53902 69.10017
# Shear Modulus (GPa) = 4.10754 41.48535 22.79644
#
# Velocity S-wave (km/s) = 1.25622 3.99229 2.95943
# Velocity P-wave (km/s) = 5.04081 7.14431 6.18267
#
# Compressibility (1/GPa) = 0.01648497
#
# Stress axis : x y z
#
# Youngs Moduli (GPa) = 165.14773 203.20333 85.56346
#
# Poissons Ratio (x) = 0.33833 0.04326
# Poissons Ratio (y) = 0.27497 0.07861
# Poissons Ratio (z) = 0.08350 0.18669
#
# Static dielectric constant tensor:
#      x y z
#    x 1.952010 0.000000 0.000000 
#    y 0.000000 2.068820 0.000000 
#    z 0.000000 0.000000 2.149360 
# 
# From -- ./inp_files/14666.got.cif
#   From: 2010.05.17/outbox.cif.g08.bks.cpg/sg53_8_cif.got.tgz:14666.got - 2010.06.03 12:45:16.
