data_PCOD9417945
_publ_section_title
;
Structure prediction by ZEFSAII (Michael W. Deem and Ramdas Pophale) SiO2 
 PCOD9417945
Probable space group: P M N A
;
_chemical_formula_sum "Si O2"
_cell_formula_units_Z 56
_cell_length_a 14.569389
_cell_length_b 15.541527
_cell_length_c 11.538259
_cell_angle_alpha 90.000000
_cell_angle_beta 90.000000
_cell_angle_gamma 90.000000
_cell_volume 2612.614360
_symmetry_space_group_name_H-M "P M N A"
_symmetry_group_IT_number 53
_symmetry_cell_setting 'orthorhombic'
loop_
_space_group_symop_operation_xyz
x,y,z
1/2-x,-y,1/2+z
x,-y,-z
1/2-x,y,1/2-z
-x,-y,-z
1/2+x,y,1/2-z
-x,y,z
1/2+x,-y,1/2+z
loop_
_atom_site_type_symbol
_atom_site_label
_atom_site_fract_x
_atom_site_fract_y
_atom_site_fract_z
Si Si1 0.894980 0.325368 0.212409
Si Si2 0.888996 0.485403 0.869815
Si Si3 0.105809 0.742963 0.531005
Si Si4 0.712029 0.178303 0.420551
Si Si5 0.603537 0.336768 0.796803
Si Si6 0.599628 0.023396 0.363046
Si Si7 0.346587 0.837491 0.315803
O O1 0.872497 0.424485 0.192706
O O2 0.895325 0.307448 0.348659
O O3 0.825794 0.261646 0.146812
O O4 0.000000 0.310151 0.168659
O O5 0.854311 0.405680 0.792272
O O6 0.000000 0.472179 0.880948
O O7 0.852826 0.500000 0.000000
O O8 0.179688 0.817582 0.554206
O O9 0.142596 0.685097 0.423985
O O10 0.000000 0.769452 0.505228
O O11 0.677432 0.094813 0.351471
O O12 0.665709 0.175988 0.547155
O O13 0.500000 0.368019 0.820636
O O14 0.601140 0.244372 0.734284
O O15 0.500000 0.061296 0.332955
O O16 0.598875 0.000000 0.500000
O O17 0.612969 0.932822 0.299167
O O18 0.250000 0.836072 0.250000
#
# Coordination Sequence:
#
# PCOD9417945 Si02
#       7
#     8   8   8   8   8   8   8
#     4  10  21  37  62  91 122 162 212 266 322 377
#     4   9  18  34  59  93 124 157 205 261 320 376
#     4  10  22  39  60  88 124 172 218 253 312 389
#     4  11  21  39  64  88 127 161 209 266 317 372
#     4  10  20  37  62  88 126 170 209 261 322 382
#     4   9  20  37  61  92 120 154 202 256 320 380
#     4  11  21  36  59  91 126 161 208 262 319 381
#
# _framework density 21.434467999999999
#
# number of rings (size 3 to 8) (size 9 to 14) (size 15 to 20)
#    0.000    2.000    1.429    2.143    0.000    4.571 
#    0.000    4.286    3.143    4.714    0.000    0.000 
#    0.000    0.000    0.000    0.000    0.000    0.000 
#
# Total GULP energy -312466.851825 kJ/mol
# GULP energy per Si atom -5579.765211 kJ/mol
# Density = 2.138568 g / cm^3
# Si number density = 21.434468 Si / 1000 Ang^3
#
#
#
# Elastic Constant Matrix: (Units=GPa)
#
#
# Indices 1 2 3 4 5 6 
#
# 1 88.4152 47.4802 25.7954 0.0000 0.0000 0.0000
# 2 47.4802 113.0581 38.4443 0.0000 0.0000 0.0000
# 3 25.7954 38.4443 98.1825 0.0000 0.0000 0.0000
# 4 0.0000 0.0000 0.0000 1.9653 0.0000 0.0000
# 5 0.0000 0.0000 0.0000 0.0000 14.3393 0.0000
# 6 0.0000 0.0000 0.0000 0.0000 0.0000 -48.1704
#
#
#
# Elastic Compliance Matrix: (Units=1/GPa)
#
#
# Indices 1 2 3 4 5 6 
#
# 1 0.014841 -0.005660 -0.001683 0.000000 0.000000 0.000000
# 2 -0.005660 0.012363 -0.003354 0.000000 0.000000 0.000000
# 3 -0.001683 -0.003354 0.011940 0.000000 0.000000 0.000000
# 4 0.000000 0.000000 0.000000 0.508841 0.000000 0.000000
# 5 0.000000 0.000000 0.000000 0.000000 0.069738 0.000000
# 6 0.000000 0.000000 0.000000 0.000000 0.000000 -0.020760
#
#
# Mechanical properties :
#
#
# Convention : Reuss Voigt Hill
#
# Bulk Modulus (GPa) = 56.33677 58.12174 57.22926
# Shear Modulus (GPa) = 8.00931 6.15589 7.08260
#
# Velocity S-wave (km/s) = 1.93514 1.69652 1.81975
# Velocity P-wave (km/s) = 5.59762 5.56888 5.58327
#
# Compressibility (1/GPa) = 0.01775040
#
# Stress axis : x y z
#
# Youngs Moduli (GPa) = 67.38111 80.88967 83.74992
#
# Poissons Ratio (x) = 0.45787 0.14093
# Poissons Ratio (y) = 0.38141 0.28086
# Poissons Ratio (z) = 0.11338 0.27126
#
# Static dielectric constant tensor:
#      x y z
#    x 1.842460 0.000000 0.000000 
#    y 0.000000 1.759010 0.000000 
#    z 0.000000 0.000000 1.788390 
# 
# From -- ./inp_files/16062.got.cif
#   From: 2010.05.17/outbox.cif.g08.bks.cpg/sg53_9_cif.got.tgz:16062.got - 2010.06.03 12:45:16.
