data_PCOD9417144
_publ_section_title
;
Structure prediction by ZEFSAII (Michael W. Deem and Ramdas Pophale) SiO2 
 PCOD9417144
Probable space group: P M N A
;
_chemical_formula_sum "Si O2"
_cell_formula_units_Z 56
_cell_length_a 8.963905
_cell_length_b 21.309724
_cell_length_c 14.049484
_cell_angle_alpha 90.000000
_cell_angle_beta 90.000000
_cell_angle_gamma 90.000000
_cell_volume 2683.709133
_symmetry_space_group_name_H-M "P M N A"
_symmetry_group_IT_number 53
_symmetry_cell_setting 'orthorhombic'
loop_
_space_group_symop_operation_xyz
x,y,z
1/2-x,-y,1/2+z
x,-y,-z
1/2-x,y,1/2-z
-x,-y,-z
1/2+x,y,1/2-z
-x,y,z
1/2+x,-y,1/2+z
loop_
_atom_site_type_symbol
_atom_site_label
_atom_site_fract_x
_atom_site_fract_y
_atom_site_fract_z
Si Si1 0.179332 0.327083 0.354434
Si Si2 0.321900 0.279460 0.535133
Si Si3 0.323312 0.140876 0.550315
Si Si4 0.172866 0.023751 0.603513
Si Si5 0.320029 0.395614 0.855467
Si Si6 0.827040 0.883393 0.654814
Si Si7 0.679000 0.467610 0.145065
O O1 0.250000 0.320578 0.250000
O O2 0.253181 0.280523 0.429283
O O3 0.216390 0.398156 0.391720
O O4 0.000000 0.320524 0.350913
O O5 0.500000 0.287724 0.530528
O O6 0.289691 0.211876 0.581535
O O7 0.247088 0.336742 0.590160
O O8 0.500000 0.134354 0.539508
O O9 0.265309 0.086494 0.620719
O O10 0.250057 0.132663 0.445461
O O11 0.000000 0.042798 0.595041
O O12 0.225539 0.000000 0.500000
O O13 0.177644 0.959787 0.662191
O O14 0.250000 0.395047 0.750000
O O15 0.500000 0.390782 0.852325
O O16 0.281655 0.464675 0.899219
O O17 0.750000 0.857417 0.750000
O O18 0.000000 0.864627 0.650966
O O19 0.750000 0.468675 0.250000
O O20 0.500000 0.468020 0.152900
#
# Coordination Sequence:
#
# PCOD9417144 Si02
#       7
#     8   8   8   8   8   8   8
#     4  10  20  36  57  81 111 147 185 230 282 335
#     4  11  24  39  54  79 113 151 194 231 271 329
#     4  10  21  36  54  75 104 142 180 218 260 311
#     4   8  16  32  53  76 101 129 162 203 250 299
#     4  10  20  37  60  83 108 140 180 232 288 339
#     4  10  20  34  55  83 111 137 170 213 260 312
#     4   8  16  31  53  80 107 136 176 226 282 338
#
# _framework density 20.866643
#
# number of rings (size 3 to 8) (size 9 to 14) (size 15 to 20)
#    0.000    2.429    0.000    3.000    0.000    7.714 
#    0.000    3.571    0.000    1.714    0.000    0.000 
#    0.000    0.000    0.000    0.000    0.000    0.000 
#
# Total GULP energy -312275.443463 kJ/mol
# GULP energy per Si atom -5576.347205 kJ/mol
# Density = 2.081915 g / cm^3
# Si number density = 20.866643 Si / 1000 Ang^3
#
#
#
# Elastic Constant Matrix: (Units=GPa)
#
#
# Indices 1 2 3 4 5 6 
#
# 1 48.3668 46.5927 0.6475 0.0000 0.0000 0.0000
# 2 46.5927 106.7849 0.0330 0.0000 0.0000 0.0000
# 3 0.6475 0.0330 24.7018 0.0000 0.0000 0.0000
# 4 0.0000 0.0000 0.0000 6.0249 0.0000 0.0000
# 5 0.0000 0.0000 0.0000 0.0000 13.5640 0.0000
# 6 0.0000 0.0000 0.0000 0.0000 0.0000 34.7236
#
#
#
# Elastic Compliance Matrix: (Units=1/GPa)
#
#
# Indices 1 2 3 4 5 6 
#
# 1 0.035687 -0.015571 -0.000915 0.000000 0.000000 0.000000
# 2 -0.015571 0.016158 0.000387 0.000000 0.000000 0.000000
# 3 -0.000915 0.000387 0.040506 0.000000 0.000000 0.000000
# 4 0.000000 0.000000 0.000000 0.165977 0.000000 0.000000
# 5 0.000000 0.000000 0.000000 0.000000 0.073725 0.000000
# 6 0.000000 0.000000 0.000000 0.000000 0.000000 0.028799
#
#
# Mechanical properties :
#
#
# Convention : Reuss Voigt Hill
#
# Bulk Modulus (GPa) = 16.62394 30.48887 23.55641
# Shear Modulus (GPa) = 12.10355 19.70118 15.90236
#
# Velocity S-wave (km/s) = 2.41102 3.07603 2.76360
# Velocity P-wave (km/s) = 3.96670 5.22101 4.63647
#
# Compressibility (1/GPa) = 0.06015419
#
# Stress axis : x y z
#
# Youngs Moduli (GPa) = 28.02110 61.88711 24.68745
#
# Poissons Ratio (x) = 0.96364 0.02258
# Poissons Ratio (y) = 0.43631 -0.00954
# Poissons Ratio (z) = 0.02563 -0.02392
#
# Static dielectric constant tensor:
#      x y z
#    x 1.695720 0.000000 0.000000 
#    y 0.000000 1.815380 0.000000 
#    z 0.000000 0.000000 1.766030 
# 
# From -- ./inp_files/20609.got.cif
#   From: 2010.05.17/outbox.cif.g08.bks.cpg/sg53_11_cif.got.tgz:20609.got - 2010.06.03 12:45:16.
