data_PCOD9417055
_publ_section_title
;
Structure prediction by ZEFSAII (Michael W. Deem and Ramdas Pophale) SiO2 
 PCOD9417055
Probable space group: P M N A
;
_chemical_formula_sum "Si O2"
_cell_formula_units_Z 64
_cell_length_a 8.769230
_cell_length_b 16.309192
_cell_length_c 24.818430
_cell_angle_alpha 90.000000
_cell_angle_beta 90.000000
_cell_angle_gamma 90.000000
_cell_volume 3549.508424
_symmetry_space_group_name_H-M "P M N A"
_symmetry_group_IT_number 53
_symmetry_cell_setting 'orthorhombic'
loop_
_space_group_symop_operation_xyz
x,y,z
1/2-x,-y,1/2+z
x,-y,-z
1/2-x,y,1/2-z
-x,-y,-z
1/2+x,y,1/2-z
-x,y,z
1/2+x,-y,1/2+z
loop_
_atom_site_type_symbol
_atom_site_label
_atom_site_fract_x
_atom_site_fract_y
_atom_site_fract_z
Si Si1 0.815545 0.634697 0.394213
Si Si2 0.318145 0.974478 0.693313
Si Si3 0.316552 0.712601 0.586499
Si Si4 0.183446 0.474491 0.060167
Si Si5 0.823669 0.903119 0.388860
Si Si6 0.674491 0.248013 0.805772
Si Si7 0.184695 0.778026 0.478210
Si Si8 0.317260 0.208343 0.193204
O O1 0.753093 0.544449 0.402474
O O2 0.758270 0.676027 0.339104
O O3 0.771434 0.697867 0.442366
O O4 0.000000 0.634075 0.393732
O O5 0.250000 0.008933 0.750000
O O6 0.500000 0.969444 0.698536
O O7 0.245832 0.884386 0.687568
O O8 0.272434 0.027480 0.641117
O O9 0.500000 0.717655 0.589676
O O10 0.272327 0.618285 0.573902
O O11 0.257596 0.767366 0.536588
O O12 0.242724 0.741518 0.642146
O O13 0.000000 0.478838 0.062434
O O14 0.232210 0.500000 0.000000
O O15 0.823087 0.827731 0.346724
O O16 0.771823 0.859950 0.444554
O O17 0.000000 0.930517 0.395213
O O18 0.750000 0.227747 0.750000
O O19 0.500000 0.267944 0.794047
O O20 0.000000 0.778572 0.481896
O O21 0.250000 0.239894 0.250000
O O22 0.500000 0.207333 0.195237
#
# Coordination Sequence:
#
# PCOD9417055 Si02
#       8
#     8   8   8   8   8   8   8   8
#     4   9  18  32  50  74 105 140 182 226 267 316
#     4  11  21  35  57  84 112 144 186 230 276 325
#     4  11  22  37  58  84 115 145 182 227 275 331
#     4  10  20  34  53  81 111 140 176 222 271 320
#     4   9  18  33  52  78 113 146 184 229 272 321
#     4   9  18  31  47  71 104 143 182 221 266 318
#     4   9  18  33  53  79 112 149 184 224 274 325
#     4  11  23  42  65  86 110 141 182 227 279 329
#
# _framework density 18.030664999999999
#
# number of rings (size 3 to 8) (size 9 to 14) (size 15 to 20)
#    0.000    2.125    1.250    5.250    0.000    3.750 
#    0.000    3.750    0.000    5.250    0.000    0.000 
#    0.000    0.000    0.000    0.000    0.000    0.000 
#
# Total GULP energy -356995.313664 kJ/mol
# GULP energy per Si atom -5578.051776 kJ/mol
# Density = 1.798963 g / cm^3
# Si number density = 18.030665 Si / 1000 Ang^3
#
#
#
# Elastic Constant Matrix: (Units=GPa)
#
#
# Indices 1 2 3 4 5 6 
#
# 1 74.4502 34.9527 48.1474 0.0000 0.0000 0.0000
# 2 34.9527 68.0463 46.0847 0.0000 0.0000 0.0000
# 3 48.1474 46.0847 116.9941 0.0000 0.0000 0.0000
# 4 0.0000 0.0000 0.0000 25.5647 0.0000 0.0000
# 5 0.0000 0.0000 0.0000 0.0000 3.3798 0.0000
# 6 0.0000 0.0000 0.0000 0.0000 0.0000 24.1443
#
#
#
# Elastic Compliance Matrix: (Units=1/GPa)
#
#
# Indices 1 2 3 4 5 6 
#
# 1 0.020197 -0.006472 -0.005762 0.000000 0.000000 0.000000
# 2 -0.006472 0.022116 -0.006049 0.000000 0.000000 0.000000
# 3 -0.005762 -0.006049 0.013301 0.000000 0.000000 0.000000
# 4 0.000000 0.000000 0.000000 0.039116 0.000000 0.000000
# 5 0.000000 0.000000 0.000000 0.000000 0.295876 0.000000
# 6 0.000000 0.000000 0.000000 0.000000 0.000000 0.041418
#
#
# Mechanical properties :
#
#
# Convention : Reuss Voigt Hill
#
# Bulk Modulus (GPa) = 52.49495 57.54003 55.01749
# Shear Modulus (GPa) = 10.52766 19.30484 14.91625
#
# Velocity S-wave (km/s) = 2.41897 3.27565 2.87935
# Velocity P-wave (km/s) = 6.08107 6.80354 6.45242
#
# Compressibility (1/GPa) = 0.01904945
#
# Stress axis : x y z
#
# Youngs Moduli (GPa) = 49.51311 45.21528 75.17973
#
# Poissons Ratio (x) = 0.29261 0.43322
# Poissons Ratio (y) = 0.32043 0.45472
# Poissons Ratio (z) = 0.28532 0.27348
#
# Static dielectric constant tensor:
#      x y z
#    x 1.610060 0.000000 0.000000 
#    y 0.000000 1.618190 0.000000 
#    z 0.000000 0.000000 1.630000 
# 
# From -- ./inp_files/34203.got.cif
#   From: 2010.05.17/outbox.cif.g08.bks.cpg/sg53_18_cif.got.tgz:34203.got - 2010.06.03 12:45:16.
