data_PCOD9417969
_publ_section_title
;
Structure prediction by ZEFSAII (Michael W. Deem and Ramdas Pophale) SiO2 
 PCOD9417969
Probable space group: P M N A
;
_chemical_formula_sum "Si O2"
_cell_formula_units_Z 64
_cell_length_a 8.481929
_cell_length_b 24.970464
_cell_length_c 15.611691
_cell_angle_alpha 90.000000
_cell_angle_beta 90.000000
_cell_angle_gamma 90.000000
_cell_volume 3306.520290
_symmetry_space_group_name_H-M "P M N A"
_symmetry_group_IT_number 53
_symmetry_cell_setting 'orthorhombic'
loop_
_space_group_symop_operation_xyz
x,y,z
1/2-x,-y,1/2+z
x,-y,-z
1/2-x,y,1/2-z
-x,-y,-z
1/2+x,y,1/2-z
-x,y,z
1/2+x,-y,1/2+z
loop_
_atom_site_type_symbol
_atom_site_label
_atom_site_fract_x
_atom_site_fract_y
_atom_site_fract_z
Si Si1 0.690940 0.111886 0.152263
Si Si2 0.190981 0.805355 0.506528
Si Si3 0.809209 0.123605 0.652542
Si Si4 0.311165 0.620411 0.157505
Si Si5 0.688970 0.314907 0.496264
Si Si6 0.187984 0.389652 0.159362
Si Si7 0.309974 0.005606 0.847548
Si Si8 0.310036 0.497266 0.899987
O O1 0.750000 0.118816 0.250000
O O2 0.500000 0.112516 0.154932
O O3 0.740422 0.052565 0.118282
O O4 0.742662 0.157609 0.086340
O O5 0.242208 0.832685 0.416913
O O6 0.251913 0.745334 0.514045
O O7 0.000000 0.804775 0.506583
O O8 0.750000 0.131468 0.750000
O O9 0.000000 0.124324 0.655709
O O10 0.759628 0.064046 0.619669
O O11 0.250000 0.637012 0.250000
O O12 0.500000 0.620425 0.156173
O O13 0.249618 0.659067 0.083751
O O14 0.256321 0.559418 0.138199
O O15 0.500000 0.315383 0.496263
O O16 0.745873 0.352920 0.418728
O O17 0.250000 0.369489 0.250000
O O18 0.243232 0.450538 0.145606
O O19 0.000000 0.388847 0.159672
O O20 0.250000 0.005264 0.750000
O O21 0.500000 0.005679 0.850235
O O22 0.500000 0.499269 0.894764
O O23 0.265174 0.500000 0.000000
#
# Coordination Sequence:
#
# PCOD9417969 Si02
#       8
#     8   8   8   8   8   8   8   8
#     4   9  18  33  54  80 110 144 181 225 279 336
#     4  10  22  38  56  79 108 146 189 233 283 336
#     4   9  18  33  54  80 109 142 180 223 276 334
#     4  11  23  40  64  91 121 154 190 232 281 338
#     4  11  25  43  60  82 112 150 197 244 288 334
#     4  11  24  40  62  89 118 153 193 237 286 341
#     4   8  14  27  49  77 108 139 174 219 271 332
#     4  10  20  37  63  94 125 156 186 225 282 339
#
# _framework density 19.355695999999998
#
# number of rings (size 3 to 8) (size 9 to 14) (size 15 to 20)
#    0.000    2.125    1.250    1.500    0.000    6.250 
#    0.000    6.250    0.000    0.000    0.000    9.625 
#    0.000    0.000    0.000    0.000    0.000    0.000 
#
# Total GULP energy -357192.364398 kJ/mol
# GULP energy per Si atom -5581.130694 kJ/mol
# Density = 1.931164 g / cm^3
# Si number density = 19.355696 Si / 1000 Ang^3
#
#
#
# Elastic Constant Matrix: (Units=GPa)
#
#
# Indices 1 2 3 4 5 6 
#
# 1 12.2914 8.6357 9.1840 0.0000 0.0000 0.0000
# 2 8.6357 80.0684 9.0374 0.0000 0.0000 0.0000
# 3 9.1840 9.0374 83.7302 0.0000 0.0000 0.0000
# 4 0.0000 0.0000 0.0000 221.6423 0.0000 0.0000
# 5 0.0000 0.0000 0.0000 0.0000 22.2372 0.0000
# 6 0.0000 0.0000 0.0000 0.0000 0.0000 37.3982
#
#
#
# Elastic Compliance Matrix: (Units=1/GPa)
#
#
# Indices 1 2 3 4 5 6 
#
# 1 0.094829 -0.009165 -0.009412 0.000000 0.000000 0.000000
# 2 -0.009165 0.013529 -0.000455 0.000000 0.000000 0.000000
# 3 -0.009412 -0.000455 0.013025 0.000000 0.000000 0.000000
# 4 0.000000 0.000000 0.000000 0.004512 0.000000 0.000000
# 5 0.000000 0.000000 0.000000 0.000000 0.044970 0.000000
# 6 0.000000 0.000000 0.000000 0.000000 0.000000 0.026739
#
#
# Mechanical properties :
#
#
# Convention : Reuss Voigt Hill
#
# Bulk Modulus (GPa) = 12.00216 25.53379 18.76797
# Shear Modulus (GPa) = 18.97954 66.20442 42.59198
#
# Velocity S-wave (km/s) = 3.13480 5.85477 4.69603
# Velocity P-wave (km/s) = 4.39510 7.67626 6.25467
#
# Compressibility (1/GPa) = 0.08331835
#
# Stress axis : x y z
#
# Youngs Moduli (GPa) = 10.54525 73.91426 76.77785
#
# Poissons Ratio (x) = 0.67745 0.72264
# Poissons Ratio (y) = 0.09665 0.03493
# Poissons Ratio (z) = 0.09925 0.03363
#
# Static dielectric constant tensor:
#      x y z
#    x 1.662190 0.000000 0.000000 
#    y 0.000000 1.678830 0.000000 
#    z 0.000000 0.000000 1.658280 
# 
# From -- ./inp_files/20831.got.cif
#   From: 2010.05.17/outbox.cif.g08.bks.cpg/sg53_11_cif.got.tgz:20831.got - 2010.06.03 12:45:16.
