data_PCOD9417906
_publ_section_title
;
Structure prediction by ZEFSAII (Michael W. Deem and Ramdas Pophale) SiO2 
 PCOD9417906
Probable space group: P M N A
;
_chemical_formula_sum "Si O2"
_cell_formula_units_Z 40
_cell_length_a 8.784260
_cell_length_b 12.757951
_cell_length_c 18.061043
_cell_angle_alpha 90.000000
_cell_angle_beta 90.000000
_cell_angle_gamma 90.000000
_cell_volume 2024.085893
_symmetry_space_group_name_H-M "P M N A"
_symmetry_group_IT_number 53
_symmetry_cell_setting 'orthorhombic'
loop_
_space_group_symop_operation_xyz
x,y,z
1/2-x,-y,1/2+z
x,-y,-z
1/2-x,y,1/2-z
-x,-y,-z
1/2+x,y,1/2-z
-x,y,z
1/2+x,-y,1/2+z
loop_
_atom_site_type_symbol
_atom_site_label
_atom_site_fract_x
_atom_site_fract_y
_atom_site_fract_z
Si Si1 0.682154 0.713845 0.400057
Si Si2 0.181949 0.919050 0.332518
Si Si3 0.819717 0.514217 0.326944
Si Si4 0.818788 0.859376 0.830900
Si Si5 0.180446 0.656143 0.931286
O O1 0.500000 0.721120 0.392450
O O2 0.756155 0.825546 0.382856
O O3 0.747414 0.627003 0.344547
O O4 0.717409 0.675457 0.483162
O O5 0.250000 0.903663 0.250000
O O6 0.000000 0.918033 0.329174
O O7 0.241718 0.032924 0.357499
O O8 0.750000 0.473361 0.250000
O O9 0.772964 0.436110 0.392659
O O10 0.000000 0.522391 0.320590
O O11 0.750000 0.835636 0.750000
O O12 0.792948 0.763030 0.885843
O O13 0.000000 0.876041 0.823612
O O14 0.000000 0.630415 0.926140
#
# Coordination Sequence:
#
# PCOD9417906 Si02
#       5
#     8   8   8   8   8
#     4  11  23  41  62  86 120 157 194 239 294 351
#     4  11  22  38  60  87 118 154 198 244 292 344
#     4  12  25  41  63  89 118 153 196 243 291 347
#     4  10  20  37  60  87 117 153 197 240 288 343
#     4  10  23  41  62  88 120 157 194 238 293 351
#
# _framework density 19.762007000000001
#
# number of rings (size 3 to 8) (size 9 to 14) (size 15 to 20)
#    0.000    1.200    0.000    7.800    0.000    8.000 
#    0.000    4.000    0.000    0.000    0.000    0.000 
#    0.000    0.000    0.000    0.000    0.000    0.000 
#
# Total GULP energy -223847.574064 kJ/mol
# GULP energy per Si atom -5596.189352 kJ/mol
# Density = 1.971703 g / cm^3
# Si number density = 19.762007 Si / 1000 Ang^3
#
#
#
# Elastic Constant Matrix: (Units=GPa)
#
#
# Indices 1 2 3 4 5 6 
#
# 1 109.9812 44.7719 35.1710 0.0000 0.0000 0.0000
# 2 44.7719 62.6869 16.4545 0.0000 0.0000 0.0000
# 3 35.1710 16.4545 51.0558 0.0000 0.0000 0.0000
# 4 0.0000 0.0000 0.0000 49.2060 0.0000 0.0000
# 5 0.0000 0.0000 0.0000 0.0000 -15.8805 0.0000
# 6 0.0000 0.0000 0.0000 0.0000 0.0000 91.9267
#
#
#
# Elastic Compliance Matrix: (Units=1/GPa)
#
#
# Indices 1 2 3 4 5 6 
#
# 1 0.015090 -0.008793 -0.007561 0.000000 0.000000 0.000000
# 2 -0.008793 0.022550 -0.001210 0.000000 0.000000 0.000000
# 3 -0.007561 -0.001210 0.025185 0.000000 0.000000 0.000000
# 4 0.000000 0.000000 0.000000 0.020323 0.000000 0.000000
# 5 0.000000 0.000000 0.000000 0.000000 -0.062970 0.000000
# 6 0.000000 0.000000 0.000000 0.000000 0.000000 0.010878
#
#
# Mechanical properties :
#
#
# Convention : Reuss Voigt Hill
#
# Bulk Modulus (GPa) = 36.10595 46.27985 41.19290
# Shear Modulus (GPa) = 66.29832 33.53887 49.91859
#
# Velocity S-wave (km/s) = 5.79838 4.12410 5.03137
# Velocity P-wave (km/s) = 7.94596 6.79316 7.39207
#
# Compressibility (1/GPa) = 0.02769627
#
# Stress axis : x y z
#
# Youngs Moduli (GPa) = 66.26957 44.34619 39.70567
#
# Poissons Ratio (x) = 0.38992 0.30023
# Poissons Ratio (y) = 0.58269 0.04806
# Poissons Ratio (z) = 0.50108 0.05368
#
# Static dielectric constant tensor:
#      x y z
#    x 1.656950 0.000000 0.000000 
#    y 0.000000 1.678460 0.000000 
#    z 0.000000 0.000000 1.683400 
# 
# From -- ./inp_files/25829.got.cif
#   From: 2010.05.17/outbox.cif.g08.bks.cpg/sg53_13_cif.got.tgz:25829.got - 2010.06.03 12:45:16.
