data_PCOD9417995
_publ_section_title
;
Structure prediction by ZEFSAII (Michael W. Deem and Ramdas Pophale) SiO2 
 PCOD9417995
Probable space group: P M N A
;
_chemical_formula_sum "Si O2"
_cell_formula_units_Z 32
_cell_length_a 9.597533
_cell_length_b 18.537700
_cell_length_c 10.147141
_cell_angle_alpha 90.000000
_cell_angle_beta 90.000000
_cell_angle_gamma 90.000000
_cell_volume 1805.340641
_symmetry_space_group_name_H-M "P M N A"
_symmetry_group_IT_number 53
_symmetry_cell_setting 'orthorhombic'
loop_
_space_group_symop_operation_xyz
x,y,z
1/2-x,-y,1/2+z
x,-y,-z
1/2-x,y,1/2-z
-x,-y,-z
1/2+x,y,1/2-z
-x,y,z
1/2+x,-y,1/2+z
loop_
_atom_site_type_symbol
_atom_site_label
_atom_site_fract_x
_atom_site_fract_y
_atom_site_fract_z
Si Si1 0.000000 0.061986 0.392071
Si Si2 0.500000 0.070834 0.411171
Si Si3 0.256981 0.175826 0.098544
Si Si4 0.829740 0.295096 0.616295
Si Si5 0.332914 0.555094 0.378990
O O1 0.126969 0.115201 0.410218
O O2 0.000000 0.040336 0.238708
O O3 0.000000 0.000000 0.500000
O O4 0.375368 0.126799 0.431853
O O5 0.500000 0.000000 0.500000
O O6 0.250000 0.202670 0.250000
O O7 0.291552 0.239836 0.999347
O O8 0.750000 0.270218 0.750000
O O9 0.753448 0.371813 0.589035
O O10 0.000000 0.300442 0.630014
O O11 0.324725 0.500000 0.500000
O O12 0.250000 0.526490 0.250000
O O13 0.500000 0.568464 0.353428
#
# Coordination Sequence:
#
# PCOD9417995 Si02
#       5
#     4   4   8   8   8
#     4  10  20  38  58  80 117 150 193 244 291 350
#     4  10  22  36  58  86 113 150 195 244 297 352
#     4  10  22  39  58  85 117 155 195 242 295 352
#     4  11  23  39  61  89 120 157 198 244 293 346
#     4  10  22  40  62  91 123 157 198 242 289 346
#
# _framework density 17.725186000000001
#
# number of rings (size 3 to 8) (size 9 to 14) (size 15 to 20)
#    0.000    1.750    1.250    3.750    3.500    5.000 
#    0.000    2.500    0.000    0.000    0.000    0.000 
#    0.000    0.000    0.000    0.000    0.000    0.000 
#
# Total GULP energy -178187.258019 kJ/mol
# GULP energy per Si atom -5568.351813 kJ/mol
# Density = 1.768484 g / cm^3
# Si number density = 17.725186 Si / 1000 Ang^3
#
#
#
# Elastic Constant Matrix: (Units=GPa)
#
#
# Indices 1 2 3 4 5 6 
#
# 1 202.2611 57.0109 77.8467 0.0000 0.0000 0.0000
# 2 57.0109 79.2196 100.9159 0.0000 0.0000 0.0000
# 3 77.8467 100.9159 154.7707 0.0000 0.0000 0.0000
# 4 0.0000 0.0000 0.0000 53.5539 0.0000 0.0000
# 5 0.0000 0.0000 0.0000 0.0000 30.2708 0.0000
# 6 0.0000 0.0000 0.0000 0.0000 0.0000 40.3329
#
#
#
# Elastic Compliance Matrix: (Units=1/GPa)
#
#
# Indices 1 2 3 4 5 6 
#
# 1 0.006242 -0.002908 -0.001243 0.000000 0.000000 0.000000
# 2 -0.002908 0.075877 -0.048012 0.000000 0.000000 0.000000
# 3 -0.001243 -0.048012 0.038392 0.000000 0.000000 0.000000
# 4 0.000000 0.000000 0.000000 0.018673 0.000000 0.000000
# 5 0.000000 0.000000 0.000000 0.000000 0.033035 0.000000
# 6 0.000000 0.000000 0.000000 0.000000 0.000000 0.024794
#
#
# Mechanical properties :
#
#
# Convention : Reuss Voigt Hill
#
# Bulk Modulus (GPa) = 61.78790 100.86651 81.32721
# Shear Modulus (GPa) = 16.30070 38.19671 27.24871
#
# Velocity S-wave (km/s) = 3.03584 4.64717 3.92508
# Velocity P-wave (km/s) = 6.87189 9.26414 8.15620
#
# Compressibility (1/GPa) = 0.01618440
#
# Stress axis : x y z
#
# Youngs Moduli (GPa) = 160.19274 13.17918 26.04714
#
# Poissons Ratio (x) = 0.03833 0.03239
# Poissons Ratio (y) = 0.46592 1.25057
# Poissons Ratio (z) = 0.19919 0.63276
#
# Static dielectric constant tensor:
#      x y z
#    x 1.574580 0.000000 0.000000 
#    y 0.000000 1.535180 0.000000 
#    z 0.000000 0.000000 1.629400 
# 
# From -- ./inp_files/13725.got.cif
#   From: 2010.05.17/outbox.cif.g08.bks.cpg/sg53_7_cif.got.tgz:13725.got - 2010.06.03 12:45:16.
