data_PCOD9417477
_publ_section_title
;
Structure prediction by ZEFSAII (Michael W. Deem and Ramdas Pophale) SiO2 
 PCOD9417477
Probable space group: P M N A
;
_chemical_formula_sum "Si O2"
_cell_formula_units_Z 64
_cell_length_a 17.309062
_cell_length_b 16.463913
_cell_length_c 12.164917
_cell_angle_alpha 90.000000
_cell_angle_beta 90.000000
_cell_angle_gamma 90.000000
_cell_volume 3466.695895
_symmetry_space_group_name_H-M "P M N A"
_symmetry_group_IT_number 53
_symmetry_cell_setting 'orthorhombic'
loop_
_space_group_symop_operation_xyz
x,y,z
1/2-x,-y,1/2+z
x,-y,-z
1/2-x,y,1/2-z
-x,-y,-z
1/2+x,y,1/2-z
-x,y,z
1/2+x,-y,1/2+z
loop_
_atom_site_type_symbol
_atom_site_label
_atom_site_fract_x
_atom_site_fract_y
_atom_site_fract_z
Si Si1 0.907331 0.594638 0.483733
Si Si2 0.339987 0.120420 0.272205
Si Si3 0.090361 0.550186 0.251745
Si Si4 0.666368 0.386842 0.295499
Si Si5 0.409848 0.734049 0.851313
Si Si6 0.589029 0.372304 0.514813
Si Si7 0.409154 0.181308 0.500090
Si Si8 0.090219 0.966836 0.125781
O O1 0.881201 0.500000 0.500000
O O2 0.894568 0.608882 0.354326
O O3 0.877344 0.670435 0.556560
O O4 0.000000 0.592540 0.505819
O O5 0.250000 0.120477 0.250000
O O6 0.375885 0.177405 0.176511
O O7 0.362220 0.160794 0.389785
O O8 0.368591 0.027778 0.290327
O O9 0.142394 0.470777 0.260456
O O10 0.000000 0.525268 0.260572
O O11 0.101763 0.588860 0.133211
O O12 0.750000 0.362105 0.250000
O O13 0.605749 0.318270 0.258622
O O14 0.651591 0.398655 0.424519
O O15 0.500000 0.744696 0.872158
O O16 0.500000 0.393303 0.479971
O O17 0.594586 0.275699 0.525415
O O18 0.500000 0.161159 0.476991
O O19 0.384623 0.125954 0.604137
O O20 0.000000 0.968048 0.154636
O O21 0.098372 0.000000 0.000000
#
# Coordination Sequence:
#
# PCOD9417477 Si02
#       8
#     8   8   8   8   8   8   8   8
#     4   9  17  32  54  74  94 133 188 234 269 315
#     4  11  20  30  49  83 114 142 169 218 279 333
#     4  10  20  38  57  75 100 144 200 240 276 329
#     4  12  23  34  48  79 113 148 176 227 293 335
#     4  11  20  33  54  75 103 144 185 224 270 326
#     4  10  20  35  59  84 109 141 185 236 283 335
#     4   9  17  32  56  83 110 141 174 220 279 337
#     4   8  15  30  53  79 106 137 174 214 261 325
#
# _framework density 18.461382
#
# number of rings (size 3 to 8) (size 9 to 14) (size 15 to 20)
#    0.000    2.000    2.500    3.750    0.000    1.000 
#    4.500    0.000    0.000    5.250    0.000    0.000 
#    0.000   37.500    0.000    0.000    0.000    0.000 
#
# Total GULP energy -356439.611864 kJ/mol
# GULP energy per Si atom -5569.368935 kJ/mol
# Density = 1.841936 g / cm^3
# Si number density = 18.461382 Si / 1000 Ang^3
#
#
#
# Elastic Constant Matrix: (Units=GPa)
#
#
# Indices 1 2 3 4 5 6 
#
# 1 55.4304 33.8209 29.2545 0.0000 0.0000 0.0000
# 2 33.8209 94.5321 36.3710 0.0000 0.0000 0.0000
# 3 29.2545 36.3710 88.1800 0.0000 0.0000 0.0000
# 4 0.0000 0.0000 0.0000 34.6724 0.0000 0.0000
# 5 0.0000 0.0000 0.0000 0.0000 -9.4569 0.0000
# 6 0.0000 0.0000 0.0000 0.0000 0.0000 3.3040
#
#
#
# Elastic Compliance Matrix: (Units=1/GPa)
#
#
# Indices 1 2 3 4 5 6 
#
# 1 0.025142 -0.006877 -0.005504 0.000000 0.000000 0.000000
# 2 -0.006877 0.014455 -0.003681 0.000000 0.000000 0.000000
# 3 -0.005504 -0.003681 0.014685 0.000000 0.000000 0.000000
# 4 0.000000 0.000000 0.000000 0.028841 0.000000 0.000000
# 5 0.000000 0.000000 0.000000 0.000000 -0.105743 0.000000
# 6 0.000000 0.000000 0.000000 0.000000 0.000000 0.302666
#
#
# Mechanical properties :
#
#
# Convention : Reuss Voigt Hill
#
# Bulk Modulus (GPa) = 45.13231 48.55949 46.84590
# Shear Modulus (GPa) = 15.64666 14.95028 15.29847
#
# Velocity S-wave (km/s) = 2.91440 2.84881 2.88179
# Velocity P-wave (km/s) = 5.98539 6.09765 6.04178
#
# Compressibility (1/GPa) = 0.02215707
#
# Stress axis : x y z
#
# Youngs Moduli (GPa) = 39.77425 69.18031 68.09814
#
# Poissons Ratio (x) = 0.47577 0.37484
# Poissons Ratio (y) = 0.27354 0.25064
# Poissons Ratio (z) = 0.21894 0.25462
#
# Static dielectric constant tensor:
#      x y z
#    x 1.650240 0.000000 0.000000 
#    y 0.000000 1.695240 0.000000 
#    z 0.000000 0.000000 1.676530 
# 
# From -- ./inp_files/16221.got.cif
#   From: 2010.05.17/outbox.cif.g08.bks.cpg/sg53_9_cif.got.tgz:16221.got - 2010.06.03 12:45:16.
