data_PCOD9417362
_publ_section_title
;
Structure prediction by ZEFSAII (Michael W. Deem and Ramdas Pophale) SiO2 
 PCOD9417362
Probable space group: P M N A
;
_chemical_formula_sum "Si O2"
_cell_formula_units_Z 48
_cell_length_a 13.337628
_cell_length_b 15.289589
_cell_length_c 12.271014
_cell_angle_alpha 90.000000
_cell_angle_beta 90.000000
_cell_angle_gamma 90.000000
_cell_volume 2502.389236
_symmetry_space_group_name_H-M "P M N A"
_symmetry_group_IT_number 53
_symmetry_cell_setting 'orthorhombic'
loop_
_space_group_symop_operation_xyz
x,y,z
1/2-x,-y,1/2+z
x,-y,-z
1/2-x,y,1/2-z
-x,-y,-z
1/2+x,y,1/2-z
-x,y,z
1/2+x,-y,1/2+z
loop_
_atom_site_type_symbol
_atom_site_label
_atom_site_fract_x
_atom_site_fract_y
_atom_site_fract_z
Si Si1 0.383686 0.994466 0.169054
Si Si2 0.879918 0.811755 0.722241
Si Si3 0.678979 0.932979 0.407251
Si Si4 0.681738 0.577572 0.577932
Si Si5 0.885061 0.612711 0.676765
Si Si6 0.620329 0.767448 0.534199
O O1 0.500000 0.984599 0.135953
O O2 0.299345 0.942123 0.103739
O O3 0.370111 0.962371 0.293671
O O4 0.351717 0.096771 0.167661
O O5 0.860195 0.716891 0.670688
O O6 0.000000 0.817564 0.727646
O O7 0.844836 0.804608 0.847638
O O8 0.650541 0.836056 0.442740
O O9 0.643596 0.000000 0.500000
O O10 0.646737 0.500000 0.500000
O O11 0.798961 0.566105 0.608091
O O12 0.627550 0.586144 0.695849
O O13 0.664129 0.670888 0.521114
O O14 0.000000 0.598796 0.643796
O O15 0.500000 0.760135 0.538310
#
# Coordination Sequence:
#
# PCOD9417362 Si02
#       6
#     8   8   8   8   8   8
#     4  10  21  35  52  79 117 151 189 230 271 326
#     4   8  15  30  54  79 101 138 181 227 279 316
#     4  11  22  33  55  81 109 150 187 222 275 332
#     4  10  21  36  59  87 111 141 189 232 281 338
#     4   9  19  35  57  84 116 142 177 235 288 330
#     4  10  20  35  56  81 109 140 184 236 278 326
#
# _framework density 19.181668999999999
#
# number of rings (size 3 to 8) (size 9 to 14) (size 15 to 20)
#    0.000    2.333    1.667    2.000    2.333    4.000 
#    0.000    4.167    0.000    2.000    0.000    0.000 
#    0.000    0.000    0.000    0.000    0.000    0.000 
#
# Total GULP energy -267958.454444 kJ/mol
# GULP energy per Si atom -5582.467801 kJ/mol
# Density = 1.913801 g / cm^3
# Si number density = 19.181669 Si / 1000 Ang^3
#
#
#
# Elastic Constant Matrix: (Units=GPa)
#
#
# Indices 1 2 3 4 5 6 
#
# 1 107.9610 9.1212 -5.2025 0.0000 0.0000 0.0000
# 2 9.1212 95.4144 26.0380 0.0000 0.0000 0.0000
# 3 -5.2025 26.0380 45.7128 0.0000 0.0000 0.0000
# 4 0.0000 0.0000 0.0000 19.8300 0.0000 0.0000
# 5 0.0000 0.0000 0.0000 0.0000 13.7661 0.0000
# 6 0.0000 0.0000 0.0000 0.0000 0.0000 17.8219
#
#
#
# Elastic Compliance Matrix: (Units=1/GPa)
#
#
# Indices 1 2 3 4 5 6 
#
# 1 0.009474 -0.001421 0.001887 0.000000 0.000000 0.000000
# 2 -0.001421 0.012623 -0.007352 0.000000 0.000000 0.000000
# 3 0.001887 -0.007352 0.026278 0.000000 0.000000 0.000000
# 4 0.000000 0.000000 0.000000 0.050429 0.000000 0.000000
# 5 0.000000 0.000000 0.000000 0.000000 0.072642 0.000000
# 6 0.000000 0.000000 0.000000 0.000000 0.000000 0.056111
#
#
# Mechanical properties :
#
#
# Convention : Reuss Voigt Hill
#
# Bulk Modulus (GPa) = 28.89795 34.33350 31.61572
# Shear Modulus (GPa) = 19.77378 24.89238 22.33308
#
# Velocity S-wave (km/s) = 3.21420 3.60629 3.41587
# Velocity P-wave (km/s) = 5.37335 5.93956 5.66354
#
# Compressibility (1/GPa) = 0.03460453
#
# Stress axis : x y z
#
# Youngs Moduli (GPa) = 105.55663 79.22303 38.05470
#
# Poissons Ratio (x) = 0.11255 -0.07182
# Poissons Ratio (y) = 0.14996 0.27976
# Poissons Ratio (z) = -0.19923 0.58241
#
# Static dielectric constant tensor:
#      x y z
#    x 1.720490 0.000000 0.000000 
#    y 0.000000 1.648790 0.000000 
#    z 0.000000 0.000000 1.667960 
# 
# From -- ./inp_files/15941.got.cif
#   From: 2010.05.17/outbox.cif.g08.bks.cpg/sg53_8_cif.got.tgz:15941.got - 2010.06.03 12:45:16.
