data_PCOD9417962
_publ_section_title
;
Structure prediction by ZEFSAII (Michael W. Deem and Ramdas Pophale) SiO2 
 PCOD9417962
Probable space group: P M N A
;
_chemical_formula_sum "Si O2"
_cell_formula_units_Z 32
_cell_length_a 14.291902
_cell_length_b 7.539791
_cell_length_c 12.888629
_cell_angle_alpha 90.000000
_cell_angle_beta 90.000000
_cell_angle_gamma 90.000000
_cell_volume 1388.852292
_symmetry_space_group_name_H-M "P M N A"
_symmetry_group_IT_number 53
_symmetry_cell_setting 'orthorhombic'
loop_
_space_group_symop_operation_xyz
x,y,z
1/2-x,-y,1/2+z
x,-y,-z
1/2-x,y,1/2-z
-x,-y,-z
1/2+x,y,1/2-z
-x,y,z
1/2+x,-y,1/2+z
loop_
_atom_site_type_symbol
_atom_site_label
_atom_site_fract_x
_atom_site_fract_y
_atom_site_fract_z
Si Si1 0.697634 0.281342 0.425379
Si Si2 0.897347 0.826345 0.571876
Si Si3 0.107852 0.991477 0.204995
Si Si4 0.110292 0.381614 0.855920
O O1 0.806965 0.291038 0.449715
O O2 0.637325 0.310490 0.529187
O O3 0.666132 0.435916 0.346457
O O4 0.673726 0.092477 0.375348
O O5 0.000000 0.742272 0.558554
O O6 0.893405 0.000000 0.500000
O O7 0.889807 0.901626 0.688429
O O8 0.132267 0.784486 0.217952
O O9 0.000000 0.995660 0.166292
O O10 0.000000 0.420975 0.849636
#
# Coordination Sequence:
#
# PCOD9417962 Si02
#       4
#     8   8   8   8
#     4  11  20  36  61  90 121 151 188 238 297 353
#     4  10  22  40  59  81 115 161 207 243 280 336
#     4  10  20  37  63  89 115 150 190 238 293 347
#     4  10  21  37  61  94 123 146 184 241 303 360
#
# _framework density 23.040607000000001
#
# number of rings (size 3 to 8) (size 9 to 14) (size 15 to 20)
#    0.000    1.750    0.000    6.000    0.000    2.000 
#    0.000   17.500    0.000   16.500    0.000    0.000 
#    0.000    0.000    0.000    0.000    0.000    0.000 
#
# Total GULP energy -178975.847533 kJ/mol
# GULP energy per Si atom -5592.995235 kJ/mol
# Density = 2.298817 g / cm^3
# Si number density = 23.040607 Si / 1000 Ang^3
#
#
#
# Elastic Constant Matrix: (Units=GPa)
#
#
# Indices 1 2 3 4 5 6 
#
# 1 141.9197 34.6453 -8.8422 0.0000 0.0000 0.0000
# 2 34.6453 84.2588 -18.2715 0.0000 0.0000 0.0000
# 3 -8.8422 -18.2715 24.8500 0.0000 0.0000 0.0000
# 4 0.0000 0.0000 0.0000 -3.7792 0.0000 0.0000
# 5 0.0000 0.0000 0.0000 0.0000 17.4318 0.0000
# 6 0.0000 0.0000 0.0000 0.0000 0.0000 -293.1630
#
#
#
# Elastic Compliance Matrix: (Units=1/GPa)
#
#
# Indices 1 2 3 4 5 6 
#
# 1 0.007838 -0.003114 0.000499 0.000000 0.000000 0.000000
# 2 -0.003114 0.015357 0.010183 0.000000 0.000000 0.000000
# 3 0.000499 0.010183 0.047907 0.000000 0.000000 0.000000
# 4 0.000000 0.000000 0.000000 -0.264604 0.000000 0.000000
# 5 0.000000 0.000000 0.000000 0.000000 0.057367 0.000000
# 6 0.000000 0.000000 0.000000 0.000000 0.000000 -0.003411
#
#
# Mechanical properties :
#
#
# Convention : Reuss Voigt Hill
#
# Bulk Modulus (GPa) = 11.59599 29.56574 20.58087
# Shear Modulus (GPa) = -39.70221 -39.66897 -39.68559
#
# Velocity S-wave (km/s) = -4.15558 -4.15384 -4.15471
# Velocity P-wave (km/s) = 4.24044 3.18527 3.75015
#
# Compressibility (1/GPa) = 0.08623670
#
# Stress axis : x y z
#
# Youngs Moduli (GPa) = 127.58976 65.11657 20.87399
#
# Poissons Ratio (x) = 0.20280 -0.01041
# Poissons Ratio (y) = 0.39738 -0.21257
# Poissons Ratio (z) = -0.06365 -0.66311
#
# Static dielectric constant tensor:
#      x y z
#    x 1.876300 0.000000 0.000000 
#    y 0.000000 1.864370 0.000000 
#    z 0.000000 0.000000 1.913060 
# 
# From -- ./inp_files/15427.got.cif
#   From: 2010.05.17/outbox.cif.g08.bks.cpg/sg53_8_cif.got.tgz:15427.got - 2010.06.03 12:45:16.
