data_PCOD9417108
_publ_section_title
;
Structure prediction by ZEFSAII (Michael W. Deem and Ramdas Pophale) SiO2 
 PCOD9417108
Probable space group: P M N A
;
_chemical_formula_sum "Si O2"
_cell_formula_units_Z 48
_cell_length_a 7.924480
_cell_length_b 15.507168
_cell_length_c 19.886471
_cell_angle_alpha 90.000000
_cell_angle_beta 90.000000
_cell_angle_gamma 90.000000
_cell_volume 2443.773701
_symmetry_space_group_name_H-M "P M N A"
_symmetry_group_IT_number 53
_symmetry_cell_setting 'orthorhombic'
loop_
_space_group_symop_operation_xyz
x,y,z
1/2-x,-y,1/2+z
x,-y,-z
1/2-x,y,1/2-z
-x,-y,-z
1/2+x,y,1/2-z
-x,y,z
1/2+x,-y,1/2+z
loop_
_atom_site_type_symbol
_atom_site_label
_atom_site_fract_x
_atom_site_fract_y
_atom_site_fract_z
Si Si1 0.796410 0.536342 0.427864
Si Si2 0.703451 0.733659 0.436972
Si Si3 0.203523 0.868909 0.173799
Si Si4 0.298289 0.610976 0.827781
Si Si5 0.296265 0.935120 0.673607
Si Si6 0.298162 0.777030 0.586251
O O1 0.736267 0.500000 0.500000
O O2 0.745866 0.635253 0.420004
O O3 0.736082 0.472690 0.369025
O O4 0.000000 0.533217 0.428658
O O5 0.500000 0.740181 0.438539
O O6 0.766156 0.800801 0.381003
O O7 0.768353 0.756896 0.511652
O O8 0.250000 0.844905 0.250000
O O9 0.000000 0.870837 0.169809
O O10 0.264682 0.967038 0.161592
O O11 0.250000 0.609100 0.750000
O O12 0.500000 0.612367 0.832213
O O13 0.234242 0.696295 0.865246
O O14 0.250000 0.910828 0.750000
O O15 0.500000 0.936425 0.669616
O O16 0.232049 0.863984 0.621326
O O17 0.500000 0.787090 0.580123
#
# Coordination Sequence:
#
# PCOD9417108 Si02
#       6
#     8   8   8   8   8   8
#     4  10  21  39  58  77 105 143 181 218 269 323
#     4  10  21  35  56  83 109 140 180 225 272 320
#     4   9  19  36  55  78 108 143 182 224 269 319
#     4  11  23  38  57  81 110 142 179 223 269 322
#     4   9  18  33  53  76 107 144 180 219 266 318
#     4  10  20  34  54  82 111 142 179 221 270 321
#
# _framework density 19.641753999999999
#
# number of rings (size 3 to 8) (size 9 to 14) (size 15 to 20)
#    0.000    2.167    1.667    1.000    0.000    5.667 
#    0.000    6.667    0.000    0.000    0.000    7.000 
#    0.000    0.000    0.000    0.000    0.000    0.000 
#
# Total GULP energy -268001.663742 kJ/mol
# GULP energy per Si atom -5583.367995 kJ/mol
# Density = 1.959705 g / cm^3
# Si number density = 19.641754 Si / 1000 Ang^3
#
#
#
# Elastic Constant Matrix: (Units=GPa)
#
#
# Indices 1 2 3 4 5 6 
#
# 1 16.0523 0.7609 0.8208 0.0000 0.0000 0.0000
# 2 0.7609 163.5184 121.0452 0.0000 0.0000 0.0000
# 3 0.8208 121.0452 177.3055 0.0000 0.0000 0.0000
# 4 0.0000 0.0000 0.0000 47.8487 0.0000 0.0000
# 5 0.0000 0.0000 0.0000 0.0000 17.4616 0.0000
# 6 0.0000 0.0000 0.0000 0.0000 0.0000 -1.0875
#
#
#
# Elastic Compliance Matrix: (Units=1/GPa)
#
#
# Indices 1 2 3 4 5 6 
#
# 1 0.062313 -0.000155 -0.000183 0.000000 0.000000 0.000000
# 2 -0.000155 0.012364 -0.008440 0.000000 0.000000 0.000000
# 3 -0.000183 -0.008440 0.011403 0.000000 0.000000 0.000000
# 4 0.000000 0.000000 0.000000 0.020899 0.000000 0.000000
# 5 0.000000 0.000000 0.000000 0.000000 0.057268 0.000000
# 6 0.000000 0.000000 0.000000 0.000000 0.000000 -0.919533
#
#
# Mechanical properties :
#
#
# Convention : Reuss Voigt Hill
#
# Bulk Modulus (GPa) = 14.59327 66.90335 40.74831
# Shear Modulus (GPa) = -6.99410 28.46119 10.73355
#
# Velocity S-wave (km/s) = -1.88906 3.81072 2.34020
# Velocity P-wave (km/s) = 1.63944 7.31422 5.30027
#
# Compressibility (1/GPa) = 0.06852473
#
# Stress axis : x y z
#
# Youngs Moduli (GPa) = 16.04799 80.87920 87.69712
#
# Poissons Ratio (x) = 0.01250 0.01604
# Poissons Ratio (y) = 0.00248 0.74018
# Poissons Ratio (z) = 0.00294 0.68264
#
# Static dielectric constant tensor:
#      x y z
#    x 1.714710 0.000000 0.000000 
#    y 0.000000 1.672750 0.000000 
#    z 0.000000 0.000000 1.665220 
# 
# From -- ./inp_files/26183.got.cif
#   From: 2010.05.17/outbox.cif.g08.bks.cpg/sg53_14_cif.got.tgz:26183.got - 2010.06.03 12:45:16.
