data_PCOD9417058
_publ_section_title
;
Structure prediction by ZEFSAII (Michael W. Deem and Ramdas Pophale) SiO2 
 PCOD9417058
Probable space group: P M N A
;
_chemical_formula_sum "Si O2"
_cell_formula_units_Z 56
_cell_length_a 14.242806
_cell_length_b 9.695071
_cell_length_c 18.378174
_cell_angle_alpha 90.000000
_cell_angle_beta 90.000000
_cell_angle_gamma 90.000000
_cell_volume 2537.750440
_symmetry_space_group_name_H-M "P M N A"
_symmetry_group_IT_number 53
_symmetry_cell_setting 'orthorhombic'
loop_
_space_group_symop_operation_xyz
x,y,z
1/2-x,-y,1/2+z
x,-y,-z
1/2-x,y,1/2-z
-x,-y,-z
1/2+x,y,1/2-z
-x,y,z
1/2+x,-y,1/2+z
loop_
_atom_site_type_symbol
_atom_site_label
_atom_site_fract_x
_atom_site_fract_y
_atom_site_fract_z
Si Si1 0.804392 0.027528 0.617957
Si Si2 0.608183 0.201272 0.755452
Si Si3 0.396448 0.113534 0.588262
Si Si4 0.391597 0.350844 0.466242
Si Si5 0.786733 0.285760 0.386659
Si Si6 0.391118 0.724998 0.034513
Si Si7 0.889919 0.527951 0.325694
O O1 0.825838 0.108149 0.693482
O O2 0.698193 0.026103 0.586630
O O3 0.862068 0.122161 0.561406
O O4 0.823876 0.867397 0.629704
O O5 0.500000 0.185478 0.783921
O O6 0.606412 0.165532 0.671262
O O7 0.632424 0.361853 0.763463
O O8 0.500000 0.048200 0.577510
O O9 0.386501 0.237567 0.530878
O O10 0.365499 0.500000 0.500000
O O11 0.500000 0.359878 0.442583
O O12 0.323498 0.305056 0.401243
O O13 0.830795 0.318162 0.465799
O O14 0.826215 0.395012 0.330068
O O15 0.500000 0.721980 0.014780
O O16 0.375923 0.620356 0.101297
O O17 0.000000 0.490002 0.322262
#
# Coordination Sequence:
#
# PCOD9417058 Si02
#       7
#     8   8   8   8   8   8   8
#     4  11  22  35  55  87 120 154 193 241 290 357
#     4   9  20  40  65  88 112 152 206 248 287 349
#     4  10  21  40  66  84 108 156 207 252 290 338
#     4  10  22  39  61  90 120 152 199 254 302 348
#     4  12  22  33  56  89 126 154 186 239 305 353
#     4  10  20  34  53  82 121 161 196 230 283 358
#     4   9  19  35  58  89 119 152 194 239 291 355
#
# _framework density 22.066787999999999
#
# number of rings (size 3 to 8) (size 9 to 14) (size 15 to 20)
#    0.000    1.857    1.429    3.857    2.000    4.571 
#    0.000    1.429    6.286    0.000    0.000    0.000 
#    0.000    0.000    0.000    0.000    0.000    0.000 
#
# Total GULP energy -312958.616628 kJ/mol
# GULP energy per Si atom -5588.546726 kJ/mol
# Density = 2.201656 g / cm^3
# Si number density = 22.066788 Si / 1000 Ang^3
#
#
#
# Elastic Constant Matrix: (Units=GPa)
#
#
# Indices 1 2 3 4 5 6 
#
# 1 83.8256 26.1364 5.4550 0.0000 0.0000 0.0000
# 2 26.1364 91.9818 1.0792 0.0000 0.0000 0.0000
# 3 5.4550 1.0792 46.0824 0.0000 0.0000 0.0000
# 4 0.0000 0.0000 0.0000 13.7012 0.0000 0.0000
# 5 0.0000 0.0000 0.0000 0.0000 -2.0717 0.0000
# 6 0.0000 0.0000 0.0000 0.0000 0.0000 47.5153
#
#
#
# Elastic Compliance Matrix: (Units=1/GPa)
#
#
# Indices 1 2 3 4 5 6 
#
# 1 0.013188 -0.003730 -0.001474 0.000000 0.000000 0.000000
# 2 -0.003730 0.011930 0.000162 0.000000 0.000000 0.000000
# 3 -0.001474 0.000162 0.021871 0.000000 0.000000 0.000000
# 4 0.000000 0.000000 0.000000 0.072986 0.000000 0.000000
# 5 0.000000 0.000000 0.000000 0.000000 -0.482701 0.000000
# 6 0.000000 0.000000 0.000000 0.000000 0.000000 0.021046
#
#
# Mechanical properties :
#
#
# Convention : Reuss Voigt Hill
#
# Bulk Modulus (GPa) = 27.09626 31.91456 29.50541
# Shear Modulus (GPa) = -15.65954 24.44358 4.39202
#
# Velocity S-wave (km/s) = -2.66680 3.33184 1.41232
# Velocity P-wave (km/s) = 1.68030 5.41254 4.00743
#
# Compressibility (1/GPa) = 0.03690546
#
# Stress axis : x y z
#
# Youngs Moduli (GPa) = 75.82364 83.82413 45.72285
#
# Poissons Ratio (x) = 0.31268 0.06739
# Poissons Ratio (y) = 0.28284 -0.00742
# Poissons Ratio (z) = 0.11175 -0.01359
#
# Static dielectric constant tensor:
#      x y z
#    x 1.857690 0.000000 0.000000 
#    y 0.000000 1.814370 0.000000 
#    z 0.000000 0.000000 1.797690 
# 
# From -- ./inp_files/32491.got.cif
#   From: 2010.05.17/outbox.cif.g08.bks.cpg/sg53_17_cif.got.tgz:32491.got - 2010.06.03 12:45:16.
