data_PCOD9417131
_publ_section_title
;
Structure prediction by ZEFSAII (Michael W. Deem and Ramdas Pophale) SiO2 
 PCOD9417131
Probable space group: P M N A
;
_chemical_formula_sum "Si O2"
_cell_formula_units_Z 48
_cell_length_a 7.778501
_cell_length_b 15.822685
_cell_length_c 18.090027
_cell_angle_alpha 90.000000
_cell_angle_beta 90.000000
_cell_angle_gamma 90.000000
_cell_volume 2226.462112
_symmetry_space_group_name_H-M "P M N A"
_symmetry_group_IT_number 53
_symmetry_cell_setting 'orthorhombic'
loop_
_space_group_symop_operation_xyz
x,y,z
1/2-x,-y,1/2+z
x,-y,-z
1/2-x,y,1/2-z
-x,-y,-z
1/2+x,y,1/2-z
-x,y,z
1/2+x,-y,1/2+z
loop_
_atom_site_type_symbol
_atom_site_label
_atom_site_fract_x
_atom_site_fract_y
_atom_site_fract_z
Si Si1 0.288964 0.186749 0.902656
Si Si2 0.707182 0.637934 0.163077
Si Si3 0.794458 0.545933 0.662761
Si Si4 0.697033 0.124224 0.060120
Si Si5 0.802288 0.269674 0.163788
Si Si6 0.206486 0.016844 0.667968
O O1 0.500000 0.190565 0.903511
O O2 0.228264 0.279481 0.879319
O O3 0.237013 0.113011 0.845920
O O4 0.227729 0.155963 0.982974
O O5 0.750000 0.645723 0.250000
O O6 0.500000 0.636358 0.157407
O O7 0.767387 0.545642 0.134757
O O8 0.750000 0.544119 0.750000
O O9 0.720270 0.634382 0.634819
O O10 0.000000 0.551102 0.654615
O O11 0.500000 0.100286 0.042582
O O12 0.698159 0.202672 0.116348
O O13 0.775147 0.045184 0.104147
O O14 0.750000 0.268527 0.250000
O O15 0.000000 0.244989 0.158468
O O16 0.250000 0.986879 0.750000
O O17 0.000000 0.015499 0.662484
#
# Coordination Sequence:
#
# PCOD9417131 Si02
#       6
#     8   8   8   8   8   8
#     4   9  18  34  54  76 103 136 173 208 248 303
#     4   9  17  30  51  77 103 133 170 212 255 301
#     4   9  16  28  48  74 101 130 167 210 255 299
#     4  10  20  35  54  75 103 138 173 210 251 298
#     4  11  21  34  53  76 102 133 171 213 256 302
#     4  10  20  34  55  80 103 132 170 211 254 300
#
# _framework density 21.558868
#
# number of rings (size 3 to 8) (size 9 to 14) (size 15 to 20)
#    0.000    2.333    0.000    4.500    0.000    4.667 
#    0.000    2.500    0.000    7.000    0.000    0.000 
#    0.000    0.000    0.000    0.000    0.000    0.000 
#
# Total GULP energy -267854.441117 kJ/mol
# GULP energy per Si atom -5580.300857 kJ/mol
# Density = 2.150980 g / cm^3
# Si number density = 21.558868 Si / 1000 Ang^3
#
#
#
# Elastic Constant Matrix: (Units=GPa)
#
#
# Indices 1 2 3 4 5 6 
#
# 1 42.9401 -8.1657 -7.8869 0.0000 0.0000 0.0000
# 2 -8.1657 104.3938 6.7096 0.0000 0.0000 0.0000
# 3 -7.8869 6.7096 48.8726 0.0000 0.0000 0.0000
# 4 0.0000 0.0000 0.0000 -0.2730 0.0000 0.0000
# 5 0.0000 0.0000 0.0000 0.0000 12.7775 0.0000
# 6 0.0000 0.0000 0.0000 0.0000 0.0000 5.2404
#
#
#
# Elastic Compliance Matrix: (Units=1/GPa)
#
#
# Indices 1 2 3 4 5 6 
#
# 1 0.024282 0.001662 0.003690 0.000000 0.000000 0.000000
# 2 0.001662 0.009778 -0.001074 0.000000 0.000000 0.000000
# 3 0.003690 -0.001074 0.021204 0.000000 0.000000 0.000000
# 4 0.000000 0.000000 0.000000 -3.663360 0.000000 0.000000
# 5 0.000000 0.000000 0.000000 0.000000 0.078262 0.000000
# 6 0.000000 0.000000 0.000000 0.000000 0.000000 0.190824
#
#
# Mechanical properties :
#
#
# Convention : Reuss Voigt Hill
#
# Bulk Modulus (GPa) = 15.66872 19.72450 17.69661
# Shear Modulus (GPa) = -1.50318 17.25230 7.87456
#
# Velocity S-wave (km/s) = -0.83592 2.83192 1.91325
# Velocity P-wave (km/s) = 2.52031 4.45669 3.62036
#
# Compressibility (1/GPa) = 0.06382141
#
# Stress axis : x y z
#
# Youngs Moduli (GPa) = 41.18253 102.26868 47.16006
#
# Poissons Ratio (x) = -0.16999 -0.17404
# Poissons Ratio (y) = -0.06845 0.05066
# Poissons Ratio (z) = -0.15198 0.10986
#
# Static dielectric constant tensor:
#      x y z
#    x 1.790200 0.000000 0.000000 
#    y 0.000000 1.817880 0.000000 
#    z 0.000000 0.000000 1.761430 
# 
# From -- ./inp_files/26214.got.cif
#   From: 2010.05.17/outbox.cif.g08.bks.cpg/sg53_14_cif.got.tgz:26214.got - 2010.06.03 12:45:16.
