data_PCOD9417964
_publ_section_title
;
Structure prediction by ZEFSAII (Michael W. Deem and Ramdas Pophale) SiO2 
 PCOD9417964
Probable space group: P M N A
;
_chemical_formula_sum "Si O2"
_cell_formula_units_Z 64
_cell_length_a 8.431326
_cell_length_b 12.400546
_cell_length_c 32.149459
_cell_angle_alpha 90.000000
_cell_angle_beta 90.000000
_cell_angle_gamma 90.000000
_cell_volume 3361.323863
_symmetry_space_group_name_H-M "P M N A"
_symmetry_group_IT_number 53
_symmetry_cell_setting 'orthorhombic'
loop_
_space_group_symop_operation_xyz
x,y,z
1/2-x,-y,1/2+z
x,-y,-z
1/2-x,y,1/2-z
-x,-y,-z
1/2+x,y,1/2-z
-x,y,z
1/2+x,-y,1/2+z
loop_
_atom_site_type_symbol
_atom_site_label
_atom_site_fract_x
_atom_site_fract_y
_atom_site_fract_z
Si Si1 0.311799 0.871451 0.875079
Si Si2 0.808537 0.248001 0.795160
Si Si3 0.814674 0.614398 0.522680
Si Si4 0.809671 0.254294 0.947764
Si Si5 0.193625 0.399891 0.869692
Si Si6 0.814637 0.636034 0.887174
Si Si7 0.192055 0.017602 0.548032
Si Si8 0.689516 0.000469 0.704486
O O1 0.500000 0.884126 0.874240
O O2 0.269421 0.745809 0.874432
O O3 0.243434 0.930288 0.834555
O O4 0.255717 0.927539 0.918403
O O5 0.750000 0.282699 0.750000
O O6 0.753126 0.327807 0.831112
O O7 0.000000 0.247434 0.795741
O O8 0.754485 0.124466 0.801798
O O9 0.789031 0.500000 0.500000
O O10 0.770458 0.707679 0.490390
O O11 0.709210 0.622375 0.563454
O O12 0.000000 0.622710 0.534359
O O13 0.759784 0.338382 0.911923
O O14 0.756474 0.133465 0.937507
O O15 0.000000 0.258549 0.951655
O O16 0.247907 0.523467 0.868390
O O17 0.000000 0.402284 0.869818
O O18 0.000000 0.646241 0.877172
O O19 0.000000 0.019763 0.547707
O O20 0.244122 0.000000 0.500000
O O21 0.750000 0.964479 0.750000
O O22 0.500000 0.000965 0.705828
#
# Coordination Sequence:
#
# PCOD9417964 Si02
#       8
#     8   8   8   8   8   8   8   8
#     4  11  23  39  59  85 120 158 199 245 298 354
#     4   9  18  35  58  85 115 144 177 223 280 339
#     4  11  22  36  54  79 114 152 190 235 286 341
#     4  11  21  35  58  84 109 141 189 239 283 337
#     4   9  19  35  55  81 112 143 178 227 279 328
#     4  11  22  38  59  81 112 153 198 241 284 340
#     4  10  22  39  56  78 115 156 192 238 294 350
#     4  10  20  37  63  91 119 150 192 241 295 356
#
# _framework density 19.040116999999999
#
# number of rings (size 3 to 8) (size 9 to 14) (size 15 to 20)
#    0.000    1.750    1.250    3.375    0.000    4.250 
#    0.000    3.125    0.000    1.500    0.000    0.000 
#    0.000    0.000    0.000    0.000    0.000    0.000 
#
# Total GULP energy -357506.793377 kJ/mol
# GULP energy per Si atom -5586.043647 kJ/mol
# Density = 1.899678 g / cm^3
# Si number density = 19.040117 Si / 1000 Ang^3
#
#
#
# Elastic Constant Matrix: (Units=GPa)
#
#
# Indices 1 2 3 4 5 6 
#
# 1 19.2161 12.4300 14.6083 0.0000 0.0000 0.0000
# 2 12.4300 110.4672 53.2291 0.0000 0.0000 0.0000
# 3 14.6083 53.2291 109.9569 0.0000 0.0000 0.0000
# 4 0.0000 0.0000 0.0000 31.1004 0.0000 0.0000
# 5 0.0000 0.0000 0.0000 0.0000 25.8665 0.0000
# 6 0.0000 0.0000 0.0000 0.0000 0.0000 26.7245
#
#
#
# Elastic Compliance Matrix: (Units=1/GPa)
#
#
# Indices 1 2 3 4 5 6 
#
# 1 0.059045 -0.003735 -0.006036 0.000000 0.000000 0.000000
# 2 -0.003735 0.012043 -0.005334 0.000000 0.000000 0.000000
# 3 -0.006036 -0.005334 0.012478 0.000000 0.000000 0.000000
# 4 0.000000 0.000000 0.000000 0.032154 0.000000 0.000000
# 5 0.000000 0.000000 0.000000 0.000000 0.038660 0.000000
# 6 0.000000 0.000000 0.000000 0.000000 0.000000 0.037419
#
#
# Mechanical properties :
#
#
# Convention : Reuss Voigt Hill
#
# Bulk Modulus (GPa) = 18.74210 44.46390 31.60300
# Shear Modulus (GPa) = 20.85125 27.36314 24.10720
#
# Velocity S-wave (km/s) = 3.31285 3.79506 3.56213
# Velocity P-wave (km/s) = 4.94956 6.52739 5.79245
#
# Compressibility (1/GPa) = 0.05335582
#
# Stress axis : x y z
#
# Youngs Moduli (GPa) = 16.93632 83.03756 80.13906
#
# Poissons Ratio (x) = 0.31017 0.48373
# Poissons Ratio (y) = 0.06326 0.42742
# Poissons Ratio (z) = 0.10223 0.44288
#
# Static dielectric constant tensor:
#      x y z
#    x 1.647240 0.000000 0.000000 
#    y 0.000000 1.665730 0.000000 
#    z 0.000000 0.000000 1.646210 
# 
# From -- ./inp_files/38228.got.cif
#   From: 2010.05.17/outbox.cif.g08.bks.cpg/sg53_20_cif.got.tgz:38228.got - 2010.06.03 12:45:16.
