data_PCOD9417832
_publ_section_title
;
Structure prediction by ZEFSAII (Michael W. Deem and Ramdas Pophale) SiO2 
 PCOD9417832
Probable space group: P M N A
;
_chemical_formula_sum "Si O2"
_cell_formula_units_Z 48
_cell_length_a 8.471448
_cell_length_b 10.155619
_cell_length_c 29.867423
_cell_angle_alpha 90.000000
_cell_angle_beta 90.000000
_cell_angle_gamma 90.000000
_cell_volume 2569.577978
_symmetry_space_group_name_H-M "P M N A"
_symmetry_group_IT_number 53
_symmetry_cell_setting 'orthorhombic'
loop_
_space_group_symop_operation_xyz
x,y,z
1/2-x,-y,1/2+z
x,-y,-z
1/2-x,y,1/2-z
-x,-y,-z
1/2+x,y,1/2-z
-x,y,z
1/2+x,-y,1/2+z
loop_
_atom_site_type_symbol
_atom_site_label
_atom_site_fract_x
_atom_site_fract_y
_atom_site_fract_z
Si Si1 0.189410 0.274469 0.299979
Si Si2 0.308966 0.783016 0.377691
Si Si3 0.310558 0.015485 0.699608
Si Si4 0.811392 0.131109 0.976135
Si Si5 0.686008 0.372591 0.031324
Si Si6 0.308918 0.485065 0.126317
O O1 0.250000 0.299405 0.250000
O O2 0.239772 0.391246 0.332907
O O3 0.000000 0.268417 0.299775
O O4 0.252822 0.130608 0.313592
O O5 0.500000 0.783798 0.378283
O O6 0.257576 0.877069 0.336863
O O7 0.251559 0.837486 0.425967
O O8 0.253961 0.633196 0.371430
O O9 0.250000 0.042365 0.750000
O O10 0.500000 0.014710 0.700902
O O11 0.000000 0.115850 0.971874
O O12 0.775118 0.253311 0.008210
O O13 0.747418 0.000000 0.000000
O O14 0.500000 0.338581 0.034075
O O15 0.742590 0.414811 0.080331
O O16 0.701034 0.500000 0.000000
O O17 0.500000 0.491908 0.125445
#
# Coordination Sequence:
#
# PCOD9417832 Si02
#       6
#     8   8   8   8   8   8
#     4  10  21  38  59  84 112 143 183 227 276 331
#     4  10  22  38  56  82 113 146 186 228 274 329
#     4  10  21  38  59  83 112 145 184 228 277 330
#     4  10  22  38  56  82 114 147 186 229 274 326
#     4  10  20  37  58  81 112 147 185 226 272 324
#     4  10  22  38  57  83 113 146 184 229 276 328
#
# _framework density 18.680112000000001
#
# number of rings (size 3 to 8) (size 9 to 14) (size 15 to 20)
#    0.000    2.000    1.667    2.000    2.333    4.667 
#    0.000    3.333    0.000    0.000    0.000    0.000 
#    0.000    0.000    0.000    0.000    0.000    0.000 
#
# Total GULP energy -267976.306994 kJ/mol
# GULP energy per Si atom -5582.839729 kJ/mol
# Density = 1.863759 g / cm^3
# Si number density = 18.680112 Si / 1000 Ang^3
#
#
#
# Elastic Constant Matrix: (Units=GPa)
#
#
# Indices 1 2 3 4 5 6 
#
# 1 16.3590 21.0598 24.4497 0.0000 0.0000 0.0000
# 2 21.0598 141.7139 113.9488 0.0000 0.0000 0.0000
# 3 24.4497 113.9488 147.6341 0.0000 0.0000 0.0000
# 4 0.0000 0.0000 0.0000 38.2693 0.0000 0.0000
# 5 0.0000 0.0000 0.0000 0.0000 27.1098 0.0000
# 6 0.0000 0.0000 0.0000 0.0000 0.0000 36.1585
#
#
#
# Elastic Compliance Matrix: (Units=1/GPa)
#
#
# Indices 1 2 3 4 5 6 
#
# 1 0.081828 -0.003331 -0.010981 0.000000 0.000000 0.000000
# 2 -0.003331 0.018735 -0.013909 0.000000 0.000000 0.000000
# 3 -0.010981 -0.013909 0.019327 0.000000 0.000000 0.000000
# 4 0.000000 0.000000 0.000000 0.026131 0.000000 0.000000
# 5 0.000000 0.000000 0.000000 0.000000 0.036887 0.000000
# 6 0.000000 0.000000 0.000000 0.000000 0.000000 0.027656
#
#
# Mechanical properties :
#
#
# Convention : Reuss Voigt Hill
#
# Bulk Modulus (GPa) = 15.76051 69.40262 42.58156
# Shear Modulus (GPa) = 17.35177 30.05741 23.70459
#
# Velocity S-wave (km/s) = 3.05108 4.01566 3.56613
# Velocity P-wave (km/s) = 4.56809 7.66385 6.30880
#
# Compressibility (1/GPa) = 0.06344973
#
# Stress axis : x y z
#
# Youngs Moduli (GPa) = 12.22074 53.37534 51.74039
#
# Poissons Ratio (x) = 0.17780 0.56814
# Poissons Ratio (y) = 0.04071 0.71965
# Poissons Ratio (z) = 0.13419 0.74239
#
# Static dielectric constant tensor:
#      x y z
#    x 1.651980 0.000000 0.000000 
#    y 0.000000 1.611560 0.000000 
#    z 0.000000 0.000000 1.649190 
# 
# From -- ./inp_files/37741.got.cif
#   From: 2010.05.17/outbox.cif.g08.bks.cpg/sg53_19_cif.got.tgz:37741.got - 2010.06.03 12:45:16.
