data_PCOD9417015
_publ_section_title
;
Structure prediction by ZEFSAII (Michael W. Deem and Ramdas Pophale) SiO2 
 PCOD9417015
Probable space group: P M N A
;
_chemical_formula_sum "Si O2"
_cell_formula_units_Z 40
_cell_length_a 8.184971
_cell_length_b 7.611060
_cell_length_c 29.468898
_cell_angle_alpha 90.000000
_cell_angle_beta 90.000000
_cell_angle_gamma 90.000000
_cell_volume 1835.803469
_symmetry_space_group_name_H-M "P M N A"
_symmetry_group_IT_number 53
_symmetry_cell_setting 'orthorhombic'
loop_
_space_group_symop_operation_xyz
x,y,z
1/2-x,-y,1/2+z
x,-y,-z
1/2-x,y,1/2-z
-x,-y,-z
1/2+x,y,1/2-z
-x,y,z
1/2+x,-y,1/2+z
loop_
_atom_site_type_symbol
_atom_site_label
_atom_site_fract_x
_atom_site_fract_y
_atom_site_fract_z
Si Si1 0.178187 0.456280 0.603592
Si Si2 0.818338 0.043695 0.603342
Si Si3 0.307243 0.924205 0.796215
Si Si4 0.811528 0.530131 0.799263
Si Si5 0.000000 0.461671 0.946717
Si Si6 0.500000 0.961592 0.447103
O O1 0.172016 0.249828 0.592236
O O2 0.209020 0.469380 0.657442
O O3 0.335425 0.530705 0.577469
O O4 0.000000 0.533754 0.592654
O O5 0.783103 0.025030 0.656928
O O6 0.665601 0.968196 0.575947
O O7 0.000000 0.967880 0.594760
O O8 0.250000 0.016808 0.750000
O O9 0.500000 0.883582 0.792471
O O10 0.209144 0.741692 0.798880
O O11 0.750000 0.468834 0.750000
O O12 0.000000 0.481364 0.805671
O O13 0.000000 0.249942 0.940400
O O14 0.000000 0.500000 0.000000
O O15 0.500000 0.000000 0.500000
#
# Coordination Sequence:
#
# PCOD9417015 Si02
#       6
#     8   8   8   8   4   4
#     4  10  20  39  59  82 114 149 186 235 282 332
#     4   9  21  38  58  82 113 146 186 231 279 335
#     4  10  20  34  52  81 113 150 188 229 277 330
#     4  11  21  34  53  82 115 152 191 232 276 334
#     4  10  22  40  58  86 114 144 194 234 283 344
#     4  10  22  38  60  84 110 148 186 234 287 332
#
# _framework density 21.788827000000001
#
# number of rings (size 3 to 8) (size 9 to 14) (size 15 to 20)
#    0.000    2.000    1.000    3.600    2.800    3.200 
#    0.000    2.000    0.000    0.000    0.000    0.000 
#    0.000    0.000    0.000    0.000    0.000    0.000 
#
# Total GULP energy -223388.918906 kJ/mol
# GULP energy per Si atom -5584.722973 kJ/mol
# Density = 2.173923 g / cm^3
# Si number density = 21.788827 Si / 1000 Ang^3
#
#
#
# Elastic Constant Matrix: (Units=GPa)
#
#
# Indices 1 2 3 4 5 6 
#
# 1 200.6385 8.0019 100.9987 0.0000 0.0000 0.0000
# 2 8.0019 39.1914 -11.4695 0.0000 0.0000 0.0000
# 3 100.9987 -11.4695 133.2178 0.0000 0.0000 0.0000
# 4 0.0000 0.0000 0.0000 28.6037 0.0000 0.0000
# 5 0.0000 0.0000 0.0000 0.0000 33.2774 0.0000
# 6 0.0000 0.0000 0.0000 0.0000 0.0000 -34.4888
#
#
#
# Elastic Compliance Matrix: (Units=1/GPa)
#
#
# Indices 1 2 3 4 5 6 
#
# 1 0.008564 -0.003743 -0.006815 0.000000 0.000000 0.000000
# 2 -0.003743 0.027811 0.005232 0.000000 0.000000 0.000000
# 3 -0.006815 0.005232 0.013124 0.000000 0.000000 0.000000
# 4 0.000000 0.000000 0.000000 0.034960 0.000000 0.000000
# 5 0.000000 0.000000 0.000000 0.000000 0.030050 0.000000
# 6 0.000000 0.000000 0.000000 0.000000 0.000000 -0.028995
#
#
# Mechanical properties :
#
#
# Convention : Reuss Voigt Hill
#
# Bulk Modulus (GPa) = 25.74178 63.12333 44.43256
# Shear Modulus (GPa) = 45.82296 23.84624 34.83460
#
# Velocity S-wave (km/s) = 4.59088 3.31180 4.00276
# Velocity P-wave (km/s) = 6.31992 6.60738 6.46525
#
# Compressibility (1/GPa) = 0.03884735
#
# Stress axis : x y z
#
# Youngs Moduli (GPa) = 116.76872 35.95665 76.19785
#
# Poissons Ratio (x) = 0.13459 0.51929
# Poissons Ratio (y) = 0.43706 -0.39868
# Poissons Ratio (z) = 0.79578 -0.18813
#
# Static dielectric constant tensor:
#      x y z
#    x 1.838690 0.000000 0.000000 
#    y 0.000000 1.809330 0.000000 
#    z 0.000000 0.000000 1.761690 
# 
# From -- ./inp_files/36080.got.cif
#   From: 2010.05.17/outbox.cif.g08.bks.cpg/sg53_19_cif.got.tgz:36080.got - 2010.06.03 12:45:16.
