data_PCOD9417777
_publ_section_title
;
Structure prediction by ZEFSAII (Michael W. Deem and Ramdas Pophale) SiO2 
 PCOD9417777
Probable space group: P M N A
;
_chemical_formula_sum "Si O2"
_cell_formula_units_Z 40
_cell_length_a 14.583868
_cell_length_b 9.751354
_cell_length_c 13.490158
_cell_angle_alpha 90.000000
_cell_angle_beta 90.000000
_cell_angle_gamma 90.000000
_cell_volume 1918.468549
_symmetry_space_group_name_H-M "P M N A"
_symmetry_group_IT_number 53
_symmetry_cell_setting 'orthorhombic'
loop_
_space_group_symop_operation_xyz
x,y,z
1/2-x,-y,1/2+z
x,-y,-z
1/2-x,y,1/2-z
-x,-y,-z
1/2+x,y,1/2-z
-x,y,z
1/2+x,-y,1/2+z
loop_
_atom_site_type_symbol
_atom_site_label
_atom_site_fract_x
_atom_site_fract_y
_atom_site_fract_z
Si Si1 0.610094 0.982516 0.382722
Si Si2 0.713408 0.351437 0.967283
Si Si3 0.605195 0.763920 0.212893
Si Si4 0.191256 0.267110 0.156034
Si Si5 0.100392 0.455797 0.867073
O O1 0.500000 0.972090 0.386984
O O2 0.638195 0.860996 0.305018
O O3 0.639047 0.000000 0.500000
O O4 0.644777 0.121197 0.332409
O O5 0.661649 0.257626 0.887463
O O6 0.812411 0.394706 0.922944
O O7 0.670399 0.500000 0.000000
O O8 0.737914 0.267743 0.065123
O O9 0.500000 0.804709 0.191252
O O10 0.604841 0.611419 0.259255
O O11 0.250000 0.310466 0.250000
O O12 0.115132 0.382603 0.136306
O O13 0.000000 0.416465 0.907617
#
# Coordination Sequence:
#
# PCOD9417777 Si02
#       5
#     8   8   8   8   8
#     4  10  22  40  61  87 118 154 199 251 310 372
#     4  10  21  37  60  90 122 159 211 263 311 373
#     4  10  21  39  63  90 124 164 205 254 312 380
#     4  11  23  37  56  84 119 157 200 252 307 365
#     4  10  20  36  61  89 117 152 197 255 317 372
#
# _framework density 20.849962999999999
#
# number of rings (size 3 to 8) (size 9 to 14) (size 15 to 20)
#    0.000    1.800    0.000    4.800    0.000    9.600 
#    0.000    2.000    0.000    2.400    0.000    1.400 
#    0.000    0.800    0.000    0.000    0.000    0.000 
#
# Total GULP energy -222948.343942 kJ/mol
# GULP energy per Si atom -5573.708599 kJ/mol
# Density = 2.080251 g / cm^3
# Si number density = 20.849963 Si / 1000 Ang^3
#
#
#
# Elastic Constant Matrix: (Units=GPa)
#
#
# Indices 1 2 3 4 5 6 
#
# 1 61.3599 21.3478 52.7333 0.0000 0.0000 0.0000
# 2 21.3478 104.2390 30.7549 0.0000 0.0000 0.0000
# 3 52.7333 30.7549 128.0958 0.0000 0.0000 0.0000
# 4 0.0000 0.0000 0.0000 34.5257 0.0000 0.0000
# 5 0.0000 0.0000 0.0000 0.0000 22.4114 0.0000
# 6 0.0000 0.0000 0.0000 0.0000 0.0000 14.1936
#
#
#
# Elastic Compliance Matrix: (Units=1/GPa)
#
#
# Indices 1 2 3 4 5 6 
#
# 1 0.025725 -0.002307 -0.010036 0.000000 0.000000 0.000000
# 2 -0.002307 0.010532 -0.001579 0.000000 0.000000 0.000000
# 3 -0.010036 -0.001579 0.012317 0.000000 0.000000 0.000000
# 4 0.000000 0.000000 0.000000 0.028964 0.000000 0.000000
# 5 0.000000 0.000000 0.000000 0.000000 0.044620 0.000000
# 6 0.000000 0.000000 0.000000 0.000000 0.000000 0.070454
#
#
# Mechanical properties :
#
#
# Convention : Reuss Voigt Hill
#
# Bulk Modulus (GPa) = 48.24031 55.92963 52.08497
# Shear Modulus (GPa) = 21.99079 26.81670 24.40374
#
# Velocity S-wave (km/s) = 3.25116 3.59022 3.42489
# Velocity P-wave (km/s) = 6.10578 6.63847 6.37769
#
# Compressibility (1/GPa) = 0.02072955
#
# Stress axis : x y z
#
# Youngs Moduli (GPa) = 38.87204 94.95182 81.18594
#
# Poissons Ratio (x) = 0.21908 0.81482
# Poissons Ratio (y) = 0.08969 0.12817
# Poissons Ratio (z) = 0.39014 0.14990
#
# Static dielectric constant tensor:
#      x y z
#    x 1.753120 0.000000 0.000000 
#    y 0.000000 1.780860 0.000000 
#    z 0.000000 0.000000 1.829900 
# 
# From -- ./inp_files/22458.got.cif
#   From: 2010.05.17/outbox.cif.g08.bks.cpg/sg53_12_cif.got.tgz:22458.got - 2010.06.03 12:45:16.
