data_PCOD9417862
_publ_section_title
;
Structure prediction by ZEFSAII (Michael W. Deem and Ramdas Pophale) SiO2 
 PCOD9417862
Probable space group: P M N A
;
_chemical_formula_sum "Si O2"
_cell_formula_units_Z 48
_cell_length_a 8.628608
_cell_length_b 31.111037
_cell_length_c 9.648447
_cell_angle_alpha 90.000000
_cell_angle_beta 90.000000
_cell_angle_gamma 90.000000
_cell_volume 2590.076803
_symmetry_space_group_name_H-M "P M N A"
_symmetry_group_IT_number 53
_symmetry_cell_setting 'orthorhombic'
loop_
_space_group_symop_operation_xyz
x,y,z
1/2-x,-y,1/2+z
x,-y,-z
1/2-x,y,1/2-z
-x,-y,-z
1/2+x,y,1/2-z
-x,y,z
1/2+x,-y,1/2+z
loop_
_atom_site_type_symbol
_atom_site_label
_atom_site_fract_x
_atom_site_fract_y
_atom_site_fract_z
Si Si1 0.812790 0.959743 0.904780
Si Si2 0.185780 0.540402 0.403650
Si Si3 0.814777 0.632762 0.094093
Si Si4 0.313418 0.117416 0.598781
Si Si5 0.686458 0.216743 0.597414
Si Si6 0.314870 0.290931 0.094746
O O1 0.750000 0.963032 0.750000
O O2 0.000000 0.959769 0.898895
O O3 0.761772 0.916065 0.982107
O O4 0.764720 0.000000 0.000000
O O5 0.223283 0.500000 0.500000
O O6 0.250000 0.532405 0.250000
O O7 0.260252 0.585284 0.451680
O O8 0.000000 0.545601 0.398329
O O9 0.750000 0.639188 0.250000
O O10 0.000000 0.634969 0.097943
O O11 0.748149 0.668784 0.993008
O O12 0.250000 0.105114 0.750000
O O13 0.500000 0.115980 0.605122
O O14 0.268884 0.166934 0.571372
O O15 0.750000 0.228347 0.750000
O O16 0.500000 0.220048 0.597676
O O17 0.756279 0.248401 0.484200
O O18 0.250000 0.292173 0.250000
O O19 0.500000 0.291801 0.097067
#
# Coordination Sequence:
#
# PCOD9417862 Si02
#       6
#     8   8   8   8   8   8
#     4  10  21  36  54  79 110 144 184 228 275 328
#     4  10  21  37  58  85 116 150 190 234 280 332
#     4  11  22  39  62  86 114 150 191 233 279 333
#     4   9  19  35  56  82 111 143 182 227 272 325
#     4  10  20  37  59  84 113 147 187 228 275 331
#     4  12  25  41  59  83 114 147 186 232 284 335
#
# _framework density 18.532268999999999
#
# number of rings (size 3 to 8) (size 9 to 14) (size 15 to 20)
#    0.000    1.667    0.000    6.000    0.000    4.333 
#    0.000    3.333    0.000    0.000    0.000    0.000 
#    0.000    0.000    0.000    0.000    0.000    0.000 
#
# Total GULP energy -268275.817483 kJ/mol
# GULP energy per Si atom -5589.079531 kJ/mol
# Density = 1.849009 g / cm^3
# Si number density = 18.532269 Si / 1000 Ang^3
#
#
#
# Elastic Constant Matrix: (Units=GPa)
#
#
# Indices 1 2 3 4 5 6 
#
# 1 97.1269 57.8406 56.1074 0.0000 0.0000 0.0000
# 2 57.8406 135.6553 115.9786 0.0000 0.0000 0.0000
# 3 56.1074 115.9786 154.5891 0.0000 0.0000 0.0000
# 4 0.0000 0.0000 0.0000 34.7731 0.0000 0.0000
# 5 0.0000 0.0000 0.0000 0.0000 35.6754 0.0000
# 6 0.0000 0.0000 0.0000 0.0000 0.0000 33.5693
#
#
#
# Elastic Compliance Matrix: (Units=1/GPa)
#
#
# Indices 1 2 3 4 5 6 
#
# 1 0.013954 -0.004517 -0.001676 0.000000 0.000000 0.000000
# 2 -0.004517 0.022020 -0.014881 0.000000 0.000000 0.000000
# 3 -0.001676 -0.014881 0.018241 0.000000 0.000000 0.000000
# 4 0.000000 0.000000 0.000000 0.028758 0.000000 0.000000
# 5 0.000000 0.000000 0.000000 0.000000 0.028031 0.000000
# 6 0.000000 0.000000 0.000000 0.000000 0.000000 0.029789
#
#
# Mechanical properties :
#
#
# Convention : Reuss Voigt Hill
#
# Bulk Modulus (GPa) = 82.86440 94.13607 88.50024
# Shear Modulus (GPa) = 26.74349 31.29985 29.02167
#
# Velocity S-wave (km/s) = 3.80291 4.11413 3.96157
# Velocity P-wave (km/s) = 8.00584 8.57170 8.29360
#
# Compressibility (1/GPa) = 0.01206791
#
# Stress axis : x y z
#
# Youngs Moduli (GPa) = 71.66555 45.41356 54.82163
#
# Poissons Ratio (x) = 0.20513 0.09186
# Poissons Ratio (y) = 0.32372 0.81578
# Poissons Ratio (z) = 0.12008 0.67579
#
# Static dielectric constant tensor:
#      x y z
#    x 1.623260 0.000000 0.000000 
#    y 0.000000 1.643190 0.000000 
#    z 0.000000 0.000000 1.594830 
# 
# From -- ./inp_files/6611.got.cif
#   From: 2010.05.17/outbox.cif.g08.bks.cpg/sg53_4_cif.got.tgz:6611.got - 2010.06.03 12:45:16.
