data_PCOD9417236
_publ_section_title
;
Structure prediction by ZEFSAII (Michael W. Deem and Ramdas Pophale) SiO2 
 PCOD9417236
Probable space group: P M N A
;
_chemical_formula_sum "Si O2"
_cell_formula_units_Z 44
_cell_length_a 9.380076
_cell_length_b 18.725791
_cell_length_c 13.709886
_cell_angle_alpha 90.000000
_cell_angle_beta 90.000000
_cell_angle_gamma 90.000000
_cell_volume 2408.132465
_symmetry_space_group_name_H-M "P M N A"
_symmetry_group_IT_number 53
_symmetry_cell_setting 'orthorhombic'
loop_
_space_group_symop_operation_xyz
x,y,z
1/2-x,-y,1/2+z
x,-y,-z
1/2-x,y,1/2-z
-x,-y,-z
1/2+x,y,1/2-z
-x,y,z
1/2+x,-y,1/2+z
loop_
_atom_site_type_symbol
_atom_site_label
_atom_site_fract_x
_atom_site_fract_y
_atom_site_fract_z
Si Si1 0.670151 0.267604 0.652752
Si Si2 0.250000 0.006051 0.750000
Si Si3 0.662579 0.128195 0.899417
Si Si4 0.668376 0.471833 0.152019
Si Si5 0.169846 0.617252 0.460559
Si Si6 0.652923 0.072140 0.436554
O O1 0.750000 0.294585 0.750000
O O2 0.500000 0.270511 0.661589
O O3 0.726561 0.187244 0.637709
O O4 0.732345 0.316408 0.566752
O O5 0.171287 0.060082 0.674132
O O6 0.329926 0.953871 0.674361
O O7 0.500000 0.154401 0.898379
O O8 0.715666 0.110199 0.009262
O O9 0.750000 0.456548 0.250000
O O10 0.500000 0.472054 0.169694
O O11 0.703874 0.550432 0.110327
O O12 0.696092 0.414067 0.067870
O O13 0.000000 0.633462 0.450954
O O14 0.500000 0.110689 0.448341
O O15 0.643150 0.000000 0.500000
#
# Coordination Sequence:
#
# PCOD9417236 Si02
#       6
#     8   4   8   8   8   8
#     4  12  24  37  56  81 111 146 182 226 278 332
#     4  10  20  34  60  84 110 144 184 218 274 328
#     4  11  22  36  56  82 111 146 184 224 274 332
#     4   9  18  33  56  83 114 149 187 230 275 321
#     4   9  19  36  55  81 115 150 186 228 274 325
#     4   9  19  34  53  79 110 140 176 223 267 318
#
# _framework density 18.271421
#
# number of rings (size 3 to 8) (size 9 to 14) (size 15 to 20)
#    0.000    2.000    0.909    4.364    0.000    8.364 
#    0.000    1.818    2.000    0.000    0.000    0.000 
#    0.000    0.000    0.000    0.000    0.000    0.000 
#
# Total GULP energy -245184.861907 kJ/mol
# GULP energy per Si atom -5572.383225 kJ/mol
# Density = 1.822983 g / cm^3
# Si number density = 18.271421 Si / 1000 Ang^3
#
#
#
# Elastic Constant Matrix: (Units=GPa)
#
#
# Indices 1 2 3 4 5 6 
#
# 1 104.5329 26.5770 46.0322 0.0000 0.0000 0.0000
# 2 26.5770 35.3114 24.3211 0.0000 0.0000 0.0000
# 3 46.0322 24.3211 101.2252 0.0000 0.0000 0.0000
# 4 0.0000 0.0000 0.0000 11.7877 0.0000 0.0000
# 5 0.0000 0.0000 0.0000 0.0000 16.4768 0.0000
# 6 0.0000 0.0000 0.0000 0.0000 0.0000 207.1136
#
#
#
# Elastic Compliance Matrix: (Units=1/GPa)
#
#
# Indices 1 2 3 4 5 6 
#
# 1 0.013258 -0.006981 -0.004352 0.000000 0.000000 0.000000
# 2 -0.006981 0.037611 -0.005862 0.000000 0.000000 0.000000
# 3 -0.004352 -0.005862 0.013266 0.000000 0.000000 0.000000
# 4 0.000000 0.000000 0.000000 0.084834 0.000000 0.000000
# 5 0.000000 0.000000 0.000000 0.000000 0.060691 0.000000
# 6 0.000000 0.000000 0.000000 0.000000 0.000000 0.004828
#
#
# Mechanical properties :
#
#
# Convention : Reuss Voigt Hill
#
# Bulk Modulus (GPa) = 33.61833 48.32557 40.97195
# Shear Modulus (GPa) = 19.32041 56.68489 38.00265
#
# Velocity S-wave (km/s) = 3.25531 5.57594 4.56553
# Velocity P-wave (km/s) = 5.70691 8.24385 7.08977
#
# Compressibility (1/GPa) = 0.02974568
#
# Stress axis : x y z
#
# Youngs Moduli (GPa) = 75.42893 26.58774 75.37891
#
# Poissons Ratio (x) = 0.18561 0.32801
# Poissons Ratio (y) = 0.52657 0.44188
# Poissons Ratio (z) = 0.32823 0.15586
#
# Static dielectric constant tensor:
#      x y z
#    x 1.647710 0.000000 0.000000 
#    y 0.000000 1.638850 0.000000 
#    z 0.000000 0.000000 1.641140 
# 
# From -- ./inp_files/20061.got.cif
#   From: 2010.05.17/outbox.cif.g08.bks.cpg/sg53_11_cif.got.tgz:20061.got - 2010.06.03 12:45:16.
