data_PCOD9417893
_publ_section_title
;
Structure prediction by ZEFSAII (Michael W. Deem and Ramdas Pophale) SiO2 
 PCOD9417893
Probable space group: P M N A
;
_chemical_formula_sum "Si O2"
_cell_formula_units_Z 40
_cell_length_a 8.818400
_cell_length_b 12.779087
_cell_length_c 18.393178
_cell_angle_alpha 90.000000
_cell_angle_beta 90.000000
_cell_angle_gamma 90.000000
_cell_volume 2072.747476
_symmetry_space_group_name_H-M "P M N A"
_symmetry_group_IT_number 53
_symmetry_cell_setting 'orthorhombic'
loop_
_space_group_symop_operation_xyz
x,y,z
1/2-x,-y,1/2+z
x,-y,-z
1/2-x,y,1/2-z
-x,-y,-z
1/2+x,y,1/2-z
-x,y,z
1/2+x,-y,1/2+z
loop_
_atom_site_type_symbol
_atom_site_label
_atom_site_fract_x
_atom_site_fract_y
_atom_site_fract_z
Si Si1 0.317748 0.172997 0.438053
Si Si2 0.317946 0.402797 0.670218
Si Si3 0.181073 0.013224 0.826566
Si Si4 0.319638 0.207789 0.905565
Si Si5 0.818061 0.356179 0.171173
O O1 0.500000 0.176762 0.450761
O O2 0.234193 0.173867 0.514532
O O3 0.272248 0.273717 0.390085
O O4 0.285977 0.070990 0.389537
O O5 0.250000 0.380318 0.750000
O O6 0.500000 0.393355 0.672180
O O7 0.249339 0.320461 0.614282
O O8 0.278232 0.523635 0.652964
O O9 0.250000 0.977745 0.750000
O O10 0.252986 0.123361 0.849283
O O11 0.000000 0.022969 0.820262
O O12 0.500000 0.210349 0.900547
O O13 0.750000 0.330679 0.250000
O O14 0.000000 0.350394 0.177341
#
# Coordination Sequence:
#
# PCOD9417893 Si02
#       5
#     8   8   8   8   8
#     4  10  22  40  60  85 117 151 186 228 284 341
#     4  10  20  37  60  85 115 150 190 234 281 334
#     4  11  23  40  63  87 114 148 187 232 281 338
#     4  12  25  39  57  83 116 152 192 237 283 332
#     4   9  19  36  60  87 115 149 188 232 280 335
#
# _framework density 19.298058999999999
#
# number of rings (size 3 to 8) (size 9 to 14) (size 15 to 20)
#    0.000    1.600    0.000    4.800    0.000    6.400 
#    0.000    4.000    0.000    0.000    0.000    0.000 
#    0.000    0.000    0.000    0.000    0.000    0.000 
#
# Total GULP energy -223665.906260 kJ/mol
# GULP energy per Si atom -5591.647656 kJ/mol
# Density = 1.925414 g / cm^3
# Si number density = 19.298059 Si / 1000 Ang^3
#
#
#
# Elastic Constant Matrix: (Units=GPa)
#
#
# Indices 1 2 3 4 5 6 
#
# 1 54.7301 26.6319 21.2982 0.0000 0.0000 0.0000
# 2 26.6319 58.2244 11.1331 0.0000 0.0000 0.0000
# 3 21.2982 11.1331 47.1299 0.0000 0.0000 0.0000
# 4 0.0000 0.0000 0.0000 34.4531 0.0000 0.0000
# 5 0.0000 0.0000 0.0000 0.0000 36.0610 0.0000
# 6 0.0000 0.0000 0.0000 0.0000 0.0000 16.6430
#
#
#
# Elastic Compliance Matrix: (Units=1/GPa)
#
#
# Indices 1 2 3 4 5 6 
#
# 1 0.027239 -0.010583 -0.009809 0.000000 0.000000 0.000000
# 2 -0.010583 0.022099 -0.000438 0.000000 0.000000 0.000000
# 3 -0.009809 -0.000438 0.025754 0.000000 0.000000 0.000000
# 4 0.000000 0.000000 0.000000 0.029025 0.000000 0.000000
# 5 0.000000 0.000000 0.000000 0.000000 0.027731 0.000000
# 6 0.000000 0.000000 0.000000 0.000000 0.000000 0.060085
#
#
# Mechanical properties :
#
#
# Convention : Reuss Voigt Hill
#
# Bulk Modulus (GPa) = 29.91176 30.91233 30.41205
# Shear Modulus (GPa) = 20.43003 24.16617 22.29810
#
# Velocity S-wave (km/s) = 3.25723 3.54257 3.40289
# Velocity P-wave (km/s) = 5.44790 5.72592 5.58864
#
# Compressibility (1/GPa) = 0.03343166
#
# Stress axis : x y z
#
# Youngs Moduli (GPa) = 36.71257 45.25001 38.82864
#
# Poissons Ratio (x) = 0.47890 0.38088
# Poissons Ratio (y) = 0.38854 0.01700
# Poissons Ratio (z) = 0.36012 0.01981
#
# Static dielectric constant tensor:
#      x y z
#    x 1.640850 0.000000 0.000000 
#    y 0.000000 1.673540 0.000000 
#    z 0.000000 0.000000 1.643910 
# 
# From -- ./inp_files/25817.got.cif
#   From: 2010.05.17/outbox.cif.g08.bks.cpg/sg53_13_cif.got.tgz:25817.got - 2010.06.03 12:45:16.
