data_PCOD9417401
_publ_section_title
;
Structure prediction by ZEFSAII (Michael W. Deem and Ramdas Pophale) SiO2 
 PCOD9417401
Probable space group: P M N A
;
_chemical_formula_sum "Si O2"
_cell_formula_units_Z 48
_cell_length_a 7.538136
_cell_length_b 10.293706
_cell_length_c 29.699088
_cell_angle_alpha 90.000000
_cell_angle_beta 90.000000
_cell_angle_gamma 90.000000
_cell_volume 2304.511299
_symmetry_space_group_name_H-M "P M N A"
_symmetry_group_IT_number 53
_symmetry_cell_setting 'orthorhombic'
loop_
_space_group_symop_operation_xyz
x,y,z
1/2-x,-y,1/2+z
x,-y,-z
1/2-x,y,1/2-z
-x,-y,-z
1/2+x,y,1/2-z
-x,y,z
1/2+x,-y,1/2+z
loop_
_atom_site_type_symbol
_atom_site_label
_atom_site_fract_x
_atom_site_fract_y
_atom_site_fract_z
Si Si1 0.212588 0.030553 0.302211
Si Si2 0.794384 0.521274 0.368771
Si Si3 0.781896 0.772754 0.620299
Si Si4 0.787022 0.262425 0.697930
Si Si5 0.289447 0.869468 0.977393
Si Si6 0.712413 0.385823 0.533247
O O1 0.250000 0.063079 0.250000
O O2 0.275345 0.135007 0.338653
O O3 0.000000 0.026378 0.306571
O O4 0.280494 0.883979 0.311323
O O5 0.720056 0.375662 0.372883
O O6 0.714927 0.623150 0.333436
O O7 0.786532 0.587814 0.417502
O O8 0.000000 0.503257 0.355640
O O9 0.721436 0.828591 0.571981
O O10 0.000000 0.770656 0.619255
O O11 0.750000 0.290301 0.750000
O O12 0.000000 0.257316 0.691416
O O13 0.500000 0.889812 0.971280
O O14 0.262849 0.750367 0.011336
O O15 0.215557 0.000000 0.000000
O O16 0.774690 0.500000 0.500000
O O17 0.500000 0.393084 0.536344
#
# Coordination Sequence:
#
# PCOD9417401 Si02
#       6
#     8   8   8   8   8   8
#     4   9  18  34  53  75 105 137 173 217 268 321
#     4  10  20  35  57  81 105 142 186 226 269 319
#     4   9  18  33  53  79 107 135 175 226 267 311
#     4   9  19  34  55  79 106 138 176 222 270 324
#     4  10  21  36  59  85 108 142 187 230 273 325
#     4  11  23  38  55  79 115 151 181 222 277 329
#
# _framework density 20.828711999999999
#
# number of rings (size 3 to 8) (size 9 to 14) (size 15 to 20)
#    0.000    2.333    1.667    0.500    2.333    2.333 
#    0.000    1.667    0.000    0.000    0.000    0.000 
#    0.000    0.000    0.000    0.000    0.000    0.000 
#
# Total GULP energy -267996.866124 kJ/mol
# GULP energy per Si atom -5583.268044 kJ/mol
# Density = 2.078131 g / cm^3
# Si number density = 20.828712 Si / 1000 Ang^3
#
#
#
# Elastic Constant Matrix: (Units=GPa)
#
#
# Indices 1 2 3 4 5 6 
#
# 1 55.9734 -0.1656 -16.9186 0.0000 0.0000 0.0000
# 2 -0.1656 220.3205 138.6052 0.0000 0.0000 0.0000
# 3 -16.9186 138.6052 178.0448 0.0000 0.0000 0.0000
# 4 0.0000 0.0000 0.0000 39.0531 0.0000 0.0000
# 5 0.0000 0.0000 0.0000 0.0000 18.0160 0.0000
# 6 0.0000 0.0000 0.0000 0.0000 0.0000 -19.4844
#
#
#
# Elastic Compliance Matrix: (Units=1/GPa)
#
#
# Indices 1 2 3 4 5 6 
#
# 1 0.018917 -0.002188 0.003501 0.000000 0.000000 0.000000
# 2 -0.002188 0.009149 -0.007330 0.000000 0.000000 0.000000
# 3 0.003501 -0.007330 0.011656 0.000000 0.000000 0.000000
# 4 0.000000 0.000000 0.000000 0.025606 0.000000 0.000000
# 5 0.000000 0.000000 0.000000 0.000000 0.055506 0.000000
# 6 0.000000 0.000000 0.000000 0.000000 0.000000 -0.051323
#
#
# Mechanical properties :
#
#
# Convention : Reuss Voigt Hill
#
# Bulk Modulus (GPa) = 36.11766 77.48674 56.80220
# Shear Modulus (GPa) = 55.08191 29.70480 42.39335
#
# Velocity S-wave (km/s) = 5.14807 3.78053 4.51636
# Velocity P-wave (km/s) = 7.26049 7.50595 7.38424
#
# Compressibility (1/GPa) = 0.02768728
#
# Stress axis : x y z
#
# Youngs Moduli (GPa) = 52.86123 109.30738 85.79629
#
# Poissons Ratio (x) = 0.23922 -0.30040
# Poissons Ratio (y) = 0.11569 0.62888
# Poissons Ratio (z) = -0.18508 0.80122
#
# Static dielectric constant tensor:
#      x y z
#    x 1.791100 0.000000 0.000000 
#    y 0.000000 1.740250 0.000000 
#    z 0.000000 0.000000 1.690360 
# 
# From -- ./inp_files/37728.got.cif
#   From: 2010.05.17/outbox.cif.g08.bks.cpg/sg53_19_cif.got.tgz:37728.got - 2010.06.03 12:45:16.
