data_PCOD9417776
_publ_section_title
;
Structure prediction by ZEFSAII (Michael W. Deem and Ramdas Pophale) SiO2 
 PCOD9417776
Probable space group: P M N A
;
_chemical_formula_sum "Si O2"
_cell_formula_units_Z 64
_cell_length_a 9.113514
_cell_length_b 12.239916
_cell_length_c 31.955210
_cell_angle_alpha 90.000000
_cell_angle_beta 90.000000
_cell_angle_gamma 90.000000
_cell_volume 3564.560403
_symmetry_space_group_name_H-M "P M N A"
_symmetry_group_IT_number 53
_symmetry_cell_setting 'orthorhombic'
loop_
_space_group_symop_operation_xyz
x,y,z
1/2-x,-y,1/2+z
x,-y,-z
1/2-x,y,1/2-z
-x,-y,-z
1/2+x,y,1/2-z
-x,y,z
1/2+x,-y,1/2+z
loop_
_atom_site_type_symbol
_atom_site_label
_atom_site_fract_x
_atom_site_fract_y
_atom_site_fract_z
Si Si1 0.826046 0.752638 0.946337
Si Si2 0.825298 0.256411 0.293439
Si Si3 0.176060 0.998111 0.706097
Si Si4 0.829453 0.378101 0.518942
Si Si5 0.676340 0.019971 0.049080
Si Si6 0.324452 0.365140 0.608113
Si Si7 0.176508 0.859741 0.375200
Si Si8 0.826469 0.394326 0.135540
O O1 0.758208 0.870539 0.936444
O O2 0.803579 0.667555 0.908519
O O3 0.000000 0.761234 0.954135
O O4 0.742380 0.704994 0.986370
O O5 0.750000 0.288014 0.250000
O O6 0.786049 0.129215 0.301548
O O7 0.766325 0.332161 0.329994
O O8 0.000000 0.263394 0.289966
O O9 0.250000 0.031742 0.750000
O O10 0.000000 0.005116 0.710891
O O11 0.217122 0.067678 0.665244
O O12 0.822610 0.500000 0.500000
O O13 0.740720 0.375194 0.561697
O O14 0.000000 0.349645 0.526124
O O15 0.500000 0.035713 0.051615
O O16 0.714175 0.922303 0.081265
O O17 0.712541 0.000000 0.000000
O O18 0.500000 0.356393 0.606476
O O19 0.254379 0.256673 0.627198
O O20 0.287398 0.478413 0.631278
O O21 0.000000 0.846099 0.375128
O O22 0.000000 0.386134 0.145259
#
# Coordination Sequence:
#
# PCOD9417776 Si02
#       8
#     8   8   8   8   8   8   8   8
#     4  11  22  36  57  83 113 146 186 237 286 334
#     4  10  20  36  61  89 116 146 180 224 281 340
#     4   9  19  36  59  87 116 146 184 235 287 341
#     4  11  22  36  56  81 110 149 195 236 279 336
#     4  10  21  37  56  80 114 151 189 237 288 343
#     4  11  23  39  58  81 115 153 191 236 284 335
#     4  10  21  38  58  83 117 153 193 239 290 345
#     4  10  22  38  55  81 115 147 182 229 280 330
#
# _framework density 17.954526999999999
#
# number of rings (size 3 to 8) (size 9 to 14) (size 15 to 20)
#    0.000    1.750    1.250    3.000    0.000    6.250 
#    0.000    0.625    0.000    1.500    0.000    0.000 
#    0.000    0.000    0.000    0.000    0.000    0.000 
#
# Total GULP energy -357523.156347 kJ/mol
# GULP energy per Si atom -5586.299318 kJ/mol
# Density = 1.791366 g / cm^3
# Si number density = 17.954527 Si / 1000 Ang^3
#
#
#
# Elastic Constant Matrix: (Units=GPa)
#
#
# Indices 1 2 3 4 5 6 
#
# 1 39.3337 50.6083 45.2116 0.0000 0.0000 0.0000
# 2 50.6083 110.3917 52.6806 0.0000 0.0000 0.0000
# 3 45.2116 52.6806 106.1290 0.0000 0.0000 0.0000
# 4 0.0000 0.0000 0.0000 28.4793 0.0000 0.0000
# 5 0.0000 0.0000 0.0000 0.0000 31.9860 0.0000
# 6 0.0000 0.0000 0.0000 0.0000 0.0000 32.5277
#
#
#
# Elastic Compliance Matrix: (Units=1/GPa)
#
#
# Indices 1 2 3 4 5 6 
#
# 1 0.093843 -0.031376 -0.024403 0.000000 0.000000 0.000000
# 2 -0.031376 0.022361 0.002267 0.000000 0.000000 0.000000
# 3 -0.024403 0.002267 0.018693 0.000000 0.000000 0.000000
# 4 0.000000 0.000000 0.000000 0.035113 0.000000 0.000000
# 5 0.000000 0.000000 0.000000 0.000000 0.031264 0.000000
# 6 0.000000 0.000000 0.000000 0.000000 0.000000 0.030743
#
#
# Mechanical properties :
#
#
# Convention : Reuss Voigt Hill
#
# Bulk Modulus (GPa) = 35.87780 61.42836 48.65308
# Shear Modulus (GPa) = 14.35405 25.75554 20.05479
#
# Velocity S-wave (km/s) = 2.83055 3.79157 3.34575
# Velocity P-wave (km/s) = 5.54154 7.31133 6.48707
#
# Compressibility (1/GPa) = 0.02787239
#
# Stress axis : x y z
#
# Youngs Moduli (GPa) = 10.65605 44.72057 53.49529
#
# Poissons Ratio (x) = 1.40316 1.30546
# Poissons Ratio (y) = 0.33435 -0.12126
# Poissons Ratio (z) = 0.26004 -0.10137
#
# Static dielectric constant tensor:
#      x y z
#    x 1.593490 0.000000 0.000000 
#    y 0.000000 1.615200 0.000000 
#    z 0.000000 0.000000 1.556120 
# 
# From -- ./inp_files/38111.got.cif
#   From: 2010.05.17/outbox.cif.g08.bks.cpg/sg53_20_cif.got.tgz:38111.got - 2010.06.03 12:45:16.
