data_PCOD9417557
_publ_section_title
;
Structure prediction by ZEFSAII (Michael W. Deem and Ramdas Pophale) SiO2 
 PCOD9417557
Probable space group: P M N A
;
_chemical_formula_sum "Si O2"
_cell_formula_units_Z 64
_cell_length_a 23.002701
_cell_length_b 5.102048
_cell_length_c 26.415337
_cell_angle_alpha 90.000000
_cell_angle_beta 90.000000
_cell_angle_gamma 90.000000
_cell_volume 3100.127318
_symmetry_space_group_name_H-M "P M N A"
_symmetry_group_IT_number 53
_symmetry_cell_setting 'orthorhombic'
loop_
_space_group_symop_operation_xyz
x,y,z
1/2-x,-y,1/2+z
x,-y,-z
1/2-x,y,1/2-z
-x,-y,-z
1/2+x,y,1/2-z
-x,y,z
1/2+x,-y,1/2+z
loop_
_atom_site_type_symbol
_atom_site_label
_atom_site_fract_x
_atom_site_fract_y
_atom_site_fract_z
Si Si1 0.190488 0.680131 0.135828
Si Si2 0.872429 0.120734 0.320696
Si Si3 0.235179 0.757628 0.465416
Si Si4 0.739729 0.171342 0.309846
Si Si5 0.434911 0.225018 0.654233
Si Si6 0.065114 0.725195 0.778083
Si Si7 0.934638 0.381723 0.643013
Si Si8 0.901409 0.758518 0.466419
O O1 0.228997 0.723244 0.085930
O O2 0.206334 0.407392 0.162766
O O3 0.122327 0.707231 0.122601
O O4 0.206526 0.904690 0.176523
O O5 0.804784 0.147746 0.332272
O O6 0.887509 0.213143 0.263916
O O7 0.908299 0.327176 0.354553
O O8 0.894657 0.825188 0.327217
O O9 0.239237 0.500000 0.500000
O O10 0.166916 0.802199 0.453296
O O11 0.255245 0.000000 0.500000
O O12 0.750000 0.209273 0.250000
O O13 0.500000 0.256828 0.632004
O O14 0.431491 0.432085 0.700700
O O15 0.430007 0.932429 0.676313
O O16 0.000000 0.767057 0.756347
O O17 0.933983 0.282960 0.585699
O O18 0.000000 0.378295 0.663448
O O19 0.905472 0.500000 0.500000
O O20 0.921958 0.000000 0.500000
#
# Coordination Sequence:
#
# PCOD9417557 Si02
#       8
#     8   8   8   8   8   8   8   8
#     4  12  23  40  62  89 122 155 195 244 297 351
#     4  12  23  39  56  80 118 151 189 239 287 332
#     4  10  21  38  61  87 113 149 197 244 295 352
#     4  12  25  39  60  90 124 161 198 241 297 357
#     4  10  21  37  59  85 115 152 192 229 274 339
#     4  10  20  36  56  79 112 157 199 231 269 328
#     4  12  25  39  58  84 111 149 195 236 288 344
#     4  10  21  38  58  78 105 140 183 236 288 339
#
# _framework density 20.644311999999999
#
# number of rings (size 3 to 8) (size 9 to 14) (size 15 to 20)
#    0.000    1.000    0.000    8.250    0.000    3.500 
#    0.000    0.000    0.000    0.750    0.000    0.000 
#    0.000    0.000    0.000    0.000    0.000    0.000 
#
# Total GULP energy -358099.918693 kJ/mol
# GULP energy per Si atom -5595.311230 kJ/mol
# Density = 2.059732 g / cm^3
# Si number density = 20.644312 Si / 1000 Ang^3
#
#
#
# Elastic Constant Matrix: (Units=GPa)
#
#
# Indices 1 2 3 4 5 6 
#
# 1 114.0557 13.4263 3.7989 0.0000 0.0000 0.0000
# 2 13.4263 72.4419 -3.5157 0.0000 0.0000 0.0000
# 3 3.7989 -3.5157 50.3661 0.0000 0.0000 0.0000
# 4 0.0000 0.0000 0.0000 20.9267 0.0000 0.0000
# 5 0.0000 0.0000 0.0000 0.0000 17.6280 0.0000
# 6 0.0000 0.0000 0.0000 0.0000 0.0000 -7.7684
#
#
#
# Elastic Compliance Matrix: (Units=1/GPa)
#
#
# Indices 1 2 3 4 5 6 
#
# 1 0.008995 -0.001706 -0.000798 0.000000 0.000000 0.000000
# 2 -0.001706 0.014175 0.001118 0.000000 0.000000 0.000000
# 3 -0.000798 0.001118 0.019993 0.000000 0.000000 0.000000
# 4 0.000000 0.000000 0.000000 0.047786 0.000000 0.000000
# 5 0.000000 0.000000 0.000000 0.000000 0.056728 0.000000
# 6 0.000000 0.000000 0.000000 0.000000 0.000000 -0.128726
#
#
# Mechanical properties :
#
#
# Convention : Reuss Voigt Hill
#
# Bulk Modulus (GPa) = 24.75746 29.36476 27.06111
# Shear Modulus (GPa) = 142.10824 21.03419 81.57121
#
# Velocity S-wave (km/s) = 8.30578 3.19546 6.29273
# Velocity P-wave (km/s) = 10.19802 5.27917 8.12002
#
# Compressibility (1/GPa) = 0.04039187
#
# Stress axis : x y z
#
# Youngs Moduli (GPa) = 111.17268 70.54884 50.01792
#
# Poissons Ratio (x) = 0.12034 0.03989
# Poissons Ratio (y) = 0.18964 -0.05592
# Poissons Ratio (z) = 0.08866 -0.07888
#
# Static dielectric constant tensor:
#      x y z
#    x 1.796450 0.000000 0.000000 
#    y 0.000000 1.718000 0.000000 
#    z 0.000000 0.000000 1.714290 
# 
# From -- ./inp_files/35728.got.cif
#   From: 2010.05.17/outbox.cif.g08.bks.cpg/sg53_18_cif.got.tgz:35728.got - 2010.06.03 12:45:16.
