data_PCOD9417877
_publ_section_title
;
Structure prediction by ZEFSAII (Michael W. Deem and Ramdas Pophale) SiO2 
 PCOD9417877
Probable space group: P M N A
;
_chemical_formula_sum "Si O2"
_cell_formula_units_Z 48
_cell_length_a 8.667122
_cell_length_b 31.543405
_cell_length_c 9.264727
_cell_angle_alpha 90.000000
_cell_angle_beta 90.000000
_cell_angle_gamma 90.000000
_cell_volume 2532.888712
_symmetry_space_group_name_H-M "P M N A"
_symmetry_group_IT_number 53
_symmetry_cell_setting 'orthorhombic'
loop_
_space_group_symop_operation_xyz
x,y,z
1/2-x,-y,1/2+z
x,-y,-z
1/2-x,y,1/2-z
-x,-y,-z
1/2+x,y,1/2-z
-x,y,z
1/2+x,-y,1/2+z
loop_
_atom_site_type_symbol
_atom_site_label
_atom_site_fract_x
_atom_site_fract_y
_atom_site_fract_z
Si Si1 0.685527 0.122173 0.588275
Si Si2 0.315045 0.457677 0.410401
Si Si3 0.814162 0.711753 0.088803
Si Si4 0.314141 0.794512 0.589364
Si Si5 0.315559 0.379268 0.911392
Si Si6 0.685121 0.957445 0.911762
O O1 0.750000 0.120492 0.750000
O O2 0.500000 0.120743 0.593147
O O3 0.733835 0.165705 0.509149
O O4 0.746985 0.082786 0.495721
O O5 0.276252 0.500000 0.500000
O O6 0.250000 0.461602 0.250000
O O7 0.500000 0.453428 0.407037
O O8 0.243116 0.416879 0.487925
O O9 0.750000 0.719293 0.250000
O O10 0.747729 0.666521 0.039548
O O11 0.000000 0.709415 0.095057
O O12 0.767570 0.750460 0.986048
O O13 0.250000 0.798344 0.750000
O O14 0.500000 0.794953 0.596167
O O15 0.250000 0.386061 0.750000
O O16 0.500000 0.378352 0.905958
O O17 0.750000 0.959489 0.750000
O O18 0.500000 0.954017 0.906235
O O19 0.725378 0.000000 0.000000
#
# Coordination Sequence:
#
# PCOD9417877 Si02
#       6
#     8   8   8   8   8   8
#     4  11  23  40  62  89 119 154 197 243 295 351
#     4  11  24  41  62  88 118 153 194 239 289 346
#     4  10  20  37  59  85 116 151 194 239 287 344
#     4  10  23  39  58  85 117 153 193 240 291 347
#     4  11  22  38  61  88 119 155 195 240 291 345
#     4  11  24  41  62  89 121 157 197 242 292 347
#
# _framework density 18.950693000000001
#
# number of rings (size 3 to 8) (size 9 to 14) (size 15 to 20)
#    0.000    1.333    0.000    6.500    0.000   10.000 
#    0.000    1.667    0.000    0.000    0.000    0.000 
#    0.000    0.000    0.000    0.000    0.000    0.000 
#
# Total GULP energy -268495.175651 kJ/mol
# GULP energy per Si atom -5593.649493 kJ/mol
# Density = 1.890756 g / cm^3
# Si number density = 18.950693 Si / 1000 Ang^3
#
#
#
# Elastic Constant Matrix: (Units=GPa)
#
#
# Indices 1 2 3 4 5 6 
#
# 1 84.3013 76.5952 63.4265 0.0000 0.0000 0.0000
# 2 76.5952 196.3748 131.6780 0.0000 0.0000 0.0000
# 3 63.4265 131.6780 177.5393 0.0000 0.0000 0.0000
# 4 0.0000 0.0000 0.0000 2900.5573 0.0000 0.0000
# 5 0.0000 0.0000 0.0000 0.0000 38.6062 0.0000
# 6 0.0000 0.0000 0.0000 0.0000 0.0000 103.4542
#
#
#
# Elastic Compliance Matrix: (Units=1/GPa)
#
#
# Indices 1 2 3 4 5 6 
#
# 1 0.018941 -0.005671 -0.002561 0.000000 0.000000 0.000000
# 2 -0.005671 0.011828 -0.006747 0.000000 0.000000 0.000000
# 3 -0.002561 -0.006747 0.011552 0.000000 0.000000 0.000000
# 4 0.000000 0.000000 0.000000 0.000345 0.000000 0.000000
# 5 0.000000 0.000000 0.000000 0.000000 0.025903 0.000000
# 6 0.000000 0.000000 0.000000 0.000000 0.000000 0.009666
#
#
# Mechanical properties :
#
#
# Convention : Reuss Voigt Hill
#
# Bulk Modulus (GPa) = 80.88060 111.29054 96.08557
# Shear Modulus (GPa) = 44.51828 620.95794 332.73811
#
# Velocity S-wave (km/s) = 4.85208 18.12130 13.26507
# Velocity P-wave (km/s) = 8.61176 22.28668 16.89465
#
# Compressibility (1/GPa) = 0.01236390
#
# Stress axis : x y z
#
# Youngs Moduli (GPa) = 52.79432 84.54302 86.56830
#
# Poissons Ratio (x) = 0.47943 0.22170
# Poissons Ratio (y) = 0.29939 0.58407
# Poissons Ratio (z) = 0.13520 0.57041
#
# Static dielectric constant tensor:
#      x y z
#    x 1.637450 0.000000 0.000000 
#    y 0.000000 1.643230 0.000000 
#    z 0.000000 0.000000 1.615010 
# 
# From -- ./inp_files/6624.got.cif
#   From: 2010.05.17/outbox.cif.g08.bks.cpg/sg53_4_cif.got.tgz:6624.got - 2010.06.03 12:45:16.
