data_PCOD9417605
_publ_section_title
;
Structure prediction by ZEFSAII (Michael W. Deem and Ramdas Pophale) SiO2 
 PCOD9417605
Probable space group: P M N A
;
_chemical_formula_sum "Si O2"
_cell_formula_units_Z 64
_cell_length_a 8.393722
_cell_length_b 21.442625
_cell_length_c 19.461174
_cell_angle_alpha 90.000000
_cell_angle_beta 90.000000
_cell_angle_gamma 90.000000
_cell_volume 3502.688911
_symmetry_space_group_name_H-M "P M N A"
_symmetry_group_IT_number 53
_symmetry_cell_setting 'orthorhombic'
loop_
_space_group_symop_operation_xyz
x,y,z
1/2-x,-y,1/2+z
x,-y,-z
1/2-x,y,1/2-z
-x,-y,-z
1/2+x,y,1/2-z
-x,y,z
1/2+x,-y,1/2+z
loop_
_atom_site_type_symbol
_atom_site_label
_atom_site_fract_x
_atom_site_fract_y
_atom_site_fract_z
Si Si1 0.307476 0.044008 0.170949
Si Si2 0.691212 0.773502 0.171519
Si Si3 0.807517 0.089914 0.670975
Si Si4 0.192599 0.469133 0.572394
Si Si5 0.192734 0.300711 0.413407
Si Si6 0.311214 0.671295 0.434537
Si Si7 0.307624 0.577986 0.827658
Si Si8 0.807041 0.819471 0.671284
O O1 0.250000 0.043800 0.250000
O O2 0.500000 0.043924 0.169788
O O3 0.255539 0.111911 0.144169
O O4 0.254152 0.977057 0.140391
O O5 0.750000 0.767179 0.250000
O O6 0.500000 0.772342 0.171997
O O7 0.744093 0.842288 0.143985
O O8 0.752395 0.718445 0.123849
O O9 0.750000 0.089527 0.750000
O O10 0.000000 0.089759 0.669919
O O11 0.242489 0.500000 0.500000
O O12 0.253043 0.399090 0.578617
O O13 0.245135 0.515477 0.632948
O O14 0.000000 0.467168 0.572123
O O15 0.247252 0.306992 0.491431
O O16 0.246067 0.361353 0.370405
O O17 0.247977 0.237768 0.375583
O O18 0.000000 0.300614 0.413125
O O19 0.500000 0.671606 0.436035
O O20 0.250000 0.580489 0.750000
O O21 0.500000 0.578427 0.828140
O O22 0.750000 0.812163 0.750000
O O23 0.000000 0.818487 0.672308
#
# Coordination Sequence:
#
# PCOD9417605 Si02
#       8
#     8   8   8   8   8   8   8   8
#     4   8  13  23  40  69 102 134 172 215 262 313
#     4  10  20  36  57  81 109 141 176 221 271 324
#     4   8  14  25  45  71 101 134 171 214 263 315
#     4  10  20  40  63  79 104 143 179 215 262 320
#     4  10  20  37  55  75 106 148 186 216 260 319
#     4  12  25  38  57  83 108 139 178 225 269 319
#     4  10  21  36  58  84 110 140 175 217 263 311
#     4   9  17  28  48  75 108 143 178 222 269 315
#
# _framework density 18.271677
#
# number of rings (size 3 to 8) (size 9 to 14) (size 15 to 20)
#    0.000    2.375    1.250    1.875    0.000    2.750 
#    0.000    1.250    0.000    0.750    0.000    5.250 
#    0.000    0.000    0.000    0.000    0.000    0.000 
#
# Total GULP energy -356678.042910 kJ/mol
# GULP energy per Si atom -5573.094420 kJ/mol
# Density = 1.823009 g / cm^3
# Si number density = 18.271677 Si / 1000 Ang^3
#
#
#
# Elastic Constant Matrix: (Units=GPa)
#
#
# Indices 1 2 3 4 5 6 
#
# 1 13.6361 28.3785 13.9820 0.0000 0.0000 0.0000
# 2 28.3785 231.3806 85.1211 0.0000 0.0000 0.0000
# 3 13.9820 85.1211 95.0737 0.0000 0.0000 0.0000
# 4 0.0000 0.0000 0.0000 17.8159 0.0000 0.0000
# 5 0.0000 0.0000 0.0000 0.0000 24.0965 0.0000
# 6 0.0000 0.0000 0.0000 0.0000 0.0000 11.9985
#
#
#
# Elastic Compliance Matrix: (Units=1/GPa)
#
#
# Indices 1 2 3 4 5 6 
#
# 1 0.100414 -0.010263 -0.005578 0.000000 0.000000 0.000000
# 2 -0.010263 0.007494 -0.005200 0.000000 0.000000 0.000000
# 3 -0.005578 -0.005200 0.015994 0.000000 0.000000 0.000000
# 4 0.000000 0.000000 0.000000 0.056130 0.000000 0.000000
# 5 0.000000 0.000000 0.000000 0.000000 0.041500 0.000000
# 6 0.000000 0.000000 0.000000 0.000000 0.000000 0.083344
#
#
# Mechanical properties :
#
#
# Convention : Reuss Voigt Hill
#
# Bulk Modulus (GPa) = 12.22217 66.11708 39.16963
# Shear Modulus (GPa) = 13.36074 24.95609 19.15841
#
# Velocity S-wave (km/s) = 2.70705 3.69973 3.24162
# Velocity P-wave (km/s) = 4.05888 7.38341 5.95774
#
# Compressibility (1/GPa) = 0.08181851
#
# Stress axis : x y z
#
# Youngs Moduli (GPa) = 9.95877 133.44751 62.52369
#
# Poissons Ratio (x) = 1.36964 0.34878
# Poissons Ratio (y) = 0.10221 0.32511
# Poissons Ratio (z) = 0.05555 0.69389
#
# Static dielectric constant tensor:
#      x y z
#    x 1.623450 0.000000 0.000000 
#    y 0.000000 1.684310 0.000000 
#    z 0.000000 0.000000 1.560990 
# 
# From -- ./inp_files/31403.got.cif
#   From: 2010.05.17/outbox.cif.g08.bks.cpg/sg53_16_cif.got.tgz:31403.got - 2010.06.03 12:45:16.
