data_PCOD9417629
_publ_section_title
;
Structure prediction by ZEFSAII (Michael W. Deem and Ramdas Pophale) SiO2 
 PCOD9417629
Probable space group: P M N A
;
_chemical_formula_sum "Si O2"
_cell_formula_units_Z 48
_cell_length_a 9.685779
_cell_length_b 30.136236
_cell_length_c 9.009793
_cell_angle_alpha 90.000000
_cell_angle_beta 90.000000
_cell_angle_gamma 90.000000
_cell_volume 2629.894803
_symmetry_space_group_name_H-M "P M N A"
_symmetry_group_IT_number 53
_symmetry_cell_setting 'orthorhombic'
loop_
_space_group_symop_operation_xyz
x,y,z
1/2-x,-y,1/2+z
x,-y,-z
1/2-x,y,1/2-z
-x,-y,-z
1/2+x,y,1/2-z
-x,y,z
1/2+x,-y,1/2+z
loop_
_atom_site_type_symbol
_atom_site_label
_atom_site_fract_x
_atom_site_fract_y
_atom_site_fract_z
Si Si1 0.836567 0.313311 0.402694
Si Si2 0.500000 0.549633 0.568584
Si Si3 0.833767 0.140539 0.904105
Si Si4 0.252671 0.602035 0.071886
Si Si5 0.835143 0.210717 0.402834
Si Si6 0.162453 0.958514 0.101053
Si Si7 0.000000 0.548267 0.572907
O O1 0.750000 0.318279 0.250000
O O2 0.773832 0.347256 0.521339
O O3 0.827563 0.262117 0.453474
O O4 0.000000 0.323030 0.377487
O O5 0.500000 0.500000 0.500000
O O6 0.375290 0.578181 0.504278
O O7 0.500000 0.546771 0.747936
O O8 0.750000 0.138867 0.750000
O O9 0.820531 0.090534 0.969528
O O10 0.000000 0.149572 0.888663
O O11 0.750442 0.177162 0.995464
O O12 0.250000 0.598015 0.250000
O O13 0.373896 0.574985 0.994532
O O14 0.750000 0.209508 0.250000
O O15 0.000000 0.199840 0.388724
O O16 0.250000 0.959993 0.250000
O O17 0.000000 0.962685 0.136739
O O18 0.201945 0.000000 0.000000
O O19 0.000000 0.500000 0.500000
#
# Coordination Sequence:
#
# PCOD9417629 Si02
#       7
#     8   4   8   8   8   8   4
#     4  10  22  41  64  90 120 158 200 244 298 360
#     4  12  26  44  66  94 124 164 204 244 305 360
#     4  10  20  36  57  83 116 156 201 249 304 363
#     4  12  25  42  63  94 126 158 201 251 300 357
#     4  10  21  38  60  87 119 156 199 248 300 361
#     4   9  19  35  54  79 112 150 195 246 300 360
#     4  12  24  44  68  90 124 162 202 250 297 360
#
# _framework density 18.25168
#
# number of rings (size 3 to 8) (size 9 to 14) (size 15 to 20)
#    0.000    1.500    0.833    4.500    1.167    3.000 
#    0.000    1.667    0.000    0.000    0.000    0.000 
#    0.000    0.000    0.000    0.000    0.000    0.000 
#
# Total GULP energy -267633.668645 kJ/mol
# GULP energy per Si atom -5575.701430 kJ/mol
# Density = 1.821014 g / cm^3
# Si number density = 18.251680 Si / 1000 Ang^3
#
#
#
# Elastic Constant Matrix: (Units=GPa)
#
#
# Indices 1 2 3 4 5 6 
#
# 1 159.7145 83.1527 60.2198 0.0000 0.0000 0.0000
# 2 83.1527 151.5132 86.3728 0.0000 0.0000 0.0000
# 3 60.2198 86.3728 133.9406 0.0000 0.0000 0.0000
# 4 0.0000 0.0000 0.0000 38.5169 0.0000 0.0000
# 5 0.0000 0.0000 0.0000 0.0000 28.4657 0.0000
# 6 0.0000 0.0000 0.0000 0.0000 0.0000 33.6328
#
#
#
# Elastic Compliance Matrix: (Units=1/GPa)
#
#
# Indices 1 2 3 4 5 6 
#
# 1 0.008917 -0.004125 -0.001349 0.000000 0.000000 0.000000
# 2 -0.004125 0.012345 -0.006106 0.000000 0.000000 0.000000
# 3 -0.001349 -0.006106 0.012010 0.000000 0.000000 0.000000
# 4 0.000000 0.000000 0.000000 0.025963 0.000000 0.000000
# 5 0.000000 0.000000 0.000000 0.000000 0.035130 0.000000
# 6 0.000000 0.000000 0.000000 0.000000 0.000000 0.029733
#
#
# Mechanical properties :
#
#
# Convention : Reuss Voigt Hill
#
# Bulk Modulus (GPa) = 98.89354 100.51765 99.70560
# Shear Modulus (GPa) = 33.19411 34.48461 33.83936
#
# Velocity S-wave (km/s) = 4.26923 4.35143 4.31053
# Velocity P-wave (km/s) = 8.86582 8.96879 8.91745
#
# Compressibility (1/GPa) = 0.01011188
#
# Stress axis : x y z
#
# Youngs Moduli (GPa) = 112.13966 81.00631 83.26222
#
# Poissons Ratio (x) = 0.33413 0.11235
# Poissons Ratio (y) = 0.46255 0.50841
# Poissons Ratio (z) = 0.15132 0.49463
#
# Static dielectric constant tensor:
#      x y z
#    x 1.581470 0.000000 0.000000 
#    y 0.000000 1.669560 0.000000 
#    z 0.000000 0.000000 1.612060 
# 
# From -- ./inp_files/6783.got.cif
#   From: 2010.05.17/outbox.cif.g08.bks.cpg/sg53_4_cif.got.tgz:6783.got - 2010.06.03 12:45:16.
