data_PCOD9417556
_publ_section_title
;
Structure prediction by ZEFSAII (Michael W. Deem and Ramdas Pophale) SiO2 
 PCOD9417556
Probable space group: P M N A
;
_chemical_formula_sum "Si O2"
_cell_formula_units_Z 44
_cell_length_a 16.165488
_cell_length_b 18.034625
_cell_length_c 7.478017
_cell_angle_alpha 90.000000
_cell_angle_beta 90.000000
_cell_angle_gamma 90.000000
_cell_volume 2180.129964
_symmetry_space_group_name_H-M "P M N A"
_symmetry_group_IT_number 53
_symmetry_cell_setting 'orthorhombic'
loop_
_space_group_symop_operation_xyz
x,y,z
1/2-x,-y,1/2+z
x,-y,-z
1/2-x,y,1/2-z
-x,-y,-z
1/2+x,y,1/2-z
-x,y,z
1/2+x,-y,1/2+z
loop_
_atom_site_type_symbol
_atom_site_label
_atom_site_fract_x
_atom_site_fract_y
_atom_site_fract_z
Si Si1 0.590206 0.086930 0.960698
Si Si2 0.207849 0.656735 0.443458
Si Si3 0.593864 0.913539 0.467448
Si Si4 0.252160 0.178061 0.969094
Si Si5 0.750000 0.459968 0.250000
Si Si6 0.410831 0.450604 0.822600
O O1 0.500000 0.112662 0.027657
O O2 0.589910 0.095884 0.746554
O O3 0.670464 0.128723 0.030135
O O4 0.597056 0.000000 0.000000
O O5 0.250000 0.655702 0.250000
O O6 0.227581 0.737470 0.520303
O O7 0.238661 0.593633 0.579577
O O8 0.114978 0.631204 0.391588
O O9 0.500000 0.901750 0.537385
O O10 0.665644 0.857920 0.531251
O O11 0.615990 0.000000 0.500000
O O12 0.250000 0.176286 0.750000
O O13 0.667839 0.510426 0.271125
O O14 0.500000 0.450352 0.728830
O O15 0.418518 0.500000 0.000000
#
# Coordination Sequence:
#
# PCOD9417556 Si02
#       6
#     8   8   8   8   4   8
#     4   9  17  30  48  71  97 129 172 216 254 306
#     4  10  20  36  56  79 112 146 175 223 279 325
#     4   9  17  31  50  70  98 136 172 212 257 303
#     4   9  18  32  49  71 103 134 171 207 262 317
#     4  10  20  38  58  80 114 138 180 234 266 324
#     4   9  18  34  60  84 108 145 184 223 274 331
#
# _framework density 20.182283999999999
#
# number of rings (size 3 to 8) (size 9 to 14) (size 15 to 20)
#    0.000    2.727    0.909    0.545    0.000    0.727 
#    3.273    5.455    0.000    0.000    0.000    0.000 
#    0.000    0.000    0.000    0.000    0.000    0.000 
#
# Total GULP energy -245048.454379 kJ/mol
# GULP energy per Si atom -5569.283054 kJ/mol
# Density = 2.013635 g / cm^3
# Si number density = 20.182284 Si / 1000 Ang^3
#
#
#
# Elastic Constant Matrix: (Units=GPa)
#
#
# Indices 1 2 3 4 5 6 
#
# 1 188.7562 101.3410 13.4919 0.0000 0.0000 0.0000
# 2 101.3410 132.3947 -0.8912 0.0000 0.0000 0.0000
# 3 13.4919 -0.8912 55.6570 0.0000 0.0000 0.0000
# 4 0.0000 0.0000 0.0000 23.7578 0.0000 0.0000
# 5 0.0000 0.0000 0.0000 0.0000 2.3775 0.0000
# 6 0.0000 0.0000 0.0000 0.0000 0.0000 50.2217
#
#
#
# Elastic Compliance Matrix: (Units=1/GPa)
#
#
# Indices 1 2 3 4 5 6 
#
# 1 0.009296 -0.007131 -0.002368 0.000000 0.000000 0.000000
# 2 -0.007131 0.013025 0.001937 0.000000 0.000000 0.000000
# 3 -0.002368 0.001937 0.018572 0.000000 0.000000 0.000000
# 4 0.000000 0.000000 0.000000 0.042091 0.000000 0.000000
# 5 0.000000 0.000000 0.000000 0.000000 0.420608 0.000000
# 6 0.000000 0.000000 0.000000 0.000000 0.000000 0.019912
#
#
# Mechanical properties :
#
#
# Convention : Reuss Voigt Hill
#
# Bulk Modulus (GPa) = 38.80563 67.18792 52.99678
# Shear Modulus (GPa) = 9.13713 32.79581 20.96647
#
# Velocity S-wave (km/s) = 2.13005 4.03548 3.22662
# Velocity P-wave (km/s) = 5.03178 7.42134 6.34015
#
# Compressibility (1/GPa) = 0.02576946
#
# Stress axis : x y z
#
# Youngs Moduli (GPa) = 107.57500 76.77590 53.84410
#
# Poissons Ratio (x) = 0.54752 0.12748
# Poissons Ratio (y) = 0.76716 -0.10431
# Poissons Ratio (z) = 0.25469 -0.14874
#
# Static dielectric constant tensor:
#      x y z
#    x 1.775410 0.000000 0.000000 
#    y 0.000000 1.730840 0.000000 
#    z 0.000000 0.000000 1.748850 
# 
# From -- ./inp_files/8562.got.cif
#   From: 2010.05.17/outbox.cif.g08.bks.cpg/sg53_5_cif.got.tgz:8562.got - 2010.06.03 12:45:16.
