data_PCOD9417502
_publ_section_title
;
Structure prediction by ZEFSAII (Michael W. Deem and Ramdas Pophale) SiO2 
 PCOD9417502
Probable space group: P M N A
;
_chemical_formula_sum "Si O2"
_cell_formula_units_Z 36
_cell_length_a 25.483718
_cell_length_b 11.132678
_cell_length_c 6.205382
_cell_angle_alpha 90.000000
_cell_angle_beta 90.000000
_cell_angle_gamma 90.000000
_cell_volume 1760.479450
_symmetry_space_group_name_H-M "P M N A"
_symmetry_group_IT_number 53
_symmetry_cell_setting 'orthorhombic'
loop_
_space_group_symop_operation_xyz
x,y,z
1/2-x,-y,1/2+z
x,-y,-z
1/2-x,y,1/2-z
-x,-y,-z
1/2+x,y,1/2-z
-x,y,z
1/2+x,-y,1/2+z
loop_
_atom_site_type_symbol
_atom_site_label
_atom_site_fract_x
_atom_site_fract_y
_atom_site_fract_z
Si Si1 0.844417 0.369753 0.445647
Si Si2 0.060156 0.374816 0.130081
Si Si3 0.808149 0.151371 0.199087
Si Si4 0.384778 0.000000 0.000000
Si Si5 0.619428 0.803634 0.317963
O O1 0.822217 0.500000 0.500000
O O2 0.900831 0.384863 0.330496
O O3 0.811231 0.289650 0.279590
O O4 0.854628 0.294135 0.660739
O O5 0.000000 0.354849 0.193807
O O6 0.063356 0.500000 0.000000
O O7 0.080903 0.266168 0.979948
O O8 0.750000 0.106250 0.250000
O O9 0.848672 0.083206 0.352005
O O10 0.832502 0.143302 0.960607
O O11 0.408979 0.905362 0.171172
#
# Coordination Sequence:
#
# PCOD9417502 Si02
#       5
#     8   8   8   4   8
#     4  10  20  37  56  86 123 157 191 241 298 354
#     4  10  20  35  61  89 118 158 203 246 292 354
#     4  10  23  38  59  87 114 155 201 246 292 355
#     4  10  22  36  63  84 114 156 197 244 304 356
#     4  10  21  39  59  85 124 153 194 246 301 348
#
# _framework density 20.448974
#
# number of rings (size 3 to 8) (size 9 to 14) (size 15 to 20)
#    0.000    2.000    2.222    0.667    3.111    4.000 
#    4.000    0.556    0.000   17.333    0.000    0.000 
#    0.000    0.000    0.000    0.000    0.000    0.000 
#
# Total GULP energy -200820.206500 kJ/mol
# GULP energy per Si atom -5578.339069 kJ/mol
# Density = 2.040243 g / cm^3
# Si number density = 20.448974 Si / 1000 Ang^3
#
#
#
# Elastic Constant Matrix: (Units=GPa)
#
#
# Indices 1 2 3 4 5 6 
#
# 1 48.9750 -16.0694 2.9345 0.0000 0.0000 0.0000
# 2 -16.0694 98.1667 17.3351 0.0000 0.0000 0.0000
# 3 2.9345 17.3351 88.5264 0.0000 0.0000 0.0000
# 4 0.0000 0.0000 0.0000 48.0937 0.0000 0.0000
# 5 0.0000 0.0000 0.0000 0.0000 -0.5426 0.0000
# 6 0.0000 0.0000 0.0000 0.0000 0.0000 -7.4932
#
#
#
# Elastic Compliance Matrix: (Units=1/GPa)
#
#
# Indices 1 2 3 4 5 6 
#
# 1 0.021761 0.003822 -0.001470 0.000000 0.000000 0.000000
# 2 0.003822 0.011223 -0.002324 0.000000 0.000000 0.000000
# 3 -0.001470 -0.002324 0.011800 0.000000 0.000000 0.000000
# 4 0.000000 0.000000 0.000000 0.020793 0.000000 0.000000
# 5 0.000000 0.000000 0.000000 0.000000 -1.842820 0.000000
# 6 0.000000 0.000000 0.000000 0.000000 0.000000 -0.133453
#
#
# Mechanical properties :
#
#
# Convention : Reuss Voigt Hill
#
# Bulk Modulus (GPa) = 22.30224 27.11872 24.71048
# Shear Modulus (GPa) = -2.63740 23.44275 10.40268
#
# Velocity S-wave (km/s) = -1.13690 3.38953 2.25792
# Velocity P-wave (km/s) = 3.03423 5.34874 4.34831
#
# Compressibility (1/GPa) = 0.04483854
#
# Stress axis : x y z
#
# Youngs Moduli (GPa) = 45.95473 89.10453 84.74632
#
# Poissons Ratio (x) = -0.34052 0.12455
# Poissons Ratio (y) = -0.17562 0.19698
# Poissons Ratio (z) = 0.06754 0.20711
#
# Static dielectric constant tensor:
#      x y z
#    x 1.688500 0.000000 0.000000 
#    y 0.000000 1.808730 0.000000 
#    z 0.000000 0.000000 1.351930 
# 
# From -- ./inp_files/3478.got.cif
#   From: 2010.05.17/outbox.cif.g08.bks.cpg/sg53_2_cif.got.tgz:3478.got - 2010.06.03 12:45:16.
