data_PCOD9417974
_publ_section_title
;
Structure prediction by ZEFSAII (Michael W. Deem and Ramdas Pophale) SiO2 
 PCOD9417974
Probable space group: P M N A
;
_chemical_formula_sum "Si O2"
_cell_formula_units_Z 56
_cell_length_a 13.237675
_cell_length_b 11.249452
_cell_length_c 16.898217
_cell_angle_alpha 90.000000
_cell_angle_beta 90.000000
_cell_angle_gamma 90.000000
_cell_volume 2516.424844
_symmetry_space_group_name_H-M "P M N A"
_symmetry_group_IT_number 53
_symmetry_cell_setting 'orthorhombic'
loop_
_space_group_symop_operation_xyz
x,y,z
1/2-x,-y,1/2+z
x,-y,-z
1/2-x,y,1/2-z
-x,-y,-z
1/2+x,y,1/2-z
-x,y,z
1/2+x,-y,1/2+z
loop_
_atom_site_type_symbol
_atom_site_label
_atom_site_fract_x
_atom_site_fract_y
_atom_site_fract_z
Si Si1 0.613908 0.461773 0.876467
Si Si2 0.889193 0.897603 0.789462
Si Si3 0.675919 0.298419 0.396453
Si Si4 0.687696 0.660677 0.436129
Si Si5 0.614061 0.492349 0.701461
Si Si6 0.885914 0.750593 0.630078
Si Si7 0.876524 0.927018 0.081691
O O1 0.500000 0.423422 0.899504
O O2 0.701264 0.400867 0.928059
O O3 0.637094 0.431869 0.784940
O O4 0.610235 0.605942 0.871607
O O5 0.893545 0.801159 0.859823
O O6 0.858392 0.820446 0.712184
O O7 0.000000 0.941343 0.767156
O O8 0.839426 0.005806 0.837767
O O9 0.643332 0.360462 0.476560
O O10 0.682008 0.398203 0.328194
O O11 0.782319 0.234935 0.417407
O O12 0.622452 0.601799 0.367655
O O13 0.679060 0.801345 0.423684
O O14 0.500000 0.540737 0.708651
O O15 0.000000 0.788273 0.607289
O O16 0.000000 0.912254 0.086249
O O17 0.858430 0.000000 0.000000
#
# Coordination Sequence:
#
# PCOD9417974 Si02
#       7
#     8   8   8   8   8   8   8
#     4  10  22  41  62  85 125 173 210 254 310 374
#     4  10  20  37  64  90 119 165 212 253 308 376
#     4  12  22  35  59  94 128 159 204 262 315 374
#     4  12  24  37  62  95 129 163 207 257 322 379
#     4  11  23  38  57  88 127 165 203 253 315 382
#     4  10  21  38  60  87 124 166 212 259 306 367
#     4  10  21  40  63  90 128 167 204 255 319 381
#
# _framework density 22.253793999999999
#
# number of rings (size 3 to 8) (size 9 to 14) (size 15 to 20)
#    0.000    1.286    4.286    2.143    0.000    2.857 
#    0.000    4.286    0.000    3.000    0.000    0.000 
#    0.000    0.000    0.000    0.000    0.000    0.000 
#
# Total GULP energy -311942.477969 kJ/mol
# GULP energy per Si atom -5570.401392 kJ/mol
# Density = 2.220314 g / cm^3
# Si number density = 22.253794 Si / 1000 Ang^3
#
#
#
# Elastic Constant Matrix: (Units=GPa)
#
#
# Indices 1 2 3 4 5 6 
#
# 1 82.7058 14.4643 -12.7770 0.0000 0.0000 0.0000
# 2 14.4643 101.0469 24.7329 0.0000 0.0000 0.0000
# 3 -12.7770 24.7329 72.4112 0.0000 0.0000 0.0000
# 4 0.0000 0.0000 0.0000 33.6569 0.0000 0.0000
# 5 0.0000 0.0000 0.0000 0.0000 15.8582 0.0000
# 6 0.0000 0.0000 0.0000 0.0000 0.0000 21.1084
#
#
#
# Elastic Compliance Matrix: (Units=1/GPa)
#
#
# Indices 1 2 3 4 5 6 
#
# 1 0.013051 -0.002654 0.003209 0.000000 0.000000 0.000000
# 2 -0.002654 0.011339 -0.004341 0.000000 0.000000 0.000000
# 3 0.003209 -0.004341 0.015859 0.000000 0.000000 0.000000
# 4 0.000000 0.000000 0.000000 0.029712 0.000000 0.000000
# 5 0.000000 0.000000 0.000000 0.000000 0.063059 0.000000
# 6 0.000000 0.000000 0.000000 0.000000 0.000000 0.047375
#
#
# Mechanical properties :
#
#
# Convention : Reuss Voigt Hill
#
# Bulk Modulus (GPa) = 30.60197 34.33380 32.46788
# Shear Modulus (GPa) = 25.14363 29.44094 27.29228
#
# Velocity S-wave (km/s) = 3.36498 3.64120 3.50581
# Velocity P-wave (km/s) = 5.37389 5.75670 5.56858
#
# Compressibility (1/GPa) = 0.03267764
#
# Stress axis : x y z
#
# Youngs Moduli (GPa) = 76.62290 88.19260 63.05541
#
# Poissons Ratio (x) = 0.23403 -0.20236
# Poissons Ratio (y) = 0.20333 0.27373
# Poissons Ratio (z) = -0.24590 0.38286
#
# Static dielectric constant tensor:
#      x y z
#    x 1.919900 0.000000 0.000000 
#    y 0.000000 1.843930 0.000000 
#    z 0.000000 0.000000 1.887840 
# 
# From -- ./inp_files/22815.got.cif
#   From: 2010.05.17/outbox.cif.g08.bks.cpg/sg53_12_cif.got.tgz:22815.got - 2010.06.03 12:45:16.
