data_PCOD9417816
_publ_section_title
;
Structure prediction by ZEFSAII (Michael W. Deem and Ramdas Pophale) SiO2 
 PCOD9417816
Probable space group: P M N A
;
_chemical_formula_sum "Si O2"
_cell_formula_units_Z 56
_cell_length_a 18.444738
_cell_length_b 18.066632
_cell_length_c 9.639253
_cell_angle_alpha 90.000000
_cell_angle_beta 90.000000
_cell_angle_gamma 90.000000
_cell_volume 3212.129666
_symmetry_space_group_name_H-M "P M N A"
_symmetry_group_IT_number 53
_symmetry_cell_setting 'orthorhombic'
loop_
_space_group_symop_operation_xyz
x,y,z
1/2-x,-y,1/2+z
x,-y,-z
1/2-x,y,1/2-z
-x,-y,-z
1/2+x,y,1/2-z
-x,y,z
1/2+x,-y,1/2+z
loop_
_atom_site_type_symbol
_atom_site_label
_atom_site_fract_x
_atom_site_fract_y
_atom_site_fract_z
Si Si1 0.318662 0.301303 0.504802
Si Si2 0.831111 0.821067 0.237546
Si Si3 0.087047 0.915176 0.011982
Si Si4 0.581518 0.427182 0.593643
Si Si5 0.086717 0.210479 0.203659
Si Si6 0.347989 0.731446 0.987037
Si Si7 0.085263 0.573346 0.423735
O O1 0.325349 0.251971 0.642702
O O2 0.349523 0.380793 0.543070
O O3 0.374583 0.270384 0.392949
O O4 0.236315 0.288498 0.458046
O O5 0.750000 0.853084 0.250000
O O6 0.880650 0.876194 0.148884
O O7 0.854681 0.789710 0.386058
O O8 0.000000 0.913989 0.023098
O O9 0.105988 0.866870 0.874595
O O10 0.111264 0.000000 0.000000
O O11 0.579364 0.500000 0.500000
O O12 0.500000 0.391435 0.577865
O O13 0.590983 0.438672 0.758278
O O14 0.116110 0.228336 0.355910
O O15 0.000000 0.216974 0.202398
O O16 0.382024 0.652168 0.029878
O O17 0.115509 0.500000 0.500000
O O18 0.000000 0.577753 0.458714
#
# Coordination Sequence:
#
# PCOD9417816 Si02
#       7
#     8   8   8   8   8   8   8
#     4  10  20  37  56  79 109 148 191 234 278 329
#     4   9  19  36  57  82 113 147 186 225 274 336
#     4   9  19  38  62  86 115 148 185 227 274 333
#     4  10  21  36  55  78 107 148 198 239 280 341
#     4  10  21  36  57  84 112 145 185 228 279 338
#     4  11  21  36  57  83 114 147 188 238 286 333
#     4  10  22  37  52  77 113 150 187 236 289 332
#
# _framework density 17.433916
#
# number of rings (size 3 to 8) (size 9 to 14) (size 15 to 20)
#    0.000    2.143    1.429    1.286    2.000    2.286 
#    0.000    5.000    0.000    2.571    0.000    0.000 
#    0.000    0.000    0.000    0.000    0.000    0.000 
#
# Total GULP energy -311932.550012 kJ/mol
# GULP energy per Si atom -5570.224107 kJ/mol
# Density = 1.739424 g / cm^3
# Si number density = 17.433916 Si / 1000 Ang^3
#
#
#
# Elastic Constant Matrix: (Units=GPa)
#
#
# Indices 1 2 3 4 5 6 
#
# 1 73.3035 45.2771 52.7189 0.0000 0.0000 0.0000
# 2 45.2771 104.8049 53.3633 0.0000 0.0000 0.0000
# 3 52.7189 53.3633 130.4510 0.0000 0.0000 0.0000
# 4 0.0000 0.0000 0.0000 3.4722 0.0000 0.0000
# 5 0.0000 0.0000 0.0000 0.0000 30.3250 0.0000
# 6 0.0000 0.0000 0.0000 0.0000 0.0000 12.3386
#
#
#
# Elastic Compliance Matrix: (Units=1/GPa)
#
#
# Indices 1 2 3 4 5 6 
#
# 1 0.022113 -0.006319 -0.006352 0.000000 0.000000 0.000000
# 2 -0.006319 0.013857 -0.003115 0.000000 0.000000 0.000000
# 3 -0.006352 -0.003115 0.011507 0.000000 0.000000 0.000000
# 4 0.000000 0.000000 0.000000 0.287999 0.000000 0.000000
# 5 0.000000 0.000000 0.000000 0.000000 0.032976 0.000000
# 6 0.000000 0.000000 0.000000 0.000000 0.000000 0.081047
#
#
# Mechanical properties :
#
#
# Convention : Reuss Voigt Hill
#
# Bulk Modulus (GPa) = 62.86898 67.91979 65.39439
# Shear Modulus (GPa) = 10.28021 19.70717 14.99369
#
# Velocity S-wave (km/s) = 2.43094 3.36578 2.93581
# Velocity P-wave (km/s) = 6.63467 7.35851 7.00594
#
# Compressibility (1/GPa) = 0.01590610
#
# Stress axis : x y z
#
# Youngs Moduli (GPa) = 45.22240 72.16314 86.90547
#
# Poissons Ratio (x) = 0.45601 0.55198
# Poissons Ratio (y) = 0.28576 0.27070
# Poissons Ratio (z) = 0.28723 0.22478
#
# Static dielectric constant tensor:
#      x y z
#    x 1.621690 0.000000 0.000000 
#    y 0.000000 1.589000 0.000000 
#    z 0.000000 0.000000 1.742750 
# 
# From -- ./inp_files/11031.got.cif
#   From: 2010.05.17/outbox.cif.g08.bks.cpg/sg53_6_cif.got.tgz:11031.got - 2010.06.03 12:45:16.
