data_PCOD9417643
_publ_section_title
;
Structure prediction by ZEFSAII (Michael W. Deem and Ramdas Pophale) SiO2 
 PCOD9417643
Probable space group: P M N A
;
_chemical_formula_sum "Si O2"
_cell_formula_units_Z 56
_cell_length_a 20.049468
_cell_length_b 13.759790
_cell_length_c 11.817843
_cell_angle_alpha 90.000000
_cell_angle_beta 90.000000
_cell_angle_gamma 90.000000
_cell_volume 3260.264801
_symmetry_space_group_name_H-M "P M N A"
_symmetry_group_IT_number 53
_symmetry_cell_setting 'orthorhombic'
loop_
_space_group_symop_operation_xyz
x,y,z
1/2-x,-y,1/2+z
x,-y,-z
1/2-x,y,1/2-z
-x,-y,-z
1/2+x,y,1/2-z
-x,y,z
1/2+x,-y,1/2+z
loop_
_atom_site_type_symbol
_atom_site_label
_atom_site_fract_x
_atom_site_fract_y
_atom_site_fract_z
Si Si1 0.825528 0.116869 0.272770
Si Si2 0.344080 0.707565 0.597117
Si Si3 0.922025 0.016437 0.868580
Si Si4 0.674437 0.655828 0.202851
Si Si5 0.810114 0.729885 0.540751
Si Si6 0.171460 0.431533 0.281015
Si Si7 0.923583 0.246149 0.877857
O O1 0.750000 0.081109 0.250000
O O2 0.837698 0.209196 0.191421
O O3 0.825836 0.167048 0.397566
O O4 0.878144 0.038686 0.225813
O O5 0.269822 0.708532 0.543173
O O6 0.360707 0.608936 0.665132
O O7 0.397769 0.735146 0.504451
O O8 0.918592 0.131707 0.851699
O O9 0.000000 0.985121 0.862603
O O10 0.899491 0.000000 0.000000
O O11 0.750000 0.662513 0.250000
O O12 0.658797 0.541763 0.185215
O O13 0.624476 0.696218 0.295390
O O14 0.667902 0.716419 0.087494
O O15 0.841166 0.644110 0.618029
O O16 0.250000 0.423877 0.250000
O O17 0.000000 0.275961 0.865751
#
# Coordination Sequence:
#
# PCOD9417643 Si02
#       7
#     8   8   8   8   8   8   8
#     4   9  18  33  56  85 111 137 178 237 281 320
#     4   9  16  33  53  79 111 137 175 227 285 327
#     4  10  20  36  58  80 104 141 187 229 276 338
#     4  11  20  33  54  80 110 151 189 224 271 330
#     4   9  17  33  55  81 110 142 182 230 274 325
#     4   8  17  30  54  82 107 138 184 230 271 330
#     4  11  23  36  53  79 113 145 182 232 281 331
#
# _framework density 17.176518999999999
#
# number of rings (size 3 to 8) (size 9 to 14) (size 15 to 20)
#    0.000    2.429    2.857    2.143    0.000    1.143 
#    0.000    2.857    0.000    5.143    0.000    0.000 
#    0.000    0.000    0.000    0.000    0.000    0.000 
#
# Total GULP energy -311883.089124 kJ/mol
# GULP energy per Si atom -5569.340877 kJ/mol
# Density = 1.713742 g / cm^3
# Si number density = 17.176519 Si / 1000 Ang^3
#
#
#
# Elastic Constant Matrix: (Units=GPa)
#
#
# Indices 1 2 3 4 5 6 
#
# 1 78.7393 33.9019 29.6042 0.0000 0.0000 0.0000
# 2 33.9019 41.1784 16.1834 0.0000 0.0000 0.0000
# 3 29.6042 16.1834 61.1357 0.0000 0.0000 0.0000
# 4 0.0000 0.0000 0.0000 17.3957 0.0000 0.0000
# 5 0.0000 0.0000 0.0000 0.0000 23.7113 0.0000
# 6 0.0000 0.0000 0.0000 0.0000 0.0000 169.2399
#
#
#
# Elastic Compliance Matrix: (Units=1/GPa)
#
#
# Indices 1 2 3 4 5 6 
#
# 1 0.021744 -0.015362 -0.006463 0.000000 0.000000 0.000000
# 2 -0.015362 0.037957 -0.002609 0.000000 0.000000 0.000000
# 3 -0.006463 -0.002609 0.020177 0.000000 0.000000 0.000000
# 4 0.000000 0.000000 0.000000 0.057486 0.000000 0.000000
# 5 0.000000 0.000000 0.000000 0.000000 0.042174 0.000000
# 6 0.000000 0.000000 0.000000 0.000000 0.000000 0.005909
#
#
# Mechanical properties :
#
#
# Convention : Reuss Voigt Hill
#
# Bulk Modulus (GPa) = 32.24639 37.82583 35.03611
# Shear Modulus (GPa) = 20.43720 48.82695 34.63207
#
# Velocity S-wave (km/s) = 3.45314 5.33744 4.49513
# Velocity P-wave (km/s) = 5.89179 7.74945 6.88357
#
# Compressibility (1/GPa) = 0.03101122
#
# Stress axis : x y z
#
# Youngs Moduli (GPa) = 45.98913 26.34538 49.56079
#
# Poissons Ratio (x) = 0.40472 0.32030
# Poissons Ratio (y) = 0.70648 0.12930
# Poissons Ratio (z) = 0.29722 0.06873
#
# Static dielectric constant tensor:
#      x y z
#    x 1.576910 0.000000 0.000000 
#    y 0.000000 1.601070 0.000000 
#    z 0.000000 0.000000 1.585020 
# 
# From -- ./inp_files/17838.got.cif
#   From: 2010.05.17/outbox.cif.g08.bks.cpg/sg53_9_cif.got.tgz:17838.got - 2010.06.03 12:45:16.
