data_PCOD9417137
_publ_section_title
;
Structure prediction by ZEFSAII (Michael W. Deem and Ramdas Pophale) SiO2 
 PCOD9417137
Probable space group: P M N A
;
_chemical_formula_sum "Si O2"
_cell_formula_units_Z 64
_cell_length_a 18.253998
_cell_length_b 20.640447
_cell_length_c 8.868194
_cell_angle_alpha 90.000000
_cell_angle_beta 90.000000
_cell_angle_gamma 90.000000
_cell_volume 3341.275468
_symmetry_space_group_name_H-M "P M N A"
_symmetry_group_IT_number 53
_symmetry_cell_setting 'orthorhombic'
loop_
_space_group_symop_operation_xyz
x,y,z
1/2-x,-y,1/2+z
x,-y,-z
1/2-x,y,1/2-z
-x,-y,-z
1/2+x,y,1/2-z
-x,y,z
1/2+x,-y,1/2+z
loop_
_atom_site_type_symbol
_atom_site_label
_atom_site_fract_x
_atom_site_fract_y
_atom_site_fract_z
Si Si1 0.656909 0.822356 0.413583
Si Si2 0.583179 0.063925 0.399055
Si Si3 0.089447 0.566510 0.078775
Si Si4 0.089205 0.567425 0.426609
Si Si5 0.170344 0.178943 0.570366
Si Si6 0.088103 0.700175 0.929308
Si Si7 0.088653 0.297528 0.419010
Si Si8 0.317348 0.052951 0.130626
O O1 0.633076 0.881007 0.522890
O O2 0.742975 0.807374 0.423967
O O3 0.643569 0.839576 0.238423
O O4 0.615078 0.758332 0.466491
O O5 0.500000 0.088890 0.390368
O O6 0.612944 0.042299 0.237094
O O7 0.584943 0.000000 0.500000
O O8 0.112296 0.570469 0.252676
O O9 0.000000 0.566030 0.076856
O O10 0.113418 0.500000 0.000000
O O11 0.113523 0.630553 0.990422
O O12 0.114144 0.500000 0.500000
O O13 0.110320 0.631862 0.517457
O O14 0.000000 0.566269 0.428387
O O15 0.125753 0.240696 0.513575
O O16 0.166573 0.119907 0.454146
O O17 0.110560 0.709490 0.755814
O O18 0.000000 0.699569 0.931740
O O19 0.000000 0.292690 0.428952
O O20 0.250000 0.054775 0.250000
O O21 0.304026 0.000000 0.000000
#
# Coordination Sequence:
#
# PCOD9417137 Si02
#       8
#     8   8   8   8   8   8   8   8
#     4  11  23  41  60  86 119 158 201 244 298 366
#     4  11  24  43  66  94 127 160 197 247 306 362
#     4   9  16  27  46  74 108 148 195 243 296 356
#     4   9  16  28  49  78 115 155 199 251 303 359
#     4  11  25  39  62  89 118 156 204 250 300 364
#     4  10  20  34  55  81 114 155 195 242 301 361
#     4  10  21  36  56  87 122 157 201 254 309 360
#     4  12  25  42  69  93 123 161 206 255 301 370
#
# _framework density 19.154361999999999
#
# number of rings (size 3 to 8) (size 9 to 14) (size 15 to 20)
#    0.000    1.625    1.250    3.750    1.750    6.750 
#    0.000    0.000    0.000    0.750    0.000    0.000 
#    0.000    0.000    0.000    0.000    0.000    0.000 
#
# Total GULP energy -357366.118078 kJ/mol
# GULP energy per Si atom -5583.845595 kJ/mol
# Density = 1.911077 g / cm^3
# Si number density = 19.154362 Si / 1000 Ang^3
#
#
#
# Elastic Constant Matrix: (Units=GPa)
#
#
# Indices 1 2 3 4 5 6 
#
# 1 32.6649 21.8765 31.7542 0.0000 0.0000 0.0000
# 2 21.8765 101.5570 37.9187 0.0000 0.0000 0.0000
# 3 31.7542 37.9187 129.0602 0.0000 0.0000 0.0000
# 4 0.0000 0.0000 0.0000 39.6055 0.0000 0.0000
# 5 0.0000 0.0000 0.0000 0.0000 23.8937 0.0000
# 6 0.0000 0.0000 0.0000 0.0000 0.0000 16.5641
#
#
#
# Elastic Compliance Matrix: (Units=1/GPa)
#
#
# Indices 1 2 3 4 5 6 
#
# 1 0.043270 -0.006004 -0.008882 0.000000 0.000000 0.000000
# 2 -0.006004 0.011893 -0.002017 0.000000 0.000000 0.000000
# 3 -0.008882 -0.002017 0.010526 0.000000 0.000000 0.000000
# 4 0.000000 0.000000 0.000000 0.025249 0.000000 0.000000
# 5 0.000000 0.000000 0.000000 0.000000 0.041852 0.000000
# 6 0.000000 0.000000 0.000000 0.000000 0.000000 0.060371
#
#
# Mechanical properties :
#
#
# Convention : Reuss Voigt Hill
#
# Bulk Modulus (GPa) = 31.36538 49.59789 40.48164
# Shear Modulus (GPa) = 21.04414 27.46149 24.25282
#
# Velocity S-wave (km/s) = 3.31820 3.79052 3.56220
# Velocity P-wave (km/s) = 5.57595 6.71621 6.17246
#
# Compressibility (1/GPa) = 0.03188229
#
# Stress axis : x y z
#
# Youngs Moduli (GPa) = 23.11088 84.08172 95.00053
#
# Poissons Ratio (x) = 0.50487 0.84379
# Poissons Ratio (y) = 0.13877 0.19161
# Poissons Ratio (z) = 0.20527 0.16959
#
# Static dielectric constant tensor:
#      x y z
#    x 1.673560 0.000000 0.000000 
#    y 0.000000 1.636390 0.000000 
#    z 0.000000 0.000000 1.661980 
# 
# From -- ./inp_files/11205.got.cif
#   From: 2010.05.17/outbox.cif.g08.bks.cpg/sg53_6_cif.got.tgz:11205.got - 2010.06.03 12:45:16.
