data_PCOD9417113
_publ_section_title
;
Structure prediction by ZEFSAII (Michael W. Deem and Ramdas Pophale) SiO2 
 PCOD9417113
Probable space group: P M N A
;
_chemical_formula_sum "Si O2"
_cell_formula_units_Z 56
_cell_length_a 8.373372
_cell_length_b 22.322261
_cell_length_c 15.194253
_cell_angle_alpha 90.000000
_cell_angle_beta 90.000000
_cell_angle_gamma 90.000000
_cell_volume 2839.997261
_symmetry_space_group_name_H-M "P M N A"
_symmetry_group_IT_number 53
_symmetry_cell_setting 'orthorhombic'
loop_
_space_group_symop_operation_xyz
x,y,z
1/2-x,-y,1/2+z
x,-y,-z
1/2-x,y,1/2-z
-x,-y,-z
1/2+x,y,1/2-z
-x,y,z
1/2+x,-y,1/2+z
loop_
_atom_site_type_symbol
_atom_site_label
_atom_site_fract_x
_atom_site_fract_y
_atom_site_fract_z
Si Si1 0.807457 0.546946 0.920423
Si Si2 0.816782 0.652687 0.025928
Si Si3 0.686962 0.438839 0.842093
Si Si4 0.310567 0.243743 0.849871
Si Si5 0.308921 0.132255 0.964401
Si Si6 0.808710 0.027951 0.845657
Si Si7 0.691029 0.889109 0.654312
O O1 0.716767 0.510101 0.846056
O O2 0.000000 0.546779 0.909182
O O3 0.768470 0.500000 0.000000
O O4 0.756525 0.615451 0.940275
O O5 0.802530 0.597420 0.093224
O O6 0.729198 0.705341 0.077635
O O7 0.000000 0.670435 0.011465
O O8 0.750000 0.416138 0.750000
O O9 0.500000 0.425687 0.858319
O O10 0.250000 0.253975 0.750000
O O11 0.500000 0.239892 0.842114
O O12 0.249254 0.182473 0.895195
O O13 0.500000 0.134309 0.965966
O O14 0.254008 0.068964 0.924271
O O15 0.249067 0.141585 0.064224
O O16 0.750000 0.050485 0.750000
O O17 0.000000 0.028792 0.847157
O O18 0.754189 0.958820 0.852854
O O19 0.750000 0.866556 0.750000
O O20 0.500000 0.888154 0.655247
#
# Coordination Sequence:
#
# PCOD9417113 Si02
#       7
#     8   8   8   8   8   8   8
#     4   8  16  31  49  71  98 127 162 204 251 303
#     4  10  20  35  54  74 101 136 172 212 258 309
#     4  11  20  30  48  74 105 137 169 208 254 304
#     4  11  24  39  55  78 108 142 182 223 265 319
#     4  11  23  37  55  80 111 147 184 226 274 324
#     4  10  20  34  54  82 114 147 182 222 271 327
#     4  10  21  37  58  83 110 141 180 226 274 326
#
# _framework density 19.718329000000001
#
# number of rings (size 3 to 8) (size 9 to 14) (size 15 to 20)
#    0.000    1.857    0.000    5.571    0.000   10.000 
#    0.000    0.000    0.000    0.857    0.000    6.000 
#    0.000    0.000    0.000    0.000    0.000    0.000 
#
# Total GULP energy -311812.058864 kJ/mol
# GULP energy per Si atom -5568.072480 kJ/mol
# Density = 1.967345 g / cm^3
# Si number density = 19.718329 Si / 1000 Ang^3
#
#
#
# Elastic Constant Matrix: (Units=GPa)
#
#
# Indices 1 2 3 4 5 6 
#
# 1 32.3775 3.7587 15.6649 0.0000 0.0000 0.0000
# 2 3.7587 48.1682 3.3394 0.0000 0.0000 0.0000
# 3 15.6649 3.3394 46.3425 0.0000 0.0000 0.0000
# 4 0.0000 0.0000 0.0000 41.2387 0.0000 0.0000
# 5 0.0000 0.0000 0.0000 0.0000 28.6703 0.0000
# 6 0.0000 0.0000 0.0000 0.0000 0.0000 18.3706
#
#
#
# Elastic Compliance Matrix: (Units=1/GPa)
#
#
# Indices 1 2 3 4 5 6 
#
# 1 0.037122 -0.002037 -0.012401 0.000000 0.000000 0.000000
# 2 -0.002037 0.020977 -0.000823 0.000000 0.000000 0.000000
# 3 -0.012401 -0.000823 0.025830 0.000000 0.000000 0.000000
# 4 0.000000 0.000000 0.000000 0.024249 0.000000 0.000000
# 5 0.000000 0.000000 0.000000 0.000000 0.034879 0.000000
# 6 0.000000 0.000000 0.000000 0.000000 0.000000 0.054435
#
#
# Mechanical properties :
#
#
# Convention : Reuss Voigt Hill
#
# Bulk Modulus (GPa) = 18.72459 19.15713 18.94086
# Shear Modulus (GPa) = 20.34039 24.59761 22.46900
#
# Velocity S-wave (km/s) = 3.21526 3.53576 3.37931
# Velocity P-wave (km/s) = 4.82706 5.13860 4.98526
#
# Compressibility (1/GPa) = 0.05340570
#
# Stress axis : x y z
#
# Youngs Moduli (GPa) = 26.93808 47.67215 38.71496
#
# Poissons Ratio (x) = 0.09711 0.48012
# Poissons Ratio (y) = 0.05487 0.03186
# Poissons Ratio (z) = 0.33407 0.03924
#
# Static dielectric constant tensor:
#      x y z
#    x 1.678610 0.000000 0.000000 
#    y 0.000000 1.757450 0.000000 
#    z 0.000000 0.000000 1.766520 
# 
# From -- ./inp_files/20582.got.cif
#   From: 2010.05.17/outbox.cif.g08.bks.cpg/sg53_11_cif.got.tgz:20582.got - 2010.06.03 12:45:16.
