data_PCOD9417894
_publ_section_title
;
Structure prediction by ZEFSAII (Michael W. Deem and Ramdas Pophale) SiO2 
 PCOD9417894
Probable space group: P M N A
;
_chemical_formula_sum "Si O2"
_cell_formula_units_Z 40
_cell_length_a 8.845853
_cell_length_b 12.802580
_cell_length_c 18.534175
_cell_angle_alpha 90.000000
_cell_angle_beta 90.000000
_cell_angle_gamma 90.000000
_cell_volume 2098.990513
_symmetry_space_group_name_H-M "P M N A"
_symmetry_group_IT_number 53
_symmetry_cell_setting 'orthorhombic'
loop_
_space_group_symop_operation_xyz
x,y,z
1/2-x,-y,1/2+z
x,-y,-z
1/2-x,y,1/2-z
-x,-y,-z
1/2+x,y,1/2-z
-x,y,z
1/2+x,-y,1/2+z
loop_
_atom_site_type_symbol
_atom_site_label
_atom_site_fract_x
_atom_site_fract_y
_atom_site_fract_z
Si Si1 0.181232 0.858840 0.327837
Si Si2 0.181477 0.901193 0.671184
Si Si3 0.819957 0.287923 0.087511
Si Si4 0.181763 0.329401 0.567700
Si Si5 0.319734 0.497322 0.328427
O O1 0.250000 0.831878 0.250000
O O2 0.224749 0.775475 0.388208
O O3 0.000000 0.855691 0.321051
O O4 0.223554 0.978428 0.345835
O O5 0.250000 0.877724 0.750000
O O6 0.246314 0.819173 0.614585
O O7 0.000000 0.893605 0.673970
O O8 0.790225 0.378892 0.145940
O O9 0.000000 0.276203 0.080626
O O10 0.750622 0.323607 0.011700
O O11 0.246281 0.425793 0.613169
O O12 0.000000 0.335847 0.563816
O O13 0.250000 0.516749 0.250000
O O14 0.500000 0.513747 0.326503
#
# Coordination Sequence:
#
# PCOD9417894 Si02
#       5
#     8   8   8   8   8
#     4   9  20  37  58  85 115 149 189 235 283 335
#     4  10  20  37  60  85 115 150 191 236 283 336
#     4  11  24  40  58  84 118 153 191 236 286 338
#     4  11  23  39  60  86 117 152 190 234 287 342
#     4  11  24  41  61  85 114 148 189 236 284 338
#
# _framework density 19.056781000000001
#
# number of rings (size 3 to 8) (size 9 to 14) (size 15 to 20)
#    0.000    1.600    0.000    4.200    0.000   12.000 
#    0.000    4.000    0.000    0.000    0.000    0.000 
#    0.000    0.000    0.000    0.000    0.000    0.000 
#
# Total GULP energy -223646.013253 kJ/mol
# GULP energy per Si atom -5591.150331 kJ/mol
# Density = 1.901341 g / cm^3
# Si number density = 19.056781 Si / 1000 Ang^3
#
#
#
# Elastic Constant Matrix: (Units=GPa)
#
#
# Indices 1 2 3 4 5 6 
#
# 1 47.1938 28.1782 18.1498 0.0000 0.0000 0.0000
# 2 28.1782 51.6062 9.8170 0.0000 0.0000 0.0000
# 3 18.1498 9.8170 46.6836 0.0000 0.0000 0.0000
# 4 0.0000 0.0000 0.0000 30.2275 0.0000 0.0000
# 5 0.0000 0.0000 0.0000 0.0000 39.2753 0.0000
# 6 0.0000 0.0000 0.0000 0.0000 0.0000 30.8016
#
#
#
# Elastic Compliance Matrix: (Units=1/GPa)
#
#
# Indices 1 2 3 4 5 6 
#
# 1 0.035514 -0.017463 -0.010135 0.000000 0.000000 0.000000
# 2 -0.017463 0.028772 0.000739 0.000000 0.000000 0.000000
# 3 -0.010135 0.000739 0.025206 0.000000 0.000000 0.000000
# 4 0.000000 0.000000 0.000000 0.033082 0.000000 0.000000
# 5 0.000000 0.000000 0.000000 0.000000 0.025461 0.000000
# 6 0.000000 0.000000 0.000000 0.000000 0.000000 0.032466
#
#
# Mechanical properties :
#
#
# Convention : Reuss Voigt Hill
#
# Bulk Modulus (GPa) = 27.95378 28.64150 28.29764
# Shear Modulus (GPa) = 20.31327 26.01681 23.16504
#
# Velocity S-wave (km/s) = 3.26841 3.69890 3.49030
# Velocity P-wave (km/s) = 5.37995 5.77102 5.57891
#
# Compressibility (1/GPa) = 0.03577334
#
# Stress axis : x y z
#
# Youngs Moduli (GPa) = 28.15798 34.75556 39.67364
#
# Poissons Ratio (x) = 0.60695 0.40209
# Poissons Ratio (y) = 0.49174 -0.02932
# Poissons Ratio (z) = 0.28538 -0.02569
#
# Static dielectric constant tensor:
#      x y z
#    x 1.634540 0.000000 0.000000 
#    y 0.000000 1.663070 0.000000 
#    z 0.000000 0.000000 1.618860 
# 
# From -- ./inp_files/19843.got.cif
#   From: 2010.05.17/outbox.cif.g08.bks.cpg/sg53_10_cif.got.tgz:19843.got - 2010.06.03 12:45:16.
