data_PCOD9417844
_publ_section_title
;
Structure prediction by ZEFSAII (Michael W. Deem and Ramdas Pophale) SiO2 
 PCOD9417844
Probable space group: P M N A
;
_chemical_formula_sum "Si O2"
_cell_formula_units_Z 48
_cell_length_a 8.639202
_cell_length_b 31.089280
_cell_length_c 9.711571
_cell_angle_alpha 90.000000
_cell_angle_beta 90.000000
_cell_angle_gamma 90.000000
_cell_volume 2608.397544
_symmetry_space_group_name_H-M "P M N A"
_symmetry_group_IT_number 53
_symmetry_cell_setting 'orthorhombic'
loop_
_space_group_symop_operation_xyz
x,y,z
1/2-x,-y,1/2+z
x,-y,-z
1/2-x,y,1/2-z
-x,-y,-z
1/2+x,y,1/2-z
-x,y,z
1/2+x,-y,1/2+z
loop_
_atom_site_type_symbol
_atom_site_label
_atom_site_fract_x
_atom_site_fract_y
_atom_site_fract_z
Si Si1 0.686465 0.461756 0.097603
Si Si2 0.686359 0.883684 0.899678
Si Si3 0.313036 0.040021 0.903901
Si Si4 0.813812 0.364048 0.404447
Si Si5 0.684714 0.711020 0.404068
Si Si6 0.686100 0.215882 0.099149
O O1 0.750000 0.468302 0.250000
O O2 0.500000 0.463258 0.101523
O O3 0.728786 0.413100 0.054573
O O4 0.742494 0.500000 0.000000
O O5 0.750000 0.896680 0.750000
O O6 0.500000 0.885193 0.893077
O O7 0.731060 0.834034 0.924746
O O8 0.737433 0.916382 0.018207
O O9 0.250000 0.036723 0.750000
O O10 0.500000 0.039920 0.897281
O O11 0.265461 0.000000 0.000000
O O12 0.750000 0.356794 0.250000
O O13 0.744393 0.329748 0.508936
O O14 0.000000 0.360256 0.401992
O O15 0.750000 0.709818 0.250000
O O16 0.500000 0.711168 0.400812
O O17 0.745445 0.752983 0.484510
O O18 0.750000 0.228208 0.250000
O O19 0.500000 0.219020 0.100010
#
# Coordination Sequence:
#
# PCOD9417844 Si02
#       6
#     8   8   8   8   8   8
#     4   9  19  35  55  81 111 143 180 221 265 316
#     4   9  19  35  56  82 110 141 179 222 265 316
#     4  10  21  36  54  79 110 143 181 223 268 319
#     4  10  20  37  59  82 110 145 185 225 268 321
#     4  12  25  40  57  80 110 143 181 226 277 326
#     4  10  20  37  59  83 111 144 183 223 268 323
#
# _framework density 18.402101999999999
#
# number of rings (size 3 to 8) (size 9 to 14) (size 15 to 20)
#    0.000    2.000    0.000    3.500    0.000    4.000 
#    0.000    3.333    0.000    0.000    0.000    0.000 
#    0.000    0.000    0.000    0.000    0.000    0.000 
#
# Total GULP energy -268100.754124 kJ/mol
# GULP energy per Si atom -5585.432378 kJ/mol
# Density = 1.836022 g / cm^3
# Si number density = 18.402102 Si / 1000 Ang^3
#
#
#
# Elastic Constant Matrix: (Units=GPa)
#
#
# Indices 1 2 3 4 5 6 
#
# 1 59.9785 45.4643 48.3950 0.0000 0.0000 0.0000
# 2 45.4643 132.9736 118.4060 0.0000 0.0000 0.0000
# 3 48.3950 118.4060 169.7291 0.0000 0.0000 0.0000
# 4 0.0000 0.0000 0.0000 37.9244 0.0000 0.0000
# 5 0.0000 0.0000 0.0000 0.0000 36.9512 0.0000
# 6 0.0000 0.0000 0.0000 0.0000 0.0000 28.6874
#
#
#
# Elastic Compliance Matrix: (Units=1/GPa)
#
#
# Indices 1 2 3 4 5 6 
#
# 1 0.023009 -0.005346 -0.002831 0.000000 0.000000 0.000000
# 2 -0.005346 0.021095 -0.013192 0.000000 0.000000 0.000000
# 3 -0.002831 -0.013192 0.015902 0.000000 0.000000 0.000000
# 4 0.000000 0.000000 0.000000 0.026368 0.000000 0.000000
# 5 0.000000 0.000000 0.000000 0.000000 0.027063 0.000000
# 6 0.000000 0.000000 0.000000 0.000000 0.000000 0.034859
#
#
# Mechanical properties :
#
#
# Convention : Reuss Voigt Hill
#
# Bulk Modulus (GPa) = 57.91053 87.46796 72.68925
# Shear Modulus (GPa) = 25.40794 30.74032 28.07413
#
# Velocity S-wave (km/s) = 3.71982 4.09158 3.91012
# Velocity P-wave (km/s) = 7.07017 8.36398 7.74414
#
# Compressibility (1/GPa) = 0.01726802
#
# Stress axis : x y z
#
# Youngs Moduli (GPa) = 43.46053 47.40559 62.88609
#
# Poissons Ratio (x) = 0.25343 0.17805
# Poissons Ratio (y) = 0.23234 0.82957
# Poissons Ratio (z) = 0.12305 0.62536
#
# Static dielectric constant tensor:
#      x y z
#    x 1.616860 0.000000 0.000000 
#    y 0.000000 1.650440 0.000000 
#    z 0.000000 0.000000 1.582140 
# 
# From -- ./inp_files/6662.got.cif
#   From: 2010.05.17/outbox.cif.g08.bks.cpg/sg53_4_cif.got.tgz:6662.got - 2010.06.03 12:45:16.
