data_PCOD9417834
_publ_section_title
;
Structure prediction by ZEFSAII (Michael W. Deem and Ramdas Pophale) SiO2 
 PCOD9417834
Probable space group: P M N A
;
_chemical_formula_sum "Si O2"
_cell_formula_units_Z 48
_cell_length_a 8.691461
_cell_length_b 31.674471
_cell_length_c 9.421504
_cell_angle_alpha 90.000000
_cell_angle_beta 90.000000
_cell_angle_gamma 90.000000
_cell_volume 2593.715832
_symmetry_space_group_name_H-M "P M N A"
_symmetry_group_IT_number 53
_symmetry_cell_setting 'orthorhombic'
loop_
_space_group_symop_operation_xyz
x,y,z
1/2-x,-y,1/2+z
x,-y,-z
1/2-x,y,1/2-z
-x,-y,-z
1/2+x,y,1/2-z
-x,y,z
1/2+x,-y,1/2+z
loop_
_atom_site_type_symbol
_atom_site_label
_atom_site_fract_x
_atom_site_fract_y
_atom_site_fract_z
Si Si1 0.316413 0.870834 0.591175
Si Si2 0.315042 0.205181 0.908058
Si Si3 0.315537 0.541881 0.409054
Si Si4 0.814889 0.619203 0.591471
Si Si5 0.184428 0.958918 0.591529
Si Si6 0.685050 0.699161 0.092365
O O1 0.250000 0.868089 0.750000
O O2 0.500000 0.871530 0.594869
O O3 0.256027 0.830868 0.505093
O O4 0.254390 0.915438 0.531396
O O5 0.250000 0.199776 0.750000
O O6 0.500000 0.201880 0.907943
O O7 0.272112 0.253141 0.952094
O O8 0.278670 0.500000 0.500000
O O9 0.250000 0.538984 0.250000
O O10 0.500000 0.546016 0.401903
O O11 0.245832 0.581639 0.492185
O O12 0.750000 0.615303 0.750000
O O13 0.766218 0.663308 0.517995
O O14 0.000000 0.617695 0.596679
O O15 0.250000 0.963982 0.750000
O O16 0.000000 0.954785 0.598012
O O17 0.223719 0.000000 0.500000
O O18 0.750000 0.691155 0.250000
O O19 0.500000 0.697751 0.102434
#
# Coordination Sequence:
#
# PCOD9417834 Si02
#       6
#     8   8   8   8   8   8
#     4  11  22  37  57  81 111 147 185 228 279 332
#     4  10  20  37  58  83 114 147 187 231 278 331
#     4  11  24  41  62  88 118 153 192 235 284 337
#     4  11  23  39  59  86 118 152 192 236 284 336
#     4  10  21  37  57  81 109 142 182 227 275 330
#     4   9  20  37  58  83 112 147 186 231 280 333
#
# _framework density 18.506267000000001
#
# number of rings (size 3 to 8) (size 9 to 14) (size 15 to 20)
#    0.000    1.667    0.000    5.500    0.000    8.667 
#    0.000    3.333    0.000    0.000    0.000    0.000 
#    0.000    0.000    0.000    0.000    0.000    0.000 
#
# Total GULP energy -268209.828626 kJ/mol
# GULP energy per Si atom -5587.704763 kJ/mol
# Density = 1.846415 g / cm^3
# Si number density = 18.506267 Si / 1000 Ang^3
#
#
#
# Elastic Constant Matrix: (Units=GPa)
#
#
# Indices 1 2 3 4 5 6 
#
# 1 84.0344 75.5925 51.6046 0.0000 0.0000 0.0000
# 2 75.5925 189.2802 109.5607 0.0000 0.0000 0.0000
# 3 51.6046 109.5607 123.8834 0.0000 0.0000 0.0000
# 4 0.0000 0.0000 0.0000 41.2148 0.0000 0.0000
# 5 0.0000 0.0000 0.0000 0.0000 34.6447 0.0000
# 6 0.0000 0.0000 0.0000 0.0000 0.0000 63.4299
#
#
#
# Elastic Compliance Matrix: (Units=1/GPa)
#
#
# Indices 1 2 3 4 5 6 
#
# 1 0.018930 -0.006138 -0.002457 0.000000 0.000000 0.000000
# 2 -0.006138 0.012814 -0.008776 0.000000 0.000000 0.000000
# 3 -0.002457 -0.008776 0.016857 0.000000 0.000000 0.000000
# 4 0.000000 0.000000 0.000000 0.024263 0.000000 0.000000
# 5 0.000000 0.000000 0.000000 0.000000 0.028864 0.000000
# 6 0.000000 0.000000 0.000000 0.000000 0.000000 0.015765
#
#
# Mechanical properties :
#
#
# Convention : Reuss Voigt Hill
#
# Bulk Modulus (GPa) = 72.15404 96.74596 84.45000
# Shear Modulus (GPa) = 31.87639 38.55389 35.21514
#
# Velocity S-wave (km/s) = 4.15476 4.56926 4.36693
# Velocity P-wave (km/s) = 7.87970 8.95703 8.43558
#
# Compressibility (1/GPa) = 0.01385924
#
# Stress axis : x y z
#
# Youngs Moduli (GPa) = 52.82619 78.03900 59.32225
#
# Poissons Ratio (x) = 0.47897 0.14578
# Poissons Ratio (y) = 0.32423 0.52061
# Poissons Ratio (z) = 0.12982 0.68487
#
# Static dielectric constant tensor:
#      x y z
#    x 1.619970 0.000000 0.000000 
#    y 0.000000 1.646860 0.000000 
#    z 0.000000 0.000000 1.583830 
# 
# From -- ./inp_files/6627.got.cif
#   From: 2010.05.17/outbox.cif.g08.bks.cpg/sg53_4_cif.got.tgz:6627.got - 2010.06.03 12:45:16.
