data_PCOD9417498
_publ_section_title
;
Structure prediction by ZEFSAII (Michael W. Deem and Ramdas Pophale) SiO2 
 PCOD9417498
Probable space group: P M N A
;
_chemical_formula_sum "Si O2"
_cell_formula_units_Z 60
_cell_length_a 26.766147
_cell_length_b 20.376645
_cell_length_c 5.380726
_cell_angle_alpha 90.000000
_cell_angle_beta 90.000000
_cell_angle_gamma 90.000000
_cell_volume 2934.670965
_symmetry_space_group_name_H-M "P M N A"
_symmetry_group_IT_number 53
_symmetry_cell_setting 'orthorhombic'
loop_
_space_group_symop_operation_xyz
x,y,z
1/2-x,-y,1/2+z
x,-y,-z
1/2-x,y,1/2-z
-x,-y,-z
1/2+x,y,1/2-z
-x,y,z
1/2+x,-y,1/2+z
loop_
_atom_site_type_symbol
_atom_site_label
_atom_site_fract_x
_atom_site_fract_y
_atom_site_fract_z
Si Si1 0.129759 0.355345 0.803369
Si Si2 0.808357 0.042804 0.248576
Si Si3 0.941326 0.276595 0.155425
Si Si4 0.800375 0.564758 0.850425
Si Si5 0.054029 0.404226 0.491052
Si Si6 0.306485 0.241929 0.834067
Si Si7 0.884434 0.500000 0.500000
Si Si8 0.650560 0.181757 0.320437
O O1 0.102579 0.416037 0.668469
O O2 0.161660 0.308080 0.631024
O O3 0.084872 0.313633 0.923807
O O4 0.169541 0.382424 0.992132
O O5 0.750000 0.066035 0.250000
O O6 0.845665 0.103832 0.216783
O O7 0.816099 0.000000 0.500000
O O8 0.813274 0.000000 0.000000
O O9 0.940145 0.333311 0.366026
O O10 0.903957 0.216168 0.213547
O O11 0.000000 0.259937 0.115066
O O12 0.750000 0.596387 0.750000
O O13 0.840422 0.537822 0.661967
O O14 0.783313 0.500000 0.000000
O O15 0.067972 0.464173 0.320194
O O16 0.000000 0.406235 0.605082
O O17 0.250000 0.253526 0.750000
O O18 0.330740 0.203000 0.596674
O O19 0.313494 0.206798 0.097845
#
# Coordination Sequence:
#
# PCOD9417498 Si02
#       8
#     8   8   8   8   8   8   4   8
#     4  11  23  39  59  84 116 150 200 255 317 380
#     4  10  20  35  60  92 130 172 213 253 304 365
#     4  10  22  40  62  88 119 159 206 261 320 375
#     4  12  25  40  59  79 110 153 195 251 306 394
#     4  11  22  39  61  85 113 147 199 259 322 380
#     4  11  23  37  61  90 127 163 206 256 312 374
#     4  12  23  40  60  82 114 146 201 250 320 378
#     4  11  22  40  62  94 130 171 213 257 313 371
#
# _framework density 20.445221
#
# number of rings (size 3 to 8) (size 9 to 14) (size 15 to 20)
#    0.000    1.067    4.667    2.600    0.000    4.800 
#    0.000    0.667    0.000    0.800    0.000    0.000 
#    0.000    0.000    0.000    0.000    0.000    0.000 
#
# Total GULP energy -334202.726673 kJ/mol
# GULP energy per Si atom -5570.045445 kJ/mol
# Density = 2.039869 g / cm^3
# Si number density = 20.445221 Si / 1000 Ang^3
#
#
#
# Elastic Constant Matrix: (Units=GPa)
#
#
# Indices 1 2 3 4 5 6 
#
# 1 151.8578 45.8462 22.6757 0.0000 0.0000 0.0000
# 2 45.8462 106.8628 20.5160 0.0000 0.0000 0.0000
# 3 22.6757 20.5160 71.6126 0.0000 0.0000 0.0000
# 4 0.0000 0.0000 0.0000 282.0692 0.0000 0.0000
# 5 0.0000 0.0000 0.0000 0.0000 21.0503 0.0000
# 6 0.0000 0.0000 0.0000 0.0000 0.0000 37.1173
#
#
#
# Elastic Compliance Matrix: (Units=1/GPa)
#
#
# Indices 1 2 3 4 5 6 
#
# 1 0.007731 -0.003013 -0.001585 0.000000 0.000000 0.000000
# 2 -0.003013 0.011076 -0.002219 0.000000 0.000000 0.000000
# 3 -0.001585 -0.002219 0.015102 0.000000 0.000000 0.000000
# 4 0.000000 0.000000 0.000000 0.003545 0.000000 0.000000
# 5 0.000000 0.000000 0.000000 0.000000 0.047505 0.000000
# 6 0.000000 0.000000 0.000000 0.000000 0.000000 0.026942
#
#
# Mechanical properties :
#
#
# Convention : Reuss Voigt Hill
#
# Bulk Modulus (GPa) = 49.32049 56.48991 52.90520
# Shear Modulus (GPa) = 37.79469 84.13371 60.96420
#
# Velocity S-wave (km/s) = 4.30418 6.42185 5.46654
# Velocity P-wave (km/s) = 6.99120 9.09267 8.11029
#
# Compressibility (1/GPa) = 0.02027555
#
# Stress axis : x y z
#
# Youngs Moduli (GPa) = 129.34461 90.28273 66.21769
#
# Poissons Ratio (x) = 0.27198 0.10496
# Poissons Ratio (y) = 0.38966 0.14696
# Poissons Ratio (z) = 0.20501 0.20036
#
# Static dielectric constant tensor:
#      x y z
#    x 1.730990 0.000000 0.000000 
#    y 0.000000 1.855220 0.000000 
#    z 0.000000 0.000000 1.901820 
# 
# From -- ./inp_files/3841.got.cif
#   From: 2010.05.17/outbox.cif.g08.bks.cpg/sg53_2_cif.got.tgz:3841.got - 2010.06.03 12:45:16.
