data_PCOD9417195
_publ_section_title
;
Structure prediction by ZEFSAII (Michael W. Deem and Ramdas Pophale) SiO2 
 PCOD9417195
Probable space group: P M N A
;
_chemical_formula_sum "Si O2"
_cell_formula_units_Z 40
_cell_length_a 21.346414
_cell_length_b 9.333419
_cell_length_c 11.161750
_cell_angle_alpha 90.000000
_cell_angle_beta 90.000000
_cell_angle_gamma 90.000000
_cell_volume 2223.811552
_symmetry_space_group_name_H-M "P M N A"
_symmetry_group_IT_number 53
_symmetry_cell_setting 'orthorhombic'
loop_
_space_group_symop_operation_xyz
x,y,z
1/2-x,-y,1/2+z
x,-y,-z
1/2-x,y,1/2-z
-x,-y,-z
1/2+x,y,1/2-z
-x,y,z
1/2+x,-y,1/2+z
loop_
_atom_site_type_symbol
_atom_site_label
_atom_site_fract_x
_atom_site_fract_y
_atom_site_fract_z
Si Si1 0.265302 0.279311 0.611469
Si Si2 0.322753 0.000000 0.500000
Si Si3 0.832683 0.500000 0.500000
Si Si4 0.905341 0.376792 0.906989
Si Si5 0.570285 0.163204 0.392009
Si Si6 0.930204 0.421637 0.298263
O O1 0.250000 0.252356 0.750000
O O2 0.211257 0.375294 0.553230
O O3 0.330540 0.365930 0.603324
O O4 0.280425 0.131153 0.544098
O O5 0.370871 0.943507 0.603059
O O6 0.877093 0.434889 0.397217
O O7 0.929251 0.432071 0.780135
O O8 0.923609 0.500000 0.000000
O O9 0.928082 0.235012 0.974859
O O10 0.500000 0.104492 0.372473
O O11 0.580666 0.289726 0.294639
O O12 0.000000 0.402633 0.349328
#
# Coordination Sequence:
#
# PCOD9417195 Si02
#       6
#     8   4   4   8   8   8
#     4  11  22  37  55  81 113 150 190 233 281 336
#     4  10  23  36  56  84 111 146 196 234 284 338
#     4  12  23  36  60  84 117 156 190 230 284 346
#     4   9  16  31  54  84 110 138 182 231 282 328
#     4   9  18  34  57  83 113 147 186 237 289 333
#     4  10  20  34  56  87 117 147 188 237 286 339
#
# _framework density 17.987137000000001
#
# number of rings (size 3 to 8) (size 9 to 14) (size 15 to 20)
#    0.000    2.000    3.000    1.200    0.000    4.000 
#    0.000    0.000    0.000    0.000    0.000    4.200 
#    0.000    0.000    0.000    0.000    0.000    0.000 
#
# Total GULP energy -222909.701527 kJ/mol
# GULP energy per Si atom -5572.742538 kJ/mol
# Density = 1.794620 g / cm^3
# Si number density = 17.987137 Si / 1000 Ang^3
#
#
#
# Elastic Constant Matrix: (Units=GPa)
#
#
# Indices 1 2 3 4 5 6 
#
# 1 145.6095 51.4404 61.6168 0.0000 0.0000 0.0000
# 2 51.4404 89.7629 36.7856 0.0000 0.0000 0.0000
# 3 61.6168 36.7856 83.8792 0.0000 0.0000 0.0000
# 4 0.0000 0.0000 0.0000 16.8838 0.0000 0.0000
# 5 0.0000 0.0000 0.0000 0.0000 22.5085 0.0000
# 6 0.0000 0.0000 0.0000 0.0000 0.0000 3.0405
#
#
#
# Elastic Compliance Matrix: (Units=1/GPa)
#
#
# Indices 1 2 3 4 5 6 
#
# 1 0.010840 -0.003595 -0.006387 0.000000 0.000000 0.000000
# 2 -0.003595 0.014774 -0.003838 0.000000 0.000000 0.000000
# 3 -0.006387 -0.003838 0.018297 0.000000 0.000000 0.000000
# 4 0.000000 0.000000 0.000000 0.059228 0.000000 0.000000
# 5 0.000000 0.000000 0.000000 0.000000 0.044428 0.000000
# 6 0.000000 0.000000 0.000000 0.000000 0.000000 0.328889
#
#
# Mechanical properties :
#
#
# Convention : Reuss Voigt Hill
#
# Bulk Modulus (GPa) = 61.45880 68.77081 65.11480
# Shear Modulus (GPa) = 9.81319 19.78048 14.79683
#
# Velocity S-wave (km/s) = 2.33827 3.31977 2.87127
# Velocity P-wave (km/s) = 6.44456 7.28085 6.87544
#
# Compressibility (1/GPa) = 0.01627106
#
# Stress axis : x y z
#
# Youngs Moduli (GPa) = 92.24854 67.68854 54.65476
#
# Poissons Ratio (x) = 0.24334 0.34906
# Poissons Ratio (y) = 0.33163 0.20977
# Poissons Ratio (z) = 0.58915 0.25980
#
# Static dielectric constant tensor:
#      x y z
#    x 1.636610 0.000000 0.000000 
#    y 0.000000 1.638410 0.000000 
#    z 0.000000 0.000000 1.606580 
# 
# From -- ./inp_files/17687.got.cif
#   From: 2010.05.17/outbox.cif.g08.bks.cpg/sg53_9_cif.got.tgz:17687.got - 2010.06.03 12:45:16.
