data_PCOD9417965
_publ_section_title
;
Structure prediction by ZEFSAII (Michael W. Deem and Ramdas Pophale) SiO2 
 PCOD9417965
Probable space group: P M N A
;
_chemical_formula_sum "Si O2"
_cell_formula_units_Z 64
_cell_length_a 18.551823
_cell_length_b 15.157714
_cell_length_c 11.266454
_cell_angle_alpha 90.000000
_cell_angle_beta 90.000000
_cell_angle_gamma 90.000000
_cell_volume 3168.163224
_symmetry_space_group_name_H-M "P M N A"
_symmetry_group_IT_number 53
_symmetry_cell_setting 'orthorhombic'
loop_
_space_group_symop_operation_xyz
x,y,z
1/2-x,-y,1/2+z
x,-y,-z
1/2-x,y,1/2-z
-x,-y,-z
1/2+x,y,1/2-z
-x,y,z
1/2+x,-y,1/2+z
loop_
_atom_site_type_symbol
_atom_site_label
_atom_site_fract_x
_atom_site_fract_y
_atom_site_fract_z
Si Si1 0.586880 0.895634 0.019950
Si Si2 0.835579 0.862189 0.239826
Si Si3 0.854368 0.313463 0.898274
Si Si4 0.413949 0.635915 0.653991
Si Si5 0.417561 0.024293 0.362313
Si Si6 0.769712 0.446531 0.618311
Si Si7 0.581825 0.551110 0.219888
Si Si8 0.413174 0.193836 0.222589
O O1 0.500000 0.887699 0.033807
O O2 0.626321 0.853050 0.132447
O O3 0.611791 0.846453 0.900878
O O4 0.602097 0.000000 0.000000
O O5 0.750000 0.860256 0.250000
O O6 0.857421 0.786779 0.145499
O O7 0.863612 0.956941 0.197787
O O8 0.774437 0.355099 0.883177
O O9 0.905719 0.368910 0.810526
O O10 0.878153 0.337497 0.030479
O O11 0.500000 0.646004 0.637107
O O12 0.403949 0.537916 0.703878
O O13 0.387458 0.708511 0.748293
O O14 0.500000 0.010251 0.316414
O O15 0.418079 0.000000 0.500000
O O16 0.397820 0.124218 0.328033
O O17 0.748322 0.500000 0.500000
O O18 0.750000 0.485480 0.750000
O O19 0.855916 0.438240 0.622472
O O20 0.500000 0.548399 0.175282
O O21 0.500000 0.198346 0.213983
#
# Coordination Sequence:
#
# PCOD9417965 Si02
#       8
#     8   8   8   8   8   8   8   8
#     4  10  20  40  68  90 119 167 213 250 307 382
#     4  12  25  39  59  89 127 164 208 261 309 367
#     4  11  22  40  62  88 128 173 214 252 308 384
#     4  10  20  37  65  99 128 158 204 266 322 369
#     4  10  20  37  63  91 120 157 202 254 313 373
#     4  10  21  41  66  87 121 171 215 252 307 380
#     4  10  21  38  62  97 129 160 207 266 321 367
#     4   9  18  36  62  93 124 156 201 254 308 376
#
# _framework density 20.200979
#
# number of rings (size 3 to 8) (size 9 to 14) (size 15 to 20)
#    0.000    1.750    1.250    4.500    0.000    4.750 
#    6.750    0.000    0.000    0.000    0.000    0.000 
#    0.000    0.000    0.000    0.000    0.000    0.000 
#
# Total GULP energy -357163.605568 kJ/mol
# GULP energy per Si atom -5580.681337 kJ/mol
# Density = 2.015500 g / cm^3
# Si number density = 20.200979 Si / 1000 Ang^3
#
#
#
# Elastic Constant Matrix: (Units=GPa)
#
#
# Indices 1 2 3 4 5 6 
#
# 1 79.0983 15.7028 11.5901 0.0000 0.0000 0.0000
# 2 15.7028 41.0200 -20.1484 0.0000 0.0000 0.0000
# 3 11.5901 -20.1484 50.4127 0.0000 0.0000 0.0000
# 4 0.0000 0.0000 0.0000 23.5182 0.0000 0.0000
# 5 0.0000 0.0000 0.0000 0.0000 21.8371 0.0000
# 6 0.0000 0.0000 0.0000 0.0000 0.0000 14.1667
#
#
#
# Elastic Compliance Matrix: (Units=1/GPa)
#
#
# Indices 1 2 3 4 5 6 
#
# 1 0.015652 -0.009654 -0.007457 0.000000 0.000000 0.000000
# 2 -0.009654 0.036288 0.016723 0.000000 0.000000 0.000000
# 3 -0.007457 0.016723 0.028234 0.000000 0.000000 0.000000
# 4 0.000000 0.000000 0.000000 0.042520 0.000000 0.000000
# 5 0.000000 0.000000 0.000000 0.000000 0.045794 0.000000
# 6 0.000000 0.000000 0.000000 0.000000 0.000000 0.070588
#
#
# Mechanical properties :
#
#
# Convention : Reuss Voigt Hill
#
# Bulk Modulus (GPa) = 12.59492 20.53556 16.56524
# Shear Modulus (GPa) = 18.77448 22.79683 20.78565
#
# Velocity S-wave (km/s) = 3.05189 3.36296 3.21119
# Velocity P-wave (km/s) = 4.32054 5.02663 4.68690
#
# Compressibility (1/GPa) = 0.07939707
#
# Stress axis : x y z
#
# Youngs Moduli (GPa) = 63.89056 27.55726 35.41794
#
# Poissons Ratio (x) = 0.26605 0.26411
# Poissons Ratio (y) = 0.61682 -0.59229
# Poissons Ratio (z) = 0.47643 -0.46084
#
# Static dielectric constant tensor:
#      x y z
#    x 1.718870 0.000000 0.000000 
#    y 0.000000 1.711180 0.000000 
#    z 0.000000 0.000000 1.748330 
# 
# From -- ./inp_files/17140.got.cif
#   From: 2010.05.17/outbox.cif.g08.bks.cpg/sg53_9_cif.got.tgz:17140.got - 2010.06.03 12:45:16.
