data_PCOD9417171
_publ_section_title
;
Structure prediction by ZEFSAII (Michael W. Deem and Ramdas Pophale) SiO2 
 PCOD9417171
Probable space group: P M N A
;
_chemical_formula_sum "Si O2"
_cell_formula_units_Z 40
_cell_length_a 8.900706
_cell_length_b 8.241477
_cell_length_c 26.670657
_cell_angle_alpha 90.000000
_cell_angle_beta 90.000000
_cell_angle_gamma 90.000000
_cell_volume 1956.425078
_symmetry_space_group_name_H-M "P M N A"
_symmetry_group_IT_number 53
_symmetry_cell_setting 'orthorhombic'
loop_
_space_group_symop_operation_xyz
x,y,z
1/2-x,-y,1/2+z
x,-y,-z
1/2-x,y,1/2-z
-x,-y,-z
1/2+x,y,1/2-z
-x,y,z
1/2+x,-y,1/2+z
loop_
_atom_site_type_symbol
_atom_site_label
_atom_site_fract_x
_atom_site_fract_y
_atom_site_fract_z
Si Si1 0.819634 0.370360 0.696097
Si Si2 0.325097 0.655178 0.975486
Si Si3 0.818582 0.298360 0.362401
Si Si4 0.838511 0.867633 0.042987
Si Si5 0.675137 0.034673 0.657776
O O1 0.750000 0.409478 0.750000
O O2 0.781503 0.523196 0.659769
O O3 0.755664 0.193708 0.680389
O O4 0.000000 0.360203 0.698270
O O5 0.500000 0.622641 0.966052
O O6 0.266365 0.704695 0.920892
O O7 0.248033 0.500000 0.000000
O O8 0.305103 0.776321 0.021594
O O9 0.000000 0.279829 0.360313
O O10 0.747517 0.143135 0.334065
O O11 0.816679 0.936534 0.097897
O O12 0.000000 0.776104 0.043864
O O13 0.855071 0.000000 0.000000
O O14 0.500000 0.033588 0.673026
#
# Coordination Sequence:
#
# PCOD9417171 Si02
#       5
#     8   8   8   8   8
#     4  11  25  46  69  93 123 158 206 264 322 380
#     4  10  20  34  55  85 120 161 207 251 301 358
#     4  10  22  40  63  91 125 165 209 260 312 371
#     4  10  20  35  54  84 124 162 201 244 292 353
#     4  11  23  40  65  94 129 170 212 257 312 374
#
# _framework density 20.445454000000002
#
# number of rings (size 3 to 8) (size 9 to 14) (size 15 to 20)
#    0.000    1.600    2.000    2.400    0.000    6.400 
#    0.000    2.000    0.000    0.000    0.000    0.000 
#    0.000    0.000    0.000    0.000    0.000    0.000 
#
# Total GULP energy -222687.447209 kJ/mol
# GULP energy per Si atom -5567.186180 kJ/mol
# Density = 2.039892 g / cm^3
# Si number density = 20.445454 Si / 1000 Ang^3
#
#
#
# Elastic Constant Matrix: (Units=GPa)
#
#
# Indices 1 2 3 4 5 6 
#
# 1 58.0247 53.1498 27.6403 0.0000 0.0000 0.0000
# 2 53.1498 116.8315 10.4668 0.0000 0.0000 0.0000
# 3 27.6403 10.4668 41.7345 0.0000 0.0000 0.0000
# 4 0.0000 0.0000 0.0000 24.9225 0.0000 0.0000
# 5 0.0000 0.0000 0.0000 0.0000 46.3492 0.0000
# 6 0.0000 0.0000 0.0000 0.0000 0.0000 9.9564
#
#
#
# Elastic Compliance Matrix: (Units=1/GPa)
#
#
# Indices 1 2 3 4 5 6 
#
# 1 0.047585 -0.019257 -0.026685 0.000000 0.000000 0.000000
# 2 -0.019257 0.016549 0.008603 0.000000 0.000000 0.000000
# 3 -0.026685 0.008603 0.039477 0.000000 0.000000 0.000000
# 4 0.000000 0.000000 0.000000 0.040124 0.000000 0.000000
# 5 0.000000 0.000000 0.000000 0.000000 0.021575 0.000000
# 6 0.000000 0.000000 0.000000 0.000000 0.000000 0.100438
#
#
# Mechanical properties :
#
#
# Convention : Reuss Voigt Hill
#
# Bulk Modulus (GPa) = 34.56316 44.34494 39.45405
# Shear Modulus (GPa) = 14.28285 24.60121 19.44203
#
# Velocity S-wave (km/s) = 2.64594 3.47257 3.08705
# Velocity P-wave (km/s) = 5.12605 6.14937 5.66088
#
# Compressibility (1/GPa) = 0.02893254
#
# Stress axis : x y z
#
# Youngs Moduli (GPa) = 21.01519 60.42646 25.33140
#
# Poissons Ratio (x) = 1.16362 0.67598
# Poissons Ratio (y) = 0.40469 -0.21793
# Poissons Ratio (z) = 0.56080 -0.51986
#
# Static dielectric constant tensor:
#      x y z
#    x 1.777230 0.000000 0.000000 
#    y 0.000000 1.727750 0.000000 
#    z 0.000000 0.000000 1.716360 
# 
# From -- ./inp_files/33656.got.cif
#   From: 2010.05.17/outbox.cif.g08.bks.cpg/sg53_17_cif.got.tgz:33656.got - 2010.06.03 12:45:16.
