data_PCOD9417870
_publ_section_title
;
Structure prediction by ZEFSAII (Michael W. Deem and Ramdas Pophale) SiO2 
 PCOD9417870
Probable space group: P M N A
;
_chemical_formula_sum "Si O2"
_cell_formula_units_Z 48
_cell_length_a 29.006712
_cell_length_b 12.262863
_cell_length_c 7.300916
_cell_angle_alpha 90.000000
_cell_angle_beta 90.000000
_cell_angle_gamma 90.000000
_cell_volume 2596.974774
_symmetry_space_group_name_H-M "P M N A"
_symmetry_group_IT_number 53
_symmetry_cell_setting 'orthorhombic'
loop_
_space_group_symop_operation_xyz
x,y,z
1/2-x,-y,1/2+z
x,-y,-z
1/2-x,y,1/2-z
-x,-y,-z
1/2+x,y,1/2-z
-x,y,z
1/2+x,-y,1/2+z
loop_
_atom_site_type_symbol
_atom_site_label
_atom_site_fract_x
_atom_site_fract_y
_atom_site_fract_z
Si Si1 0.103834 0.209807 0.242055
Si Si2 0.947528 0.986846 0.279328
Si Si3 0.197835 0.862775 0.292255
Si Si4 0.945495 0.371751 0.965401
Si Si5 0.197275 0.889156 0.726258
Si Si6 0.895525 0.764658 0.318200
O O1 0.077879 0.094671 0.209879
O O2 0.079788 0.302047 0.122801
O O3 0.157256 0.185960 0.193642
O O4 0.101258 0.236692 0.460316
O O5 0.000000 0.979654 0.214448
O O6 0.948471 0.000000 0.500000
O O7 0.920176 0.875586 0.248583
O O8 0.250000 0.827180 0.250000
O O9 0.190988 0.884156 0.508009
O O10 0.157234 0.778463 0.251508
O O11 0.192526 0.984876 0.209870
O O12 0.000000 0.345674 0.962549
O O13 0.940345 0.500000 0.000000
O O14 0.921791 0.334362 0.776384
O O15 0.250000 0.854529 0.750000
#
# Coordination Sequence:
#
# PCOD9417870 Si02
#       6
#     8   8   8   8   8   8
#     4  10  20  37  59  84 117 153 188 231 292 350
#     4   9  16  29  52  81 114 146 178 222 280 349
#     4   9  17  30  51  84 121 152 183 222 276 346
#     4  11  26  43  59  83 111 148 205 255 289 336
#     4   9  17  30  51  84 121 152 183 222 276 346
#     4  10  20  37  59  84 117 153 188 231 292 350
#
# _framework density 18.483045000000001
#
# number of rings (size 3 to 8) (size 9 to 14) (size 15 to 20)
#    0.000    2.333    1.667    1.000    2.333    3.333 
#    0.000    3.333    0.000    1.000    0.000    0.000 
#    0.000    0.000    0.000    0.000    0.000    0.000 
#
# Total GULP energy -267848.783884 kJ/mol
# GULP energy per Si atom -5580.182998 kJ/mol
# Density = 1.844098 g / cm^3
# Si number density = 18.483045 Si / 1000 Ang^3
#
#
#
# Elastic Constant Matrix: (Units=GPa)
#
#
# Indices 1 2 3 4 5 6 
#
# 1 128.8628 28.4797 -14.8136 0.0000 0.0000 0.0000
# 2 28.4797 46.4770 -12.2561 0.0000 0.0000 0.0000
# 3 -14.8136 -12.2561 33.0646 0.0000 0.0000 0.0000
# 4 0.0000 0.0000 0.0000 -32.3695 0.0000 0.0000
# 5 0.0000 0.0000 0.0000 0.0000 22.3969 0.0000
# 6 0.0000 0.0000 0.0000 0.0000 0.0000 103.0506
#
#
#
# Elastic Compliance Matrix: (Units=1/GPa)
#
#
# Indices 1 2 3 4 5 6 
#
# 1 0.009122 -0.005001 0.002233 0.000000 0.000000 0.000000
# 2 -0.005001 0.026589 0.007615 0.000000 0.000000 0.000000
# 3 0.002233 0.007615 0.034067 0.000000 0.000000 0.000000
# 4 0.000000 0.000000 0.000000 -0.030893 0.000000 0.000000
# 5 0.000000 0.000000 0.000000 0.000000 0.044649 0.000000
# 6 0.000000 0.000000 0.000000 0.000000 0.000000 0.009704
#
#
# Mechanical properties :
#
#
# Convention : Reuss Voigt Hill
#
# Bulk Modulus (GPa) = 12.58296 23.46939 18.02618
# Shear Modulus (GPa) = 45.44079 32.41523 38.92801
#
# Velocity S-wave (km/s) = 4.96372 4.19236 4.59426
# Velocity P-wave (km/s) = 6.29873 6.01331 6.15767
#
# Compressibility (1/GPa) = 0.07947253
#
# Stress axis : x y z
#
# Youngs Moduli (GPa) = 109.62329 37.61023 29.35392
#
# Poissons Ratio (x) = 0.18808 -0.06555
# Poissons Ratio (y) = 0.54821 -0.22353
# Poissons Ratio (z) = -0.24481 -0.28641
#
# Static dielectric constant tensor:
#      x y z
#    x 1.670650 0.000000 0.000000 
#    y 0.000000 1.585240 0.000000 
#    z 0.000000 0.000000 1.674750 
# 
# From -- ./inp_files/12438.got.cif
#   From: 2010.05.17/outbox.cif.g08.bks.cpg/sg53_7_cif.got.tgz:12438.got - 2010.06.03 12:45:16.
