data_PCOD9417227
_publ_section_title
;
Structure prediction by ZEFSAII (Michael W. Deem and Ramdas Pophale) SiO2 
 PCOD9417227
Probable space group: P M N A
;
_chemical_formula_sum "Si O2"
_cell_formula_units_Z 64
_cell_length_a 19.255494
_cell_length_b 12.201198
_cell_length_c 14.330655
_cell_angle_alpha 90.000000
_cell_angle_beta 90.000000
_cell_angle_gamma 90.000000
_cell_volume 3366.845445
_symmetry_space_group_name_H-M "P M N A"
_symmetry_group_IT_number 53
_symmetry_cell_setting 'orthorhombic'
loop_
_space_group_symop_operation_xyz
x,y,z
1/2-x,-y,1/2+z
x,-y,-z
1/2-x,y,1/2-z
-x,-y,-z
1/2+x,y,1/2-z
-x,y,z
1/2+x,-y,1/2+z
loop_
_atom_site_type_symbol
_atom_site_label
_atom_site_fract_x
_atom_site_fract_y
_atom_site_fract_z
Si Si1 0.167428 0.398300 0.267927
Si Si2 0.282266 0.752496 0.460095
Si Si3 0.663137 0.414188 0.914480
Si Si4 0.080256 0.210121 0.650734
Si Si5 0.710030 0.055481 0.850927
Si Si6 0.075535 0.714870 0.136518
Si Si7 0.078879 0.466359 0.101866
Si Si8 0.285518 0.804027 0.850654
O O1 0.250000 0.403656 0.250000
O O2 0.152483 0.508069 0.325513
O O3 0.125292 0.395878 0.171396
O O4 0.156457 0.288938 0.330760
O O5 0.236696 0.651947 0.416937
O O6 0.256669 0.867452 0.416731
O O7 0.362027 0.740854 0.432773
O O8 0.263660 0.756021 0.568886
O O9 0.607828 0.314944 0.908177
O O10 0.659690 0.500000 0.000000
O O11 0.134951 0.112336 0.641754
O O12 0.085758 0.237930 0.760752
O O13 0.000000 0.186342 0.628866
O O14 0.750000 0.061393 0.750000
O O15 0.698798 0.928807 0.877592
O O16 0.073431 0.584720 0.149036
O O17 0.000000 0.750880 0.100394
O O18 0.000000 0.422724 0.088459
O O19 0.107909 0.500000 0.000000
O O20 0.250000 0.815546 0.750000
#
# Coordination Sequence:
#
# PCOD9417227 Si02
#       8
#     8   8   8   8   8   8   8   8
#     4  11  22  36  56  87 123 157 199 249 297 358
#     4  11  21  36  63  89 122 159 202 257 298 366
#     4  11  22  35  57  91 121 158 201 241 305 355
#     4  10  21  38  62  90 121 155 199 254 306 360
#     4  10  20  39  63  88 114 156 210 256 308 354
#     4  10  20  34  58  91 122 155 195 245 304 357
#     4  10  22  38  59  86 124 167 197 234 301 377
#     4  10  23  38  57  86 117 158 203 252 308 349
#
# _framework density 19.008891999999999
#
# number of rings (size 3 to 8) (size 9 to 14) (size 15 to 20)
#    0.000    1.625    3.750    1.125    3.500    1.250 
#    0.000    0.625    0.000   10.500    0.000    0.000 
#    0.000    0.000    0.000    0.000    0.000    0.000 
#
# Total GULP energy -356616.428482 kJ/mol
# GULP energy per Si atom -5572.131695 kJ/mol
# Density = 1.896563 g / cm^3
# Si number density = 19.008892 Si / 1000 Ang^3
#
#
#
# Elastic Constant Matrix: (Units=GPa)
#
#
# Indices 1 2 3 4 5 6 
#
# 1 120.0694 43.1443 38.9856 0.0000 0.0000 0.0000
# 2 43.1443 119.0785 25.4023 0.0000 0.0000 0.0000
# 3 38.9856 25.4023 91.3930 0.0000 0.0000 0.0000
# 4 0.0000 0.0000 0.0000 21.4547 0.0000 0.0000
# 5 0.0000 0.0000 0.0000 0.0000 23.6865 0.0000
# 6 0.0000 0.0000 0.0000 0.0000 0.0000 1.3455
#
#
#
# Elastic Compliance Matrix: (Units=1/GPa)
#
#
# Indices 1 2 3 4 5 6 
#
# 1 0.010625 -0.003064 -0.003680 0.000000 0.000000 0.000000
# 2 -0.003064 0.009811 -0.001420 0.000000 0.000000 0.000000
# 3 -0.003680 -0.001420 0.012906 0.000000 0.000000 0.000000
# 4 0.000000 0.000000 0.000000 0.046610 0.000000 0.000000
# 5 0.000000 0.000000 0.000000 0.000000 0.042218 0.000000
# 6 0.000000 0.000000 0.000000 0.000000 0.000000 0.743239
#
#
# Mechanical properties :
#
#
# Convention : Reuss Voigt Hill
#
# Bulk Modulus (GPa) = 58.77914 60.62281 59.70098
# Shear Modulus (GPa) = 5.63438 24.16457 14.89948
#
# Velocity S-wave (km/s) = 1.72352 3.56929 2.80271
# Velocity P-wave (km/s) = 5.91183 6.99625 6.47678
#
# Compressibility (1/GPa) = 0.01701284
#
# Stress axis : x y z
#
# Youngs Moduli (GPa) = 94.12082 101.92681 77.48127
#
# Poissons Ratio (x) = 0.31234 0.28517
# Poissons Ratio (y) = 0.28842 0.11000
# Poissons Ratio (z) = 0.34641 0.14471
#
# Static dielectric constant tensor:
#      x y z
#    x 1.694860 0.000000 0.000000 
#    y 0.000000 1.694910 0.000000 
#    z 0.000000 0.000000 1.717900 
# 
# From -- ./inp_files/23924.got.cif
#   From: 2010.05.17/outbox.cif.g08.bks.cpg/sg53_12_cif.got.tgz:23924.got - 2010.06.03 12:45:16.
