data_PCOD9417466
_publ_section_title
;
Structure prediction by ZEFSAII (Michael W. Deem and Ramdas Pophale) SiO2 
 PCOD9417466
Probable space group: P M N A
;
_chemical_formula_sum "Si O2"
_cell_formula_units_Z 48
_cell_length_a 8.509374
_cell_length_b 9.956626
_cell_length_c 28.351768
_cell_angle_alpha 90.000000
_cell_angle_beta 90.000000
_cell_angle_gamma 90.000000
_cell_volume 2402.093746
_symmetry_space_group_name_H-M "P M N A"
_symmetry_group_IT_number 53
_symmetry_cell_setting 'orthorhombic'
loop_
_space_group_symop_operation_xyz
x,y,z
1/2-x,-y,1/2+z
x,-y,-z
1/2-x,y,1/2-z
-x,-y,-z
1/2+x,y,1/2-z
-x,y,z
1/2+x,-y,1/2+z
loop_
_atom_site_type_symbol
_atom_site_label
_atom_site_fract_x
_atom_site_fract_y
_atom_site_fract_z
Si Si1 0.814445 0.556800 0.894952
Si Si2 0.185572 0.312402 0.548304
Si Si3 0.185225 0.803240 0.553396
Si Si4 0.686755 0.903546 0.199220
Si Si5 0.316300 0.060544 0.600943
Si Si6 0.188592 0.401073 0.799724
O O1 0.775979 0.442685 0.933577
O O2 0.719656 0.689529 0.908002
O O3 0.772040 0.492704 0.844451
O O4 0.000000 0.586527 0.895252
O O5 0.233509 0.259927 0.496757
O O6 0.000000 0.343345 0.547235
O O7 0.220223 0.190154 0.583739
O O8 0.277391 0.937167 0.566803
O O9 0.000000 0.834932 0.550973
O O10 0.750000 0.950367 0.250000
O O11 0.500000 0.915615 0.197607
O O12 0.735442 0.746354 0.195161
O O13 0.763848 0.973855 0.154071
O O14 0.500000 0.093744 0.600149
O O15 0.250000 0.456985 0.750000
O O16 0.000000 0.384130 0.798189
#
# Coordination Sequence:
#
# PCOD9417466 Si02
#       6
#     8   8   8   8   8   8
#     4  11  23  39  61  90 123 158 201 248 300 359
#     4  11  23  40  63  89 118 158 205 251 300 358
#     4  11  25  42  60  86 122 161 203 249 304 363
#     4  11  21  36  61  90 121 155 196 246 298 352
#     4  12  24  40  62  90 122 158 202 249 302 360
#     4  10  20  35  58  89 120 153 196 245 294 350
#
# _framework density 19.982568000000001
#
# number of rings (size 3 to 8) (size 9 to 14) (size 15 to 20)
#    0.000    1.000    1.667    7.000    0.000    8.667 
#    0.000    0.833    0.000    2.000    0.000    0.000 
#    0.000    0.000    0.000    0.000    0.000    0.000 
#
# Total GULP energy -268545.642095 kJ/mol
# GULP energy per Si atom -5594.700877 kJ/mol
# Density = 1.993709 g / cm^3
# Si number density = 19.982568 Si / 1000 Ang^3
#
#
#
# Elastic Constant Matrix: (Units=GPa)
#
#
# Indices 1 2 3 4 5 6 
#
# 1 34.7191 -16.2489 10.2235 0.0000 0.0000 0.0000
# 2 -16.2489 26.5735 -14.8514 0.0000 0.0000 0.0000
# 3 10.2235 -14.8514 83.3968 0.0000 0.0000 0.0000
# 4 0.0000 0.0000 0.0000 6.1571 0.0000 0.0000
# 5 0.0000 0.0000 0.0000 0.0000 42.5842 0.0000
# 6 0.0000 0.0000 0.0000 0.0000 0.0000 144.2409
#
#
#
# Elastic Compliance Matrix: (Units=1/GPa)
#
#
# Indices 1 2 3 4 5 6 
#
# 1 0.040378 0.024347 -0.000614 0.000000 0.000000 0.000000
# 2 0.024347 0.056471 0.007072 0.000000 0.000000 0.000000
# 3 -0.000614 0.007072 0.013326 0.000000 0.000000 0.000000
# 4 0.000000 0.000000 0.000000 0.162415 0.000000 0.000000
# 5 0.000000 0.000000 0.000000 0.000000 0.023483 0.000000
# 6 0.000000 0.000000 0.000000 0.000000 0.000000 0.006933
#
#
# Mechanical properties :
#
#
# Convention : Reuss Voigt Hill
#
# Bulk Modulus (GPa) = 5.82129 11.43730 8.62930
# Shear Modulus (GPa) = 16.74156 49.63420 33.18788
#
# Velocity S-wave (km/s) = 2.89763 4.98926 4.07976
# Velocity P-wave (km/s) = 3.75693 6.23909 5.14980
#
# Compressibility (1/GPa) = 0.17178310
#
# Stress axis : x y z
#
# Youngs Moduli (GPa) = 24.76603 17.70818 75.04397
#
# Poissons Ratio (x) = -0.43114 0.04609
# Poissons Ratio (y) = -0.60297 -0.53070
# Poissons Ratio (z) = 0.01521 -0.12523
#
# Static dielectric constant tensor:
#      x y z
#    x 1.666340 0.000000 0.000000 
#    y 0.000000 1.668980 0.000000 
#    z 0.000000 0.000000 1.737260 
# 
# From -- ./inp_files/37709.got.cif
#   From: 2010.05.17/outbox.cif.g08.bks.cpg/sg53_19_cif.got.tgz:37709.got - 2010.06.03 12:45:16.
