data_PCOD9417916
_publ_section_title
;
Structure prediction by ZEFSAII (Michael W. Deem and Ramdas Pophale) SiO2 
 PCOD9417916
Probable space group: P M N A
;
_chemical_formula_sum "Si O2"
_cell_formula_units_Z 48
_cell_length_a 9.213681
_cell_length_b 19.039866
_cell_length_c 15.025840
_cell_angle_alpha 90.000000
_cell_angle_beta 90.000000
_cell_angle_gamma 90.000000
_cell_volume 2635.941814
_symmetry_space_group_name_H-M "P M N A"
_symmetry_group_IT_number 53
_symmetry_cell_setting 'orthorhombic'
loop_
_space_group_symop_operation_xyz
x,y,z
1/2-x,-y,1/2+z
x,-y,-z
1/2-x,y,1/2-z
-x,-y,-z
1/2+x,y,1/2-z
-x,y,z
1/2+x,-y,1/2+z
loop_
_atom_site_type_symbol
_atom_site_label
_atom_site_fract_x
_atom_site_fract_y
_atom_site_fract_z
Si Si1 0.331737 0.502215 0.606772
Si Si2 0.674463 0.110834 0.513698
Si Si3 0.674034 0.338025 0.341611
Si Si4 0.326011 0.012522 0.346682
Si Si5 0.669733 0.636611 0.164268
Si Si6 0.327996 0.742087 0.000388
O O1 0.321932 0.500000 0.500000
O O2 0.500000 0.489619 0.631589
O O3 0.291061 0.580070 0.638286
O O4 0.234533 0.440151 0.644594
O O5 0.500000 0.122430 0.514402
O O6 0.707340 0.057626 0.595300
O O7 0.761844 0.182427 0.523041
O O8 0.709734 0.074110 0.418315
O O9 0.750000 0.318477 0.250000
O O10 0.500000 0.331419 0.338129
O O11 0.740696 0.290176 0.418144
O O12 0.250000 0.016186 0.250000
O O13 0.500000 0.014312 0.333027
O O14 0.750000 0.666346 0.250000
O O15 0.500000 0.630553 0.181566
O O16 0.692262 0.687463 0.080947
O O17 0.500000 0.746921 0.981580
#
# Coordination Sequence:
#
# PCOD9417916 Si02
#       6
#     8   8   8   8   8   8
#     4  10  20  37  61  86 111 146 192 241 296 350
#     4   9  20  39  60  84 118 156 188 226 281 341
#     4  11  23  39  60  84 114 151 193 241 293 348
#     4   9  19  37  62  90 117 149 189 229 277 335
#     4  11  24  39  58  83 114 152 195 243 293 346
#     4  11  24  40  58  85 118 153 195 239 286 341
#
# _framework density 18.209810000000001
#
# number of rings (size 3 to 8) (size 9 to 14) (size 15 to 20)
#    0.000    1.833    1.667    3.000    0.000    7.667 
#    0.000    6.667    0.000    0.000    0.000    0.000 
#    0.000    0.000    0.000    0.000    0.000    0.000 
#
# Total GULP energy -268060.663080 kJ/mol
# GULP energy per Si atom -5584.597147 kJ/mol
# Density = 1.816836 g / cm^3
# Si number density = 18.209810 Si / 1000 Ang^3
#
#
#
# Elastic Constant Matrix: (Units=GPa)
#
#
# Indices 1 2 3 4 5 6 
#
# 1 40.3609 16.9863 19.7777 0.0000 0.0000 0.0000
# 2 16.9863 42.8181 -16.8685 0.0000 0.0000 0.0000
# 3 19.7777 -16.8685 68.7451 0.0000 0.0000 0.0000
# 4 0.0000 0.0000 0.0000 12.9733 0.0000 0.0000
# 5 0.0000 0.0000 0.0000 0.0000 16.7664 0.0000
# 6 0.0000 0.0000 0.0000 0.0000 0.0000 0.6807
#
#
#
# Elastic Compliance Matrix: (Units=1/GPa)
#
#
# Indices 1 2 3 4 5 6 
#
# 1 0.044763 -0.025275 -0.019080 0.000000 0.000000 0.000000
# 2 -0.025275 0.040125 0.017117 0.000000 0.000000 0.000000
# 3 -0.019080 0.017117 0.024236 0.000000 0.000000 0.000000
# 4 0.000000 0.000000 0.000000 0.077081 0.000000 0.000000
# 5 0.000000 0.000000 0.000000 0.000000 0.059643 0.000000
# 6 0.000000 0.000000 0.000000 0.000000 0.000000 1.469141
#
#
# Mechanical properties :
#
#
# Convention : Reuss Voigt Hill
#
# Bulk Modulus (GPa) = 18.29874 21.30169 19.80022
# Shear Modulus (GPa) = 2.79692 14.88598 8.84145
#
# Velocity S-wave (km/s) = 1.24068 2.86225 2.20587
# Velocity P-wave (km/s) = 3.48181 4.75884 4.16951
#
# Compressibility (1/GPa) = 0.05464857
#
# Stress axis : x y z
#
# Youngs Moduli (GPa) = 22.33979 24.92234 41.26118
#
# Poissons Ratio (x) = 0.62990 0.78726
# Poissons Ratio (y) = 0.56463 -0.70627
# Poissons Ratio (z) = 0.42624 -0.42660
#
# Static dielectric constant tensor:
#      x y z
#    x 1.601710 0.000000 0.000000 
#    y 0.000000 1.608040 0.000000 
#    z 0.000000 0.000000 1.629710 
# 
# From -- ./inp_files/20172.got.cif
#   From: 2010.05.17/outbox.cif.g08.bks.cpg/sg53_11_cif.got.tgz:20172.got - 2010.06.03 12:45:16.
