data_PCOD9417026
_publ_section_title
;
Structure prediction by ZEFSAII (Michael W. Deem and Ramdas Pophale) SiO2 
 PCOD9417026
Probable space group: P M N A
;
_chemical_formula_sum "Si O2"
_cell_formula_units_Z 48
_cell_length_a 8.730559
_cell_length_b 20.631664
_cell_length_c 14.468702
_cell_angle_alpha 90.000000
_cell_angle_beta 90.000000
_cell_angle_gamma 90.000000
_cell_volume 2606.188835
_symmetry_space_group_name_H-M "P M N A"
_symmetry_group_IT_number 53
_symmetry_cell_setting 'orthorhombic'
loop_
_space_group_symop_operation_xyz
x,y,z
1/2-x,-y,1/2+z
x,-y,-z
1/2-x,y,1/2-z
-x,-y,-z
1/2+x,y,1/2-z
-x,y,z
1/2+x,-y,1/2+z
loop_
_atom_site_type_symbol
_atom_site_label
_atom_site_fract_x
_atom_site_fract_y
_atom_site_fract_z
Si Si1 0.816955 0.380602 0.151330
Si Si2 0.185043 0.031643 0.352196
Si Si3 0.814760 0.775062 0.352436
Si Si4 0.816864 0.647622 0.463372
Si Si5 0.683216 0.532418 0.349248
Si Si6 0.186100 0.098156 0.538339
O O1 0.750000 0.360621 0.250000
O O2 0.775373 0.456918 0.137778
O O3 0.000000 0.376004 0.151634
O O4 0.746059 0.342393 0.066095
O O5 0.250000 0.042292 0.250000
O O6 0.234245 0.081600 0.433372
O O7 0.000000 0.033176 0.346849
O O8 0.230032 0.961200 0.393925
O O9 0.750000 0.782593 0.250000
O O10 0.769193 0.706434 0.396819
O O11 0.763383 0.834100 0.418238
O O12 0.000000 0.776557 0.348107
O O13 0.750280 0.580523 0.424678
O O14 0.000000 0.644305 0.464911
O O15 0.750000 0.552475 0.250000
O O16 0.500000 0.537053 0.349099
O O17 0.000000 0.098273 0.536579
#
# Coordination Sequence:
#
# PCOD9417026 Si02
#       6
#     8   8   8   8   8   8
#     4  10  21  37  56  76  99 129 167 212 259 305
#     4   9  16  29  52  77 101 132 168 207 250 293
#     4  10  21  36  53  74 102 135 169 205 247 298
#     4  11  22  34  51  75 103 136 170 206 251 303
#     4  10  20  34  53  77 103 131 165 209 259 306
#     4   8  16  32  51  72 102 138 169 200 248 302
#
# _framework density 18.417698000000001
#
# number of rings (size 3 to 8) (size 9 to 14) (size 15 to 20)
#    0.000    2.333    0.000    4.000    0.000    6.667 
#    0.000    3.333    0.000    2.000    0.000    0.000 
#    0.000    0.000    0.000    0.000    0.000    0.000 
#
# Total GULP energy -267882.837839 kJ/mol
# GULP energy per Si atom -5580.892455 kJ/mol
# Density = 1.837578 g / cm^3
# Si number density = 18.417698 Si / 1000 Ang^3
#
#
#
# Elastic Constant Matrix: (Units=GPa)
#
#
# Indices 1 2 3 4 5 6 
#
# 1 16.8126 11.2316 21.6547 0.0000 0.0000 0.0000
# 2 11.2316 29.5664 30.3518 0.0000 0.0000 0.0000
# 3 21.6547 30.3518 153.5835 0.0000 0.0000 0.0000
# 4 0.0000 0.0000 0.0000 28.5695 0.0000 0.0000
# 5 0.0000 0.0000 0.0000 0.0000 36.7457 0.0000
# 6 0.0000 0.0000 0.0000 0.0000 0.0000 12.1162
#
#
#
# Elastic Compliance Matrix: (Units=1/GPa)
#
#
# Indices 1 2 3 4 5 6 
#
# 1 0.085407 -0.025193 -0.007063 0.000000 0.000000 0.000000
# 2 -0.025193 0.049862 -0.006302 0.000000 0.000000 0.000000
# 3 -0.007063 -0.006302 0.008752 0.000000 0.000000 0.000000
# 4 0.000000 0.000000 0.000000 0.035002 0.000000 0.000000
# 5 0.000000 0.000000 0.000000 0.000000 0.027214 0.000000
# 6 0.000000 0.000000 0.000000 0.000000 0.000000 0.082534
#
#
# Mechanical properties :
#
#
# Convention : Reuss Voigt Hill
#
# Bulk Modulus (GPa) = 14.94668 36.27097 25.60883
# Shear Modulus (GPa) = 12.88029 24.60123 18.74076
#
# Velocity S-wave (km/s) = 2.64738 3.65874 3.19335
# Velocity P-wave (km/s) = 4.18065 6.13064 5.24703
#
# Compressibility (1/GPa) = 0.06690448
#
# Stress axis : x y z
#
# Youngs Moduli (GPa) = 11.70864 20.05547 114.25469
#
# Poissons Ratio (x) = 0.50526 0.80701
# Poissons Ratio (y) = 0.29498 0.72000
# Poissons Ratio (z) = 0.08270 0.12638
#
# Static dielectric constant tensor:
#      x y z
#    x 1.619700 0.000000 0.000000 
#    y 0.000000 1.633500 0.000000 
#    z 0.000000 0.000000 1.613660 
# 
# From -- ./inp_files/20204.got.cif
#   From: 2010.05.17/outbox.cif.g08.bks.cpg/sg53_11_cif.got.tgz:20204.got - 2010.06.03 12:45:16.
