data_PCOD9417611
_publ_section_title
;
Structure prediction by ZEFSAII (Michael W. Deem and Ramdas Pophale) SiO2 
 PCOD9417611
Probable space group: P M N A
;
_chemical_formula_sum "Si O2"
_cell_formula_units_Z 48
_cell_length_a 8.727875
_cell_length_b 17.851695
_cell_length_c 15.912704
_cell_angle_alpha 90.000000
_cell_angle_beta 90.000000
_cell_angle_gamma 90.000000
_cell_volume 2479.316440
_symmetry_space_group_name_H-M "P M N A"
_symmetry_group_IT_number 53
_symmetry_cell_setting 'orthorhombic'
loop_
_space_group_symop_operation_xyz
x,y,z
1/2-x,-y,1/2+z
x,-y,-z
1/2-x,y,1/2-z
-x,-y,-z
1/2+x,y,1/2-z
-x,y,z
1/2+x,-y,1/2+z
loop_
_atom_site_type_symbol
_atom_site_label
_atom_site_fract_x
_atom_site_fract_y
_atom_site_fract_z
Si Si1 0.815409 0.314431 0.344826
Si Si2 0.682809 0.851471 0.842642
Si Si3 0.169322 0.994751 0.098425
Si Si4 0.317740 0.156830 0.843215
Si Si5 0.184673 0.588070 0.495002
Si Si6 0.316722 0.686016 0.345118
O O1 0.750000 0.325592 0.250000
O O2 0.776859 0.230528 0.378776
O O3 0.767108 0.372279 0.417313
O O4 0.000000 0.318047 0.336656
O O5 0.750000 0.846309 0.750000
O O6 0.500000 0.858186 0.843295
O O7 0.753362 0.927319 0.877382
O O8 0.267839 0.921051 0.115981
O O9 0.000000 0.987554 0.139336
O O10 0.150825 0.000000 0.000000
O O11 0.250000 0.152239 0.750000
O O12 0.500000 0.164528 0.843113
O O13 0.243721 0.233107 0.877903
O O14 0.218299 0.500000 0.500000
O O15 0.260467 0.625596 0.413131
O O16 0.000000 0.597610 0.487643
O O17 0.250000 0.674736 0.250000
O O18 0.500000 0.687083 0.339030
#
# Coordination Sequence:
#
# PCOD9417611 Si02
#       6
#     8   8   8   8   8   8
#     4   9  20  38  61  89 120 159 202 249 302 360
#     4  10  20  36  57  81 110 150 197 242 295 349
#     4  11  24  38  53  81 118 154 196 242 293 346
#     4  11  22  39  62  85 115 154 199 246 299 355
#     4  10  22  41  64  93 128 164 202 251 310 370
#     4  11  23  41  65  93 125 163 208 255 310 368
#
# _framework density 19.360175999999999
#
# number of rings (size 3 to 8) (size 9 to 14) (size 15 to 20)
#    0.000    1.667    0.000    5.500    2.333    3.667 
#    0.000    1.667    0.000    0.000    0.000    0.000 
#    0.000    0.000    0.000    0.000    0.000    0.000 
#
# Total GULP energy -267822.437581 kJ/mol
# GULP energy per Si atom -5579.634116 kJ/mol
# Density = 1.931611 g / cm^3
# Si number density = 19.360176 Si / 1000 Ang^3
#
#
#
# Elastic Constant Matrix: (Units=GPa)
#
#
# Indices 1 2 3 4 5 6 
#
# 1 117.9061 76.7160 43.3996 0.0000 0.0000 0.0000
# 2 76.7160 182.7916 81.9830 0.0000 0.0000 0.0000
# 3 43.3996 81.9830 85.7701 0.0000 0.0000 0.0000
# 4 0.0000 0.0000 0.0000 42.7363 0.0000 0.0000
# 5 0.0000 0.0000 0.0000 0.0000 20.6155 0.0000
# 6 0.0000 0.0000 0.0000 0.0000 0.0000 27.0026
#
#
#
# Elastic Compliance Matrix: (Units=1/GPa)
#
#
# Indices 1 2 3 4 5 6 
#
# 1 0.011896 -0.004014 -0.002183 0.000000 0.000000 0.000000
# 2 -0.004014 0.010930 -0.008417 0.000000 0.000000 0.000000
# 3 -0.002183 -0.008417 0.020809 0.000000 0.000000 0.000000
# 4 0.000000 0.000000 0.000000 0.023399 0.000000 0.000000
# 5 0.000000 0.000000 0.000000 0.000000 0.048507 0.000000
# 6 0.000000 0.000000 0.000000 0.000000 0.000000 0.037033
#
#
# Mechanical properties :
#
#
# Convention : Reuss Voigt Hill
#
# Bulk Modulus (GPa) = 69.40374 87.85169 78.62772
# Shear Modulus (GPa) = 26.79463 30.36217 28.57840
#
# Velocity S-wave (km/s) = 3.72426 3.96445 3.84623
# Velocity P-wave (km/s) = 7.37699 8.15057 7.77341
#
# Compressibility (1/GPa) = 0.01440844
#
# Stress axis : x y z
#
# Youngs Moduli (GPa) = 84.05896 91.49061 48.05694
#
# Poissons Ratio (x) = 0.36721 0.10491
# Poissons Ratio (y) = 0.33739 0.40447
# Poissons Ratio (z) = 0.18351 0.77004
#
# Static dielectric constant tensor:
#      x y z
#    x 1.706320 0.000000 0.000000 
#    y 0.000000 1.792850 0.000000 
#    z 0.000000 0.000000 1.641440 
# 
# From -- ./inp_files/20255.got.cif
#   From: 2010.05.17/outbox.cif.g08.bks.cpg/sg53_11_cif.got.tgz:20255.got - 2010.06.03 12:45:16.
