data_PCOD9417875
_publ_section_title
;
Structure prediction by ZEFSAII (Michael W. Deem and Ramdas Pophale) SiO2 
 PCOD9417875
Probable space group: P M N A
;
_chemical_formula_sum "Si O2"
_cell_formula_units_Z 64
_cell_length_a 9.012659
_cell_length_b 21.275688
_cell_length_c 16.885274
_cell_angle_alpha 90.000000
_cell_angle_beta 90.000000
_cell_angle_gamma 90.000000
_cell_volume 3237.760086
_symmetry_space_group_name_H-M "P M N A"
_symmetry_group_IT_number 53
_symmetry_cell_setting 'orthorhombic'
loop_
_space_group_symop_operation_xyz
x,y,z
1/2-x,-y,1/2+z
x,-y,-z
1/2-x,y,1/2-z
-x,-y,-z
1/2+x,y,1/2-z
-x,y,z
1/2+x,-y,1/2+z
loop_
_atom_site_type_symbol
_atom_site_label
_atom_site_fract_x
_atom_site_fract_y
_atom_site_fract_z
Si Si1 0.678122 0.358528 0.836824
Si Si2 0.826682 0.901411 0.070794
Si Si3 0.673712 0.424730 0.002181
Si Si4 0.329824 0.870684 0.918648
Si Si5 0.171733 0.383218 0.166178
Si Si6 0.322889 0.789237 0.165102
Si Si7 0.672257 0.767776 0.667913
Si Si8 0.170475 0.005128 0.330874
O O1 0.750000 0.374030 0.750000
O O2 0.500000 0.367113 0.828534
O O3 0.707505 0.284360 0.852976
O O4 0.726070 0.396324 0.916691
O O5 0.749223 0.839412 0.106785
O O6 0.752746 0.964018 0.104139
O O7 0.000000 0.900336 0.087596
O O8 0.787260 0.898261 0.979446
O O9 0.500000 0.406238 0.009317
O O10 0.754851 0.404692 0.083499
O O11 0.682976 0.500000 0.000000
O O12 0.500000 0.869748 0.948549
O O13 0.272450 0.802065 0.896647
O O14 0.326294 0.920482 0.847214
O O15 0.250000 0.401862 0.250000
O O16 0.175657 0.307324 0.162728
O O17 0.000000 0.403578 0.169205
O O18 0.250000 0.801829 0.250000
O O19 0.500000 0.797349 0.167689
O O20 0.750000 0.785377 0.750000
O O21 0.500000 0.788046 0.664441
O O22 0.250000 0.990004 0.250000
O O23 0.000000 0.985213 0.329270
#
# Coordination Sequence:
#
# PCOD9417875 Si02
#       8
#     8   8   8   8   8   8   8   8
#     4   9  20  38  61  89 121 163 205 254 310 365
#     4  12  25  39  58  85 117 152 192 242 297 354
#     4  10  22  40  62  92 129 167 210 257 309 370
#     4  11  24  40  60  86 117 153 193 243 298 356
#     4  10  22  40  63  92 126 167 212 260 313 370
#     4  10  20  37  59  85 115 151 196 243 299 359
#     4  10  21  38  60  89 120 155 199 246 299 359
#     4  11  24  42  62  83 111 150 195 241 293 353
#
# _framework density 19.766752
#
# number of rings (size 3 to 8) (size 9 to 14) (size 15 to 20)
#    0.000    1.625    0.000    4.125    1.750    7.750 
#    0.000    1.250    0.000    0.000    0.000    0.000 
#    0.000    0.000    0.000    0.000    0.000    0.000 
#
# Total GULP energy -357167.662213 kJ/mol
# GULP energy per Si atom -5580.744722 kJ/mol
# Density = 1.972176 g / cm^3
# Si number density = 19.766752 Si / 1000 Ang^3
#
#
#
# Elastic Constant Matrix: (Units=GPa)
#
#
# Indices 1 2 3 4 5 6 
#
# 1 116.8682 37.4882 45.8819 0.0000 0.0000 0.0000
# 2 37.4882 44.2639 34.0924 0.0000 0.0000 0.0000
# 3 45.8819 34.0924 103.7131 0.0000 0.0000 0.0000
# 4 0.0000 0.0000 0.0000 28.4536 0.0000 0.0000
# 5 0.0000 0.0000 0.0000 0.0000 37.8325 0.0000
# 6 0.0000 0.0000 0.0000 0.0000 0.0000 24.2614
#
#
#
# Elastic Compliance Matrix: (Units=1/GPa)
#
#
# Indices 1 2 3 4 5 6 
#
# 1 0.012287 -0.008328 -0.002698 0.000000 0.000000 0.000000
# 2 -0.008328 0.035896 -0.008115 0.000000 0.000000 0.000000
# 3 -0.002698 -0.008115 0.013503 0.000000 0.000000 0.000000
# 4 0.000000 0.000000 0.000000 0.035145 0.000000 0.000000
# 5 0.000000 0.000000 0.000000 0.000000 0.026432 0.000000
# 6 0.000000 0.000000 0.000000 0.000000 0.000000 0.041218
#
#
# Mechanical properties :
#
#
# Convention : Reuss Voigt Hill
#
# Bulk Modulus (GPa) = 42.72974 55.53002 49.12988
# Shear Modulus (GPa) = 23.74554 27.93500 25.84027
#
# Velocity S-wave (km/s) = 3.46972 3.76338 3.61953
# Velocity P-wave (km/s) = 6.14132 6.85840 6.50974
#
# Compressibility (1/GPa) = 0.02340290
#
# Stress axis : x y z
#
# Youngs Moduli (GPa) = 81.38376 27.85854 74.05624
#
# Poissons Ratio (x) = 0.23202 0.19982
# Poissons Ratio (y) = 0.67779 0.60098
# Poissons Ratio (z) = 0.21959 0.22608
#
# Static dielectric constant tensor:
#      x y z
#    x 1.676150 0.000000 0.000000 
#    y 0.000000 1.691380 0.000000 
#    z 0.000000 0.000000 1.736070 
# 
# From -- ./inp_files/20984.got.cif
#   From: 2010.05.17/outbox.cif.g08.bks.cpg/sg53_11_cif.got.tgz:20984.got - 2010.06.03 12:45:16.
