data_PCOD9417494
_publ_section_title
;
Structure prediction by ZEFSAII (Michael W. Deem and Ramdas Pophale) SiO2 
 PCOD9417494
Probable space group: P M N A
;
_chemical_formula_sum "Si O2"
_cell_formula_units_Z 56
_cell_length_a 16.928645
_cell_length_b 11.719334
_cell_length_c 13.896901
_cell_angle_alpha 90.000000
_cell_angle_beta 90.000000
_cell_angle_gamma 90.000000
_cell_volume 2757.040166
_symmetry_space_group_name_H-M "P M N A"
_symmetry_group_IT_number 53
_symmetry_cell_setting 'orthorhombic'
loop_
_space_group_symop_operation_xyz
x,y,z
1/2-x,-y,1/2+z
x,-y,-z
1/2-x,y,1/2-z
-x,-y,-z
1/2+x,y,1/2-z
-x,y,z
1/2+x,-y,1/2+z
loop_
_atom_site_type_symbol
_atom_site_label
_atom_site_fract_x
_atom_site_fract_y
_atom_site_fract_z
Si Si1 0.911130 0.726151 0.320819
Si Si2 0.118764 0.566343 0.140511
Si Si3 0.699900 0.543968 0.106897
Si Si4 0.165992 0.830938 0.803542
Si Si5 0.912978 0.379149 0.274112
Si Si6 0.594648 0.919884 0.319781
Si Si7 0.591783 0.756845 0.504520
O O1 0.914156 0.645201 0.226344
O O2 0.850541 0.660480 0.388588
O O3 0.884547 0.845169 0.274628
O O4 0.000000 0.734960 0.360421
O O5 0.213274 0.564739 0.147539
O O6 0.089089 0.441560 0.169599
O O7 0.097167 0.631438 0.043264
O O8 0.651946 0.447281 0.164937
O O9 0.709690 0.500000 0.000000
O O10 0.250000 0.822881 0.750000
O O11 0.108073 0.752034 0.739829
O O12 0.154296 0.778253 0.910636
O O13 0.138739 0.960795 0.815252
O O14 0.000000 0.395455 0.316030
O O15 0.500000 0.937849 0.317707
O O16 0.609508 0.845737 0.416617
O O17 0.500000 0.777364 0.535455
#
# Coordination Sequence:
#
# PCOD9417494 Si02
#       7
#     8   8   8   8   8   8   8
#     4   9  18  37  63  87 115 153 201 250 294 355
#     4  10  20  35  60  89 122 149 189 250 309 352
#     4  11  23  36  58  88 122 161 199 248 300 359
#     4  12  25  37  57  85 128 162 191 240 305 371
#     4  11  23  40  60  83 120 164 205 245 299 365
#     4   9  19  39  65  91 116 150 202 254 302 357
#     4  10  21  39  66  95 120 154 201 251 303 360
#
# _framework density 20.311637999999999
#
# number of rings (size 3 to 8) (size 9 to 14) (size 15 to 20)
#    0.000    1.714    0.000    7.714    4.000    4.571 
#    0.000    1.429    0.000    0.000    0.000    3.000 
#    0.000    0.000    0.000    0.000    0.000    0.000 
#
# Total GULP energy -312663.576325 kJ/mol
# GULP energy per Si atom -5583.278149 kJ/mol
# Density = 2.026541 g / cm^3
# Si number density = 20.311638 Si / 1000 Ang^3
#
#
#
# Elastic Constant Matrix: (Units=GPa)
#
#
# Indices 1 2 3 4 5 6 
#
# 1 104.0212 28.8837 23.4615 0.0000 0.0000 0.0000
# 2 28.8837 86.6542 16.2116 0.0000 0.0000 0.0000
# 3 23.4615 16.2116 39.2024 0.0000 0.0000 0.0000
# 4 0.0000 0.0000 0.0000 28.0534 0.0000 0.0000
# 5 0.0000 0.0000 0.0000 0.0000 29.3243 0.0000
# 6 0.0000 0.0000 0.0000 0.0000 0.0000 32.3678
#
#
#
# Elastic Compliance Matrix: (Units=1/GPa)
#
#
# Indices 1 2 3 4 5 6 
#
# 1 0.011713 -0.002810 -0.005848 0.000000 0.000000 0.000000
# 2 -0.002810 0.013182 -0.003769 0.000000 0.000000 0.000000
# 3 -0.005848 -0.003769 0.030567 0.000000 0.000000 0.000000
# 4 0.000000 0.000000 0.000000 0.035646 0.000000 0.000000
# 5 0.000000 0.000000 0.000000 0.000000 0.034101 0.000000
# 6 0.000000 0.000000 0.000000 0.000000 0.000000 0.030895
#
#
# Mechanical properties :
#
#
# Convention : Reuss Voigt Hill
#
# Bulk Modulus (GPa) = 32.67187 40.77683 36.72435
# Shear Modulus (GPa) = 26.15595 28.70383 27.42989
#
# Velocity S-wave (km/s) = 3.59239 3.76330 3.67884
# Velocity P-wave (km/s) = 5.77298 6.24519 6.01372
#
# Compressibility (1/GPa) = 0.03060737
#
# Stress axis : x y z
#
# Youngs Moduli (GPa) = 85.37812 75.86111 32.71491
#
# Poissons Ratio (x) = 0.21317 0.19130
# Poissons Ratio (y) = 0.23992 0.12332
# Poissons Ratio (z) = 0.49926 0.28596
#
# Static dielectric constant tensor:
#      x y z
#    x 1.715200 0.000000 0.000000 
#    y 0.000000 1.741170 0.000000 
#    z 0.000000 0.000000 1.753170 
# 
# From -- ./inp_files/22852.got.cif
#   From: 2010.05.17/outbox.cif.g08.bks.cpg/sg53_12_cif.got.tgz:22852.got - 2010.06.03 12:45:16.
