data_PCOD9417880
_publ_section_title
;
Structure prediction by ZEFSAII (Michael W. Deem and Ramdas Pophale) SiO2 
 PCOD9417880
Probable space group: P M N A
;
_chemical_formula_sum "Si O2"
_cell_formula_units_Z 48
_cell_length_a 9.343716
_cell_length_b 27.894023
_cell_length_c 10.328152
_cell_angle_alpha 90.000000
_cell_angle_beta 90.000000
_cell_angle_gamma 90.000000
_cell_volume 2691.865802
_symmetry_space_group_name_H-M "P M N A"
_symmetry_group_IT_number 53
_symmetry_cell_setting 'orthorhombic'
loop_
_space_group_symop_operation_xyz
x,y,z
1/2-x,-y,1/2+z
x,-y,-z
1/2-x,y,1/2-z
-x,-y,-z
1/2+x,y,1/2-z
-x,y,z
1/2+x,-y,1/2+z
loop_
_atom_site_type_symbol
_atom_site_label
_atom_site_fract_x
_atom_site_fract_y
_atom_site_fract_z
Si Si1 0.675831 0.204216 0.615136
Si Si2 0.668229 0.032057 0.118670
Si Si3 0.826567 0.692374 0.380272
Si Si4 0.000000 0.454489 0.092223
Si Si5 0.758562 0.382968 0.396634
Si Si6 0.328406 0.853838 0.886692
Si Si7 0.000000 0.461565 0.385957
O O1 0.750000 0.187400 0.750000
O O2 0.500000 0.204424 0.620552
O O3 0.742901 0.257519 0.597015
O O4 0.740274 0.172764 0.498884
O O5 0.750000 0.020687 0.250000
O O6 0.500000 0.022075 0.136417
O O7 0.682882 0.088810 0.092612
O O8 0.721206 0.000000 0.000000
O O9 0.750000 0.672657 0.250000
O O10 0.795731 0.657317 0.499686
O O11 0.000000 0.698838 0.364352
O O12 0.875200 0.416191 0.073821
O O13 0.000000 0.477706 0.236672
O O14 0.000000 0.500000 0.000000
O O15 0.750000 0.362718 0.250000
O O16 0.872636 0.424852 0.398146
O O17 0.250000 0.843061 0.750000
O O18 0.500000 0.841834 0.885120
O O19 0.000000 0.500000 0.500000
#
# Coordination Sequence:
#
# PCOD9417880 Si02
#       7
#     8   8   8   4   8   8   4
#     4  11  23  40  61  86 117 152 193 242 295 353
#     4   9  19  35  55  82 116 154 197 244 293 346
#     4  11  23  40  61  87 116 149 190 237 287 343
#     4  10  22  36  58  86 114 148 190 232 275 336
#     4  10  22  39  59  84 116 151 186 231 282 335
#     4  10  20  37  59  85 119 156 199 247 294 350
#     4  10  20  38  58  82 116 148 186 230 279 328
#
# _framework density 17.831499000000001
#
# number of rings (size 3 to 8) (size 9 to 14) (size 15 to 20)
#    0.000    1.833    0.833    4.000    2.333    3.667 
#    0.000    3.333    0.000    0.000    0.000    0.000 
#    0.000    0.000    0.000    0.000    0.000    0.000 
#
# Total GULP energy -267311.796422 kJ/mol
# GULP energy per Si atom -5568.995759 kJ/mol
# Density = 1.779091 g / cm^3
# Si number density = 17.831499 Si / 1000 Ang^3
#
#
#
# Elastic Constant Matrix: (Units=GPa)
#
#
# Indices 1 2 3 4 5 6 
#
# 1 177.4303 46.1144 77.2700 0.0000 0.0000 0.0000
# 2 46.1144 54.5230 87.3329 0.0000 0.0000 0.0000
# 3 77.2700 87.3329 183.9766 0.0000 0.0000 0.0000
# 4 0.0000 0.0000 0.0000 43.5384 0.0000 0.0000
# 5 0.0000 0.0000 0.0000 0.0000 30.2814 0.0000
# 6 0.0000 0.0000 0.0000 0.0000 0.0000 36.0165
#
#
#
# Elastic Compliance Matrix: (Units=1/GPa)
#
#
# Indices 1 2 3 4 5 6 
#
# 1 0.007238 -0.005226 -0.000559 0.000000 0.000000 0.000000
# 2 -0.005226 0.080305 -0.035926 0.000000 0.000000 0.000000
# 3 -0.000559 -0.035926 0.022724 0.000000 0.000000 0.000000
# 4 0.000000 0.000000 0.000000 0.022968 0.000000 0.000000
# 5 0.000000 0.000000 0.000000 0.000000 0.033024 0.000000
# 6 0.000000 0.000000 0.000000 0.000000 0.000000 0.027765
#
#
# Mechanical properties :
#
#
# Convention : Reuss Voigt Hill
#
# Bulk Modulus (GPa) = 37.25003 93.04049 65.14526
# Shear Modulus (GPa) = 17.45844 35.64810 26.55327
#
# Velocity S-wave (km/s) = 3.13242 4.47605 3.86310
# Velocity P-wave (km/s) = 5.83250 8.88844 7.51739
#
# Compressibility (1/GPa) = 0.02684562
#
# Stress axis : x y z
#
# Youngs Moduli (GPa) = 138.16471 12.45245 44.00616
#
# Poissons Ratio (x) = 0.06508 0.02460
# Poissons Ratio (y) = 0.72205 1.58095
# Poissons Ratio (z) = 0.07724 0.44736
#
# Static dielectric constant tensor:
#      x y z
#    x 1.588600 0.000000 0.000000 
#    y 0.000000 1.572290 0.000000 
#    z 0.000000 0.000000 1.643840 
# 
# From -- ./inp_files/6779.got.cif
#   From: 2010.05.17/outbox.cif.g08.bks.cpg/sg53_4_cif.got.tgz:6779.got - 2010.06.03 12:45:16.
