data_PCOD9417242
_publ_section_title
;
Structure prediction by ZEFSAII (Michael W. Deem and Ramdas Pophale) SiO2 
 PCOD9417242
Probable space group: P M N A
;
_chemical_formula_sum "Si O2"
_cell_formula_units_Z 24
_cell_length_a 30.321552
_cell_length_b 7.244436
_cell_length_c 4.969923
_cell_angle_alpha 90.000000
_cell_angle_beta 90.000000
_cell_angle_gamma 90.000000
_cell_volume 1091.705924
_symmetry_space_group_name_H-M "P M N A"
_symmetry_group_IT_number 53
_symmetry_cell_setting 'orthorhombic'
loop_
_space_group_symop_operation_xyz
x,y,z
1/2-x,-y,1/2+z
x,-y,-z
1/2-x,y,1/2-z
-x,-y,-z
1/2+x,y,1/2-z
-x,y,z
1/2+x,-y,1/2+z
loop_
_atom_site_type_symbol
_atom_site_label
_atom_site_fract_x
_atom_site_fract_y
_atom_site_fract_z
Si Si1 0.594098 0.789531 0.100758
Si Si2 0.652177 0.698839 0.605079
Si Si3 0.500000 0.141557 0.755832
Si Si4 0.778145 0.000000 0.000000
O O1 0.623721 0.780742 0.362598
O O2 0.544661 0.741100 0.201314
O O3 0.619352 0.684878 0.860031
O O4 0.592308 0.000000 0.000000
O O5 0.667600 0.500000 0.500000
O O6 0.692086 0.840995 0.637649
O O7 0.500000 0.000000 0.500000
O O8 0.500000 0.000000 0.000000
O O9 0.750000 0.921823 0.250000
#
# Coordination Sequence:
#
# PCOD9417242 Si02
#       4
#     8   8   4   4
#     4  11  20  41  66  95 136 180 221 270 320 388
#     4  12  25  43  68 100 133 171 219 272 334 399
#     4  10  20  34  63 102 131 179 236 269 313 380
#     4  12  26  46  72  95 128 169 216 276 340 404
#
# _framework density 21.983944999999999
#
# number of rings (size 3 to 8) (size 9 to 14) (size 15 to 20)
#    0.000    0.667    3.333    7.000    0.000    1.333 
#    0.000    5.000    0.000    0.000    0.000    0.000 
#    0.000    0.000    0.000    0.000    0.000    0.000 
#
# Total GULP energy -134014.844164 kJ/mol
# GULP energy per Si atom -5583.951840 kJ/mol
# Density = 2.193391 g / cm^3
# Si number density = 21.983945 Si / 1000 Ang^3
#
#
#
# Elastic Constant Matrix: (Units=GPa)
#
#
# Indices 1 2 3 4 5 6 
#
# 1 96.2262 26.8914 34.2965 0.0000 0.0000 0.0000
# 2 26.8914 80.6323 -0.2172 0.0000 0.0000 0.0000
# 3 34.2965 -0.2172 156.6742 0.0000 0.0000 0.0000
# 4 0.0000 0.0000 0.0000 36.4878 0.0000 0.0000
# 5 0.0000 0.0000 0.0000 0.0000 24.3238 0.0000
# 6 0.0000 0.0000 0.0000 0.0000 0.0000 7.1217
#
#
#
# Elastic Compliance Matrix: (Units=1/GPa)
#
#
# Indices 1 2 3 4 5 6 
#
# 1 0.012544 -0.004191 -0.002752 0.000000 0.000000 0.000000
# 2 -0.004191 0.013802 0.000937 0.000000 0.000000 0.000000
# 3 -0.002752 0.000937 0.006986 0.000000 0.000000 0.000000
# 4 0.000000 0.000000 0.000000 0.027406 0.000000 0.000000
# 5 0.000000 0.000000 0.000000 0.000000 0.041112 0.000000
# 6 0.000000 0.000000 0.000000 0.000000 0.000000 0.140415
#
#
# Mechanical properties :
#
#
# Convention : Reuss Voigt Hill
#
# Bulk Modulus (GPa) = 46.90356 50.60824 48.75590
# Shear Modulus (GPa) = 19.12881 31.75746 25.44314
#
# Velocity S-wave (km/s) = 2.95299 3.80488 3.40568
# Velocity P-wave (km/s) = 5.74531 6.50948 6.13930
#
# Compressibility (1/GPa) = 0.02132034
#
# Stress axis : x y z
#
# Youngs Moduli (GPa) = 79.71833 72.45211 143.13646
#
# Poissons Ratio (x) = 0.30364 0.39388
# Poissons Ratio (y) = 0.33410 -0.13405
# Poissons Ratio (z) = 0.21937 -0.06786
#
# Static dielectric constant tensor:
#      x y z
#    x 1.917990 0.000000 0.000000 
#    y 0.000000 1.798490 0.000000 
#    z 0.000000 0.000000 1.771090 
# 
# From -- ./inp_files/4096.got.cif
#   From: 2010.05.17/outbox.cif.g08.bks.cpg/sg53_3_cif.got.tgz:4096.got - 2010.06.03 12:45:16.
