data_PCOD9417564
_publ_section_title
;
Structure prediction by ZEFSAII (Michael W. Deem and Ramdas Pophale) SiO2 
 PCOD9417564
Probable space group: P M N A
;
_chemical_formula_sum "Si O2"
_cell_formula_units_Z 48
_cell_length_a 8.605519
_cell_length_b 31.728924
_cell_length_c 9.383987
_cell_angle_alpha 90.000000
_cell_angle_beta 90.000000
_cell_angle_gamma 90.000000
_cell_volume 2562.240017
_symmetry_space_group_name_H-M "P M N A"
_symmetry_group_IT_number 53
_symmetry_cell_setting 'orthorhombic'
loop_
_space_group_symop_operation_xyz
x,y,z
1/2-x,-y,1/2+z
x,-y,-z
1/2-x,y,1/2-z
-x,-y,-z
1/2+x,y,1/2-z
-x,y,z
1/2+x,-y,1/2+z
loop_
_atom_site_type_symbol
_atom_site_label
_atom_site_fract_x
_atom_site_fract_y
_atom_site_fract_z
Si Si1 0.185783 0.120857 0.910317
Si Si2 0.687338 0.460229 0.909628
Si Si3 0.814555 0.710632 0.909061
Si Si4 0.313661 0.042192 0.089333
Si Si5 0.314048 0.198838 0.088950
Si Si6 0.186898 0.366643 0.589283
O O1 0.250000 0.116881 0.750000
O O2 0.000000 0.122077 0.906394
O O3 0.241666 0.081632 0.005854
O O4 0.250230 0.162836 0.985748
O O5 0.750000 0.463381 0.750000
O O6 0.500000 0.461732 0.905147
O O7 0.729384 0.413597 0.966562
O O8 0.744023 0.500000 0.000000
O O9 0.750000 0.704602 0.750000
O O10 0.743667 0.755097 0.960030
O O11 0.000000 0.713978 0.906177
O O12 0.760714 0.671183 0.001545
O O13 0.250000 0.039518 0.250000
O O14 0.500000 0.046956 0.094473
O O15 0.277096 0.000000 0.000000
O O16 0.250000 0.192380 0.250000
O O17 0.500000 0.197788 0.093485
O O18 0.250000 0.364525 0.750000
O O19 0.000000 0.362893 0.588638
#
# Coordination Sequence:
#
# PCOD9417564 Si02
#       6
#     8   8   8   8   8   8
#     4  12  25  42  63  90 123 158 199 245 294 347
#     4   9  19  35  54  78 108 142 182 228 277 332
#     4  11  22  38  59  85 115 149 190 235 285 339
#     4  11  24  42  65  93 125 162 203 247 296 348
#     4  11  22  40  63  88 118 153 193 237 288 342
#     4  10  20  36  56  80 111 147 187 231 282 338
#
# _framework density 18.733608
#
# number of rings (size 3 to 8) (size 9 to 14) (size 15 to 20)
#    0.000    1.333    0.000    7.500    0.000    5.000 
#    0.000    5.000    0.000    0.000    0.000    0.000 
#    0.000    0.000    0.000    0.000    0.000    0.000 
#
# Total GULP energy -268336.724757 kJ/mol
# GULP energy per Si atom -5590.348432 kJ/mol
# Density = 1.869097 g / cm^3
# Si number density = 18.733608 Si / 1000 Ang^3
#
#
#
# Elastic Constant Matrix: (Units=GPa)
#
#
# Indices 1 2 3 4 5 6 
#
# 1 140.2313 88.6111 60.6876 0.0000 0.0000 0.0000
# 2 88.6111 201.0547 108.4896 0.0000 0.0000 0.0000
# 3 60.6876 108.4896 116.3116 0.0000 0.0000 0.0000
# 4 0.0000 0.0000 0.0000 43.7777 0.0000 0.0000
# 5 0.0000 0.0000 0.0000 0.0000 35.6421 0.0000
# 6 0.0000 0.0000 0.0000 0.0000 0.0000 52.3825
#
#
#
# Elastic Compliance Matrix: (Units=1/GPa)
#
#
# Indices 1 2 3 4 5 6 
#
# 1 0.010172 -0.003260 -0.002267 0.000000 0.000000 0.000000
# 2 -0.003260 0.011059 -0.008614 0.000000 0.000000 0.000000
# 3 -0.002267 -0.008614 0.017815 0.000000 0.000000 0.000000
# 4 0.000000 0.000000 0.000000 0.022843 0.000000 0.000000
# 5 0.000000 0.000000 0.000000 0.000000 0.028057 0.000000
# 6 0.000000 0.000000 0.000000 0.000000 0.000000 0.019090
#
#
# Mechanical properties :
#
#
# Convention : Reuss Voigt Hill
#
# Bulk Modulus (GPa) = 92.89956 108.13045 100.51501
# Shear Modulus (GPa) = 35.48494 39.68109 37.58301
#
# Velocity S-wave (km/s) = 4.35695 4.60736 4.48390
# Velocity P-wave (km/s) = 8.66072 9.28165 8.97656
#
# Compressibility (1/GPa) = 0.01076431
#
# Stress axis : x y z
#
# Youngs Moduli (GPa) = 98.30921 90.42634 56.13261
#
# Poissons Ratio (x) = 0.29479 0.12723
# Poissons Ratio (y) = 0.32049 0.48353
# Poissons Ratio (z) = 0.22283 0.77894
#
# Static dielectric constant tensor:
#      x y z
#    x 1.627560 0.000000 0.000000 
#    y 0.000000 1.652510 0.000000 
#    z 0.000000 0.000000 1.595800 
# 
# From -- ./inp_files/6749.got.cif
#   From: 2010.05.17/outbox.cif.g08.bks.cpg/sg53_4_cif.got.tgz:6749.got - 2010.06.03 12:45:16.
