data_PCOD9417959
_publ_section_title
;
Structure prediction by ZEFSAII (Michael W. Deem and Ramdas Pophale) SiO2 
 PCOD9417959
Probable space group: P M N A
;
_chemical_formula_sum "Si O2"
_cell_formula_units_Z 48
_cell_length_a 30.379249
_cell_length_b 9.945631
_cell_length_c 8.518533
_cell_angle_alpha 90.000000
_cell_angle_beta 90.000000
_cell_angle_gamma 90.000000
_cell_volume 2573.796381
_symmetry_space_group_name_H-M "P M N A"
_symmetry_group_IT_number 53
_symmetry_cell_setting 'orthorhombic'
loop_
_space_group_symop_operation_xyz
x,y,z
1/2-x,-y,1/2+z
x,-y,-z
1/2-x,y,1/2-z
-x,-y,-z
1/2+x,y,1/2-z
-x,y,z
1/2+x,-y,1/2+z
loop_
_atom_site_type_symbol
_atom_site_label
_atom_site_fract_x
_atom_site_fract_y
_atom_site_fract_z
Si Si1 0.206372 0.582677 0.660203
Si Si2 0.099066 0.779020 0.371959
Si Si3 0.615352 0.507860 0.312931
Si Si4 0.680401 0.871440 0.910142
Si Si5 0.448299 0.714980 0.815397
Si Si6 0.106233 0.040828 0.180320
O O1 0.202038 0.500000 0.500000
O O2 0.250000 0.537513 0.750000
O O3 0.162102 0.553512 0.758136
O O4 0.209543 0.742247 0.626491
O O5 0.110107 0.657495 0.255509
O O6 0.142281 0.814850 0.474338
O O7 0.062856 0.741737 0.501673
O O8 0.088211 0.913132 0.276778
O O9 0.612204 0.500000 0.500000
O O10 0.577124 0.419015 0.235178
O O11 0.653549 0.920998 0.756833
O O12 0.700706 0.000000 0.000000
O O13 0.500000 0.707564 0.789021
O O14 0.425771 0.834348 0.714914
O O15 0.109903 0.000000 0.000000
#
# Coordination Sequence:
#
# PCOD9417959 Si02
#       6
#     8   8   8   8   8   8
#     4  12  23  43  66  95 129 165 211 255 309 376
#     4  10  20  37  64  86 121 166 204 252 305 383
#     4  12  23  40  64  92 125 164 206 264 320 367
#     4   9  19  39  64  87 122 164 204 246 307 372
#     4  11  23  40  61  88 124 168 214 256 310 377
#     4  10  20  37  62  93 121 160 207 258 312 370
#
# _framework density 18.649493
#
# number of rings (size 3 to 8) (size 9 to 14) (size 15 to 20)
#    0.000    1.333    5.000    3.500    0.000    3.333 
#    0.000    3.333    0.000    0.000    0.000    0.000 
#    0.000    0.000    0.000    0.000    0.000    0.000 
#
# Total GULP energy -268093.402068 kJ/mol
# GULP energy per Si atom -5585.279210 kJ/mol
# Density = 1.860705 g / cm^3
# Si number density = 18.649493 Si / 1000 Ang^3
#
#
#
# Elastic Constant Matrix: (Units=GPa)
#
#
# Indices 1 2 3 4 5 6 
#
# 1 26.1466 -0.2035 9.9834 0.0000 0.0000 0.0000
# 2 -0.2035 83.0940 8.4773 0.0000 0.0000 0.0000
# 3 9.9834 8.4773 106.9563 0.0000 0.0000 0.0000
# 4 0.0000 0.0000 0.0000 26.7139 0.0000 0.0000
# 5 0.0000 0.0000 0.0000 0.0000 8.3125 0.0000
# 6 0.0000 0.0000 0.0000 0.0000 0.0000 -18.5594
#
#
#
# Elastic Compliance Matrix: (Units=1/GPa)
#
#
# Indices 1 2 3 4 5 6 
#
# 1 0.039678 0.000479 -0.003742 0.000000 0.000000 0.000000
# 2 0.000479 0.012138 -0.001007 0.000000 0.000000 0.000000
# 3 -0.003742 -0.001007 0.009779 0.000000 0.000000 0.000000
# 4 0.000000 0.000000 0.000000 0.037434 0.000000 0.000000
# 5 0.000000 0.000000 0.000000 0.000000 0.120301 0.000000
# 6 0.000000 0.000000 0.000000 0.000000 0.000000 -0.053881
#
#
# Mechanical properties :
#
#
# Convention : Reuss Voigt Hill
#
# Bulk Modulus (GPa) = 18.84786 28.07903 23.46345
# Shear Modulus (GPa) = 26.08606 16.48938 21.28772
#
# Velocity S-wave (km/s) = 3.74405 2.97673 3.38222
# Velocity P-wave (km/s) = 5.36832 5.18685 5.27837
#
# Compressibility (1/GPa) = 0.05305642
#
# Stress axis : x y z
#
# Youngs Moduli (GPa) = 25.20273 82.38289 102.26368
#
# Poissons Ratio (x) = -0.03945 0.38262
# Poissons Ratio (y) = -0.01207 0.10296
# Poissons Ratio (z) = 0.09430 0.08294
#
# Static dielectric constant tensor:
#      x y z
#    x 1.604900 0.000000 0.000000 
#    y 0.000000 1.654900 0.000000 
#    z 0.000000 0.000000 1.638380 
# 
# From -- ./inp_files/13027.got.cif
#   From: 2010.05.17/outbox.cif.g08.bks.cpg/sg53_7_cif.got.tgz:13027.got - 2010.06.03 12:45:16.
