data_PCOD9417403
_publ_section_title
;
Structure prediction by ZEFSAII (Michael W. Deem and Ramdas Pophale) SiO2 
 PCOD9417403
Probable space group: P M N A
;
_chemical_formula_sum "Si O2"
_cell_formula_units_Z 56
_cell_length_a 7.602673
_cell_length_b 22.150637
_cell_length_c 14.508828
_cell_angle_alpha 90.000000
_cell_angle_beta 90.000000
_cell_angle_gamma 90.000000
_cell_volume 2443.345394
_symmetry_space_group_name_H-M "P M N A"
_symmetry_group_IT_number 53
_symmetry_cell_setting 'orthorhombic'
loop_
_space_group_symop_operation_xyz
x,y,z
1/2-x,-y,1/2+z
x,-y,-z
1/2-x,y,1/2-z
-x,-y,-z
1/2+x,y,1/2-z
-x,y,z
1/2+x,-y,1/2+z
loop_
_atom_site_type_symbol
_atom_site_label
_atom_site_fract_x
_atom_site_fract_y
_atom_site_fract_z
Si Si1 0.789846 0.029551 0.356172
Si Si2 0.301346 0.891371 0.356189
Si Si3 0.216258 0.277208 0.465872
Si Si4 0.289120 0.659119 0.142965
Si Si5 0.288788 0.604203 0.858767
Si Si6 0.211016 0.473705 0.640279
Si Si7 0.699239 0.147284 0.045820
O O1 0.750000 0.043690 0.250000
O O2 0.720283 0.085471 0.415703
O O3 0.000000 0.022678 0.370759
O O4 0.712773 0.963399 0.373781
O O5 0.250000 0.881441 0.250000
O O6 0.500000 0.871518 0.368649
O O7 0.193272 0.858626 0.435338
O O8 0.271196 0.290968 0.570869
O O9 0.274643 0.335226 0.407672
O O10 0.279768 0.212162 0.431720
O O11 0.000000 0.274875 0.463185
O O12 0.250000 0.669798 0.250000
O O13 0.500000 0.656404 0.135704
O O14 0.222366 0.592444 0.112337
O O15 0.250000 0.607404 0.750000
O O16 0.500000 0.603205 0.870910
O O17 0.223282 0.538702 0.895094
O O18 0.250000 0.475129 0.750000
O O19 0.000000 0.473397 0.625773
O O20 0.500000 0.147394 0.082958
#
# Coordination Sequence:
#
# PCOD9417403 Si02
#       7
#     8   8   8   8   8   8   8
#     4  10  20  35  57  82 108 137 170 211 257 304
#     4  11  22  37  59  84 108 134 168 211 256 304
#     4   9  19  34  51  72 100 136 174 207 246 299
#     4   9  17  31  50  71  97 129 166 211 257 301
#     4   9  17  31  50  72  99 131 167 209 256 302
#     4   8  14  25  45  71  95 122 161 208 256 301
#     4  10  21  37  54  75 107 143 175 210 255 304
#
# _framework density 22.919395999999999
#
# number of rings (size 3 to 8) (size 9 to 14) (size 15 to 20)
#    0.000    2.571    0.000    3.000    0.000    4.571 
#    0.000    6.429    0.000    0.000    0.000   10.000 
#    0.000    0.000    0.000    0.000    0.000    0.000 
#
# Total GULP energy -312521.659109 kJ/mol
# GULP energy per Si atom -5580.743913 kJ/mol
# Density = 2.286723 g / cm^3
# Si number density = 22.919396 Si / 1000 Ang^3
#
#
#
# Elastic Constant Matrix: (Units=GPa)
#
#
# Indices 1 2 3 4 5 6 
#
# 1 61.1288 -10.2719 -12.2010 0.0000 0.0000 0.0000
# 2 -10.2719 28.0002 13.7695 0.0000 0.0000 0.0000
# 3 -12.2010 13.7695 41.4422 0.0000 0.0000 0.0000
# 4 0.0000 0.0000 0.0000 9.6490 0.0000 0.0000
# 5 0.0000 0.0000 0.0000 0.0000 14.7637 0.0000
# 6 0.0000 0.0000 0.0000 0.0000 0.0000 2.0482
#
#
#
# Elastic Compliance Matrix: (Units=1/GPa)
#
#
# Indices 1 2 3 4 5 6 
#
# 1 0.017893 0.004750 0.003690 0.000000 0.000000 0.000000
# 2 0.004750 0.043950 -0.013204 0.000000 0.000000 0.000000
# 3 0.003690 -0.013204 0.029604 0.000000 0.000000 0.000000
# 4 0.000000 0.000000 0.000000 0.103638 0.000000 0.000000
# 5 0.000000 0.000000 0.000000 0.000000 0.067734 0.000000
# 6 0.000000 0.000000 0.000000 0.000000 0.000000 0.488226
#
#
# Mechanical properties :
#
#
# Convention : Reuss Voigt Hill
#
# Bulk Modulus (GPa) = 12.20742 12.57384 12.39063
# Shear Modulus (GPa) = 6.34614 14.57715 10.46165
#
# Velocity S-wave (km/s) = 1.66581 2.52468 2.13880
# Velocity P-wave (km/s) = 3.00627 3.74121 3.39370
#
# Compressibility (1/GPa) = 0.08191740
#
# Stress axis : x y z
#
# Youngs Moduli (GPa) = 55.88625 22.75315 33.77972
#
# Poissons Ratio (x) = -0.10807 -0.12464
# Poissons Ratio (y) = -0.26544 0.44604
# Poissons Ratio (z) = -0.20621 0.30044
#
# Static dielectric constant tensor:
#      x y z
#    x 1.877130 0.000000 0.000000 
#    y 0.000000 1.880740 0.000000 
#    z 0.000000 0.000000 1.840470 
# 
# From -- ./inp_files/20631.got.cif
#   From: 2010.05.17/outbox.cif.g08.bks.cpg/sg53_11_cif.got.tgz:20631.got - 2010.06.03 12:45:16.
