data_PCOD9417054
_publ_section_title
;
Structure prediction by ZEFSAII (Michael W. Deem and Ramdas Pophale) SiO2 
 PCOD9417054
Probable space group: P M N A
;
_chemical_formula_sum "Si O2"
_cell_formula_units_Z 64
_cell_length_a 20.766017
_cell_length_b 8.774390
_cell_length_c 17.439617
_cell_angle_alpha 90.000000
_cell_angle_beta 90.000000
_cell_angle_gamma 90.000000
_cell_volume 3177.657474
_symmetry_space_group_name_H-M "P M N A"
_symmetry_group_IT_number 53
_symmetry_cell_setting 'orthorhombic'
loop_
_space_group_symop_operation_xyz
x,y,z
1/2-x,-y,1/2+z
x,-y,-z
1/2-x,y,1/2-z
-x,-y,-z
1/2+x,y,1/2-z
-x,y,z
1/2+x,-y,1/2+z
loop_
_atom_site_type_symbol
_atom_site_label
_atom_site_fract_x
_atom_site_fract_y
_atom_site_fract_z
Si Si1 0.923165 0.309296 0.677463
Si Si2 0.886197 0.332716 0.982622
Si Si3 0.424117 0.337350 0.206112
Si Si4 0.209479 0.823586 0.669559
Si Si5 0.923285 0.846910 0.168420
Si Si6 0.075922 0.816947 0.862520
Si Si7 0.758739 0.338229 0.482262
Si Si8 0.841976 0.094532 0.569799
O O1 0.912597 0.490844 0.678002
O O2 0.898327 0.244562 0.758698
O O3 0.889995 0.205652 0.614074
O O4 0.000000 0.289325 0.672550
O O5 0.895905 0.230526 0.057152
O O6 0.810013 0.351660 0.976780
O O7 0.915066 0.500000 0.000000
O O8 0.912125 0.247665 0.908553
O O9 0.500000 0.295559 0.188340
O O10 0.364619 0.236280 0.176830
O O11 0.417807 0.312634 0.297938
O O12 0.250000 0.826768 0.750000
O O13 0.243347 0.709868 0.607447
O O14 0.197756 0.986644 0.628465
O O15 0.000000 0.859999 0.179186
O O16 0.897086 0.019517 0.164402
O O17 0.000000 0.837709 0.875088
O O18 0.792299 0.500000 0.500000
O O19 0.793567 0.201598 0.524203
O O20 0.874462 0.000000 0.500000
#
# Coordination Sequence:
#
# PCOD9417054 Si02
#       8
#     8   8   8   8   8   8   8   8
#     4  10  21  39  62  88 118 153 198 249 302 361
#     4  11  22  35  54  80 113 155 196 239 295 353
#     4  10  21  38  62  90 120 156 198 248 302 357
#     4  11  23  40  64  92 123 160 203 250 303 361
#     4  10  21  35  54  82 115 152 194 242 291 347
#     4  10  20  34  53  80 115 153 194 239 290 351
#     4  10  23  42  59  82 118 156 198 247 297 356
#     4  10  23  41  62  88 118 153 194 246 304 363
#
# _framework density 20.140623000000001
#
# number of rings (size 3 to 8) (size 9 to 14) (size 15 to 20)
#    0.000    1.750    0.000    3.750    0.000   10.750 
#    0.000    3.125    0.000    6.750    0.000    0.000 
#    0.000    0.000    0.000    0.000    0.000    0.000 
#
# Total GULP energy -356896.680610 kJ/mol
# GULP energy per Si atom -5576.510635 kJ/mol
# Density = 2.009478 g / cm^3
# Si number density = 20.140623 Si / 1000 Ang^3
#
#
#
# Elastic Constant Matrix: (Units=GPa)
#
#
# Indices 1 2 3 4 5 6 
#
# 1 29.3244 31.3585 18.1346 0.0000 0.0000 0.0000
# 2 31.3585 111.9767 56.9858 0.0000 0.0000 0.0000
# 3 18.1346 56.9858 90.5604 0.0000 0.0000 0.0000
# 4 0.0000 0.0000 0.0000 34.5970 0.0000 0.0000
# 5 0.0000 0.0000 0.0000 0.0000 25.1779 0.0000
# 6 0.0000 0.0000 0.0000 0.0000 0.0000 67.2778
#
#
#
# Elastic Compliance Matrix: (Units=1/GPa)
#
#
# Indices 1 2 3 4 5 6 
#
# 1 0.048862 -0.012805 -0.001727 0.000000 0.000000 0.000000
# 2 -0.012805 0.016493 -0.007814 0.000000 0.000000 0.000000
# 3 -0.001727 -0.007814 0.016305 0.000000 0.000000 0.000000
# 4 0.000000 0.000000 0.000000 0.028904 0.000000 0.000000
# 5 0.000000 0.000000 0.000000 0.000000 0.039717 0.000000
# 6 0.000000 0.000000 0.000000 0.000000 0.000000 0.014864
#
#
# Mechanical properties :
#
#
# Convention : Reuss Voigt Hill
#
# Bulk Modulus (GPa) = 27.05001 49.42437 38.23719
# Shear Modulus (GPa) = 22.50619 33.76940 28.13779
#
# Velocity S-wave (km/s) = 3.34646 4.09917 3.74179
# Velocity P-wave (km/s) = 5.32836 6.85545 6.13957
#
# Compressibility (1/GPa) = 0.03696857
#
# Stress axis : x y z
#
# Youngs Moduli (GPa) = 20.46566 60.63165 61.32943
#
# Poissons Ratio (x) = 0.77637 0.10593
# Poissons Ratio (y) = 0.26206 0.47924
# Poissons Ratio (z) = 0.03535 0.47379
#
# Static dielectric constant tensor:
#      x y z
#    x 1.724540 0.000000 0.000000 
#    y 0.000000 1.784090 0.000000 
#    z 0.000000 0.000000 1.703030 
# 
# From -- ./inp_files/24726.got.cif
#   From: 2010.05.17/outbox.cif.g08.bks.cpg/sg53_13_cif.got.tgz:24726.got - 2010.06.03 12:45:16.
