data_PCOD9417887
_publ_section_title
;
Structure prediction by ZEFSAII (Michael W. Deem and Ramdas Pophale) SiO2 
 PCOD9417887
Probable space group: P M N A
;
_chemical_formula_sum "Si O2"
_cell_formula_units_Z 48
_cell_length_a 8.637399
_cell_length_b 9.301819
_cell_length_c 31.756309
_cell_angle_alpha 90.000000
_cell_angle_beta 90.000000
_cell_angle_gamma 90.000000
_cell_volume 2551.413715
_symmetry_space_group_name_H-M "P M N A"
_symmetry_group_IT_number 53
_symmetry_cell_setting 'orthorhombic'
loop_
_space_group_symop_operation_xyz
x,y,z
1/2-x,-y,1/2+z
x,-y,-z
1/2-x,y,1/2-z
-x,-y,-z
1/2+x,y,1/2-z
-x,y,z
1/2+x,-y,1/2+z
loop_
_atom_site_type_symbol
_atom_site_label
_atom_site_fract_x
_atom_site_fract_y
_atom_site_fract_z
Si Si1 0.186954 0.411774 0.541293
Si Si2 0.813631 0.913993 0.204679
Si Si3 0.687504 0.908169 0.623079
Si Si4 0.685719 0.412856 0.124232
Si Si5 0.314261 0.579923 0.295671
Si Si6 0.813060 0.910247 0.041049
O O1 0.238004 0.500000 0.500000
O O2 0.236598 0.493988 0.583708
O O3 0.248516 0.250195 0.540429
O O4 0.000000 0.407779 0.540970
O O5 0.750000 0.960149 0.250000
O O6 0.767401 0.747311 0.197691
O O7 0.000000 0.917176 0.206157
O O8 0.762567 0.013315 0.166125
O O9 0.500000 0.899615 0.623261
O O10 0.754672 0.749216 0.619988
O O11 0.733963 0.004725 0.583136
O O12 0.500000 0.413251 0.125480
O O13 0.749930 0.484320 0.166658
O O14 0.250000 0.535829 0.250000
O O15 0.500000 0.572720 0.295211
O O16 0.000000 0.902432 0.040744
O O17 0.763608 0.000000 0.000000
#
# Coordination Sequence:
#
# PCOD9417887 Si02
#       6
#     8   8   8   8   8   8
#     4  10  22  39  58  82 114 150 188 231 280 335
#     4   9  19  35  56  80 106 139 179 222 270 325
#     4  10  21  37  55  79 112 146 181 226 280 332
#     4  11  23  37  55  82 113 148 191 232 275 331
#     4  10  20  37  60  84 112 146 184 230 282 333
#     4  10  21  37  59  86 112 141 183 232 281 335
#
# _framework density 18.813099000000001
#
# number of rings (size 3 to 8) (size 9 to 14) (size 15 to 20)
#    0.000    2.000    0.000    3.000    0.000    6.000 
#    0.000    1.667    0.000    0.000    0.000    0.000 
#    0.000    0.000    0.000    0.000    0.000    0.000 
#
# Total GULP energy -268200.623216 kJ/mol
# GULP energy per Si atom -5587.512984 kJ/mol
# Density = 1.877028 g / cm^3
# Si number density = 18.813099 Si / 1000 Ang^3
#
#
#
# Elastic Constant Matrix: (Units=GPa)
#
#
# Indices 1 2 3 4 5 6 
#
# 1 21.0165 36.1961 42.0283 0.0000 0.0000 0.0000
# 2 36.1961 180.7521 135.8203 0.0000 0.0000 0.0000
# 3 42.0283 135.8203 207.9153 0.0000 0.0000 0.0000
# 4 0.0000 0.0000 0.0000 42.7672 0.0000 0.0000
# 5 0.0000 0.0000 0.0000 0.0000 22.2114 0.0000
# 6 0.0000 0.0000 0.0000 0.0000 0.0000 37.8002
#
#
#
# Elastic Compliance Matrix: (Units=1/GPa)
#
#
# Indices 1 2 3 4 5 6 
#
# 1 0.085539 -0.008125 -0.011983 0.000000 0.000000 0.000000
# 2 -0.008125 0.011638 -0.005960 0.000000 0.000000 0.000000
# 3 -0.011983 -0.005960 0.011125 0.000000 0.000000 0.000000
# 4 0.000000 0.000000 0.000000 0.023382 0.000000 0.000000
# 5 0.000000 0.000000 0.000000 0.000000 0.045022 0.000000
# 6 0.000000 0.000000 0.000000 0.000000 0.000000 0.026455
#
#
# Mechanical properties :
#
#
# Convention : Reuss Voigt Hill
#
# Bulk Modulus (GPa) = 17.80444 93.08591 55.44518
# Shear Modulus (GPa) = 18.24679 33.59837 25.92258
#
# Velocity S-wave (km/s) = 3.11770 4.23058 3.71604
# Velocity P-wave (km/s) = 4.73756 8.57032 6.92441
#
# Compressibility (1/GPa) = 0.05616576
#
# Stress axis : x y z
#
# Youngs Moduli (GPa) = 11.69055 85.92519 89.88392
#
# Poissons Ratio (x) = 0.69813 1.07712
# Poissons Ratio (y) = 0.09498 0.53572
# Poissons Ratio (z) = 0.14009 0.51213
#
# Static dielectric constant tensor:
#      x y z
#    x 1.641940 0.000000 0.000000 
#    y 0.000000 1.610980 0.000000 
#    z 0.000000 0.000000 1.635510 
# 
# From -- ./inp_files/37669.got.cif
#   From: 2010.05.17/outbox.cif.g08.bks.cpg/sg53_19_cif.got.tgz:37669.got - 2010.06.03 12:45:16.
