data_PCOD9417117
_publ_section_title
;
Structure prediction by ZEFSAII (Michael W. Deem and Ramdas Pophale) SiO2 
 PCOD9417117
Probable space group: P M N A
;
_chemical_formula_sum "Si O2"
_cell_formula_units_Z 64
_cell_length_a 8.893424
_cell_length_b 22.798882
_cell_length_c 17.995881
_cell_angle_alpha 90.000000
_cell_angle_beta 90.000000
_cell_angle_gamma 90.000000
_cell_volume 3648.847069
_symmetry_space_group_name_H-M "P M N A"
_symmetry_group_IT_number 53
_symmetry_cell_setting 'orthorhombic'
loop_
_space_group_symop_operation_xyz
x,y,z
1/2-x,-y,1/2+z
x,-y,-z
1/2-x,y,1/2-z
-x,-y,-z
1/2+x,y,1/2-z
-x,y,z
1/2+x,-y,1/2+z
loop_
_atom_site_type_symbol
_atom_site_label
_atom_site_fract_x
_atom_site_fract_y
_atom_site_fract_z
Si Si1 0.819988 0.919773 0.615788
Si Si2 0.680736 0.758551 0.990958
Si Si3 0.827747 0.545084 0.569625
Si Si4 0.179503 0.792071 0.673475
Si Si5 0.179565 0.362272 0.966564
Si Si6 0.680213 0.550406 0.330584
Si Si7 0.179350 0.882022 0.034959
Si Si8 0.320454 0.950980 0.171850
O O1 0.778689 0.860594 0.660034
O O2 0.733642 0.917085 0.538025
O O3 0.000000 0.916751 0.601153
O O4 0.788141 0.980111 0.657383
O O5 0.500000 0.761925 0.995615
O O6 0.722380 0.759423 0.902952
O O7 0.742086 0.700565 0.029888
O O8 0.752310 0.817023 0.025446
O O9 0.831092 0.500000 0.500000
O O10 0.738720 0.600263 0.536913
O O11 0.747663 0.509767 0.635584
O O12 0.000000 0.560175 0.588490
O O13 0.250000 0.770514 0.750000
O O14 0.000000 0.789224 0.679948
O O15 0.216187 0.399077 0.891618
O O16 0.000000 0.356513 0.970246
O O17 0.750000 0.562421 0.250000
O O18 0.500000 0.546104 0.325636
O O19 0.247364 0.913761 0.106241
O O20 0.000000 0.879677 0.038213
O O21 0.250000 0.933515 0.250000
O O22 0.500000 0.943492 0.171727
#
# Coordination Sequence:
#
# PCOD9417117 Si02
#       8
#     8   8   8   8   8   8   8   8
#     4   9  19  35  54  77 105 136 170 212 266 325
#     4  10  21  38  57  77 104 141 184 225 268 318
#     4   9  17  31  53  79 107 140 174 208 254 309
#     4   9  18  32  51  76 104 133 167 211 263 317
#     4  10  20  35  56  82 109 140 182 226 266 314
#     4  10  20  34  54  82 115 145 177 221 268 313
#     4  11  22  36  55  78 104 137 179 222 267 322
#     4  11  22  36  54  77 107 139 173 218 271 325
#
# _framework density 17.539788000000001
#
# number of rings (size 3 to 8) (size 9 to 14) (size 15 to 20)
#    0.000    2.125    0.000    4.500    0.000    8.000 
#    0.000    1.250    0.000    3.000    0.000    0.000 
#    0.000    0.000    0.000    0.000    0.000    0.000 
#
# Total GULP energy -357223.666369 kJ/mol
# GULP energy per Si atom -5581.619787 kJ/mol
# Density = 1.749987 g / cm^3
# Si number density = 17.539788 Si / 1000 Ang^3
#
#
#
# Elastic Constant Matrix: (Units=GPa)
#
#
# Indices 1 2 3 4 5 6 
#
# 1 68.5699 30.5756 49.6816 0.0000 0.0000 0.0000
# 2 30.5756 47.9464 31.5326 0.0000 0.0000 0.0000
# 3 49.6816 31.5326 109.3735 0.0000 0.0000 0.0000
# 4 0.0000 0.0000 0.0000 14.9550 0.0000 0.0000
# 5 0.0000 0.0000 0.0000 0.0000 33.3505 0.0000
# 6 0.0000 0.0000 0.0000 0.0000 0.0000 31.6364
#
#
#
# Elastic Compliance Matrix: (Units=1/GPa)
#
#
# Indices 1 2 3 4 5 6 
#
# 1 0.025507 -0.010669 -0.008510 0.000000 0.000000 0.000000
# 2 -0.010669 0.030199 -0.003860 0.000000 0.000000 0.000000
# 3 -0.008510 -0.003860 0.014122 0.000000 0.000000 0.000000
# 4 0.000000 0.000000 0.000000 0.066867 0.000000 0.000000
# 5 0.000000 0.000000 0.000000 0.000000 0.029985 0.000000
# 6 0.000000 0.000000 0.000000 0.000000 0.000000 0.031609
#
#
# Mechanical properties :
#
#
# Convention : Reuss Voigt Hill
#
# Bulk Modulus (GPa) = 42.10780 49.94106 46.02443
# Shear Modulus (GPa) = 19.81892 23.59503 21.70698
#
# Velocity S-wave (km/s) = 3.36511 3.67172 3.52175
# Velocity P-wave (km/s) = 6.25761 6.81984 6.54476
#
# Compressibility (1/GPa) = 0.02374857
#
# Stress axis : x y z
#
# Youngs Moduli (GPa) = 39.20474 33.11374 70.81335
#
# Poissons Ratio (x) = 0.35329 0.60265
# Poissons Ratio (y) = 0.41827 0.27335
# Poissons Ratio (z) = 0.33365 0.12782
#
# Static dielectric constant tensor:
#      x y z
#    x 1.585800 0.000000 0.000000 
#    y 0.000000 1.587770 0.000000 
#    z 0.000000 0.000000 1.584120 
# 
# From -- ./inp_files/26790.got.cif
#   From: 2010.05.17/outbox.cif.g08.bks.cpg/sg53_14_cif.got.tgz:26790.got - 2010.06.03 12:45:16.
