data_PCOD9417642
_publ_section_title
;
Structure prediction by ZEFSAII (Michael W. Deem and Ramdas Pophale) SiO2 
 PCOD9417642
Probable space group: P M N A
;
_chemical_formula_sum "Si O2"
_cell_formula_units_Z 64
_cell_length_a 7.735939
_cell_length_b 21.343585
_cell_length_c 18.908842
_cell_angle_alpha 90.000000
_cell_angle_beta 90.000000
_cell_angle_gamma 90.000000
_cell_volume 3122.089420
_symmetry_space_group_name_H-M "P M N A"
_symmetry_group_IT_number 53
_symmetry_cell_setting 'orthorhombic'
loop_
_space_group_symop_operation_xyz
x,y,z
1/2-x,-y,1/2+z
x,-y,-z
1/2-x,y,1/2-z
-x,-y,-z
1/2+x,y,1/2-z
-x,y,z
1/2+x,-y,1/2+z
loop_
_atom_site_type_symbol
_atom_site_label
_atom_site_fract_x
_atom_site_fract_y
_atom_site_fract_z
Si Si1 0.799924 0.116847 0.386928
Si Si2 0.289215 0.745637 0.909028
Si Si3 0.298995 0.097214 0.547728
Si Si4 0.803858 0.987821 0.170248
Si Si5 0.291681 0.379175 0.167025
Si Si6 0.291845 0.650994 0.167183
Si Si7 0.709698 0.765028 0.071714
Si Si8 0.792136 0.485098 0.666338
O O1 0.729902 0.187471 0.377990
O O2 0.788823 0.101938 0.470967
O O3 0.000000 0.115986 0.365543
O O4 0.709679 0.061586 0.344649
O O5 0.500000 0.746751 0.904806
O O6 0.225832 0.682999 0.871294
O O7 0.245326 0.745531 0.991721
O O8 0.500000 0.082292 0.531727
O O9 0.219821 0.048071 0.603492
O O10 0.284400 0.165883 0.582606
O O11 0.750000 0.973756 0.250000
O O12 0.000000 0.966695 0.165938
O O13 0.250000 0.375284 0.250000
O O14 0.500000 0.379414 0.159528
O O15 0.228116 0.447267 0.139514
O O16 0.250000 0.656229 0.250000
O O17 0.500000 0.650350 0.160053
O O18 0.228839 0.711199 0.124607
O O19 0.227972 0.582688 0.140231
O O20 0.500000 0.769990 0.075920
O O21 0.750000 0.485168 0.750000
O O22 0.000000 0.485101 0.658195
#
# Coordination Sequence:
#
# PCOD9417642 Si02
#       8
#     8   8   8   8   8   8   8   8
#     4  10  20  36  58  79 102 135 170 203 246 301
#     4   8  16  31  49  70  96 126 159 196 238 285
#     4  10  21  37  56  77 101 131 169 208 245 294
#     4  11  24  39  55  78 107 134 164 207 252 293
#     4   9  16  28  46  67  93 124 159 198 239 284
#     4   9  17  29  46  69  95 124 161 202 244 291
#     4   9  18  33  51  70  96 129 163 200 243 293
#     4   8  14  25  42  64  90 122 158 195 237 286
#
# _framework density 20.499092999999998
#
# number of rings (size 3 to 8) (size 9 to 14) (size 15 to 20)
#    0.000    2.750    0.000    2.250    0.000    5.000 
#    0.000    7.500    0.000    3.750    0.000    0.000 
#    0.000   14.000    0.000    0.000    0.000    0.000 
#
# Total GULP energy -356733.071266 kJ/mol
# GULP energy per Si atom -5573.954239 kJ/mol
# Density = 2.045244 g / cm^3
# Si number density = 20.499093 Si / 1000 Ang^3
#
#
#
# Elastic Constant Matrix: (Units=GPa)
#
#
# Indices 1 2 3 4 5 6 
#
# 1 30.1111 -8.3331 -6.2593 0.0000 0.0000 0.0000
# 2 -8.3331 105.7663 21.1829 0.0000 0.0000 0.0000
# 3 -6.2593 21.1829 16.2613 0.0000 0.0000 0.0000
# 4 0.0000 0.0000 0.0000 36.6039 0.0000 0.0000
# 5 0.0000 0.0000 0.0000 0.0000 17.3097 0.0000
# 6 0.0000 0.0000 0.0000 0.0000 0.0000 9.7647
#
#
#
# Elastic Compliance Matrix: (Units=1/GPa)
#
#
# Indices 1 2 3 4 5 6 
#
# 1 0.036099 0.000083 0.013787 0.000000 0.000000 0.000000
# 2 0.000083 0.012792 -0.016632 0.000000 0.000000 0.000000
# 3 0.013787 -0.016632 0.088469 0.000000 0.000000 0.000000
# 4 0.000000 0.000000 0.000000 0.027320 0.000000 0.000000
# 5 0.000000 0.000000 0.000000 0.000000 0.057771 0.000000
# 6 0.000000 0.000000 0.000000 0.000000 0.000000 0.102410
#
#
# Mechanical properties :
#
#
# Convention : Reuss Voigt Hill
#
# Bulk Modulus (GPa) = 7.58515 18.36885 12.97700
# Shear Modulus (GPa) = 13.35718 22.43886 17.89802
#
# Velocity S-wave (km/s) = 2.55541 3.31210 2.95805
# Velocity P-wave (km/s) = 3.52351 4.85870 4.24394
#
# Compressibility (1/GPa) = 0.13183659
#
# Stress axis : x y z
#
# Youngs Moduli (GPa) = 27.70133 78.17118 11.30344
#
# Poissons Ratio (x) = -0.00648 -0.15585
# Poissons Ratio (y) = -0.00229 0.18800
# Poissons Ratio (z) = -0.38193 1.30016
#
# Static dielectric constant tensor:
#      x y z
#    x 3.033860 0.000000 0.000000 
#    y 0.000000 1.775660 0.000000 
#    z 0.000000 0.000000 1.706730 
# 
# From -- ./inp_files/26903.got.cif
#   From: 2010.05.17/outbox.cif.g08.bks.cpg/sg53_14_cif.got.tgz:26903.got - 2010.06.03 12:45:16.
