data_PCOD9417646
_publ_section_title
;
Structure prediction by ZEFSAII (Michael W. Deem and Ramdas Pophale) SiO2 
 PCOD9417646
Probable space group: P M N A
;
_chemical_formula_sum "Si O2"
_cell_formula_units_Z 40
_cell_length_a 10.160960
_cell_length_b 24.351230
_cell_length_c 9.444735
_cell_angle_alpha 90.000000
_cell_angle_beta 90.000000
_cell_angle_gamma 90.000000
_cell_volume 2336.928480
_symmetry_space_group_name_H-M "P M N A"
_symmetry_group_IT_number 53
_symmetry_cell_setting 'orthorhombic'
loop_
_space_group_symop_operation_xyz
x,y,z
1/2-x,-y,1/2+z
x,-y,-z
1/2-x,y,1/2-z
-x,-y,-z
1/2+x,y,1/2-z
-x,y,z
1/2+x,-y,1/2+z
loop_
_atom_site_type_symbol
_atom_site_label
_atom_site_fract_x
_atom_site_fract_y
_atom_site_fract_z
Si Si1 0.347106 0.828767 0.619174
Si Si2 0.347819 0.956147 0.622568
Si Si3 0.658722 0.734742 0.389275
Si Si4 0.745330 0.632717 0.582017
Si Si5 0.500000 0.445638 0.408792
Si Si6 0.500000 0.558956 0.924804
O O1 0.250000 0.816401 0.750000
O O2 0.500000 0.822106 0.664653
O O3 0.327841 0.892639 0.577845
O O4 0.326306 0.788841 0.486711
O O5 0.250000 0.967238 0.750000
O O6 0.500000 0.960943 0.668344
O O7 0.325581 0.000000 0.500000
O O8 0.750000 0.738275 0.250000
O O9 0.500000 0.727647 0.361020
O O10 0.714118 0.684730 0.484771
O O11 0.750000 0.647999 0.750000
O O12 0.626712 0.590657 0.560587
O O13 0.875373 0.598060 0.545774
O O14 0.500000 0.500000 0.500000
O O15 0.500000 0.455904 0.241300
O O16 0.500000 0.500000 0.000000
#
# Coordination Sequence:
#
# PCOD9417646 Si02
#       6
#     8   8   8   8   4   4
#     4   9  19  37  58  81 111 148 190 231 276 331
#     4   9  18  33  54  81 113 150 189 231 278 327
#     4  11  24  39  56  82 113 145 182 231 282 328
#     4  10  21  39  59  81 109 146 183 221 268 329
#     4  10  20  36  58  80 112 146 175 218 269 318
#     4  10  22  36  58  88 110 138 183 222 267 326
#
# _framework density 17.116484
#
# number of rings (size 3 to 8) (size 9 to 14) (size 15 to 20)
#    0.000    2.200    1.000    1.200    1.400    3.600 
#    0.000    0.000    0.000    0.000    0.000    0.000 
#    0.000    0.000    0.000    0.000    0.000    0.000 
#
# Total GULP energy -223052.033453 kJ/mol
# GULP energy per Si atom -5576.300836 kJ/mol
# Density = 1.707753 g / cm^3
# Si number density = 17.116484 Si / 1000 Ang^3
#
#
#
# Elastic Constant Matrix: (Units=GPa)
#
#
# Indices 1 2 3 4 5 6 
#
# 1 156.7579 95.3777 95.4578 0.0000 0.0000 0.0000
# 2 95.3777 118.7867 98.7274 0.0000 0.0000 0.0000
# 3 95.4578 98.7274 112.3653 0.0000 0.0000 0.0000
# 4 0.0000 0.0000 0.0000 14.8300 0.0000 0.0000
# 5 0.0000 0.0000 0.0000 0.0000 41.3166 0.0000
# 6 0.0000 0.0000 0.0000 0.0000 0.0000 41.8262
#
#
#
# Elastic Compliance Matrix: (Units=1/GPa)
#
#
# Indices 1 2 3 4 5 6 
#
# 1 0.013980 -0.005020 -0.007466 0.000000 0.000000 0.000000
# 2 -0.005020 0.033012 -0.024740 0.000000 0.000000 0.000000
# 3 -0.007466 -0.024740 0.036979 0.000000 0.000000 0.000000
# 4 0.000000 0.000000 0.000000 0.067431 0.000000 0.000000
# 5 0.000000 0.000000 0.000000 0.000000 0.024203 0.000000
# 6 0.000000 0.000000 0.000000 0.000000 0.000000 0.023908
#
#
# Mechanical properties :
#
#
# Convention : Reuss Voigt Hill
#
# Bulk Modulus (GPa) = 105.05304 107.44840 106.25072
# Shear Modulus (GPa) = 18.04155 26.15103 22.09629
#
# Velocity S-wave (km/s) = 3.25013 3.91298 3.59686
# Velocity P-wave (km/s) = 8.69443 9.12833 8.91402
#
# Compressibility (1/GPa) = 0.00951900
#
# Stress axis : x y z
#
# Youngs Moduli (GPa) = 71.53196 30.29243 27.04205
#
# Poissons Ratio (x) = 0.15206 0.20189
# Poissons Ratio (y) = 0.35908 0.66903
# Poissons Ratio (z) = 0.53403 0.74945
#
# Static dielectric constant tensor:
#      x y z
#    x 1.561990 0.000000 0.000000 
#    y 0.000000 1.566300 0.000000 
#    z 0.000000 0.000000 1.560260 
# 
# From -- ./inp_files/6377.got.cif
#   From: 2010.05.17/outbox.cif.g08.bks.cpg/sg53_4_cif.got.tgz:6377.got - 2010.06.03 12:45:16.
