data_PCOD9417823
_publ_section_title
;
Structure prediction by ZEFSAII (Michael W. Deem and Ramdas Pophale) SiO2 
 PCOD9417823
Probable space group: P M N A
;
_chemical_formula_sum "Si O2"
_cell_formula_units_Z 64
_cell_length_a 8.739261
_cell_length_b 20.221303
_cell_length_c 20.484006
_cell_angle_alpha 90.000000
_cell_angle_beta 90.000000
_cell_angle_gamma 90.000000
_cell_volume 3619.918068
_symmetry_space_group_name_H-M "P M N A"
_symmetry_group_IT_number 53
_symmetry_cell_setting 'orthorhombic'
loop_
_space_group_symop_operation_xyz
x,y,z
1/2-x,-y,1/2+z
x,-y,-z
1/2-x,y,1/2-z
-x,-y,-z
1/2+x,y,1/2-z
-x,y,z
1/2+x,-y,1/2+z
loop_
_atom_site_type_symbol
_atom_site_label
_atom_site_fract_x
_atom_site_fract_y
_atom_site_fract_z
Si Si1 0.683994 0.401222 0.178814
Si Si2 0.183161 0.970803 0.927919
Si Si3 0.817382 0.069777 0.679533
Si Si4 0.317709 0.554940 0.179491
Si Si5 0.816202 0.188878 0.895834
Si Si6 0.684145 0.691700 0.566567
Si Si7 0.816920 0.339226 0.917997
Si Si8 0.183171 0.167325 0.460322
O O1 0.750000 0.383531 0.250000
O O2 0.500000 0.395707 0.179194
O O3 0.725659 0.478333 0.166912
O O4 0.754469 0.355405 0.123064
O O5 0.253354 0.897657 0.925031
O O6 0.000000 0.968515 0.920197
O O7 0.255284 0.018669 0.874236
O O8 0.216215 0.000000 0.000000
O O9 0.750000 0.052912 0.750000
O O10 0.756836 0.141905 0.657979
O O11 0.000000 0.069200 0.680636
O O12 0.250000 0.573994 0.250000
O O13 0.500000 0.558117 0.183416
O O14 0.259676 0.603190 0.123182
O O15 0.779915 0.266576 0.889146
O O16 0.000000 0.181144 0.896554
O O17 0.751148 0.167115 0.966222
O O18 0.500000 0.697037 0.568749
O O19 0.726163 0.663680 0.494552
O O20 0.756552 0.764649 0.571009
O O21 0.000000 0.347184 0.914753
O O22 0.000000 0.166567 0.462726
#
# Coordination Sequence:
#
# PCOD9417823 Si02
#       8
#     8   8   8   8   8   8   8   8
#     4  10  21  38  59  84 112 148 192 238 289 347
#     4  11  22  38  63  88 116 153 193 237 285 340
#     4  12  25  40  59  85 118 154 195 241 291 345
#     4  10  21  36  56  80 111 149 192 238 286 343
#     4  10  20  37  57  81 113 151 192 234 283 339
#     4  10  21  38  59  85 117 152 189 236 289 342
#     4   9  20  36  56  82 115 151 190 234 283 338
#     4  11  21  35  59  89 117 147 189 236 282 338
#
# _framework density 17.679957999999999
#
# number of rings (size 3 to 8) (size 9 to 14) (size 15 to 20)
#    0.000    1.625    1.250    4.875    0.000    6.000 
#    0.000    3.125    0.000    0.000    0.000    0.000 
#    0.000    0.000    0.000    0.000    0.000    0.000 
#
# Total GULP energy -357592.419788 kJ/mol
# GULP energy per Si atom -5587.381559 kJ/mol
# Density = 1.763972 g / cm^3
# Si number density = 17.679958 Si / 1000 Ang^3
#
#
#
# Elastic Constant Matrix: (Units=GPa)
#
#
# Indices 1 2 3 4 5 6 
#
# 1 99.0213 62.6403 67.2789 0.0000 0.0000 0.0000
# 2 62.6403 121.0297 92.3381 0.0000 0.0000 0.0000
# 3 67.2789 92.3381 127.5118 0.0000 0.0000 0.0000
# 4 0.0000 0.0000 0.0000 27.5725 0.0000 0.0000
# 5 0.0000 0.0000 0.0000 0.0000 31.0606 0.0000
# 6 0.0000 0.0000 0.0000 0.0000 0.0000 53.7497
#
#
#
# Elastic Compliance Matrix: (Units=1/GPa)
#
#
# Indices 1 2 3 4 5 6 
#
# 1 0.016682 -0.004287 -0.005697 0.000000 0.000000 0.000000
# 2 -0.004287 0.019565 -0.011906 0.000000 0.000000 0.000000
# 3 -0.005697 -0.011906 0.019470 0.000000 0.000000 0.000000
# 4 0.000000 0.000000 0.000000 0.036268 0.000000 0.000000
# 5 0.000000 0.000000 0.000000 0.000000 0.032195 0.000000
# 6 0.000000 0.000000 0.000000 0.000000 0.000000 0.018605
#
#
# Mechanical properties :
#
#
# Convention : Reuss Voigt Hill
#
# Bulk Modulus (GPa) = 83.77934 88.00864 85.89399
# Shear Modulus (GPa) = 26.24071 30.83026 28.53549
#
# Velocity S-wave (km/s) = 3.85672 4.18041 4.02182
# Velocity P-wave (km/s) = 8.20499 8.55499 8.38182
#
# Compressibility (1/GPa) = 0.01193612
#
# Stress axis : x y z
#
# Youngs Moduli (GPa) = 59.94546 51.11237 51.36108
#
# Poissons Ratio (x) = 0.21913 0.29261
# Poissons Ratio (y) = 0.25700 0.61149
# Poissons Ratio (z) = 0.34152 0.60853
#
# Static dielectric constant tensor:
#      x y z
#    x 1.586950 0.000000 0.000000 
#    y 0.000000 1.598320 0.000000 
#    z 0.000000 0.000000 1.581950 
# 
# From -- ./inp_files/26872.got.cif
#   From: 2010.05.17/outbox.cif.g08.bks.cpg/sg53_14_cif.got.tgz:26872.got - 2010.06.03 12:45:16.
