data_PCOD9417843
_publ_section_title
;
Structure prediction by ZEFSAII (Michael W. Deem and Ramdas Pophale) SiO2 
 PCOD9417843
Probable space group: P M N A
;
_chemical_formula_sum "Si O2"
_cell_formula_units_Z 64
_cell_length_a 15.812788
_cell_length_b 20.911935
_cell_length_c 9.263000
_cell_angle_alpha 90.000000
_cell_angle_beta 90.000000
_cell_angle_gamma 90.000000
_cell_volume 3063.051740
_symmetry_space_group_name_H-M "P M N A"
_symmetry_group_IT_number 53
_symmetry_cell_setting 'orthorhombic'
loop_
_space_group_symop_operation_xyz
x,y,z
1/2-x,-y,1/2+z
x,-y,-z
1/2-x,y,1/2-z
-x,-y,-z
1/2+x,y,1/2-z
-x,y,z
1/2+x,-y,1/2+z
loop_
_atom_site_type_symbol
_atom_site_label
_atom_site_fract_x
_atom_site_fract_y
_atom_site_fract_z
Si Si1 0.900940 0.851697 0.876980
Si Si2 0.597534 0.498314 0.840484
Si Si3 0.844316 0.374604 0.803881
Si Si4 0.896920 0.734572 0.686151
Si Si5 0.397908 0.873868 0.299681
Si Si6 0.897167 0.608755 0.869750
Si Si7 0.663464 0.987079 0.670910
Si Si8 0.602385 0.749385 0.139591
O O1 0.865691 0.797052 0.772617
O O2 0.892379 0.923414 0.815956
O O3 0.000000 0.836742 0.892304
O O4 0.866089 0.853998 0.040252
O O5 0.500000 0.519937 0.858662
O O6 0.599997 0.427025 0.779582
O O7 0.632289 0.546717 0.720092
O O8 0.637391 0.500000 0.000000
O O9 0.750000 0.387024 0.750000
O O10 0.869039 0.303637 0.753744
O O11 0.856650 0.384726 0.973399
O O12 0.876714 0.670854 0.774146
O O13 0.866764 0.733015 0.521126
O O14 0.000000 0.737723 0.678791
O O15 0.500000 0.873727 0.304244
O O16 0.369746 0.820040 0.187701
O O17 0.371259 0.946223 0.267188
O O18 0.000000 0.605909 0.890448
O O19 0.750000 0.972414 0.750000
O O20 0.674014 0.000000 0.500000
O O21 0.500000 0.748936 0.139089
#
# Coordination Sequence:
#
# PCOD9417843 Si02
#       8
#     8   8   8   8   8   8   8   8
#     4   9  17  33  56  80 105 136 181 229 274 327
#     4  10  21  39  64  90 115 147 189 238 287 334
#     4  12  25  38  55  83 118 155 191 229 276 332
#     4   9  18  34  59  87 109 136 180 236 287 331
#     4   9  18  34  58  82 104 138 183 232 278 324
#     4  10  20  38  64  88 112 147 192 235 278 333
#     4  10  21  35  52  76 109 146 181 220 270 330
#     4  10  20  37  59  82 110 143 185 235 284 332
#
# _framework density 20.894193999999999
#
# number of rings (size 3 to 8) (size 9 to 14) (size 15 to 20)
#    0.000    2.125    0.000    3.375    0.000    9.000 
#    0.000    4.375    0.000    3.750    0.000    0.000 
#    0.000    0.000    0.000    0.000    0.000    0.000 
#
# Total GULP energy -357350.438726 kJ/mol
# GULP energy per Si atom -5583.600605 kJ/mol
# Density = 2.084664 g / cm^3
# Si number density = 20.894194 Si / 1000 Ang^3
#
#
#
# Elastic Constant Matrix: (Units=GPa)
#
#
# Indices 1 2 3 4 5 6 
#
# 1 22.4555 -1.6314 19.0846 0.0000 0.0000 0.0000
# 2 -1.6314 49.4440 7.9242 0.0000 0.0000 0.0000
# 3 19.0846 7.9242 82.0991 0.0000 0.0000 0.0000
# 4 0.0000 0.0000 0.0000 30.5615 0.0000 0.0000
# 5 0.0000 0.0000 0.0000 0.0000 4.1744 0.0000
# 6 0.0000 0.0000 0.0000 0.0000 0.0000 125.1555
#
#
#
# Elastic Compliance Matrix: (Units=1/GPa)
#
#
# Indices 1 2 3 4 5 6 
#
# 1 0.056271 0.004015 -0.013468 0.000000 0.000000 0.000000
# 2 0.004015 0.020829 -0.002944 0.000000 0.000000 0.000000
# 3 -0.013468 -0.002944 0.015595 0.000000 0.000000 0.000000
# 4 0.000000 0.000000 0.000000 0.032721 0.000000 0.000000
# 5 0.000000 0.000000 0.000000 0.000000 0.239558 0.000000
# 6 0.000000 0.000000 0.000000 0.000000 0.000000 0.007990
#
#
# Mechanical properties :
#
#
# Convention : Reuss Voigt Hill
#
# Bulk Modulus (GPa) = 14.72722 22.75038 18.73880
# Shear Modulus (GPa) = 11.89368 40.55300 26.22334
#
# Velocity S-wave (km/s) = 2.38845 4.41031 3.54652
# Velocity P-wave (km/s) = 3.83015 6.07013 5.07526
#
# Compressibility (1/GPa) = 0.06790148
#
# Stress axis : x y z
#
# Youngs Moduli (GPa) = 17.77129 48.00958 64.12183
#
# Poissons Ratio (x) = -0.19276 0.86360
# Poissons Ratio (y) = -0.07135 0.18876
# Poissons Ratio (z) = 0.23935 0.14133
#
# Static dielectric constant tensor:
#      x y z
#    x 1.766410 0.000000 0.000000 
#    y 0.000000 1.727920 0.000000 
#    z 0.000000 0.000000 1.742970 
# 
# From -- ./inp_files/10200.got.cif
#   From: 2010.05.17/outbox.cif.g08.bks.cpg/sg53_6_cif.got.tgz:10200.got - 2010.06.03 12:45:16.
