data_PCOD9417333
_publ_section_title
;
Structure prediction by ZEFSAII (Michael W. Deem and Ramdas Pophale) SiO2 
 PCOD9417333
Probable space group: P M N A
;
_chemical_formula_sum "Si O2"
_cell_formula_units_Z 64
_cell_length_a 8.665440
_cell_length_b 15.643583
_cell_length_c 23.318380
_cell_angle_alpha 90.000000
_cell_angle_beta 90.000000
_cell_angle_gamma 90.000000
_cell_volume 3161.005312
_symmetry_space_group_name_H-M "P M N A"
_symmetry_group_IT_number 53
_symmetry_cell_setting 'orthorhombic'
loop_
_space_group_symop_operation_xyz
x,y,z
1/2-x,-y,1/2+z
x,-y,-z
1/2-x,y,1/2-z
-x,-y,-z
1/2+x,y,1/2-z
-x,y,z
1/2+x,-y,1/2+z
loop_
_atom_site_type_symbol
_atom_site_label
_atom_site_fract_x
_atom_site_fract_y
_atom_site_fract_z
Si Si1 0.183790 0.612080 0.607096
Si Si2 0.314145 0.279055 0.000630
Si Si3 0.682499 0.532059 0.312858
Si Si4 0.313705 0.760739 0.685191
Si Si5 0.317187 0.698937 0.132541
Si Si6 0.685606 0.053011 0.313630
Si Si7 0.675850 0.875645 0.361059
Si Si8 0.174700 0.902812 0.003051
O O1 0.235951 0.646733 0.544717
O O2 0.257018 0.529014 0.636209
O O3 0.230530 0.688733 0.649189
O O4 0.000000 0.599881 0.605092
O O5 0.500000 0.275005 0.001628
O O6 0.269121 0.301269 0.934989
O O7 0.254698 0.184352 0.018726
O O8 0.750000 0.509529 0.250000
O O9 0.500000 0.524474 0.309100
O O10 0.732336 0.627207 0.330845
O O11 0.250000 0.757132 0.750000
O O12 0.500000 0.749837 0.685147
O O13 0.274878 0.854924 0.660426
O O14 0.500000 0.684057 0.135289
O O15 0.275242 0.793505 0.154411
O O16 0.750000 0.054361 0.250000
O O17 0.500000 0.049272 0.313296
O O18 0.742847 0.966243 0.341660
O O19 0.500000 0.864897 0.339204
O O20 0.666191 0.883599 0.429416
O O21 0.000000 0.908178 0.978397
O O22 0.241297 0.000000 0.000000
#
# Coordination Sequence:
#
# PCOD9417333 Si02
#       8
#     8   8   8   8   8   8   8   8
#     4  11  23  40  61  88 121 157 197 245 296 355
#     4   9  21  39  59  86 122 162 201 241 296 355
#     4  12  26  45  68  94 119 151 194 244 301 362
#     4  10  20  35  55  80 113 155 197 246 299 356
#     4  10  21  41  64  88 120 157 197 244 296 355
#     4   9  19  33  51  75 109 148 192 238 288 346
#     4   9  18  34  53  79 113 151 192 241 293 344
#     4   9  18  31  53  81 113 153 199 248 293 337
#
# _framework density 20.246722999999999
#
# number of rings (size 3 to 8) (size 9 to 14) (size 15 to 20)
#    0.000    2.125    0.000    2.625    1.750    3.750 
#    0.000    3.750    0.000    0.000    0.000    0.000 
#    0.000    0.000    0.000    0.000    0.000    0.000 
#
# Total GULP energy -357017.587807 kJ/mol
# GULP energy per Si atom -5578.399809 kJ/mol
# Density = 2.020064 g / cm^3
# Si number density = 20.246723 Si / 1000 Ang^3
#
#
#
# Elastic Constant Matrix: (Units=GPa)
#
#
# Indices 1 2 3 4 5 6 
#
# 1 45.4422 10.6810 2.6724 0.0000 0.0000 0.0000
# 2 10.6810 67.1263 -13.4278 0.0000 0.0000 0.0000
# 3 2.6724 -13.4278 17.1538 0.0000 0.0000 0.0000
# 4 0.0000 0.0000 0.0000 32.7788 0.0000 0.0000
# 5 0.0000 0.0000 0.0000 0.0000 15.6856 0.0000
# 6 0.0000 0.0000 0.0000 0.0000 0.0000 41.7714
#
#
#
# Elastic Compliance Matrix: (Units=1/GPa)
#
#
# Indices 1 2 3 4 5 6 
#
# 1 0.023728 -0.005353 -0.007887 0.000000 0.000000 0.000000
# 2 -0.005353 0.018871 0.015606 0.000000 0.000000 0.000000
# 3 -0.007887 0.015606 0.071741 0.000000 0.000000 0.000000
# 4 0.000000 0.000000 0.000000 0.030508 0.000000 0.000000
# 5 0.000000 0.000000 0.000000 0.000000 0.063753 0.000000
# 6 0.000000 0.000000 0.000000 0.000000 0.000000 0.023940
#
#
# Mechanical properties :
#
#
# Convention : Reuss Voigt Hill
#
# Bulk Modulus (GPa) = 8.39835 14.39706 11.39770
# Shear Modulus (GPa) = 18.69161 26.70027 22.69594
#
# Velocity S-wave (km/s) = 3.04170 3.63539 3.35172
# Velocity P-wave (km/s) = 4.06115 4.97470 4.54096
#
# Compressibility (1/GPa) = 0.11907107
#
# Stress axis : x y z
#
# Youngs Moduli (GPa) = 42.14415 52.99172 13.93901
#
# Poissons Ratio (x) = 0.28368 0.10994
# Poissons Ratio (y) = 0.22561 -0.21753
# Poissons Ratio (z) = 0.33240 -0.82699
#
# Static dielectric constant tensor:
#      x y z
#    x 1.831010 0.000000 0.000000 
#    y 0.000000 1.738510 0.000000 
#    z 0.000000 0.000000 1.742020 
# 
# From -- ./inp_files/34291.got.cif
#   From: 2010.05.17/outbox.cif.g08.bks.cpg/sg53_18_cif.got.tgz:34291.got - 2010.06.03 12:45:16.
