data_PCOD9417836
_publ_section_title
;
Structure prediction by ZEFSAII (Michael W. Deem and Ramdas Pophale) SiO2 
 PCOD9417836
Probable space group: P M N A
;
_chemical_formula_sum "Si O2"
_cell_formula_units_Z 48
_cell_length_a 15.603565
_cell_length_b 15.550290
_cell_length_c 9.053315
_cell_angle_alpha 90.000000
_cell_angle_beta 90.000000
_cell_angle_gamma 90.000000
_cell_volume 2196.695997
_symmetry_space_group_name_H-M "P M N A"
_symmetry_group_IT_number 53
_symmetry_cell_setting 'orthorhombic'
loop_
_space_group_symop_operation_xyz
x,y,z
1/2-x,-y,1/2+z
x,-y,-z
1/2-x,y,1/2-z
-x,-y,-z
1/2+x,y,1/2-z
-x,y,z
1/2+x,-y,1/2+z
loop_
_atom_site_type_symbol
_atom_site_label
_atom_site_fract_x
_atom_site_fract_y
_atom_site_fract_z
Si Si1 0.404042 0.585190 0.399319
Si Si2 0.262486 0.665606 0.601484
Si Si3 0.405754 0.196400 0.375603
Si Si4 0.665262 0.021097 0.325686
Si Si5 0.402379 0.840485 0.274269
Si Si6 0.101044 0.332132 0.601351
O O1 0.409062 0.500000 0.500000
O O2 0.500000 0.626343 0.414694
O O3 0.324602 0.631866 0.473937
O O4 0.390053 0.590556 0.222217
O O5 0.250000 0.610081 0.750000
O O6 0.322446 0.745839 0.658352
O O7 0.168636 0.668895 0.530153
O O8 0.500000 0.233227 0.337221
O O9 0.399946 0.099994 0.310826
O O10 0.400982 0.181341 0.552184
O O11 0.750000 0.055000 0.250000
O O12 0.674337 0.000000 0.500000
O O13 0.645292 0.929926 0.250073
O O14 0.500000 0.857133 0.231827
O O15 0.375117 0.755735 0.188466
O O16 0.000000 0.329464 0.558584
#
# Coordination Sequence:
#
# PCOD9417836 Si02
#       6
#     8   8   8   8   8   8
#     4  10  22  43  70  97 125 161 207 257 310 373
#     4  12  25  38  63  94 132 171 210 257 321 379
#     4  10  20  37  58  84 120 163 215 264 318 376
#     4  10  21  33  54  82 117 160 209 266 321 377
#     4   9  18  34  60  86 110 153 211 268 320 366
#     4  10  22  41  67  97 126 165 215 266 317 379
#
# _framework density 21.850998000000001
#
# number of rings (size 3 to 8) (size 9 to 14) (size 15 to 20)
#    0.000    1.833    1.667    2.000    4.667    4.667 
#    0.000    0.000    0.000    4.500    0.000    0.000 
#    0.000    0.000    0.000    0.000    0.000    0.000 
#
# Total GULP energy -267264.693771 kJ/mol
# GULP energy per Si atom -5568.014454 kJ/mol
# Density = 2.180126 g / cm^3
# Si number density = 21.850998 Si / 1000 Ang^3
#
#
#
# Elastic Constant Matrix: (Units=GPa)
#
#
# Indices 1 2 3 4 5 6 
#
# 1 127.0785 28.2961 59.4479 0.0000 0.0000 0.0000
# 2 28.2961 49.2241 11.5615 0.0000 0.0000 0.0000
# 3 59.4479 11.5615 70.9887 0.0000 0.0000 0.0000
# 4 0.0000 0.0000 0.0000 3.8278 0.0000 0.0000
# 5 0.0000 0.0000 0.0000 0.0000 30.5139 0.0000
# 6 0.0000 0.0000 0.0000 0.0000 0.0000 0.0751
#
#
#
# Elastic Compliance Matrix: (Units=1/GPa)
#
#
# Indices 1 2 3 4 5 6 
#
# 1 0.014291 -0.005619 -0.011052 0.000000 0.000000 0.000000
# 2 -0.005619 0.023333 0.000905 0.000000 0.000000 0.000000
# 3 -0.011052 0.000905 0.023195 0.000000 0.000000 0.000000
# 4 0.000000 0.000000 0.000000 0.261244 0.000000 0.000000
# 5 0.000000 0.000000 0.000000 0.000000 0.032772 0.000000
# 6 0.000000 0.000000 0.000000 0.000000 0.000000 13.307197
#
#
# Mechanical properties :
#
#
# Convention : Reuss Voigt Hill
#
# Bulk Modulus (GPa) = 34.14547 49.54467 41.84507
# Shear Modulus (GPa) = 0.36487 16.74909 8.55698
#
# Velocity S-wave (km/s) = 0.40908 2.77160 1.98105
# Velocity P-wave (km/s) = 3.98542 5.74156 4.94212
#
# Compressibility (1/GPa) = 0.02928646
#
# Stress axis : x y z
#
# Youngs Moduli (GPa) = 69.97625 42.85846 43.11329
#
# Poissons Ratio (x) = 0.24082 0.47650
# Poissons Ratio (y) = 0.39319 -0.03904
# Poissons Ratio (z) = 0.77339 -0.03881
#
# Static dielectric constant tensor:
#      x y z
#    x 1.800420 0.000000 0.000000 
#    y 0.000000 1.890400 0.000000 
#    z 0.000000 0.000000 1.922430 
# 
# From -- ./inp_files/8655.got.cif
#   From: 2010.05.17/outbox.cif.g08.bks.cpg/sg53_5_cif.got.tgz:8655.got - 2010.06.03 12:45:16.
