data_PCOD9417034
_publ_section_title
;
Structure prediction by ZEFSAII (Michael W. Deem and Ramdas Pophale) SiO2 
 PCOD9417034
Probable space group: P M N A
;
_chemical_formula_sum "Si O2"
_cell_formula_units_Z 40
_cell_length_a 14.546749
_cell_length_b 14.547662
_cell_length_c 9.763027
_cell_angle_alpha 90.000000
_cell_angle_beta 90.000000
_cell_angle_gamma 90.000000
_cell_volume 2066.063369
_symmetry_space_group_name_H-M "P M N A"
_symmetry_group_IT_number 53
_symmetry_cell_setting 'orthorhombic'
loop_
_space_group_symop_operation_xyz
x,y,z
1/2-x,-y,1/2+z
x,-y,-z
1/2-x,y,1/2-z
-x,-y,-z
1/2+x,y,1/2-z
-x,y,z
1/2+x,-y,1/2+z
loop_
_atom_site_type_symbol
_atom_site_label
_atom_site_fract_x
_atom_site_fract_y
_atom_site_fract_z
Si Si1 0.894233 0.099853 0.023326
Si Si2 0.608836 0.261120 0.290825
Si Si3 0.853421 0.239382 0.788624
Si Si4 0.697153 0.394454 0.498918
Si Si5 0.899189 0.674551 0.490600
O O1 0.854845 0.167753 0.139238
O O2 0.000000 0.083222 0.065695
O O3 0.893145 0.160190 0.884851
O O4 0.850647 0.000000 0.000000
O O5 0.500000 0.270498 0.327398
O O6 0.663543 0.344603 0.360659
O O7 0.614449 0.265644 0.127962
O O8 0.750000 0.212169 0.750000
O O9 0.899754 0.264041 0.645779
O O10 0.846647 0.332287 0.880287
O O11 0.668735 0.500000 0.500000
O O12 0.807586 0.387042 0.516801
O O13 0.000000 0.628774 0.502809
#
# Coordination Sequence:
#
# PCOD9417034 Si02
#       5
#     8   8   8   8   8
#     4   9  17  33  56  77 100 134 173 209 251 308
#     4   9  19  35  55  79 106 137 173 213 259 309
#     4   9  19  35  52  74 104 136 173 213 257 307
#     4  10  21  37  55  75 103 141 180 214 254 310
#     4  10  20  34  53  77 107 139 171 215 265 305
#
# _framework density 19.360491
#
# number of rings (size 3 to 8) (size 9 to 14) (size 15 to 20)
#    0.000    2.600    0.000    1.200    0.000    6.400 
#    0.000    9.000    0.000    4.800    0.000    0.000 
#    0.000    0.000    0.000    0.000    0.000    0.000 
#
# Total GULP energy -222905.552120 kJ/mol
# GULP energy per Si atom -5572.638803 kJ/mol
# Density = 1.931643 g / cm^3
# Si number density = 19.360491 Si / 1000 Ang^3
#
#
#
# Elastic Constant Matrix: (Units=GPa)
#
#
# Indices 1 2 3 4 5 6 
#
# 1 60.5530 16.8690 16.2271 0.0000 0.0000 0.0000
# 2 16.8690 149.7854 52.9111 0.0000 0.0000 0.0000
# 3 16.2271 52.9111 144.2865 0.0000 0.0000 0.0000
# 4 0.0000 0.0000 0.0000 0.1477 0.0000 0.0000
# 5 0.0000 0.0000 0.0000 0.0000 86.2660 0.0000
# 6 0.0000 0.0000 0.0000 0.0000 0.0000 21.4844
#
#
#
# Elastic Compliance Matrix: (Units=1/GPa)
#
#
# Indices 1 2 3 4 5 6 
#
# 1 0.017297 -0.001448 -0.001414 0.000000 0.000000 0.000000
# 2 -0.001448 0.007791 -0.002694 0.000000 0.000000 0.000000
# 3 -0.001414 -0.002694 0.008078 0.000000 0.000000 0.000000
# 4 0.000000 0.000000 0.000000 6.772115 0.000000 0.000000
# 5 0.000000 0.000000 0.000000 0.000000 0.011592 0.000000
# 6 0.000000 0.000000 0.000000 0.000000 0.000000 0.046545
#
#
# Mechanical properties :
#
#
# Convention : Reuss Voigt Hill
#
# Bulk Modulus (GPa) = 45.34703 58.51550 51.93126
# Shear Modulus (GPa) = 0.72655 39.48745 20.10700
#
# Velocity S-wave (km/s) = 0.61326 4.52108 3.22616
# Velocity P-wave (km/s) = 4.89640 7.58573 6.38428
#
# Compressibility (1/GPa) = 0.02205216
#
# Stress axis : x y z
#
# Youngs Moduli (GPa) = 57.81374 128.35259 123.79827
#
# Poissons Ratio (x) = 0.18591 0.17507
# Poissons Ratio (y) = 0.08374 0.33353
# Poissons Ratio (z) = 0.08176 0.34580
#
# Static dielectric constant tensor:
#      x y z
#    x 1.745030 0.000000 0.000000 
#    y 0.000000 1.677340 0.000000 
#    z 0.000000 0.000000 1.687390 
# 
# From -- ./inp_files/8396.got.cif
#   From: 2010.05.17/outbox.cif.g08.bks.cpg/sg53_5_cif.got.tgz:8396.got - 2010.06.03 12:45:16.
