data_PCOD9417031
_publ_section_title
;
Structure prediction by ZEFSAII (Michael W. Deem and Ramdas Pophale) SiO2 
 PCOD9417031
Probable space group: P M N A
;
_chemical_formula_sum "Si O2"
_cell_formula_units_Z 48
_cell_length_a 8.971874
_cell_length_b 18.678876
_cell_length_c 16.508992
_cell_angle_alpha 90.000000
_cell_angle_beta 90.000000
_cell_angle_gamma 90.000000
_cell_volume 2766.651532
_symmetry_space_group_name_H-M "P M N A"
_symmetry_group_IT_number 53
_symmetry_cell_setting 'orthorhombic'
loop_
_space_group_symop_operation_xyz
x,y,z
1/2-x,-y,1/2+z
x,-y,-z
1/2-x,y,1/2-z
-x,-y,-z
1/2+x,y,1/2-z
-x,y,z
1/2+x,-y,1/2+z
loop_
_atom_site_type_symbol
_atom_site_label
_atom_site_fract_x
_atom_site_fract_y
_atom_site_fract_z
Si Si1 0.671110 0.955062 0.915819
Si Si2 0.177642 0.827433 0.003169
Si Si3 0.323127 0.915352 0.332350
Si Si4 0.179381 0.327473 0.485849
Si Si5 0.329902 0.540593 0.086990
Si Si6 0.177163 0.588187 0.835576
O O1 0.500000 0.941413 0.892449
O O2 0.752607 0.007422 0.853407
O O3 0.757695 0.882451 0.936606
O O4 0.669736 0.000000 0.000000
O O5 0.205852 0.864001 0.090790
O O6 0.000000 0.819769 0.993364
O O7 0.258573 0.751648 0.997568
O O8 0.250000 0.887837 0.250000
O O9 0.500000 0.922183 0.323182
O O10 0.214867 0.379159 0.562509
O O11 0.253484 0.363130 0.406751
O O12 0.000000 0.328321 0.476934
O O13 0.500000 0.539225 0.118562
O O14 0.223888 0.493540 0.142870
O O15 0.332568 0.500000 0.000000
O O16 0.250000 0.607438 0.750000
O O17 0.000000 0.595487 0.833627
#
# Coordination Sequence:
#
# PCOD9417031 Si02
#       6
#     8   8   8   8   8   8
#     4   9  17  31  52  75  99 131 170 208 250 302
#     4  10  20  34  53  78 107 139 175 213 256 309
#     4  10  20  34  53  77 105 136 173 217 261 306
#     4  10  20  35  55  78 106 139 174 212 258 312
#     4   8  16  32  52  74 100 131 168 208 250 300
#     4  11  21  34  54  78 105 136 173 216 261 308
#
# _framework density 17.349492000000001
#
# number of rings (size 3 to 8) (size 9 to 14) (size 15 to 20)
#    0.000    2.333    0.000    4.500    0.000    7.667 
#    0.000    1.667    0.000    2.000    0.000    0.000 
#    0.000    0.000    0.000    0.000    0.000    0.000 
#
# Total GULP energy -267714.275414 kJ/mol
# GULP energy per Si atom -5577.380738 kJ/mol
# Density = 1.731000 g / cm^3
# Si number density = 17.349492 Si / 1000 Ang^3
#
#
#
# Elastic Constant Matrix: (Units=GPa)
#
#
# Indices 1 2 3 4 5 6 
#
# 1 121.2884 62.9314 54.8289 0.0000 0.0000 0.0000
# 2 62.9314 122.5305 26.5957 0.0000 0.0000 0.0000
# 3 54.8289 26.5957 64.1408 0.0000 0.0000 0.0000
# 4 0.0000 0.0000 0.0000 12.4525 0.0000 0.0000
# 5 0.0000 0.0000 0.0000 0.0000 27.3846 0.0000
# 6 0.0000 0.0000 0.0000 0.0000 0.0000 16.3837
#
#
#
# Elastic Compliance Matrix: (Units=1/GPa)
#
#
# Indices 1 2 3 4 5 6 
#
# 1 0.016687 -0.006016 -0.011770 0.000000 0.000000 0.000000
# 2 -0.006016 0.011137 0.000524 0.000000 0.000000 0.000000
# 3 -0.011770 0.000524 0.025434 0.000000 0.000000 0.000000
# 4 0.000000 0.000000 0.000000 0.080305 0.000000 0.000000
# 5 0.000000 0.000000 0.000000 0.000000 0.036517 0.000000
# 6 0.000000 0.000000 0.000000 0.000000 0.000000 0.061036
#
#
# Mechanical properties :
#
#
# Convention : Reuss Voigt Hill
#
# Bulk Modulus (GPa) = 53.37323 66.29686 59.83505
# Shear Modulus (GPa) = 18.39023 22.15107 20.27065
#
# Velocity S-wave (km/s) = 3.25928 3.57705 3.42185
# Velocity P-wave (km/s) = 6.70777 7.44015 7.08343
#
# Compressibility (1/GPa) = 0.01873598
#
# Stress axis : x y z
#
# Youngs Moduli (GPa) = 59.92841 89.79085 39.31691
#
# Poissons Ratio (x) = 0.54014 0.46275
# Poissons Ratio (y) = 0.36050 -0.02061
# Poissons Ratio (z) = 0.70534 -0.04708
#
# Static dielectric constant tensor:
#      x y z
#    x 1.577340 0.000000 0.000000 
#    y 0.000000 1.588120 0.000000 
#    z 0.000000 0.000000 1.589950 
# 
# From -- ./inp_files/20198.got.cif
#   From: 2010.05.17/outbox.cif.g08.bks.cpg/sg53_11_cif.got.tgz:20198.got - 2010.06.03 12:45:16.
