data_PCOD9417077
_publ_section_title
;
Structure prediction by ZEFSAII (Michael W. Deem and Ramdas Pophale) SiO2 
 PCOD9417077
Probable space group: P M N A
;
_chemical_formula_sum "Si O2"
_cell_formula_units_Z 48
_cell_length_a 15.679198
_cell_length_b 14.814710
_cell_length_c 8.169987
_cell_angle_alpha 90.000000
_cell_angle_beta 90.000000
_cell_angle_gamma 90.000000
_cell_volume 1897.747223
_symmetry_space_group_name_H-M "P M N A"
_symmetry_group_IT_number 53
_symmetry_cell_setting 'orthorhombic'
loop_
_space_group_symop_operation_xyz
x,y,z
1/2-x,-y,1/2+z
x,-y,-z
1/2-x,y,1/2-z
-x,-y,-z
1/2+x,y,1/2-z
-x,y,z
1/2+x,-y,1/2+z
loop_
_atom_site_type_symbol
_atom_site_label
_atom_site_fract_x
_atom_site_fract_y
_atom_site_fract_z
Si Si1 0.397229 0.728036 0.518611
Si Si2 0.847073 0.119642 0.816296
Si Si3 0.102868 0.608994 0.656601
Si Si4 0.401931 0.771816 0.009813
Si Si5 0.900227 0.559067 0.168496
Si Si6 0.659177 0.944428 0.827728
O O1 0.500000 0.739241 0.505755
O O2 0.355327 0.825293 0.484072
O O3 0.382690 0.675851 0.688409
O O4 0.364695 0.655710 0.383299
O O5 0.750000 0.115677 0.750000
O O6 0.892300 0.182923 0.684541
O O7 0.882462 0.018209 0.795164
O O8 0.138772 0.672772 0.513234
O O9 0.137885 0.509781 0.698217
O O10 0.000000 0.593002 0.644100
O O11 0.500000 0.753682 0.982343
O O12 0.379141 0.849436 0.879352
O O13 0.000000 0.576947 0.211464
O O14 0.901956 0.500000 0.000000
O O15 0.750000 0.926072 0.750000
O O16 0.665900 0.000000 0.000000
#
# Coordination Sequence:
#
# PCOD9417077 Si02
#       6
#     8   8   8   8   8   8
#     4   9  16  29  52  75  96 129 170 208 246 294
#     4  10  21  35  49  69  99 135 169 206 256 311
#     4   8  15  28  48  76 102 124 160 207 252 297
#     4  10  20  34  54  79 105 133 170 218 262 302
#     4   7  11  23  45  71  97 126 160 198 242 294
#     4   9  20  36  53  71  97 135 172 206 254 314
#
# _framework density 25.293147000000001
#
# number of rings (size 3 to 8) (size 9 to 14) (size 15 to 20)
#    0.000    3.167    0.000    2.500    0.000    7.667 
#    0.000    0.833    0.000   14.500    0.000    0.000 
#    0.000    0.000    0.000    0.000    0.000    0.000 
#
# Total GULP energy -267825.937024 kJ/mol
# GULP energy per Si atom -5579.707021 kJ/mol
# Density = 2.523558 g / cm^3
# Si number density = 25.293147 Si / 1000 Ang^3
#
#
#
# Elastic Constant Matrix: (Units=GPa)
#
#
# Indices 1 2 3 4 5 6 
#
# 1 18.1556 7.3073 -0.7309 0.0000 0.0000 0.0000
# 2 7.3073 150.7602 27.6913 0.0000 0.0000 0.0000
# 3 -0.7309 27.6913 57.1618 0.0000 0.0000 0.0000
# 4 0.0000 0.0000 0.0000 46.6253 0.0000 0.0000
# 5 0.0000 0.0000 0.0000 0.0000 16.0530 0.0000
# 6 0.0000 0.0000 0.0000 0.0000 0.0000 -64.2942
#
#
#
# Elastic Compliance Matrix: (Units=1/GPa)
#
#
# Indices 1 2 3 4 5 6 
#
# 1 0.056437 -0.003148 0.002247 0.000000 0.000000 0.000000
# 2 -0.003148 0.007457 -0.003652 0.000000 0.000000 0.000000
# 3 0.002247 -0.003652 0.019292 0.000000 0.000000 0.000000
# 4 0.000000 0.000000 0.000000 0.021448 0.000000 0.000000
# 5 0.000000 0.000000 0.000000 0.000000 0.062294 0.000000
# 6 0.000000 0.000000 0.000000 0.000000 0.000000 -0.015554
#
#
# Mechanical properties :
#
#
# Convention : Reuss Voigt Hill
#
# Bulk Modulus (GPa) = 13.49930 32.73477 23.11703
# Shear Modulus (GPa) = 27.00163 12.46415 19.73289
#
# Velocity S-wave (km/s) = 3.27088 2.22229 2.79618
# Velocity P-wave (km/s) = 4.42872 4.42210 4.42541
#
# Compressibility (1/GPa) = 0.07407794
#
# Stress axis : x y z
#
# Youngs Moduli (GPa) = 17.71889 134.11092 51.83410
#
# Poissons Ratio (x) = 0.42220 -0.11646
# Poissons Ratio (y) = 0.05578 0.18932
# Poissons Ratio (z) = -0.03981 0.48984
#
# Static dielectric constant tensor:
#      x y z
#    x 2.058950 0.000000 0.000000 
#    y 0.000000 2.022900 0.000000 
#    z 0.000000 0.000000 2.155710 
# 
# From -- ./inp_files/8678.got.cif
#   From: 2010.05.17/outbox.cif.g08.bks.cpg/sg53_5_cif.got.tgz:8678.got - 2010.06.03 12:45:16.
