data_PCOD9417619
_publ_section_title
;
Structure prediction by ZEFSAII (Michael W. Deem and Ramdas Pophale) SiO2 
 PCOD9417619
Probable space group: P M N A
;
_chemical_formula_sum "Si O2"
_cell_formula_units_Z 48
_cell_length_a 8.607692
_cell_length_b 31.635059
_cell_length_c 9.433772
_cell_angle_alpha 90.000000
_cell_angle_beta 90.000000
_cell_angle_gamma 90.000000
_cell_volume 2568.861815
_symmetry_space_group_name_H-M "P M N A"
_symmetry_group_IT_number 53
_symmetry_cell_setting 'orthorhombic'
loop_
_space_group_symop_operation_xyz
x,y,z
1/2-x,-y,1/2+z
x,-y,-z
1/2-x,y,1/2-z
-x,-y,-z
1/2+x,y,1/2-z
-x,y,z
1/2+x,-y,1/2+z
loop_
_atom_site_type_symbol
_atom_site_label
_atom_site_fract_x
_atom_site_fract_y
_atom_site_fract_z
Si Si1 0.687482 0.459432 0.091041
Si Si2 0.814210 0.880806 0.909550
Si Si3 0.313548 0.041684 0.909084
Si Si4 0.687005 0.377680 0.909481
Si Si5 0.685826 0.712623 0.409402
Si Si6 0.685894 0.210050 0.091046
O O1 0.750000 0.460836 0.250000
O O2 0.500000 0.460376 0.096323
O O3 0.739772 0.500000 0.000000
O O4 0.732997 0.416587 0.009383
O O5 0.750000 0.887947 0.750000
O O6 0.749251 0.835425 0.959361
O O7 0.000000 0.879329 0.903680
O O8 0.757349 0.917890 0.011637
O O9 0.250000 0.038053 0.750000
O O10 0.500000 0.045521 0.905430
O O11 0.273489 0.000000 0.000000
O O12 0.750000 0.384527 0.750000
O O13 0.500000 0.375039 0.903532
O O14 0.754334 0.333005 0.962216
O O15 0.750000 0.716442 0.250000
O O16 0.500000 0.713199 0.408782
O O17 0.751803 0.751309 0.499044
O O18 0.750000 0.215104 0.250000
O O19 0.500000 0.209374 0.092114
#
# Coordination Sequence:
#
# PCOD9417619 Si02
#       6
#     8   8   8   8   8   8
#     4  10  22  38  57  83 113 146 186 231 279 335
#     4  11  22  39  62  88 119 155 195 239 290 344
#     4  11  24  41  62  89 120 155 196 241 290 344
#     4  10  20  36  57  82 112 147 189 234 283 338
#     4  11  22  38  59  85 116 152 193 237 288 341
#     4  11  22  39  61  87 118 153 194 238 288 343
#
# _framework density 18.685317999999999
#
# number of rings (size 3 to 8) (size 9 to 14) (size 15 to 20)
#    0.000    1.333    0.000    8.500    0.000    5.667 
#    0.000    5.000    0.000    0.000    0.000    0.000 
#    0.000    0.000    0.000    0.000    0.000    0.000 
#
# Total GULP energy -268407.722213 kJ/mol
# GULP energy per Si atom -5591.827546 kJ/mol
# Density = 1.864279 g / cm^3
# Si number density = 18.685318 Si / 1000 Ang^3
#
#
#
# Elastic Constant Matrix: (Units=GPa)
#
#
# Indices 1 2 3 4 5 6 
#
# 1 141.0639 90.1260 57.2190 0.0000 0.0000 0.0000
# 2 90.1260 221.3844 119.3294 0.0000 0.0000 0.0000
# 3 57.2190 119.3294 116.0525 0.0000 0.0000 0.0000
# 4 0.0000 0.0000 0.0000 42.4813 0.0000 0.0000
# 5 0.0000 0.0000 0.0000 0.0000 35.9516 0.0000
# 6 0.0000 0.0000 0.0000 0.0000 0.0000 455.1518
#
#
#
# Elastic Compliance Matrix: (Units=1/GPa)
#
#
# Indices 1 2 3 4 5 6 
#
# 1 0.009715 -0.003081 -0.001623 0.000000 0.000000 0.000000
# 2 -0.003081 0.011110 -0.009905 0.000000 0.000000 0.000000
# 3 -0.001623 -0.009905 0.019601 0.000000 0.000000 0.000000
# 4 0.000000 0.000000 0.000000 0.023540 0.000000 0.000000
# 5 0.000000 0.000000 0.000000 0.000000 0.027815 0.000000
# 6 0.000000 0.000000 0.000000 0.000000 0.000000 0.002197
#
#
# Mechanical properties :
#
#
# Convention : Reuss Voigt Hill
#
# Bulk Modulus (GPa) = 89.20037 112.42773 100.81405
# Shear Modulus (GPa) = 39.39138 120.83869 80.11503
#
# Velocity S-wave (km/s) = 4.59644 8.05051 6.55507
# Velocity P-wave (km/s) = 8.71846 12.11256 10.55286
#
# Compressibility (1/GPa) = 0.01121072
#
# Stress axis : x y z
#
# Youngs Moduli (GPa) = 102.93056 90.00915 51.01704
#
# Poissons Ratio (x) = 0.27728 0.08278
# Poissons Ratio (y) = 0.31708 0.50532
# Poissons Ratio (z) = 0.16701 0.89153
#
# Static dielectric constant tensor:
#      x y z
#    x 1.625910 0.000000 0.000000 
#    y 0.000000 1.641580 0.000000 
#    z 0.000000 0.000000 1.601370 
# 
# From -- ./inp_files/6736.got.cif
#   From: 2010.05.17/outbox.cif.g08.bks.cpg/sg53_4_cif.got.tgz:6736.got - 2010.06.03 12:45:16.
