data_PCOD9417432
_publ_section_title
;
Structure prediction by ZEFSAII (Michael W. Deem and Ramdas Pophale) SiO2 
 PCOD9417432
Probable space group: P M N A
;
_chemical_formula_sum "Si O2"
_cell_formula_units_Z 40
_cell_length_a 8.441869
_cell_length_b 8.082462
_cell_length_c 29.472878
_cell_angle_alpha 90.000000
_cell_angle_beta 90.000000
_cell_angle_gamma 90.000000
_cell_volume 2010.966456
_symmetry_space_group_name_H-M "P M N A"
_symmetry_group_IT_number 53
_symmetry_cell_setting 'orthorhombic'
loop_
_space_group_symop_operation_xyz
x,y,z
1/2-x,-y,1/2+z
x,-y,-z
1/2-x,y,1/2-z
-x,-y,-z
1/2+x,y,1/2-z
-x,y,z
1/2+x,-y,1/2+z
loop_
_atom_site_type_symbol
_atom_site_label
_atom_site_fract_x
_atom_site_fract_y
_atom_site_fract_z
Si Si1 0.308952 0.925687 0.856051
Si Si2 0.308578 0.936052 0.048859
Si Si3 0.691368 0.564487 0.451138
Si Si4 0.810580 0.428994 0.144242
Si Si5 0.309973 0.747687 0.198694
O O1 0.500000 0.922793 0.855338
O O2 0.247934 0.749302 0.839280
O O3 0.256188 0.955634 0.908152
O O4 0.256285 0.085095 0.827145
O O5 0.500000 0.936812 0.048350
O O6 0.250918 0.749979 0.055996
O O7 0.251542 0.000000 0.000000
O O8 0.748363 0.500000 0.500000
O O9 0.500000 0.564562 0.451887
O O10 0.743513 0.456586 0.408008
O O11 0.749144 0.583944 0.173026
O O12 0.000000 0.431486 0.145155
O O13 0.250000 0.748573 0.250000
O O14 0.500000 0.746381 0.198061
#
# Coordination Sequence:
#
# PCOD9417432 Si02
#       5
#     8   8   8   8   8
#     4  10  22  40  62  90 125 164 205 257 312 366
#     4  10  20  35  57  87 121 161 208 254 305 363
#     4  10  21  36  55  85 125 166 208 252 304 364
#     4  11  23  39  63  93 126 166 209 255 309 371
#     4  11  24  44  68  92 123 161 206 260 315 369
#
# _framework density 19.890933
#
# number of rings (size 3 to 8) (size 9 to 14) (size 15 to 20)
#    0.000    1.600    2.000    2.400    0.000    4.800 
#    0.000    2.000    0.000    0.000    0.000    0.000 
#    0.000    0.000    0.000    0.000    0.000    0.000 
#
# Total GULP energy -223538.398073 kJ/mol
# GULP energy per Si atom -5588.459952 kJ/mol
# Density = 1.984566 g / cm^3
# Si number density = 19.890933 Si / 1000 Ang^3
#
#
#
# Elastic Constant Matrix: (Units=GPa)
#
#
# Indices 1 2 3 4 5 6 
#
# 1 16.4577 26.0441 27.6452 0.0000 0.0000 0.0000
# 2 26.0441 186.0719 75.6812 0.0000 0.0000 0.0000
# 3 27.6452 75.6812 140.8277 0.0000 0.0000 0.0000
# 4 0.0000 0.0000 0.0000 26.6784 0.0000 0.0000
# 5 0.0000 0.0000 0.0000 0.0000 10.8486 0.0000
# 6 0.0000 0.0000 0.0000 0.0000 0.0000 54.3790
#
#
#
# Elastic Compliance Matrix: (Units=1/GPa)
#
#
# Indices 1 2 3 4 5 6 
#
# 1 0.098328 -0.007566 -0.015237 0.000000 0.000000 0.000000
# 2 -0.007566 0.007460 -0.002524 0.000000 0.000000 0.000000
# 3 -0.015237 -0.002524 0.011448 0.000000 0.000000 0.000000
# 4 0.000000 0.000000 0.000000 0.037483 0.000000 0.000000
# 5 0.000000 0.000000 0.000000 0.000000 0.092178 0.000000
# 6 0.000000 0.000000 0.000000 0.000000 0.000000 0.018389
#
#
# Mechanical properties :
#
#
# Convention : Reuss Voigt Hill
#
# Bulk Modulus (GPa) = 15.01854 66.89980 40.95917
# Shear Modulus (GPa) = 14.78705 32.64699 23.71702
#
# Velocity S-wave (km/s) = 2.72951 4.05569 3.45679
# Velocity P-wave (km/s) = 4.18335 7.45908 6.04724
#
# Compressibility (1/GPa) = 0.06658438
#
# Stress axis : x y z
#
# Youngs Moduli (GPa) = 10.17001 134.05429 87.35040
#
# Poissons Ratio (x) = 1.01420 1.33093
# Poissons Ratio (y) = 0.07694 0.22044
# Poissons Ratio (z) = 0.15496 0.33831
#
# Static dielectric constant tensor:
#      x y z
#    x 1.676340 0.000000 0.000000 
#    y 0.000000 1.670040 0.000000 
#    z 0.000000 0.000000 1.716880 
# 
# From -- ./inp_files/36049.got.cif
#   From: 2010.05.17/outbox.cif.g08.bks.cpg/sg53_19_cif.got.tgz:36049.got - 2010.06.03 12:45:16.
