data_PCOD9417796
_publ_section_title
;
Structure prediction by ZEFSAII (Michael W. Deem and Ramdas Pophale) SiO2 
 PCOD9417796
Probable space group: P M N A
;
_chemical_formula_sum "Si O2"
_cell_formula_units_Z 64
_cell_length_a 13.478697
_cell_length_b 9.291052
_cell_length_c 22.872626
_cell_angle_alpha 90.000000
_cell_angle_beta 90.000000
_cell_angle_gamma 90.000000
_cell_volume 2864.368110
_symmetry_space_group_name_H-M "P M N A"
_symmetry_group_IT_number 53
_symmetry_cell_setting 'orthorhombic'
loop_
_space_group_symop_operation_xyz
x,y,z
1/2-x,-y,1/2+z
x,-y,-z
1/2-x,y,1/2-z
-x,-y,-z
1/2+x,y,1/2-z
-x,y,z
1/2+x,-y,1/2+z
loop_
_atom_site_type_symbol
_atom_site_label
_atom_site_fract_x
_atom_site_fract_y
_atom_site_fract_z
Si Si1 0.108448 0.050439 0.408656
Si Si2 0.381506 0.074940 0.703334
Si Si3 0.204679 0.850730 0.985813
Si Si4 0.181882 0.393589 0.102294
Si Si5 0.117976 0.251874 0.221534
Si Si6 0.790810 0.291374 0.890617
Si Si7 0.887956 0.773695 0.326471
Si Si8 0.613374 0.659328 0.846049
O O1 0.198966 0.091728 0.450313
O O2 0.108140 0.169663 0.358152
O O3 0.000000 0.060244 0.437926
O O4 0.114977 0.900758 0.374645
O O5 0.500000 0.066267 0.696758
O O6 0.341900 0.167702 0.648877
O O7 0.362455 0.159828 0.763695
O O8 0.343040 0.911144 0.710281
O O9 0.155515 0.726014 0.946324
O O10 0.233243 0.775754 0.046541
O O11 0.146986 0.000000 0.000000
O O12 0.139483 0.338344 0.163206
O O13 0.152306 0.560011 0.095966
O O14 0.302525 0.389642 0.108461
O O15 0.149234 0.341658 0.278972
O O16 0.000000 0.236622 0.230254
O O17 0.695485 0.331379 0.850425
O O18 0.000000 0.717464 0.323335
O O19 0.500000 0.604628 0.853866
#
# Coordination Sequence:
#
# PCOD9417796 Si02
#       8
#     8   8   8   8   8   8   8   8
#     4   9  17  33  58  92 121 151 198 252 300 346
#     4  10  22  40  65  94 123 157 206 261 309 359
#     4  11  22  40  63  85 111 159 212 260 294 344
#     4  11  25  39  57  86 125 166 203 248 307 369
#     4  10  20  37  63  90 115 151 205 263 309 355
#     4  12  25  40  58  88 128 166 200 245 306 368
#     4  10  20  36  62  95 128 160 198 246 302 363
#     4   9  18  34  59  88 122 158 198 246 299 358
#
# _framework density 22.343496999999999
#
# number of rings (size 3 to 8) (size 9 to 14) (size 15 to 20)
#    0.000    1.750    2.500    1.875    1.750    4.750 
#    0.000    3.125    0.000    7.500    0.000    0.000 
#    0.000    0.000    0.000    0.000    0.000    0.000 
#
# Total GULP energy -357129.473213 kJ/mol
# GULP energy per Si atom -5580.148019 kJ/mol
# Density = 2.229264 g / cm^3
# Si number density = 22.343497 Si / 1000 Ang^3
#
#
#
# Elastic Constant Matrix: (Units=GPa)
#
#
# Indices 1 2 3 4 5 6 
#
# 1 33.4595 -5.2957 0.5469 0.0000 0.0000 0.0000
# 2 -5.2957 81.7359 2.9342 0.0000 0.0000 0.0000
# 3 0.5469 2.9342 109.9058 0.0000 0.0000 0.0000
# 4 0.0000 0.0000 0.0000 21.0159 0.0000 0.0000
# 5 0.0000 0.0000 0.0000 0.0000 15.7690 0.0000
# 6 0.0000 0.0000 0.0000 0.0000 0.0000 2.8499
#
#
#
# Elastic Compliance Matrix: (Units=1/GPa)
#
#
# Indices 1 2 3 4 5 6 
#
# 1 0.030201 0.001964 -0.000203 0.000000 0.000000 0.000000
# 2 0.001964 0.012374 -0.000340 0.000000 0.000000 0.000000
# 3 -0.000203 -0.000340 0.009109 0.000000 0.000000 0.000000
# 4 0.000000 0.000000 0.000000 0.047583 0.000000 0.000000
# 5 0.000000 0.000000 0.000000 0.000000 0.063415 0.000000
# 6 0.000000 0.000000 0.000000 0.000000 0.000000 0.350885
#
#
# Mechanical properties :
#
#
# Convention : Reuss Voigt Hill
#
# Bulk Modulus (GPa) = 18.33984 24.60801 21.47392
# Shear Modulus (GPa) = 9.45359 23.05470 16.25414
#
# Velocity S-wave (km/s) = 2.05918 3.21570 2.70008
# Velocity P-wave (km/s) = 3.72553 4.98247 4.39912
#
# Compressibility (1/GPa) = 0.05452609
#
# Stress axis : x y z
#
# Youngs Moduli (GPa) = 33.11149 80.81471 109.78411
#
# Poissons Ratio (x) = -0.15872 0.02226
# Poissons Ratio (y) = -0.06503 0.03734
# Poissons Ratio (z) = 0.00671 0.02749
#
# Static dielectric constant tensor:
#      x y z
#    x 1.904670 0.000000 0.000000 
#    y 0.000000 1.867240 0.000000 
#    z 0.000000 0.000000 1.795120 
# 
# From -- ./inp_files/35370.got.cif
#   From: 2010.05.17/outbox.cif.g08.bks.cpg/sg53_18_cif.got.tgz:35370.got - 2010.06.03 12:45:16.
