data_PCOD9417099
_publ_section_title
;
Structure prediction by ZEFSAII (Michael W. Deem and Ramdas Pophale) SiO2 
 PCOD9417099
Probable space group: P M N A
;
_chemical_formula_sum "Si O2"
_cell_formula_units_Z 48
_cell_length_a 8.918425
_cell_length_b 12.016584
_cell_length_c 26.026115
_cell_angle_alpha 90.000000
_cell_angle_beta 90.000000
_cell_angle_gamma 90.000000
_cell_volume 2789.192801
_symmetry_space_group_name_H-M "P M N A"
_symmetry_group_IT_number 53
_symmetry_cell_setting 'orthorhombic'
loop_
_space_group_symop_operation_xyz
x,y,z
1/2-x,-y,1/2+z
x,-y,-z
1/2-x,y,1/2-z
-x,-y,-z
1/2+x,y,1/2-z
-x,y,z
1/2+x,-y,1/2+z
loop_
_atom_site_type_symbol
_atom_site_label
_atom_site_fract_x
_atom_site_fract_y
_atom_site_fract_z
Si Si1 0.820453 0.869522 0.997339
Si Si2 0.679747 0.265803 0.095975
Si Si3 0.819860 0.263084 0.898933
Si Si4 0.319312 0.505840 0.560328
Si Si5 0.179490 0.868208 0.305407
Si Si6 0.319670 0.126061 0.194874
O O1 0.736917 0.810205 0.950797
O O2 0.000000 0.856371 0.989754
O O3 0.781780 0.810042 0.050886
O O4 0.786033 0.000000 0.000000
O O5 0.500000 0.270586 0.095439
O O6 0.746321 0.387904 0.086996
O O7 0.728218 0.207791 0.149242
O O8 0.779394 0.390266 0.912027
O O9 0.741302 0.211838 0.849412
O O10 0.000000 0.257721 0.892164
O O11 0.275810 0.500000 0.500000
O O12 0.500000 0.517554 0.561472
O O13 0.250000 0.841788 0.250000
O O14 0.000000 0.861314 0.302556
O O15 0.220796 0.997353 0.317370
O O16 0.250000 0.154150 0.250000
O O17 0.500000 0.130619 0.198841
#
# Coordination Sequence:
#
# PCOD9417099 Si02
#       6
#     8   8   8   8   8   8
#     4  10  20  34  54  80 110 145 183 222 271 333
#     4  11  22  35  54  82 114 142 181 230 279 329
#     4  10  20  35  55  80 109 142 184 228 270 320
#     4  10  20  38  58  76 107 149 189 227 268 320
#     4  10  20  36  58  82 111 144 180 222 274 328
#     4   9  20  37  56  81 111 144 179 223 273 326
#
# _framework density 17.20928
#
# number of rings (size 3 to 8) (size 9 to 14) (size 15 to 20)
#    0.000    2.000    1.667    2.000    0.000    4.000 
#    0.000    0.833    0.000    2.000    0.000    0.000 
#    0.000    0.000    0.000    0.000    0.000    0.000 
#
# Total GULP energy -268026.918120 kJ/mol
# GULP energy per Si atom -5583.894127 kJ/mol
# Density = 1.717011 g / cm^3
# Si number density = 17.209280 Si / 1000 Ang^3
#
#
#
# Elastic Constant Matrix: (Units=GPa)
#
#
# Indices 1 2 3 4 5 6 
#
# 1 32.0006 58.6289 57.1817 0.0000 0.0000 0.0000
# 2 58.6289 163.6325 118.7234 0.0000 0.0000 0.0000
# 3 57.1817 118.7234 169.4819 0.0000 0.0000 0.0000
# 4 0.0000 0.0000 0.0000 14.4904 0.0000 0.0000
# 5 0.0000 0.0000 0.0000 0.0000 32.0825 0.0000
# 6 0.0000 0.0000 0.0000 0.0000 0.0000 12.2568
#
#
#
# Elastic Compliance Matrix: (Units=1/GPa)
#
#
# Indices 1 2 3 4 5 6 
#
# 1 0.118749 -0.027409 -0.020865 0.000000 0.000000 0.000000
# 2 -0.027409 0.018754 -0.003890 0.000000 0.000000 0.000000
# 3 -0.020865 -0.003890 0.015665 0.000000 0.000000 0.000000
# 4 0.000000 0.000000 0.000000 0.069011 0.000000 0.000000
# 5 0.000000 0.000000 0.000000 0.000000 0.031170 0.000000
# 6 0.000000 0.000000 0.000000 0.000000 0.000000 0.081588
#
#
# Mechanical properties :
#
#
# Convention : Reuss Voigt Hill
#
# Bulk Modulus (GPa) = 20.47467 92.68698 56.58082
# Shear Modulus (GPa) = 10.97591 20.47133 15.72362
#
# Velocity S-wave (km/s) = 2.52819 3.45273 3.02598
# Velocity P-wave (km/s) = 4.52168 8.35887 6.71998
#
# Compressibility (1/GPa) = 0.04884083
#
# Stress axis : x y z
#
# Youngs Moduli (GPa) = 8.42114 53.32205 63.83768
#
# Poissons Ratio (x) = 1.46150 1.33195
# Poissons Ratio (y) = 0.23081 0.24832
# Poissons Ratio (z) = 0.17570 0.20741
#
# Static dielectric constant tensor:
#      x y z
#    x 1.577930 0.000000 0.000000 
#    y 0.000000 1.570210 0.000000 
#    z 0.000000 0.000000 1.550640 
# 
# From -- ./inp_files/33853.got.cif
#   From: 2010.05.17/outbox.cif.g08.bks.cpg/sg53_17_cif.got.tgz:33853.got - 2010.06.03 12:45:16.
