data_PCOD9417174
_publ_section_title
;
Structure prediction by ZEFSAII (Michael W. Deem and Ramdas Pophale) SiO2 
 PCOD9417174
Probable space group: P M N A
;
_chemical_formula_sum "Si O2"
_cell_formula_units_Z 64
_cell_length_a 8.705652
_cell_length_b 25.656089
_cell_length_c 14.604887
_cell_angle_alpha 90.000000
_cell_angle_beta 90.000000
_cell_angle_gamma 90.000000
_cell_volume 3262.045071
_symmetry_space_group_name_H-M "P M N A"
_symmetry_group_IT_number 53
_symmetry_cell_setting 'orthorhombic'
loop_
_space_group_symop_operation_xyz
x,y,z
1/2-x,-y,1/2+z
x,-y,-z
1/2-x,y,1/2-z
-x,-y,-z
1/2+x,y,1/2-z
-x,y,z
1/2+x,-y,1/2+z
loop_
_atom_site_type_symbol
_atom_site_label
_atom_site_fract_x
_atom_site_fract_y
_atom_site_fract_z
Si Si1 0.316776 0.383802 0.535566
Si Si2 0.815291 0.978754 0.646449
Si Si3 0.683534 0.596970 0.847370
Si Si4 0.184219 0.718606 0.148158
Si Si5 0.685056 0.815481 0.037080
Si Si6 0.183728 0.474933 0.652039
Si Si7 0.184248 0.137845 0.351370
Si Si8 0.184040 0.914033 0.146278
O O1 0.500000 0.387662 0.531600
O O2 0.251183 0.373936 0.434707
O O3 0.274422 0.337090 0.604007
O O4 0.248626 0.437445 0.574600
O O5 0.750000 0.978376 0.750000
O O6 0.774566 0.920682 0.613442
O O7 0.000000 0.984140 0.645860
O O8 0.742884 0.030891 0.604845
O O9 0.750000 0.614420 0.750000
O O10 0.500000 0.600243 0.846401
O O11 0.727211 0.535637 0.858823
O O12 0.250000 0.723381 0.250000
O O13 0.250804 0.764030 0.084515
O O14 0.000000 0.722740 0.151293
O O15 0.500000 0.816357 0.042731
O O16 0.751398 0.865248 0.090776
O O17 0.730315 0.822028 0.930436
O O18 0.250000 0.457478 0.750000
O O19 0.000000 0.471776 0.652668
O O20 0.250000 0.146326 0.250000
O O21 0.000000 0.138564 0.343185
O O22 0.250000 0.910426 0.250000
O O23 0.000000 0.913602 0.149476
#
# Coordination Sequence:
#
# PCOD9417174 Si02
#       8
#     8   8   8   8   8   8   8   8
#     4  11  23  38  59  86 117 154 197 241 289 345
#     4   9  16  30  51  78 111 145 180 221 270 328
#     4  10  21  37  58  86 122 160 198 240 286 337
#     4  11  25  44  64  88 115 146 185 234 286 336
#     4  11  23  40  60  83 110 146 188 231 283 338
#     4  10  20  34  55  86 122 159 198 240 288 342
#     4   9  20  37  59  84 112 145 182 226 276 329
#     4  11  21  34  53  80 113 149 186 228 277 333
#
# _framework density 19.619595
#
# number of rings (size 3 to 8) (size 9 to 14) (size 15 to 20)
#    0.000    1.750    0.000    5.250    0.000    8.000 
#    0.000    3.125    0.000    1.500    0.000    0.000 
#    0.000    0.000    0.000    0.000    0.000    0.000 
#
# Total GULP energy -357614.646314 kJ/mol
# GULP energy per Si atom -5587.728849 kJ/mol
# Density = 1.957494 g / cm^3
# Si number density = 19.619595 Si / 1000 Ang^3
#
#
#
# Elastic Constant Matrix: (Units=GPa)
#
#
# Indices 1 2 3 4 5 6 
#
# 1 56.5360 25.5364 26.6586 0.0000 0.0000 0.0000
# 2 25.5364 44.0273 30.0559 0.0000 0.0000 0.0000
# 3 26.6586 30.0559 116.4925 0.0000 0.0000 0.0000
# 4 0.0000 0.0000 0.0000 34.6192 0.0000 0.0000
# 5 0.0000 0.0000 0.0000 0.0000 28.0309 0.0000
# 6 0.0000 0.0000 0.0000 0.0000 0.0000 28.5433
#
#
#
# Elastic Compliance Matrix: (Units=1/GPa)
#
#
# Indices 1 2 3 4 5 6 
#
# 1 0.024487 -0.012596 -0.002354 0.000000 0.000000 0.000000
# 2 -0.012596 0.034048 -0.005902 0.000000 0.000000 0.000000
# 3 -0.002354 -0.005902 0.010646 0.000000 0.000000 0.000000
# 4 0.000000 0.000000 0.000000 0.028886 0.000000 0.000000
# 5 0.000000 0.000000 0.000000 0.000000 0.035675 0.000000
# 6 0.000000 0.000000 0.000000 0.000000 0.000000 0.035034
#
#
# Mechanical properties :
#
#
# Convention : Reuss Voigt Hill
#
# Bulk Modulus (GPa) = 36.39403 42.39530 39.39466
# Shear Modulus (GPa) = 22.76460 27.22568 24.99514
#
# Velocity S-wave (km/s) = 3.41001 3.72920 3.57317
# Velocity P-wave (km/s) = 5.83904 6.34020 6.09477
#
# Compressibility (1/GPa) = 0.02747704
#
# Stress axis : x y z
#
# Youngs Moduli (GPa) = 40.83763 29.37013 93.93451
#
# Poissons Ratio (x) = 0.36995 0.22111
# Poissons Ratio (y) = 0.51439 0.55442
# Poissons Ratio (z) = 0.09613 0.17335
#
# Static dielectric constant tensor:
#      x y z
#    x 1.656240 0.000000 0.000000 
#    y 0.000000 1.692350 0.000000 
#    z 0.000000 0.000000 1.667990 
# 
# From -- ./inp_files/21014.got.cif
#   From: 2010.05.17/outbox.cif.g08.bks.cpg/sg53_11_cif.got.tgz:21014.got - 2010.06.03 12:45:16.
