data_PCOD9417672
_publ_section_title
;
Structure prediction by ZEFSAII (Michael W. Deem and Ramdas Pophale) SiO2 
 PCOD9417672
Probable space group: P M N A
;
_chemical_formula_sum "Si O2"
_cell_formula_units_Z 48
_cell_length_a 8.397043
_cell_length_b 31.348423
_cell_length_c 9.742843
_cell_angle_alpha 90.000000
_cell_angle_beta 90.000000
_cell_angle_gamma 90.000000
_cell_volume 2564.648079
_symmetry_space_group_name_H-M "P M N A"
_symmetry_group_IT_number 53
_symmetry_cell_setting 'orthorhombic'
loop_
_space_group_symop_operation_xyz
x,y,z
1/2-x,-y,1/2+z
x,-y,-z
1/2-x,y,1/2-z
-x,-y,-z
1/2+x,y,1/2-z
-x,y,z
1/2+x,-y,1/2+z
loop_
_atom_site_type_symbol
_atom_site_label
_atom_site_fract_x
_atom_site_fract_y
_atom_site_fract_z
Si Si1 0.192118 0.788295 0.401039
Si Si2 0.192380 0.365786 0.594890
Si Si3 0.192637 0.712125 0.594741
Si Si4 0.308969 0.886205 0.097989
Si Si5 0.190606 0.960546 0.905862
Si Si6 0.307567 0.538352 0.095439
O O1 0.250000 0.775164 0.250000
O O2 0.246639 0.754688 0.514698
O O3 0.244704 0.837164 0.424712
O O4 0.000000 0.788283 0.400110
O O5 0.250000 0.357785 0.750000
O O6 0.247410 0.329172 0.491409
O O7 0.243841 0.413747 0.553875
O O8 0.000000 0.365137 0.596527
O O9 0.250000 0.711128 0.750000
O O10 0.000000 0.712041 0.594175
O O11 0.250000 0.899264 0.250000
O O12 0.500000 0.887255 0.097657
O O13 0.245478 0.917628 0.981973
O O14 0.250000 0.963451 0.750000
O O15 0.000000 0.961702 0.903454
O O16 0.248459 0.000000 0.000000
O O17 0.250000 0.531649 0.250000
O O18 0.500000 0.537925 0.093557
O O19 0.249483 0.500000 0.000000
#
# Coordination Sequence:
#
# PCOD9417672 Si02
#       6
#     8   8   8   8   8   8
#     4   9  19  35  55  79 105 136 173 212 254 304
#     4   9  18  33  52  72  96 129 168 208 250 300
#     4  10  21  35  50  73 104 134 168 210 256 303
#     4  10  20  36  58  83 111 141 176 217 261 310
#     4  11  24  40  59  83 111 144 180 219 264 311
#     4   9  18  32  49  71  99 129 163 205 251 299
#
# _framework density 18.716018999999999
#
# number of rings (size 3 to 8) (size 9 to 14) (size 15 to 20)
#    0.000    2.333    0.000    2.000    0.000    6.333 
#    0.000    1.667    0.000    0.000    0.000    0.000 
#    0.000    0.000    0.000    0.000    0.000    0.000 
#
# Total GULP energy -267931.914693 kJ/mol
# GULP energy per Si atom -5581.914889 kJ/mol
# Density = 1.867342 g / cm^3
# Si number density = 18.716019 Si / 1000 Ang^3
#
#
#
# Elastic Constant Matrix: (Units=GPa)
#
#
# Indices 1 2 3 4 5 6 
#
# 1 13.3616 21.9003 21.4171 0.0000 0.0000 0.0000
# 2 21.9003 137.8281 120.7199 0.0000 0.0000 0.0000
# 3 21.4171 120.7199 167.5453 0.0000 0.0000 0.0000
# 4 0.0000 0.0000 0.0000 55.8552 0.0000 0.0000
# 5 0.0000 0.0000 0.0000 0.0000 36.1192 0.0000
# 6 0.0000 0.0000 0.0000 0.0000 0.0000 25.6785
#
#
#
# Elastic Compliance Matrix: (Units=1/GPa)
#
#
# Indices 1 2 3 4 5 6 
#
# 1 0.102031 -0.012981 -0.003690 0.000000 0.000000 0.000000
# 2 -0.012981 0.021318 -0.013701 0.000000 0.000000 0.000000
# 3 -0.003690 -0.013701 0.016312 0.000000 0.000000 0.000000
# 4 0.000000 0.000000 0.000000 0.017903 0.000000 0.000000
# 5 0.000000 0.000000 0.000000 0.000000 0.027686 0.000000
# 6 0.000000 0.000000 0.000000 0.000000 0.000000 0.038943
#
#
# Mechanical properties :
#
#
# Convention : Reuss Voigt Hill
#
# Bulk Modulus (GPa) = 12.67126 71.86775 42.26950
# Shear Modulus (GPa) = 16.06463 33.84377 24.95420
#
# Velocity S-wave (km/s) = 2.93292 4.25700 3.65541
# Velocity P-wave (km/s) = 4.27250 7.91487 6.36001
#
# Compressibility (1/GPa) = 0.07891878
#
# Stress axis : x y z
#
# Youngs Moduli (GPa) = 9.80094 46.90806 61.30446
#
# Poissons Ratio (x) = 0.60889 0.22619
# Poissons Ratio (y) = 0.12722 0.83993
# Poissons Ratio (z) = 0.03616 0.64269
#
# Static dielectric constant tensor:
#      x y z
#    x 1.640810 0.000000 0.000000 
#    y 0.000000 1.672970 0.000000 
#    z 0.000000 0.000000 1.593100 
# 
# From -- ./inp_files/6597.got.cif
#   From: 2010.05.17/outbox.cif.g08.bks.cpg/sg53_4_cif.got.tgz:6597.got - 2010.06.03 12:45:16.
