data_PCOD9417768
_publ_section_title
;
Structure prediction by ZEFSAII (Michael W. Deem and Ramdas Pophale) SiO2 
 PCOD9417768
Probable space group: P M N A
;
_chemical_formula_sum "Si O2"
_cell_formula_units_Z 24
_cell_length_a 7.563121
_cell_length_b 9.503797
_cell_length_c 19.434096
_cell_angle_alpha 90.000000
_cell_angle_beta 90.000000
_cell_angle_gamma 90.000000
_cell_volume 1396.891078
_symmetry_space_group_name_H-M "P M N A"
_symmetry_group_IT_number 53
_symmetry_cell_setting 'orthorhombic'
loop_
_space_group_symop_operation_xyz
x,y,z
1/2-x,-y,1/2+z
x,-y,-z
1/2-x,y,1/2-z
-x,-y,-z
1/2+x,y,1/2-z
-x,y,z
1/2+x,-y,1/2+z
loop_
_atom_site_type_symbol
_atom_site_label
_atom_site_fract_x
_atom_site_fract_y
_atom_site_fract_z
Si Si1 0.708685 0.072011 0.926000
Si Si2 0.000000 0.697658 0.063727
Si Si3 0.707907 0.192970 0.169443
Si Si4 0.000000 0.377904 0.097973
O O1 0.500000 0.105767 0.924087
O O2 0.829851 0.208066 0.918589
O O3 0.747527 0.954713 0.868456
O O4 0.746423 0.000000 0.000000
O O5 0.000000 0.546387 0.099734
O O6 0.000000 0.668943 0.981758
O O7 0.750000 0.183689 0.250000
O O8 0.500000 0.221920 0.159266
O O9 0.829661 0.310719 0.134656
#
# Coordination Sequence:
#
# PCOD9417768 Si02
#       4
#     8   4   8   4
#     4  10  20  36  60  91 116 149 196 250 285 332
#     4  11  22  37  62  85 124 152 194 242 294 354
#     4  11  22  38  63  85 115 155 200 241 291 351
#     4  11  23  38  57  92 118 160 191 235 298 354
#
# _framework density 17.181010000000001
#
# number of rings (size 3 to 8) (size 9 to 14) (size 15 to 20)
#    0.000    1.333    5.000    1.500    0.000    1.333 
#    0.000    5.000    0.000    0.000    0.000    0.000 
#    0.000    0.000    0.000    0.000    0.000    0.000 
#
# Total GULP energy -134079.033587 kJ/mol
# GULP energy per Si atom -5586.626399 kJ/mol
# Density = 1.714191 g / cm^3
# Si number density = 17.181010 Si / 1000 Ang^3
#
#
#
# Elastic Constant Matrix: (Units=GPa)
#
#
# Indices 1 2 3 4 5 6 
#
# 1 117.9036 108.9693 47.1918 0.0000 0.0000 0.0000
# 2 108.9693 184.9964 73.2614 0.0000 0.0000 0.0000
# 3 47.1918 73.2614 108.5400 0.0000 0.0000 0.0000
# 4 0.0000 0.0000 0.0000 24.3418 0.0000 0.0000
# 5 0.0000 0.0000 0.0000 0.0000 10.1735 0.0000
# 6 0.0000 0.0000 0.0000 0.0000 0.0000 -7.2037
#
#
#
# Elastic Compliance Matrix: (Units=1/GPa)
#
#
# Indices 1 2 3 4 5 6 
#
# 1 0.018687 -0.010632 -0.000949 0.000000 0.000000 0.000000
# 2 -0.010632 0.013426 -0.004440 0.000000 0.000000 0.000000
# 3 -0.000949 -0.004440 0.012622 0.000000 0.000000 0.000000
# 4 0.000000 0.000000 0.000000 0.041082 0.000000 0.000000
# 5 0.000000 0.000000 0.000000 0.000000 0.098294 0.000000
# 6 0.000000 0.000000 0.000000 0.000000 0.000000 -0.138817
#
#
# Mechanical properties :
#
#
# Convention : Reuss Voigt Hill
#
# Bulk Modulus (GPa) = 78.76962 96.69834 87.73398
# Shear Modulus (GPa) = 61.29871 17.59681 39.44776
#
# Velocity S-wave (km/s) = 5.97960 3.20379 4.79687
# Velocity P-wave (km/s) = 9.67577 8.37197 9.04739
#
# Compressibility (1/GPa) = 0.01269525
#
# Stress axis : x y z
#
# Youngs Moduli (GPa) = 53.51183 74.48119 79.22373
#
# Poissons Ratio (x) = 0.79187 0.07518
# Poissons Ratio (y) = 0.56893 0.35173
# Poissons Ratio (z) = 0.05078 0.33068
#
# Static dielectric constant tensor:
#      x y z
#    x 1.588600 0.000000 0.000000 
#    y 0.000000 1.544560 0.000000 
#    z 0.000000 0.000000 1.567080 
# 
# From -- ./inp_files/25553.got.cif
#   From: 2010.05.17/outbox.cif.g08.bks.cpg/sg53_13_cif.got.tgz:25553.got - 2010.06.03 12:45:16.
