data_PCOD9417548
_publ_section_title
;
Structure prediction by ZEFSAII (Michael W. Deem and Ramdas Pophale) SiO2 
 PCOD9417548
Probable space group: P M N A
;
_chemical_formula_sum "Si O2"
_cell_formula_units_Z 64
_cell_length_a 8.867425
_cell_length_b 20.261267
_cell_length_c 20.526000
_cell_angle_alpha 90.000000
_cell_angle_beta 90.000000
_cell_angle_gamma 90.000000
_cell_volume 3687.809240
_symmetry_space_group_name_H-M "P M N A"
_symmetry_group_IT_number 53
_symmetry_cell_setting 'orthorhombic'
loop_
_space_group_symop_operation_xyz
x,y,z
1/2-x,-y,1/2+z
x,-y,-z
1/2-x,y,1/2-z
-x,-y,-z
1/2+x,y,1/2-z
-x,y,z
1/2+x,-y,1/2+z
loop_
_atom_site_type_symbol
_atom_site_label
_atom_site_fract_x
_atom_site_fract_y
_atom_site_fract_z
Si Si1 0.817763 0.814588 0.439727
Si Si2 0.180978 0.939902 0.679711
Si Si3 0.319349 0.566405 0.820214
Si Si4 0.820629 0.697602 0.605974
Si Si5 0.679711 0.472110 0.571307
Si Si6 0.821499 0.664683 0.454940
Si Si7 0.681029 0.093870 0.819524
Si Si8 0.179543 0.835897 0.918736
O O1 0.781793 0.737349 0.428453
O O2 0.771186 0.859994 0.379332
O O3 0.743146 0.836183 0.507581
O O4 0.000000 0.818662 0.447648
O O5 0.250000 0.921749 0.750000
O O6 0.248519 0.893808 0.624033
O O7 0.000000 0.933673 0.681561
O O8 0.219614 0.017040 0.668094
O O9 0.250000 0.552855 0.750000
O O10 0.500000 0.563029 0.818090
O O11 0.277477 0.640271 0.844111
O O12 0.258659 0.515196 0.873417
O O13 0.795930 0.669708 0.532875
O O14 0.731030 0.765585 0.611245
O O15 0.000000 0.711391 0.611651
O O16 0.723845 0.500000 0.500000
O O17 0.500000 0.477989 0.577614
O O18 0.729866 0.396052 0.573643
O O19 0.000000 0.653465 0.444709
O O20 0.750000 0.113142 0.750000
O O21 0.500000 0.098039 0.814770
O O22 0.000000 0.840885 0.919207
#
# Coordination Sequence:
#
# PCOD9417548 Si02
#       8
#     8   8   8   8   8   8   8   8
#     4   9  19  37  57  81 112 146 184 227 278 332
#     4  10  20  36  56  78 107 144 185 228 274 331
#     4  11  23  39  58  81 112 146 184 228 278 330
#     4   9  19  36  56  77 106 145 182 222 272 329
#     4  11  22  35  56  84 112 144 184 229 271 323
#     4   9  17  33  57  81 106 140 183 225 269 324
#     4   9  19  36  59  82 107 142 184 229 279 333
#     4  11  22  34  53  82 114 147 183 229 275 321
#
# _framework density 17.354476999999999
#
# number of rings (size 3 to 8) (size 9 to 14) (size 15 to 20)
#    0.000    2.125    1.250    3.000    0.000    5.500 
#    0.000    4.375    0.000    1.500    0.000    0.000 
#    0.000    0.000    0.000    0.000    0.000    0.000 
#
# Total GULP energy -357274.148566 kJ/mol
# GULP energy per Si atom -5582.408571 kJ/mol
# Density = 1.731498 g / cm^3
# Si number density = 17.354477 Si / 1000 Ang^3
#
#
#
# Elastic Constant Matrix: (Units=GPa)
#
#
# Indices 1 2 3 4 5 6 
#
# 1 55.4501 52.6374 55.6674 0.0000 0.0000 0.0000
# 2 52.6374 115.8431 94.3881 0.0000 0.0000 0.0000
# 3 55.6674 94.3881 131.9758 0.0000 0.0000 0.0000
# 4 0.0000 0.0000 0.0000 28.6903 0.0000 0.0000
# 5 0.0000 0.0000 0.0000 0.0000 27.8374 0.0000
# 6 0.0000 0.0000 0.0000 0.0000 0.0000 19.3786
#
#
#
# Elastic Compliance Matrix: (Units=1/GPa)
#
#
# Indices 1 2 3 4 5 6 
#
# 1 0.035005 -0.009287 -0.008123 0.000000 0.000000 0.000000
# 2 -0.009287 0.023152 -0.012641 0.000000 0.000000 0.000000
# 3 -0.008123 -0.012641 0.020044 0.000000 0.000000 0.000000
# 4 0.000000 0.000000 0.000000 0.034855 0.000000 0.000000
# 5 0.000000 0.000000 0.000000 0.000000 0.035923 0.000000
# 6 0.000000 0.000000 0.000000 0.000000 0.000000 0.051603
#
#
# Mechanical properties :
#
#
# Convention : Reuss Voigt Hill
#
# Bulk Modulus (GPa) = 55.25123 78.73940 66.99531
# Shear Modulus (GPa) = 18.74643 21.88633 20.31638
#
# Velocity S-wave (km/s) = 3.29022 3.55510 3.42522
# Velocity P-wave (km/s) = 6.80735 7.89439 7.37094
#
# Compressibility (1/GPa) = 0.01809915
#
# Stress axis : x y z
#
# Youngs Moduli (GPa) = 28.56709 43.19300 49.89036
#
# Poissons Ratio (x) = 0.40115 0.40526
# Poissons Ratio (y) = 0.26531 0.63065
# Poissons Ratio (z) = 0.23205 0.54599
#
# Static dielectric constant tensor:
#      x y z
#    x 1.578480 0.000000 0.000000 
#    y 0.000000 1.582660 0.000000 
#    z 0.000000 0.000000 1.561840 
# 
# From -- ./inp_files/31238.got.cif
#   From: 2010.05.17/outbox.cif.g08.bks.cpg/sg53_16_cif.got.tgz:31238.got - 2010.06.03 12:45:16.
