data_PCOD9417176
_publ_section_title
;
Structure prediction by ZEFSAII (Michael W. Deem and Ramdas Pophale) SiO2 
 PCOD9417176
Probable space group: P M N A
;
_chemical_formula_sum "Si O2"
_cell_formula_units_Z 32
_cell_length_a 24.664363
_cell_length_b 5.032788
_cell_length_c 13.102653
_cell_angle_alpha 90.000000
_cell_angle_beta 90.000000
_cell_angle_gamma 90.000000
_cell_volume 1626.439001
_symmetry_space_group_name_H-M "P M N A"
_symmetry_group_IT_number 53
_symmetry_cell_setting 'orthorhombic'
loop_
_space_group_symop_operation_xyz
x,y,z
1/2-x,-y,1/2+z
x,-y,-z
1/2-x,y,1/2-z
-x,-y,-z
1/2+x,y,1/2-z
-x,y,z
1/2+x,-y,1/2+z
loop_
_atom_site_type_symbol
_atom_site_label
_atom_site_fract_x
_atom_site_fract_y
_atom_site_fract_z
Si Si1 0.160677 0.753236 0.427983
Si Si2 0.114845 0.632471 0.211782
Si Si3 0.215927 0.756755 0.072150
Si Si4 0.437353 0.889251 0.612519
O O1 0.163972 0.500000 0.500000
O O2 0.124807 0.664965 0.332010
O O3 0.222553 0.810925 0.391166
O O4 0.143140 0.000000 0.500000
O O5 0.171598 0.713517 0.158616
O O6 0.096951 0.351214 0.162269
O O7 0.070820 0.852366 0.181605
O O8 0.216257 0.500000 0.000000
O O9 0.200447 0.000000 0.000000
O O10 0.500000 0.803339 0.606492
O O11 0.421868 0.000000 0.500000
#
# Coordination Sequence:
#
# PCOD9417176 Si02
#       4
#     8   8   8   8
#     4  10  22  38  56  84 120 155 193 237 279 334
#     4  12  21  37  63  84 114 157 195 231 290 353
#     4  10  20  34  55  87 120 147 185 231 282 346
#     4  11  24  40  60  88 117 145 186 243 301 354
#
# _framework density 19.674885
#
# number of rings (size 3 to 8) (size 9 to 14) (size 15 to 20)
#    0.000    1.250    0.000    7.500    0.000    2.000 
#    0.000   10.000    0.000   15.000    0.000    0.000 
#    0.000    0.000    0.000    0.000    0.000    0.000 
#
# Total GULP energy -178627.125458 kJ/mol
# GULP energy per Si atom -5582.097671 kJ/mol
# Density = 1.963010 g / cm^3
# Si number density = 19.674885 Si / 1000 Ang^3
#
#
#
# Elastic Constant Matrix: (Units=GPa)
#
#
# Indices 1 2 3 4 5 6 
#
# 1 70.2046 23.8803 53.4887 0.0000 0.0000 0.0000
# 2 23.8803 141.4085 54.3505 0.0000 0.0000 0.0000
# 3 53.4887 54.3505 125.7003 0.0000 0.0000 0.0000
# 4 0.0000 0.0000 0.0000 26.3506 0.0000 0.0000
# 5 0.0000 0.0000 0.0000 0.0000 29.5075 0.0000
# 6 0.0000 0.0000 0.0000 0.0000 0.0000 37.1026
#
#
#
# Elastic Compliance Matrix: (Units=1/GPa)
#
#
# Indices 1 2 3 4 5 6 
#
# 1 0.021080 -0.000135 -0.008912 0.000000 0.000000 0.000000
# 2 -0.000135 0.008482 -0.003610 0.000000 0.000000 0.000000
# 3 -0.008912 -0.003610 0.013309 0.000000 0.000000 0.000000
# 4 0.000000 0.000000 0.000000 0.037950 0.000000 0.000000
# 5 0.000000 0.000000 0.000000 0.000000 0.033890 0.000000
# 6 0.000000 0.000000 0.000000 0.000000 0.000000 0.026952
#
#
# Mechanical properties :
#
#
# Convention : Reuss Voigt Hill
#
# Bulk Modulus (GPa) = 56.95656 66.75024 61.85340
# Shear Modulus (GPa) = 28.93057 32.29841 30.61449
#
# Velocity S-wave (km/s) = 3.83878 4.05607 3.94892
# Velocity P-wave (km/s) = 6.97567 7.47903 7.23173
#
# Compressibility (1/GPa) = 0.01755724
#
# Stress axis : x y z
#
# Youngs Moduli (GPa) = 47.43897 117.89638 75.13941
#
# Poissons Ratio (x) = 0.01587 0.66962
# Poissons Ratio (y) = 0.00638 0.27127
# Poissons Ratio (z) = 0.42276 0.42563
#
# Static dielectric constant tensor:
#      x y z
#    x 1.736260 0.000000 0.000000 
#    y 0.000000 1.629370 0.000000 
#    z 0.000000 0.000000 1.718600 
# 
# From -- ./inp_files/17391.got.cif
#   From: 2010.05.17/outbox.cif.g08.bks.cpg/sg53_9_cif.got.tgz:17391.got - 2010.06.03 12:45:16.
