data_PCOD9417673
_publ_section_title
;
Structure prediction by ZEFSAII (Michael W. Deem and Ramdas Pophale) SiO2 
 PCOD9417673
Probable space group: P M N A
;
_chemical_formula_sum "Si O2"
_cell_formula_units_Z 48
_cell_length_a 8.574607
_cell_length_b 12.125768
_cell_length_c 25.819895
_cell_angle_alpha 90.000000
_cell_angle_beta 90.000000
_cell_angle_gamma 90.000000
_cell_volume 2684.589892
_symmetry_space_group_name_H-M "P M N A"
_symmetry_group_IT_number 53
_symmetry_cell_setting 'orthorhombic'
loop_
_space_group_symop_operation_xyz
x,y,z
1/2-x,-y,1/2+z
x,-y,-z
1/2-x,y,1/2-z
-x,-y,-z
1/2+x,y,1/2-z
-x,y,z
1/2+x,-y,1/2+z
loop_
_atom_site_type_symbol
_atom_site_label
_atom_site_fract_x
_atom_site_fract_y
_atom_site_fract_z
Si Si1 0.187146 0.266551 0.600728
Si Si2 0.185752 0.877722 0.192320
Si Si3 0.687271 0.881440 0.807625
Si Si4 0.313237 0.496436 0.560591
Si Si5 0.311245 0.728081 0.902182
Si Si6 0.310132 0.125914 0.999287
O O1 0.257643 0.214386 0.652412
O O2 0.241452 0.389760 0.588073
O O3 0.238065 0.190405 0.552240
O O4 0.000000 0.263152 0.603952
O O5 0.250000 0.857058 0.250000
O O6 0.000000 0.882618 0.194045
O O7 0.250730 0.998028 0.176024
O O8 0.750000 0.859443 0.750000
O O9 0.500000 0.887021 0.806161
O O10 0.733758 0.788676 0.848995
O O11 0.262713 0.500000 0.500000
O O12 0.500000 0.488262 0.561516
O O13 0.259429 0.608281 0.588292
O O14 0.500000 0.719357 0.903145
O O15 0.262582 0.806284 0.950008
O O16 0.500000 0.123591 0.999422
O O17 0.255178 0.000000 0.000000
#
# Coordination Sequence:
#
# PCOD9417673 Si02
#       6
#     8   8   8   8   8   8
#     4  11  21  36  60  84 113 150 194 239 285 341
#     4  11  22  38  60  86 119 153 191 234 286 343
#     4  10  20  36  60  87 117 151 192 236 284 340
#     4  11  23  38  56  81 117 154 191 238 293 347
#     4  10  20  36  58  83 111 150 198 238 281 343
#     4   9  17  30  52  82 112 141 180 231 282 337
#
# _framework density 17.879825
#
# number of rings (size 3 to 8) (size 9 to 14) (size 15 to 20)
#    0.000    1.667    1.667    5.000    0.000    4.667 
#    0.000    0.833    0.000    4.500    0.000    0.000 
#    0.000    0.000    0.000    0.000    0.000    0.000 
#
# Total GULP energy -268179.593322 kJ/mol
# GULP energy per Si atom -5587.074861 kJ/mol
# Density = 1.783913 g / cm^3
# Si number density = 17.879825 Si / 1000 Ang^3
#
#
#
# Elastic Constant Matrix: (Units=GPa)
#
#
# Indices 1 2 3 4 5 6 
#
# 1 65.5902 44.3709 41.2891 0.0000 0.0000 0.0000
# 2 44.3709 174.8796 89.8179 0.0000 0.0000 0.0000
# 3 41.2891 89.8179 107.8750 0.0000 0.0000 0.0000
# 4 0.0000 0.0000 0.0000 6.3083 0.0000 0.0000
# 5 0.0000 0.0000 0.0000 0.0000 -17.5893 0.0000
# 6 0.0000 0.0000 0.0000 0.0000 0.0000 23.9020
#
#
#
# Elastic Compliance Matrix: (Units=1/GPa)
#
#
# Indices 1 2 3 4 5 6 
#
# 1 0.020496 -0.002046 -0.006141 0.000000 0.000000 0.000000
# 2 -0.002046 0.010195 -0.007705 0.000000 0.000000 0.000000
# 3 -0.006141 -0.007705 0.018036 0.000000 0.000000 0.000000
# 4 0.000000 0.000000 0.000000 0.158520 0.000000 0.000000
# 5 0.000000 0.000000 0.000000 0.000000 -0.056853 0.000000
# 6 0.000000 0.000000 0.000000 0.000000 0.000000 0.041837
#
#
# Mechanical properties :
#
#
# Convention : Reuss Voigt Hill
#
# Bulk Modulus (GPa) = 59.02536 77.70005 68.36270
# Shear Modulus (GPa) = 21.77090 14.04867 17.90978
#
# Velocity S-wave (km/s) = 3.49323 2.80612 3.16836
# Velocity P-wave (km/s) = 7.02525 7.35189 7.19043
#
# Compressibility (1/GPa) = 0.01694187
#
# Stress axis : x y z
#
# Youngs Moduli (GPa) = 48.78914 98.09043 55.44528
#
# Poissons Ratio (x) = 0.20072 0.34050
# Poissons Ratio (y) = 0.09984 0.42721
# Poissons Ratio (z) = 0.29963 0.75579
#
# Static dielectric constant tensor:
#      x y z
#    x 1.602800 0.000000 0.000000 
#    y 0.000000 1.580270 0.000000 
#    z 0.000000 0.000000 1.596940 
# 
# From -- ./inp_files/33873.got.cif
#   From: 2010.05.17/outbox.cif.g08.bks.cpg/sg53_17_cif.got.tgz:33873.got - 2010.06.03 12:45:16.
