data_PCOD9417901
_publ_section_title
;
Structure prediction by ZEFSAII (Michael W. Deem and Ramdas Pophale) SiO2 
 PCOD9417901
Probable space group: P M N A
;
_chemical_formula_sum "Si O2"
_cell_formula_units_Z 48
_cell_length_a 8.686462
_cell_length_b 31.425136
_cell_length_c 9.337871
_cell_angle_alpha 90.000000
_cell_angle_beta 90.000000
_cell_angle_gamma 90.000000
_cell_volume 2548.988992
_symmetry_space_group_name_H-M "P M N A"
_symmetry_group_IT_number 53
_symmetry_cell_setting 'orthorhombic'
loop_
_space_group_symop_operation_xyz
x,y,z
1/2-x,-y,1/2+z
x,-y,-z
1/2-x,y,1/2-z
-x,-y,-z
1/2+x,y,1/2-z
-x,y,z
1/2+x,-y,1/2+z
loop_
_atom_site_type_symbol
_atom_site_label
_atom_site_fract_x
_atom_site_fract_y
_atom_site_fract_z
Si Si1 0.314799 0.284789 0.907607
Si Si2 0.684508 0.458523 0.408504
Si Si3 0.684928 0.381855 0.908524
Si Si4 0.185670 0.958585 0.910424
Si Si5 0.314748 0.874581 0.410318
Si Si6 0.314734 0.204026 0.090587
O O1 0.250000 0.274988 0.750000
O O2 0.500000 0.283891 0.898697
O O3 0.269367 0.333181 0.945534
O O4 0.266904 0.249160 0.020947
O O5 0.730002 0.500000 0.500000
O O6 0.750000 0.462476 0.250000
O O7 0.500000 0.456499 0.404438
O O8 0.748879 0.416335 0.483497
O O9 0.750000 0.390610 0.750000
O O10 0.500000 0.384344 0.905782
O O11 0.250000 0.958523 0.750000
O O12 0.000000 0.959612 0.901898
O O13 0.229503 0.916185 0.997423
O O14 0.236548 0.000000 0.000000
O O15 0.250000 0.877571 0.250000
O O16 0.500000 0.872187 0.405074
O O17 0.248676 0.833344 0.490041
O O18 0.250000 0.199404 0.250000
O O19 0.500000 0.202023 0.094122
#
# Coordination Sequence:
#
# PCOD9417901 Si02
#       6
#     8   8   8   8   8   8
#     4   9  20  37  58  84 113 148 188 231 279 334
#     4  11  24  40  59  84 114 149 188 231 281 335
#     4  10  20  37  60  86 116 149 188 232 280 333
#     4  10  22  39  59  85 116 150 189 233 282 336
#     4  11  23  39  60  86 115 149 191 236 285 340
#     4  11  23  39  58  83 116 152 191 235 285 337
#
# _framework density 18.830994
#
# number of rings (size 3 to 8) (size 9 to 14) (size 15 to 20)
#    0.000    1.667    0.000    4.000    0.000    9.667 
#    0.000    1.667    0.000    0.000    0.000    0.000 
#    0.000    0.000    0.000    0.000    0.000    0.000 
#
# Total GULP energy -268323.418769 kJ/mol
# GULP energy per Si atom -5590.071224 kJ/mol
# Density = 1.878813 g / cm^3
# Si number density = 18.830994 Si / 1000 Ang^3
#
#
#
# Elastic Constant Matrix: (Units=GPa)
#
#
# Indices 1 2 3 4 5 6 
#
# 1 44.6137 48.9785 50.1088 0.0000 0.0000 0.0000
# 2 48.9785 148.2836 121.6169 0.0000 0.0000 0.0000
# 3 50.1088 121.6169 195.5005 0.0000 0.0000 0.0000
# 4 0.0000 0.0000 0.0000 42.7497 0.0000 0.0000
# 5 0.0000 0.0000 0.0000 0.0000 39.8247 0.0000
# 6 0.0000 0.0000 0.0000 0.0000 0.0000 30.9883
#
#
#
# Elastic Compliance Matrix: (Units=1/GPa)
#
#
# Indices 1 2 3 4 5 6 
#
# 1 0.036490 -0.008947 -0.003787 0.000000 0.000000 0.000000
# 2 -0.008947 0.015962 -0.007637 0.000000 0.000000 0.000000
# 3 -0.003787 -0.007637 0.010836 0.000000 0.000000 0.000000
# 4 0.000000 0.000000 0.000000 0.023392 0.000000 0.000000
# 5 0.000000 0.000000 0.000000 0.000000 0.025110 0.000000
# 6 0.000000 0.000000 0.000000 0.000000 0.000000 0.032270
#
#
# Mechanical properties :
#
#
# Convention : Reuss Voigt Hill
#
# Bulk Modulus (GPa) = 44.35024 92.20069 68.27547
# Shear Modulus (GPa) = 25.99850 33.89213 29.94531
#
# Velocity S-wave (km/s) = 3.71970 4.24701 3.99208
# Velocity P-wave (km/s) = 6.48468 8.55091 7.58845
#
# Compressibility (1/GPa) = 0.02254779
#
# Stress axis : x y z
#
# Youngs Moduli (GPa) = 27.40441 62.64760 92.28115
#
# Poissons Ratio (x) = 0.56049 0.34950
# Poissons Ratio (y) = 0.24518 0.70472
# Poissons Ratio (z) = 0.10379 0.47842
#
# Static dielectric constant tensor:
#      x y z
#    x 1.636600 0.000000 0.000000 
#    y 0.000000 1.650540 0.000000 
#    z 0.000000 0.000000 1.630980 
# 
# From -- ./inp_files/6646.got.cif
#   From: 2010.05.17/outbox.cif.g08.bks.cpg/sg53_4_cif.got.tgz:6646.got - 2010.06.03 12:45:16.
