data_PCOD9417434
_publ_section_title
;
Structure prediction by ZEFSAII (Michael W. Deem and Ramdas Pophale) SiO2 
 PCOD9417434
Probable space group: P M N A
;
_chemical_formula_sum "Si O2"
_cell_formula_units_Z 64
_cell_length_a 8.787052
_cell_length_b 24.191546
_cell_length_c 14.793951
_cell_angle_alpha 90.000000
_cell_angle_beta 90.000000
_cell_angle_gamma 90.000000
_cell_volume 3144.785265
_symmetry_space_group_name_H-M "P M N A"
_symmetry_group_IT_number 53
_symmetry_cell_setting 'orthorhombic'
loop_
_space_group_symop_operation_xyz
x,y,z
1/2-x,-y,1/2+z
x,-y,-z
1/2-x,y,1/2-z
-x,-y,-z
1/2+x,y,1/2-z
-x,y,z
1/2+x,-y,1/2+z
loop_
_atom_site_type_symbol
_atom_site_label
_atom_site_fract_x
_atom_site_fract_y
_atom_site_fract_z
Si Si1 0.680029 0.894505 0.653866
Si Si2 0.180678 0.320718 0.980948
Si Si3 0.320119 0.595684 0.157307
Si Si4 0.818431 0.782226 0.151113
Si Si5 0.680315 0.026833 0.653539
Si Si6 0.323547 0.483992 0.394201
Si Si7 0.818365 0.364765 0.347012
Si Si8 0.681034 0.119032 0.963916
O O1 0.750000 0.876773 0.750000
O O2 0.500000 0.884045 0.653220
O O3 0.755839 0.869806 0.564339
O O4 0.704034 0.960990 0.646738
O O5 0.239624 0.373368 0.924955
O O6 0.211485 0.268266 0.917515
O O7 0.000000 0.325280 0.996063
O O8 0.266759 0.321932 0.075929
O O9 0.250000 0.618422 0.250000
O O10 0.500000 0.603766 0.154256
O O11 0.276991 0.531389 0.151445
O O12 0.750000 0.771818 0.250000
O O13 0.745150 0.836094 0.106080
O O14 0.000000 0.789200 0.158807
O O15 0.750000 0.044715 0.750000
O O16 0.500000 0.037532 0.652180
O O17 0.758479 0.060424 0.573372
O O18 0.322169 0.500000 0.500000
O O19 0.500000 0.486102 0.363435
O O20 0.254383 0.424066 0.374562
O O21 0.750000 0.349722 0.250000
O O22 0.000000 0.369451 0.343525
O O23 0.500000 0.119476 0.964785
#
# Coordination Sequence:
#
# PCOD9417434 Si02
#       8
#     8   8   8   8   8   8   8   8
#     4  10  21  38  60  88 124 165 209 255 306 363
#     4  11  24  44  67  92 121 155 200 252 306 361
#     4  12  24  38  60  89 123 160 200 243 297 359
#     4  11  25  45  69  94 124 158 199 252 308 367
#     4  10  20  35  57  87 125 166 208 255 307 367
#     4  11  22  38  61  88 125 164 202 248 298 357
#     4  12  25  42  66  93 126 164 205 251 303 363
#     4  12  24  38  60  89 124 164 208 256 308 367
#
# _framework density 20.351150000000001
#
# number of rings (size 3 to 8) (size 9 to 14) (size 15 to 20)
#    0.000    0.875    1.250    6.750    0.000    6.500 
#    0.000    0.625    0.000    3.000    0.000    0.000 
#    0.000    0.000    0.000    0.000    0.000    0.000 
#
# Total GULP energy -358203.640062 kJ/mol
# GULP energy per Si atom -5596.931876 kJ/mol
# Density = 2.030483 g / cm^3
# Si number density = 20.351150 Si / 1000 Ang^3
#
#
#
# Elastic Constant Matrix: (Units=GPa)
#
#
# Indices 1 2 3 4 5 6 
#
# 1 84.9769 36.8924 47.5126 0.0000 0.0000 0.0000
# 2 36.8924 33.5794 19.4740 0.0000 0.0000 0.0000
# 3 47.5126 19.4740 151.0326 0.0000 0.0000 0.0000
# 4 0.0000 0.0000 0.0000 22.3893 0.0000 0.0000
# 5 0.0000 0.0000 0.0000 0.0000 34.5958 0.0000
# 6 0.0000 0.0000 0.0000 0.0000 0.0000 30.6921
#
#
#
# Elastic Compliance Matrix: (Units=1/GPa)
#
#
# Indices 1 2 3 4 5 6 
#
# 1 0.025276 -0.025030 -0.004724 0.000000 0.000000 0.000000
# 2 -0.025030 0.056973 0.000528 0.000000 0.000000 0.000000
# 3 -0.004724 0.000528 0.008039 0.000000 0.000000 0.000000
# 4 0.000000 0.000000 0.000000 0.044664 0.000000 0.000000
# 5 0.000000 0.000000 0.000000 0.000000 0.028905 0.000000
# 6 0.000000 0.000000 0.000000 0.000000 0.000000 0.032582
#
#
# Mechanical properties :
#
#
# Convention : Reuss Voigt Hill
#
# Bulk Modulus (GPa) = 31.41076 53.03853 42.22465
# Shear Modulus (GPa) = 18.83215 28.58277 23.70746
#
# Velocity S-wave (km/s) = 3.04527 3.75170 3.41680
# Velocity P-wave (km/s) = 5.27568 6.69965 6.02985
#
# Compressibility (1/GPa) = 0.03183623
#
# Stress axis : x y z
#
# Youngs Moduli (GPa) = 39.56343 17.55210 124.39146
#
# Poissons Ratio (x) = 0.43933 0.58764
# Poissons Ratio (y) = 0.99027 -0.06567
# Poissons Ratio (z) = 0.18690 -0.00927
#
# Static dielectric constant tensor:
#      x y z
#    x 1.669600 0.000000 0.000000 
#    y 0.000000 1.727580 0.000000 
#    z 0.000000 0.000000 1.734580 
# 
# From -- ./inp_files/20911.got.cif
#   From: 2010.05.17/outbox.cif.g08.bks.cpg/sg53_11_cif.got.tgz:20911.got - 2010.06.03 12:45:16.
