data_PCOD9417506
_publ_section_title
;
Structure prediction by ZEFSAII (Michael W. Deem and Ramdas Pophale) SiO2 
 PCOD9417506
Probable space group: P M N A
;
_chemical_formula_sum "Si O2"
_cell_formula_units_Z 60
_cell_length_a 22.173682
_cell_length_b 8.792964
_cell_length_c 13.881245
_cell_angle_alpha 90.000000
_cell_angle_beta 90.000000
_cell_angle_gamma 90.000000
_cell_volume 2706.459480
_symmetry_space_group_name_H-M "P M N A"
_symmetry_group_IT_number 53
_symmetry_cell_setting 'orthorhombic'
loop_
_space_group_symop_operation_xyz
x,y,z
1/2-x,-y,1/2+z
x,-y,-z
1/2-x,y,1/2-z
-x,-y,-z
1/2+x,y,1/2-z
-x,y,z
1/2+x,-y,1/2+z
loop_
_atom_site_type_symbol
_atom_site_label
_atom_site_fract_x
_atom_site_fract_y
_atom_site_fract_z
Si Si1 0.366622 0.687240 0.858656
Si Si2 0.571214 0.178204 0.622470
Si Si3 0.572581 0.004086 0.204090
Si Si4 0.572461 0.501249 0.720223
Si Si5 0.750000 0.419512 0.250000
Si Si6 0.258663 0.621129 0.429446
Si Si7 0.657406 0.156981 0.945809
Si Si8 0.882450 0.339797 0.041639
O O1 0.399857 0.533478 0.824974
O O2 0.300783 0.676536 0.806855
O O3 0.405572 0.828018 0.819087
O O4 0.363823 0.728685 0.970619
O O5 0.500000 0.170352 0.625626
O O6 0.593915 0.043010 0.688888
O O7 0.588365 0.335473 0.677990
O O8 0.587919 0.198497 0.511578
O O9 0.500000 0.992002 0.195241
O O10 0.606200 0.891038 0.129579
O O11 0.500000 0.516257 0.718909
O O12 0.602645 0.631283 0.652014
O O13 0.776776 0.530559 0.167045
O O14 0.226092 0.500000 0.500000
O O15 0.215987 0.760390 0.402556
O O16 0.315000 0.666356 0.497600
O O17 0.675143 0.000000 0.000000
O O18 0.909090 0.500000 0.000000
#
# Coordination Sequence:
#
# PCOD9417506 Si02
#       8
#     8   8   8   8   4   8   8   8
#     4  11  23  41  63  88 127 166 217 270 328 390
#     4   9  18  35  58  89 124 159 210 265 315 384
#     4  10  23  43  65  90 127 173 221 276 335 390
#     4  10  20  35  62  94 124 161 212 265 324 390
#     4  12  24  40  68  96 128 174 216 276 326 392
#     4  11  22  40  65  92 131 170 214 264 329 384
#     4  10  24  43  63  92 124 170 215 269 320 397
#     4   9  18  34  57  87 123 167 204 253 316 378
#
# _framework density 22.169184000000001
#
# number of rings (size 3 to 8) (size 9 to 14) (size 15 to 20)
#    0.000    1.867    1.333    3.200    3.733    4.533 
#    4.800    0.667    0.000    5.200    0.000    0.000 
#    0.000    0.000    0.000    0.000    0.000    0.000 
#
# Total GULP energy -334562.535970 kJ/mol
# GULP energy per Si atom -5576.042266 kJ/mol
# Density = 2.211873 g / cm^3
# Si number density = 22.169184 Si / 1000 Ang^3
#
#
#
# Elastic Constant Matrix: (Units=GPa)
#
#
# Indices 1 2 3 4 5 6 
#
# 1 73.5597 11.3576 3.2229 0.0000 0.0000 0.0000
# 2 11.3576 18.7535 1.9675 0.0000 0.0000 0.0000
# 3 3.2229 1.9675 68.5890 0.0000 0.0000 0.0000
# 4 0.0000 0.0000 0.0000 42.6528 0.0000 0.0000
# 5 0.0000 0.0000 0.0000 0.0000 23.4207 0.0000
# 6 0.0000 0.0000 0.0000 0.0000 0.0000 27.7392
#
#
#
# Elastic Compliance Matrix: (Units=1/GPa)
#
#
# Indices 1 2 3 4 5 6 
#
# 1 0.015010 -0.009044 -0.000446 0.000000 0.000000 0.000000
# 2 -0.009044 0.058933 -0.001266 0.000000 0.000000 0.000000
# 3 -0.000446 -0.001266 0.014637 0.000000 0.000000 0.000000
# 4 0.000000 0.000000 0.000000 0.023445 0.000000 0.000000
# 5 0.000000 0.000000 0.000000 0.000000 0.042697 0.000000
# 6 0.000000 0.000000 0.000000 0.000000 0.000000 0.036050
#
#
# Mechanical properties :
#
#
# Convention : Reuss Voigt Hill
#
# Bulk Modulus (GPa) = 14.90981 21.55535 18.23258
# Shear Modulus (GPa) = 21.30921 28.38614 24.84768
#
# Velocity S-wave (km/s) = 3.10370 3.58220 3.35150
# Velocity P-wave (km/s) = 4.42538 5.18206 4.81860
#
# Compressibility (1/GPa) = 0.06706994
#
# Stress axis : x y z
#
# Youngs Moduli (GPa) = 66.62094 16.96831 68.32074
#
# Poissons Ratio (x) = 0.15346 0.03046
# Poissons Ratio (y) = 0.60251 0.08646
# Poissons Ratio (z) = 0.02971 0.02147
#
# Static dielectric constant tensor:
#      x y z
#    x 1.840620 0.000000 0.000000 
#    y 0.000000 1.830950 0.000000 
#    z 0.000000 0.000000 1.883380 
# 
# From -- ./inp_files/24699.got.cif
#   From: 2010.05.17/outbox.cif.g08.bks.cpg/sg53_13_cif.got.tgz:24699.got - 2010.06.03 12:45:16.
