data_PCOD9417950
_publ_section_title
;
Structure prediction by ZEFSAII (Michael W. Deem and Ramdas Pophale) SiO2 
 PCOD9417950
Probable space group: P M N A
;
_chemical_formula_sum "Si O2"
_cell_formula_units_Z 48
_cell_length_a 15.134935
_cell_length_b 8.937578
_cell_length_c 16.366697
_cell_angle_alpha 90.000000
_cell_angle_beta 90.000000
_cell_angle_gamma 90.000000
_cell_volume 2213.917573
_symmetry_space_group_name_H-M "P M N A"
_symmetry_group_IT_number 53
_symmetry_cell_setting 'orthorhombic'
loop_
_space_group_symop_operation_xyz
x,y,z
1/2-x,-y,1/2+z
x,-y,-z
1/2-x,y,1/2-z
-x,-y,-z
1/2+x,y,1/2-z
-x,y,z
1/2+x,-y,1/2+z
loop_
_atom_site_type_symbol
_atom_site_label
_atom_site_fract_x
_atom_site_fract_y
_atom_site_fract_z
Si Si1 0.396171 0.139846 0.317859
Si Si2 0.150551 0.323623 0.663826
Si Si3 0.149785 0.797975 0.168981
Si Si4 0.858629 0.173838 0.498224
Si Si5 0.897316 0.341272 0.331862
Si Si6 0.855323 0.174400 0.005924
O O1 0.500000 0.108450 0.305304
O O2 0.363854 0.237925 0.242066
O O3 0.385346 0.224110 0.404590
O O4 0.349584 0.978369 0.323295
O O5 0.250005 0.260367 0.665943
O O6 0.108120 0.269137 0.749019
O O7 0.110746 0.256366 0.580739
O O8 0.151916 0.501863 0.661122
O O9 0.111527 0.757134 0.079559
O O10 0.891557 0.252917 0.416642
O O11 0.751316 0.181157 0.494794
O O12 0.883739 0.000000 0.500000
O O13 0.000000 0.376290 0.314685
O O14 0.882464 0.000000 0.000000
#
# Coordination Sequence:
#
# PCOD9417950 Si02
#       6
#     8   8   8   8   8   8
#     4  10  21  38  61  89 120 156 202 253 303 358
#     4  10  21  38  58  86 123 158 197 245 305 367
#     4   9  19  37  60  88 117 154 201 244 294 356
#     4  10  20  37  62  89 117 155 206 254 295 355
#     4  11  25  41  58  86 124 163 200 249 312 366
#     4   8  17  33  57  88 116 144 188 244 295 345
#
# _framework density 21.681025999999999
#
# number of rings (size 3 to 8) (size 9 to 14) (size 15 to 20)
#    0.000    2.333    0.000    2.500    0.000   11.333 
#    0.000    2.500    0.000    2.000    0.000    0.000 
#    0.000    0.000    0.000    0.000    0.000    0.000 
#
# Total GULP energy -267968.221163 kJ/mol
# GULP energy per Si atom -5582.671274 kJ/mol
# Density = 2.163168 g / cm^3
# Si number density = 21.681026 Si / 1000 Ang^3
#
#
#
# Elastic Constant Matrix: (Units=GPa)
#
#
# Indices 1 2 3 4 5 6 
#
# 1 64.0362 28.1978 5.5057 0.0000 0.0000 0.0000
# 2 28.1978 134.5137 82.2972 0.0000 0.0000 0.0000
# 3 5.5057 82.2972 234.1432 0.0000 0.0000 0.0000
# 4 0.0000 0.0000 0.0000 11.4822 0.0000 0.0000
# 5 0.0000 0.0000 0.0000 0.0000 45.8510 0.0000
# 6 0.0000 0.0000 0.0000 0.0000 0.0000 5.5266
#
#
#
# Elastic Compliance Matrix: (Units=1/GPa)
#
#
# Indices 1 2 3 4 5 6 
#
# 1 0.017429 -0.004335 0.001114 0.000000 0.000000 0.000000
# 2 -0.004335 0.010549 -0.003606 0.000000 0.000000 0.000000
# 3 0.001114 -0.003606 0.005512 0.000000 0.000000 0.000000
# 4 0.000000 0.000000 0.000000 0.087091 0.000000 0.000000
# 5 0.000000 0.000000 0.000000 0.000000 0.021810 0.000000
# 6 0.000000 0.000000 0.000000 0.000000 0.000000 0.180942
#
#
# Mechanical properties :
#
#
# Convention : Reuss Voigt Hill
#
# Bulk Modulus (GPa) = 50.41278 73.85494 62.13386
# Shear Modulus (GPa) = 14.55182 33.68480 24.11831
#
# Velocity S-wave (km/s) = 2.59352 3.94592 3.33891
# Velocity P-wave (km/s) = 5.68075 7.40936 6.60188
#
# Compressibility (1/GPa) = 0.01983624
#
# Stress axis : x y z
#
# Youngs Moduli (GPa) = 57.37444 94.79497 181.41900
#
# Poissons Ratio (x) = 0.41095 -0.20208
# Poissons Ratio (y) = 0.24873 0.65417
# Poissons Ratio (z) = -0.06391 0.34182
#
# Static dielectric constant tensor:
#      x y z
#    x 1.823770 0.000000 0.000000 
#    y 0.000000 1.730330 0.000000 
#    z 0.000000 0.000000 1.855280 
# 
# From -- ./inp_files/23665.got.cif
#   From: 2010.05.17/outbox.cif.g08.bks.cpg/sg53_12_cif.got.tgz:23665.got - 2010.06.03 12:45:16.
