data_PCOD9417146
_publ_section_title
;
Structure prediction by ZEFSAII (Michael W. Deem and Ramdas Pophale) SiO2 
 PCOD9417146
Probable space group: P M N A
;
_chemical_formula_sum "Si O2"
_cell_formula_units_Z 64
_cell_length_a 8.465823
_cell_length_b 20.150690
_cell_length_c 19.629806
_cell_angle_alpha 90.000000
_cell_angle_beta 90.000000
_cell_angle_gamma 90.000000
_cell_volume 3348.691298
_symmetry_space_group_name_H-M "P M N A"
_symmetry_group_IT_number 53
_symmetry_cell_setting 'orthorhombic'
loop_
_space_group_symop_operation_xyz
x,y,z
1/2-x,-y,1/2+z
x,-y,-z
1/2-x,y,1/2-z
-x,-y,-z
1/2+x,y,1/2-z
-x,y,z
1/2+x,-y,1/2+z
loop_
_atom_site_type_symbol
_atom_site_label
_atom_site_fract_x
_atom_site_fract_y
_atom_site_fract_z
Si Si1 0.191231 0.789606 0.449985
Si Si2 0.187399 0.846493 0.908223
Si Si3 0.190547 0.120151 0.675399
Si Si4 0.307205 0.636614 0.058416
Si Si5 0.307763 0.407528 0.088268
Si Si6 0.191184 0.536464 0.327178
Si Si7 0.810412 0.721782 0.674041
Si Si8 0.310841 0.032326 0.174835
O O1 0.247201 0.825301 0.518408
O O2 0.244283 0.830823 0.384018
O O3 0.244305 0.712998 0.446965
O O4 0.000000 0.788932 0.450902
O O5 0.243764 0.789894 0.855777
O O6 0.249580 0.916725 0.881152
O O7 0.000000 0.847807 0.910269
O O8 0.250000 0.139829 0.750000
O O9 0.000000 0.120649 0.676133
O O10 0.241271 0.043833 0.662729
O O11 0.500000 0.636822 0.058103
O O12 0.257864 0.599177 0.126985
O O13 0.257111 0.597047 0.990380
O O14 0.500000 0.409959 0.087534
O O15 0.254915 0.470725 0.131844
O O16 0.262002 0.339551 0.125992
O O17 0.250000 0.537640 0.250000
O O18 0.000000 0.535514 0.325674
O O19 0.750000 0.710304 0.750000
O O20 0.000000 0.725264 0.673666
O O21 0.250000 0.051900 0.250000
O O22 0.500000 0.034030 0.175506
#
# Coordination Sequence:
#
# PCOD9417146 Si02
#       8
#     8   8   8   8   8   8   8   8
#     4  10  20  38  60  83 111 147 190 231 276 331
#     4  12  24  37  54  81 113 147 185 230 281 333
#     4   9  20  37  60  85 111 145 186 231 279 331
#     4   9  17  33  58  82 106 144 190 230 268 323
#     4   9  17  32  56  82 106 143 187 228 270 321
#     4  10  20  34  55  83 113 143 184 230 276 328
#     4  11  21  35  55  80 111 148 186 227 273 327
#     4  10  20  37  58  82 112 148 187 229 276 330
#
# _framework density 19.111944000000001
#
# number of rings (size 3 to 8) (size 9 to 14) (size 15 to 20)
#    0.000    2.000    1.250    3.000    0.000    3.500 
#    0.000    3.750    0.000    0.750    0.000    0.000 
#    0.000    0.000    0.000    0.000    0.000    0.000 
#
# Total GULP energy -357434.940258 kJ/mol
# GULP energy per Si atom -5584.920942 kJ/mol
# Density = 1.906844 g / cm^3
# Si number density = 19.111944 Si / 1000 Ang^3
#
#
#
# Elastic Constant Matrix: (Units=GPa)
#
#
# Indices 1 2 3 4 5 6 
#
# 1 22.5271 19.9854 19.3121 0.0000 0.0000 0.0000
# 2 19.9854 97.4542 96.3819 0.0000 0.0000 0.0000
# 3 19.3121 96.3819 158.8072 0.0000 0.0000 0.0000
# 4 0.0000 0.0000 0.0000 38.1120 0.0000 0.0000
# 5 0.0000 0.0000 0.0000 0.0000 31.9292 0.0000
# 6 0.0000 0.0000 0.0000 0.0000 0.0000 7.5384
#
#
#
# Elastic Compliance Matrix: (Units=1/GPa)
#
#
# Indices 1 2 3 4 5 6 
#
# 1 0.054273 -0.011513 0.000388 0.000000 0.000000 0.000000
# 2 -0.011513 0.028111 -0.015660 0.000000 0.000000 0.000000
# 3 0.000388 -0.015660 0.015754 0.000000 0.000000 0.000000
# 4 0.000000 0.000000 0.000000 0.026238 0.000000 0.000000
# 5 0.000000 0.000000 0.000000 0.000000 0.031319 0.000000
# 6 0.000000 0.000000 0.000000 0.000000 0.000000 0.132654
#
#
# Mechanical properties :
#
#
# Convention : Reuss Voigt Hill
#
# Bulk Modulus (GPa) = 22.43899 61.12750 41.78325
# Shear Modulus (GPa) = 14.01435 25.05651 19.53543
#
# Velocity S-wave (km/s) = 2.71085 3.62476 3.20059
# Velocity P-wave (km/s) = 4.64377 7.04073 5.96391
#
# Compressibility (1/GPa) = 0.04456528
#
# Stress axis : x y z
#
# Youngs Moduli (GPa) = 18.42539 35.57386 63.47453
#
# Poissons Ratio (x) = 0.40958 -0.02460
# Poissons Ratio (y) = 0.21214 0.99404
# Poissons Ratio (z) = -0.00714 0.55710
#
# Static dielectric constant tensor:
#      x y z
#    x 1.664500 0.000000 0.000000 
#    y 0.000000 1.661670 0.000000 
#    z 0.000000 0.000000 1.636120 
# 
# From -- ./inp_files/26835.got.cif
#   From: 2010.05.17/outbox.cif.g08.bks.cpg/sg53_14_cif.got.tgz:26835.got - 2010.06.03 12:45:16.
