data_PCOD9417138
_publ_section_title
;
Structure prediction by ZEFSAII (Michael W. Deem and Ramdas Pophale) SiO2 
 PCOD9417138
Probable space group: P M N A
;
_chemical_formula_sum "Si O2"
_cell_formula_units_Z 56
_cell_length_a 14.697613
_cell_length_b 9.283171
_cell_length_c 21.654768
_cell_angle_alpha 90.000000
_cell_angle_beta 90.000000
_cell_angle_gamma 90.000000
_cell_volume 2954.586394
_symmetry_space_group_name_H-M "P M N A"
_symmetry_group_IT_number 53
_symmetry_cell_setting 'orthorhombic'
loop_
_space_group_symop_operation_xyz
x,y,z
1/2-x,-y,1/2+z
x,-y,-z
1/2-x,y,1/2-z
-x,-y,-z
1/2+x,y,1/2-z
-x,y,z
1/2+x,-y,1/2+z
loop_
_atom_site_type_symbol
_atom_site_label
_atom_site_fract_x
_atom_site_fract_y
_atom_site_fract_z
Si Si1 0.275563 0.734790 0.902734
Si Si2 0.897955 0.763213 0.132196
Si Si3 0.714752 0.933490 0.121601
Si Si4 0.398590 0.506359 0.131483
Si Si5 0.347966 0.265797 0.769915
Si Si6 0.395141 0.454337 0.428649
Si Si7 0.608565 0.744433 0.028286
O O1 0.328001 0.620958 0.859984
O O2 0.175884 0.670426 0.913957
O O3 0.275730 0.896196 0.878082
O O4 0.333876 0.733413 0.966158
O O5 0.813625 0.860439 0.110245
O O6 0.896846 0.772124 0.206533
O O7 0.878597 0.598830 0.111431
O O8 0.000000 0.799871 0.109315
O O9 0.675379 0.868750 0.185548
O O10 0.646931 0.877737 0.068251
O O11 0.500000 0.448269 0.122659
O O12 0.396724 0.617062 0.188069
O O13 0.375283 0.603606 0.071385
O O14 0.250000 0.327077 0.750000
O O15 0.384289 0.500000 0.500000
O O16 0.500000 0.410417 0.418973
O O17 0.500000 0.755892 0.018088
#
# Coordination Sequence:
#
# PCOD9417138 Si02
#       7
#     8   8   8   8   8   8   8
#     4  12  21  33  54  82 117 146 175 224 286 333
#     4  10  20  39  63  79 101 146 193 225 267 333
#     4  10  22  35  53  82 113 145 181 227 273 321
#     4  10  20  34  55  82 108 138 181 229 271 318
#     4   9  18  37  58  76 103 143 189 225 263 322
#     4  10  21  37  59  86 113 143 185 237 286 333
#     4  10  21  37  56  78 109 151 190 218 259 328
#
# _framework density 18.953583999999999
#
# number of rings (size 3 to 8) (size 9 to 14) (size 15 to 20)
#    0.000    1.857    0.000    6.000    0.000    4.000 
#    0.000    6.429    0.000    4.286    0.000    0.000 
#    0.000    0.000    0.000    0.000    0.000    0.000 
#
# Total GULP energy -312710.253844 kJ/mol
# GULP energy per Si atom -5584.111676 kJ/mol
# Density = 1.891044 g / cm^3
# Si number density = 18.953584 Si / 1000 Ang^3
#
#
#
# Elastic Constant Matrix: (Units=GPa)
#
#
# Indices 1 2 3 4 5 6 
#
# 1 117.0689 75.7577 23.3120 0.0000 0.0000 0.0000
# 2 75.7577 136.4451 25.0087 0.0000 0.0000 0.0000
# 3 23.3120 25.0087 49.2125 0.0000 0.0000 0.0000
# 4 0.0000 0.0000 0.0000 5.6576 0.0000 0.0000
# 5 0.0000 0.0000 0.0000 0.0000 17.4273 0.0000
# 6 0.0000 0.0000 0.0000 0.0000 0.0000 6.6752
#
#
#
# Elastic Compliance Matrix: (Units=1/GPa)
#
#
# Indices 1 2 3 4 5 6 
#
# 1 0.013696 -0.007074 -0.002893 0.000000 0.000000 0.000000
# 2 -0.007074 0.011735 -0.002613 0.000000 0.000000 0.000000
# 3 -0.002893 -0.002613 0.023018 0.000000 0.000000 0.000000
# 4 0.000000 0.000000 0.000000 0.176753 0.000000 0.000000
# 5 0.000000 0.000000 0.000000 0.000000 0.057381 0.000000
# 6 0.000000 0.000000 0.000000 0.000000 0.000000 0.149807
#
#
# Mechanical properties :
#
#
# Convention : Reuss Voigt Hill
#
# Bulk Modulus (GPa) = 42.93658 61.20927 52.07293
# Shear Modulus (GPa) = 10.74544 17.86191 14.30367
#
# Velocity S-wave (km/s) = 2.38362 3.07319 2.75010
# Velocity P-wave (km/s) = 5.50257 6.70500 6.13332
#
# Compressibility (1/GPa) = 0.02329016
#
# Stress axis : x y z
#
# Youngs Moduli (GPa) = 73.01533 85.21156 43.44403
#
# Poissons Ratio (x) = 0.60279 0.12568
# Poissons Ratio (y) = 0.51651 0.11351
# Poissons Ratio (z) = 0.21122 0.22264
#
# Static dielectric constant tensor:
#      x y z
#    x 1.677110 0.000000 0.000000 
#    y 0.000000 1.633200 0.000000 
#    z 0.000000 0.000000 1.669660 
# 
# From -- ./inp_files/32428.got.cif
#   From: 2010.05.17/outbox.cif.g08.bks.cpg/sg53_17_cif.got.tgz:32428.got - 2010.06.03 12:45:16.
