data_PCOD9417670
_publ_section_title
;
Structure prediction by ZEFSAII (Michael W. Deem and Ramdas Pophale) SiO2 
 PCOD9417670
Probable space group: P M N A
;
_chemical_formula_sum "Si O2"
_cell_formula_units_Z 56
_cell_length_a 8.262462
_cell_length_b 15.643025
_cell_length_c 21.403363
_cell_angle_alpha 90.000000
_cell_angle_beta 90.000000
_cell_angle_gamma 90.000000
_cell_volume 2766.382519
_symmetry_space_group_name_H-M "P M N A"
_symmetry_group_IT_number 53
_symmetry_cell_setting 'orthorhombic'
loop_
_space_group_symop_operation_xyz
x,y,z
1/2-x,-y,1/2+z
x,-y,-z
1/2-x,y,1/2-z
-x,-y,-z
1/2+x,y,1/2-z
-x,y,z
1/2+x,-y,1/2+z
loop_
_atom_site_type_symbol
_atom_site_label
_atom_site_fract_x
_atom_site_fract_y
_atom_site_fract_z
Si Si1 0.817411 0.295066 0.891532
Si Si2 0.806475 0.551313 0.318020
Si Si3 0.195188 0.043858 0.183254
Si Si4 0.306795 0.080605 0.457596
Si Si5 0.310150 0.150094 0.817183
Si Si6 0.697634 0.444235 0.060249
Si Si7 0.315175 0.267422 0.018119
O O1 0.772188 0.357943 0.835565
O O2 0.793546 0.198994 0.868215
O O3 0.000000 0.310243 0.912670
O O4 0.695988 0.306872 0.948652
O O5 0.750000 0.522388 0.250000
O O6 0.757849 0.489903 0.375266
O O7 0.000000 0.559847 0.318361
O O8 0.250000 0.083719 0.250000
O O9 0.244424 0.081345 0.115698
O O10 0.000000 0.036913 0.185150
O O11 0.273918 0.949966 0.181530
O O12 0.500000 0.070700 0.457020
O O13 0.267151 0.175015 0.482759
O O14 0.243545 0.000000 0.500000
O O15 0.250000 0.181449 0.750000
O O16 0.500000 0.166845 0.825863
O O17 0.500000 0.441301 0.057035
O O18 0.755037 0.345729 0.058398
O O19 0.751847 0.500000 0.000000
O O20 0.500000 0.252433 0.036337
#
# Coordination Sequence:
#
# PCOD9417670 Si02
#       7
#     8   8   8   8   8   8   8
#     4  12  23  36  54  82 119 155 194 242 301 363
#     4  11  22  39  61  87 121 157 199 247 303 359
#     4  10  20  36  58  82 114 157 201 249 308 363
#     4  10  22  40  60  86 123 162 200 253 313 363
#     4  11  21  34  53  79 112 151 196 243 297 362
#     4   9  18  38  64  87 117 156 196 241 296 356
#     4  11  22  38  63  91 115 153 203 250 302 361
#
# _framework density 20.243043
#
# number of rings (size 3 to 8) (size 9 to 14) (size 15 to 20)
#    0.000    1.429    1.429    6.000    0.000    2.571 
#    0.000    4.286    0.000    3.429    0.000    0.000 
#    0.000    0.000    0.000    0.000    0.000    0.000 
#
# Total GULP energy -312477.221787 kJ/mol
# GULP energy per Si atom -5579.950389 kJ/mol
# Density = 2.019697 g / cm^3
# Si number density = 20.243043 Si / 1000 Ang^3
#
#
#
# Elastic Constant Matrix: (Units=GPa)
#
#
# Indices 1 2 3 4 5 6 
#
# 1 46.0330 5.9960 11.2379 0.0000 0.0000 0.0000
# 2 5.9960 82.4432 43.2192 0.0000 0.0000 0.0000
# 3 11.2379 43.2192 130.5116 0.0000 0.0000 0.0000
# 4 0.0000 0.0000 0.0000 63.8027 0.0000 0.0000
# 5 0.0000 0.0000 0.0000 0.0000 27.9257 0.0000
# 6 0.0000 0.0000 0.0000 0.0000 0.0000 1.3889
#
#
#
# Elastic Compliance Matrix: (Units=1/GPa)
#
#
# Indices 1 2 3 4 5 6 
#
# 1 0.022227 -0.000742 -0.001668 0.000000 0.000000 0.000000
# 2 -0.000742 0.014702 -0.004805 0.000000 0.000000 0.000000
# 3 -0.001668 -0.004805 0.009397 0.000000 0.000000 0.000000
# 4 0.000000 0.000000 0.000000 0.015673 0.000000 0.000000
# 5 0.000000 0.000000 0.000000 0.000000 0.035809 0.000000
# 6 0.000000 0.000000 0.000000 0.000000 0.000000 0.719973
#
#
# Mechanical properties :
#
#
# Convention : Reuss Voigt Hill
#
# Bulk Modulus (GPa) = 31.35128 42.21043 36.78086
# Shear Modulus (GPa) = 5.93229 31.85911 18.89570
#
# Velocity S-wave (km/s) = 1.71374 3.97146 3.05854
# Velocity P-wave (km/s) = 4.40873 6.47511 5.53913
#
# Compressibility (1/GPa) = 0.03189662
#
# Stress axis : x y z
#
# Youngs Moduli (GPa) = 44.98937 68.01621 106.41775
#
# Poissons Ratio (x) = 0.05047 0.17752
# Poissons Ratio (y) = 0.03338 0.51132
# Poissons Ratio (z) = 0.07505 0.32681
#
# Static dielectric constant tensor:
#      x y z
#    x 1.700380 0.000000 0.000000 
#    y 0.000000 1.721260 0.000000 
#    z 0.000000 0.000000 1.771760 
# 
# From -- ./inp_files/30808.got.cif
#   From: 2010.05.17/outbox.cif.g08.bks.cpg/sg53_16_cif.got.tgz:30808.got - 2010.06.03 12:45:16.
