data_PCOD9417598
_publ_section_title
;
Structure prediction by ZEFSAII (Michael W. Deem and Ramdas Pophale) SiO2 
 PCOD9417598
Probable space group: P M N A
;
_chemical_formula_sum "Si O2"
_cell_formula_units_Z 56
_cell_length_a 8.765373
_cell_length_b 22.032364
_cell_length_c 14.907206
_cell_angle_alpha 90.000000
_cell_angle_beta 90.000000
_cell_angle_gamma 90.000000
_cell_volume 2878.907775
_symmetry_space_group_name_H-M "P M N A"
_symmetry_group_IT_number 53
_symmetry_cell_setting 'orthorhombic'
loop_
_space_group_symop_operation_xyz
x,y,z
1/2-x,-y,1/2+z
x,-y,-z
1/2-x,y,1/2-z
-x,-y,-z
1/2+x,y,1/2-z
-x,y,z
1/2+x,-y,1/2+z
loop_
_atom_site_type_symbol
_atom_site_label
_atom_site_fract_x
_atom_site_fract_y
_atom_site_fract_z
Si Si1 0.817043 0.017975 0.350856
Si Si2 0.683676 0.215430 0.519092
Si Si3 0.682393 0.351526 0.521026
Si Si4 0.182376 0.846116 0.650199
Si Si5 0.682181 0.452379 0.848671
Si Si6 0.817349 0.407714 0.348571
Si Si7 0.183350 0.894032 0.149296
O O1 0.750000 0.018322 0.250000
O O2 0.778801 0.085434 0.384448
O O3 0.000000 0.011766 0.349523
O O4 0.745510 0.957318 0.392016
O O5 0.500000 0.213313 0.511781
O O6 0.726896 0.283244 0.548683
O O7 0.752939 0.200134 0.422302
O O8 0.729851 0.163409 0.589368
O O9 0.500000 0.356112 0.522816
O O10 0.751895 0.403006 0.584189
O O11 0.743018 0.364290 0.421405
O O12 0.250000 0.838367 0.750000
O O13 0.000000 0.841954 0.656084
O O14 0.750000 0.442460 0.750000
O O15 0.500000 0.447398 0.845935
O O16 0.718984 0.522116 0.874358
O O17 0.750000 0.397362 0.250000
O O18 0.000000 0.401237 0.347501
O O19 0.250000 0.888018 0.250000
O O20 0.000000 0.897046 0.154555
#
# Coordination Sequence:
#
# PCOD9417598 Si02
#       7
#     8   8   8   8   8   8   8
#     4   9  17  31  53  82 109 136 176 225 279 334
#     4  10  24  41  55  78 112 150 192 229 269 328
#     4  11  23  39  58  82 115 153 191 232 277 328
#     4  10  21  37  59  83 110 144 182 229 281 332
#     4  10  21  38  61  89 118 147 184 230 278 331
#     4  10  21  38  61  89 117 147 185 229 279 332
#     4  10  20  36  57  80 108 143 182 228 279 329
#
# _framework density 19.451822
#
# number of rings (size 3 to 8) (size 9 to 14) (size 15 to 20)
#    0.000    2.000    0.000    3.857    0.000    9.143 
#    0.000    4.286    0.000    0.000    0.000    0.000 
#    0.000    0.000    0.000    0.000    0.000    0.000 
#
# Total GULP energy -312779.249657 kJ/mol
# GULP energy per Si atom -5585.343744 kJ/mol
# Density = 1.940755 g / cm^3
# Si number density = 19.451822 Si / 1000 Ang^3
#
#
#
# Elastic Constant Matrix: (Units=GPa)
#
#
# Indices 1 2 3 4 5 6 
#
# 1 35.6134 16.3220 4.1986 0.0000 0.0000 0.0000
# 2 16.3220 44.8211 5.9489 0.0000 0.0000 0.0000
# 3 4.1986 5.9489 37.4825 0.0000 0.0000 0.0000
# 4 0.0000 0.0000 0.0000 11.2765 0.0000 0.0000
# 5 0.0000 0.0000 0.0000 0.0000 28.1883 0.0000
# 6 0.0000 0.0000 0.0000 0.0000 0.0000 23.7320
#
#
#
# Elastic Compliance Matrix: (Units=1/GPa)
#
#
# Indices 1 2 3 4 5 6 
#
# 1 0.033833 -0.012072 -0.001874 0.000000 0.000000 0.000000
# 2 -0.012072 0.027098 -0.002949 0.000000 0.000000 0.000000
# 3 -0.001874 -0.002949 0.027357 0.000000 0.000000 0.000000
# 4 0.000000 0.000000 0.000000 0.088680 0.000000 0.000000
# 5 0.000000 0.000000 0.000000 0.000000 0.035476 0.000000
# 6 0.000000 0.000000 0.000000 0.000000 0.000000 0.042137
#
#
# Mechanical properties :
#
#
# Convention : Reuss Voigt Hill
#
# Bulk Modulus (GPa) = 18.34874 18.98400 18.66637
# Shear Modulus (GPa) = 16.31127 18.73586 17.52356
#
# Velocity S-wave (km/s) = 2.89891 3.10690 3.00471
# Velocity P-wave (km/s) = 4.54514 4.75932 4.65346
#
# Compressibility (1/GPa) = 0.05449966
#
# Stress axis : x y z
#
# Youngs Moduli (GPa) = 29.55703 36.90257 36.55378
#
# Poissons Ratio (x) = 0.44548 0.06849
# Poissons Ratio (y) = 0.35681 0.10778
# Poissons Ratio (z) = 0.05538 0.10881
#
# Static dielectric constant tensor:
#      x y z
#    x 1.646980 0.000000 0.000000 
#    y 0.000000 1.705400 0.000000 
#    z 0.000000 0.000000 1.642930 
# 
# From -- ./inp_files/20640.got.cif
#   From: 2010.05.17/outbox.cif.g08.bks.cpg/sg53_11_cif.got.tgz:20640.got - 2010.06.03 12:45:16.
