data_PCOD9417192
_publ_section_title
;
Structure prediction by ZEFSAII (Michael W. Deem and Ramdas Pophale) SiO2 
 PCOD9417192
Probable space group: P M N A
;
_chemical_formula_sum "Si O2"
_cell_formula_units_Z 64
_cell_length_a 9.229249
_cell_length_b 24.046314
_cell_length_c 15.017927
_cell_angle_alpha 90.000000
_cell_angle_beta 90.000000
_cell_angle_gamma 90.000000
_cell_volume 3332.919820
_symmetry_space_group_name_H-M "P M N A"
_symmetry_group_IT_number 53
_symmetry_cell_setting 'orthorhombic'
loop_
_space_group_symop_operation_xyz
x,y,z
1/2-x,-y,1/2+z
x,-y,-z
1/2-x,y,1/2-z
-x,-y,-z
1/2+x,y,1/2-z
-x,y,z
1/2+x,-y,1/2+z
loop_
_atom_site_type_symbol
_atom_site_label
_atom_site_fract_x
_atom_site_fract_y
_atom_site_fract_z
Si Si1 0.328856 0.542697 0.843718
Si Si2 0.670810 0.251415 0.478004
Si Si3 0.328816 0.410337 0.843443
Si Si4 0.837178 0.107161 0.665286
Si Si5 0.336417 0.759531 0.163978
Si Si6 0.171464 0.376834 0.019181
Si Si7 0.672907 0.065221 0.494121
Si Si8 0.174210 0.848430 0.845291
O O1 0.250000 0.553653 0.750000
O O2 0.500000 0.555668 0.839055
O O3 0.315112 0.476738 0.861807
O O4 0.250684 0.578784 0.918630
O O5 0.500000 0.242182 0.496980
O O6 0.755936 0.248482 0.570686
O O7 0.687431 0.314316 0.443122
O O8 0.715928 0.204292 0.407585
O O9 0.250000 0.399554 0.750000
O O10 0.500000 0.397882 0.839684
O O11 0.247362 0.379389 0.922975
O O12 0.750000 0.084606 0.750000
O O13 0.845735 0.173704 0.675221
O O14 0.754080 0.094563 0.574885
O O15 0.000000 0.084743 0.662974
O O16 0.250000 0.737600 0.250000
O O17 0.500000 0.737349 0.161543
O O18 0.000000 0.388836 0.011208
O O19 0.500000 0.072043 0.505965
O O20 0.710833 0.096221 0.402192
O O21 0.706493 0.000000 0.500000
O O22 0.250000 0.847011 0.750000
O O23 0.000000 0.846559 0.833690
#
# Coordination Sequence:
#
# PCOD9417192 Si02
#       8
#     8   8   8   8   8   8   8   8
#     4  10  21  38  60  85 115 152 195 243 295 350
#     4  10  22  40  59  82 114 154 196 242 291 341
#     4  10  21  38  60  86 117 155 196 239 294 353
#     4  10  20  34  56  85 115 148 185 229 282 340
#     4  10  20  34  57  85 111 145 187 231 283 344
#     4  11  23  37  57  86 118 152 195 243 296 351
#     4  10  21  38  61  88 118 153 193 239 292 344
#     4  10  22  41  63  84 114 153 194 241 287 340
#
# _framework density 19.202382
#
# number of rings (size 3 to 8) (size 9 to 14) (size 15 to 20)
#    0.000    1.875    1.250    2.250    0.000    7.750 
#    0.000    2.500    0.000    0.000    0.000    0.000 
#    0.000    0.000    0.000    0.000    0.000    0.000 
#
# Total GULP energy -357499.905021 kJ/mol
# GULP energy per Si atom -5585.936016 kJ/mol
# Density = 1.915868 g / cm^3
# Si number density = 19.202382 Si / 1000 Ang^3
#
#
#
# Elastic Constant Matrix: (Units=GPa)
#
#
# Indices 1 2 3 4 5 6 
#
# 1 86.0482 57.4790 62.0805 0.0000 0.0000 0.0000
# 2 57.4790 95.5831 61.2884 0.0000 0.0000 0.0000
# 3 62.0805 61.2884 142.7586 0.0000 0.0000 0.0000
# 4 0.0000 0.0000 0.0000 -6.1993 0.0000 0.0000
# 5 0.0000 0.0000 0.0000 0.0000 36.3474 0.0000
# 6 0.0000 0.0000 0.0000 0.0000 0.0000 7.4385
#
#
#
# Elastic Compliance Matrix: (Units=1/GPa)
#
#
# Indices 1 2 3 4 5 6 
#
# 1 0.022059 -0.009817 -0.005378 0.000000 0.000000 0.000000
# 2 -0.009817 0.018805 -0.003804 0.000000 0.000000 0.000000
# 3 -0.005378 -0.003804 0.010977 0.000000 0.000000 0.000000
# 4 0.000000 0.000000 0.000000 -0.161309 0.000000 0.000000
# 5 0.000000 0.000000 0.000000 0.000000 0.027512 0.000000
# 6 0.000000 0.000000 0.000000 0.000000 0.000000 0.134435
#
#
# Mechanical properties :
#
#
# Convention : Reuss Voigt Hill
#
# Bulk Modulus (GPa) = 72.24237 76.23174 74.23706
# Shear Modulus (GPa) = 52.58102 17.08680 34.83391
#
# Velocity S-wave (km/s) = 5.23851 2.98623 4.26378
# Velocity P-wave (km/s) = 8.61931 7.18856 7.93625
#
# Compressibility (1/GPa) = 0.01384229
#
# Stress axis : x y z
#
# Youngs Moduli (GPa) = 45.33316 53.17839 91.10108
#
# Poissons Ratio (x) = 0.52203 0.48996
# Poissons Ratio (y) = 0.44502 0.34657
# Poissons Ratio (z) = 0.24381 0.20230
#
# Static dielectric constant tensor:
#      x y z
#    x 1.650740 0.000000 0.000000 
#    y 0.000000 1.692550 0.000000 
#    z 0.000000 0.000000 1.628220 
# 
# From -- ./inp_files/20904.got.cif
#   From: 2010.05.17/outbox.cif.g08.bks.cpg/sg53_11_cif.got.tgz:20904.got - 2010.06.03 12:45:16.
