data_PCOD9417529
_publ_section_title
;
Structure prediction by ZEFSAII (Michael W. Deem and Ramdas Pophale) SiO2 
 PCOD9417529
Probable space group: P M N A
;
_chemical_formula_sum "Si O2"
_cell_formula_units_Z 48
_cell_length_a 8.624112
_cell_length_b 32.330675
_cell_length_c 9.522903
_cell_angle_alpha 90.000000
_cell_angle_beta 90.000000
_cell_angle_gamma 90.000000
_cell_volume 2655.207833
_symmetry_space_group_name_H-M "P M N A"
_symmetry_group_IT_number 53
_symmetry_cell_setting 'orthorhombic'
loop_
_space_group_symop_operation_xyz
x,y,z
1/2-x,-y,1/2+z
x,-y,-z
1/2-x,y,1/2-z
-x,-y,-z
1/2+x,y,1/2-z
-x,y,z
1/2+x,-y,1/2+z
loop_
_atom_site_type_symbol
_atom_site_label
_atom_site_fract_x
_atom_site_fract_y
_atom_site_fract_z
Si Si1 0.812508 0.539689 0.592300
Si Si2 0.686323 0.130759 0.091918
Si Si3 0.187059 0.617817 0.408576
Si Si4 0.684544 0.794677 0.408392
Si Si5 0.186967 0.038219 0.406763
Si Si6 0.685902 0.709244 0.090891
O O1 0.764788 0.500000 0.500000
O O2 0.750000 0.537627 0.750000
O O3 0.761059 0.581076 0.510337
O O4 0.000000 0.539943 0.598170
O O5 0.750000 0.134787 0.250000
O O6 0.500000 0.133852 0.093339
O O7 0.729836 0.084323 0.041384
O O8 0.755731 0.166598 0.996558
O O9 0.250000 0.612715 0.250000
O O10 0.228938 0.663715 0.465071
O O11 0.000000 0.616441 0.399418
O O12 0.750000 0.797667 0.250000
O O13 0.500000 0.794099 0.402519
O O14 0.743712 0.751006 0.472409
O O15 0.250000 0.034028 0.250000
O O16 0.000000 0.036797 0.402457
O O17 0.243040 0.000000 0.500000
O O18 0.750000 0.708461 0.250000
O O19 0.500000 0.712914 0.092617
#
# Coordination Sequence:
#
# PCOD9417529 Si02
#       6
#     8   8   8   8   8   8
#     4  10  21  36  53  76 105 135 170 210 252 300
#     4  10  20  36  55  76 105 139 174 212 258 310
#     4   9  18  32  52  77 103 133 169 210 254 303
#     4  11  21  34  53  78 106 137 176 218 260 305
#     4   9  19  35  54  77 104 134 169 209 253 303
#     4   9  16  29  49  73 102 133 168 211 257 302
#
# _framework density 18.077680000000001
#
# number of rings (size 3 to 8) (size 9 to 14) (size 15 to 20)
#    0.000    2.333    0.000    4.000    0.000    3.333 
#    0.000    2.500    0.000    2.000    0.000    0.000 
#    0.000    0.000    0.000    0.000    0.000    0.000 
#
# Total GULP energy -267679.674937 kJ/mol
# GULP energy per Si atom -5576.659895 kJ/mol
# Density = 1.803653 g / cm^3
# Si number density = 18.077680 Si / 1000 Ang^3
#
#
#
# Elastic Constant Matrix: (Units=GPa)
#
#
# Indices 1 2 3 4 5 6 
#
# 1 59.8033 57.8675 25.8526 0.0000 0.0000 0.0000
# 2 57.8675 228.3514 93.4362 0.0000 0.0000 0.0000
# 3 25.8526 93.4362 80.3238 0.0000 0.0000 0.0000
# 4 0.0000 0.0000 0.0000 29.9776 0.0000 0.0000
# 5 0.0000 0.0000 0.0000 0.0000 27.8972 0.0000
# 6 0.0000 0.0000 0.0000 0.0000 0.0000 -64.5551
#
#
#
# Elastic Compliance Matrix: (Units=1/GPa)
#
#
# Indices 1 2 3 4 5 6 
#
# 1 0.022209 -0.005159 -0.001147 0.000000 0.000000 0.000000
# 2 -0.005159 0.009555 -0.009455 0.000000 0.000000 0.000000
# 3 -0.001147 -0.009455 0.023817 0.000000 0.000000 0.000000
# 4 0.000000 0.000000 0.000000 0.033358 0.000000 0.000000
# 5 0.000000 0.000000 0.000000 0.000000 0.035846 0.000000
# 6 0.000000 0.000000 0.000000 0.000000 0.000000 -0.015491
#
#
# Mechanical properties :
#
#
# Convention : Reuss Voigt Hill
#
# Bulk Modulus (GPa) = 41.56285 80.31012 60.93648
# Shear Modulus (GPa) = 33.59411 11.41876 22.50644
#
# Velocity S-wave (km/s) = 4.31550 2.51599 3.53226
# Velocity P-wave (km/s) = 6.91900 7.27748 7.10050
#
# Compressibility (1/GPa) = 0.02405995
#
# Stress axis : x y z
#
# Youngs Moduli (GPa) = 45.02653 104.65642 41.98705
#
# Poissons Ratio (x) = 0.53988 0.04817
# Poissons Ratio (y) = 0.23228 0.39697
# Poissons Ratio (z) = 0.05166 0.98948
#
# Static dielectric constant tensor:
#      x y z
#    x 1.605870 0.000000 0.000000 
#    y 0.000000 1.668680 0.000000 
#    z 0.000000 0.000000 1.558200 
# 
# From -- ./inp_files/6629.got.cif
#   From: 2010.05.17/outbox.cif.g08.bks.cpg/sg53_4_cif.got.tgz:6629.got - 2010.06.03 12:45:16.
