data_PCOD9417568
_publ_section_title
;
Structure prediction by ZEFSAII (Michael W. Deem and Ramdas Pophale) SiO2 
 PCOD9417568
Probable space group: P M N A
;
_chemical_formula_sum "Si O2"
_cell_formula_units_Z 64
_cell_length_a 8.235321
_cell_length_b 13.087975
_cell_length_c 29.477459
_cell_angle_alpha 90.000000
_cell_angle_beta 90.000000
_cell_angle_gamma 90.000000
_cell_volume 3177.188871
_symmetry_space_group_name_H-M "P M N A"
_symmetry_group_IT_number 53
_symmetry_cell_setting 'orthorhombic'
loop_
_space_group_symop_operation_xyz
x,y,z
1/2-x,-y,1/2+z
x,-y,-z
1/2-x,y,1/2-z
-x,-y,-z
1/2+x,y,1/2-z
-x,y,z
1/2+x,-y,1/2+z
loop_
_atom_site_type_symbol
_atom_site_label
_atom_site_fract_x
_atom_site_fract_y
_atom_site_fract_z
Si Si1 0.306907 0.366574 0.110163
Si Si2 0.304047 0.968056 0.106300
Si Si3 0.305822 0.900366 0.301776
Si Si4 0.198349 0.830355 0.553603
Si Si5 0.192506 0.452602 0.952587
Si Si6 0.304429 0.324555 0.697820
Si Si7 0.195521 0.777407 0.451700
Si Si8 0.805293 0.548020 0.801890
O O1 0.500000 0.373117 0.104955
O O2 0.250369 0.264478 0.084819
O O3 0.230313 0.464396 0.085565
O O4 0.262369 0.370515 0.162937
O O5 0.500000 0.967408 0.105267
O O6 0.251832 0.974947 0.158636
O O7 0.244176 0.862248 0.083740
O O8 0.248498 0.063215 0.075696
O O9 0.250000 0.919550 0.250000
O O10 0.500000 0.898462 0.300959
O O11 0.244450 0.786665 0.317233
O O12 0.251792 0.809730 0.502158
O O13 0.000000 0.832073 0.552865
O O14 0.257951 0.339610 0.942627
O O15 0.000000 0.441808 0.957153
O O16 0.258433 0.500000 0.000000
O O17 0.250000 0.327018 0.750000
O O18 0.500000 0.323969 0.694069
O O19 0.247995 0.435007 0.680644
O O20 0.000000 0.782068 0.451628
O O21 0.750000 0.561332 0.750000
O O22 0.000000 0.549203 0.802792
#
# Coordination Sequence:
#
# PCOD9417568 Si02
#       8
#     8   8   8   8   8   8   8   8
#     4  11  22  37  60  86 116 156 199 242 289 346
#     4  10  21  37  60  89 115 149 195 241 292 346
#     4  10  20  36  56  81 114 151 190 237 289 343
#     4   9  19  38  61  84 115 152 195 244 290 341
#     4  11  23  38  57  85 121 157 191 235 290 348
#     4   8  16  30  49  72 103 141 176 219 275 331
#     4  10  20  37  62  89 117 152 194 240 289 349
#     4  10  20  36  56  83 117 155 196 242 292 347
#
# _framework density 20.143592999999999
#
# number of rings (size 3 to 8) (size 9 to 14) (size 15 to 20)
#    0.000    2.125    1.250    1.875    1.750    3.500 
#    0.000    2.500    0.000    1.500    0.000    0.000 
#    0.000    0.000    0.000    0.000    0.000    0.000 
#
# Total GULP energy -357090.302371 kJ/mol
# GULP energy per Si atom -5579.535975 kJ/mol
# Density = 2.009774 g / cm^3
# Si number density = 20.143593 Si / 1000 Ang^3
#
#
#
# Elastic Constant Matrix: (Units=GPa)
#
#
# Indices 1 2 3 4 5 6 
#
# 1 9.9240 10.2571 0.2981 0.0000 0.0000 0.0000
# 2 10.2571 111.6520 55.3405 0.0000 0.0000 0.0000
# 3 0.2981 55.3405 100.9999 0.0000 0.0000 0.0000
# 4 0.0000 0.0000 0.0000 15.9753 0.0000 0.0000
# 5 0.0000 0.0000 0.0000 0.0000 25.7189 0.0000
# 6 0.0000 0.0000 0.0000 0.0000 0.0000 -2.6801
#
#
#
# Elastic Compliance Matrix: (Units=1/GPa)
#
#
# Indices 1 2 3 4 5 6 
#
# 1 0.115334 -0.014314 0.007503 0.000000 0.000000 0.000000
# 2 -0.014314 0.014072 -0.007668 0.000000 0.000000 0.000000
# 3 0.007503 -0.007668 0.014080 0.000000 0.000000 0.000000
# 4 0.000000 0.000000 0.000000 0.062597 0.000000 0.000000
# 5 0.000000 0.000000 0.000000 0.000000 0.038882 0.000000
# 6 0.000000 0.000000 0.000000 0.000000 0.000000 -0.373125
#
#
# Mechanical properties :
#
#
# Convention : Reuss Voigt Hill
#
# Bulk Modulus (GPa) = 8.73151 39.37414 24.05283
# Shear Modulus (GPa) = -81.93577 18.24816 -31.84380
#
# Velocity S-wave (km/s) = -6.38468 3.01309 -3.98029
# Velocity P-wave (km/s) = 7.07164 5.62975 3.02606
#
# Compressibility (1/GPa) = 0.11452768
#
# Stress axis : x y z
#
# Youngs Moduli (GPa) = 8.67043 71.06221 71.02021
#
# Poissons Ratio (x) = 1.01719 -0.53284
# Poissons Ratio (y) = 0.12411 0.54460
# Poissons Ratio (z) = -0.06505 0.54492
#
# Static dielectric constant tensor:
#      x y z
#    x 1.710780 0.000000 0.000000 
#    y 0.000000 1.727390 0.000000 
#    z 0.000000 0.000000 1.700350 
# 
# From -- ./inp_files/38265.got.cif
#   From: 2010.05.17/outbox.cif.g08.bks.cpg/sg53_20_cif.got.tgz:38265.got - 2010.06.03 12:45:16.
