data_PCOD9417324
_publ_section_title
;
Structure prediction by ZEFSAII (Michael W. Deem and Ramdas Pophale) SiO2 
 PCOD9417324
Probable space group: P M N A
;
_chemical_formula_sum "Si O2"
_cell_formula_units_Z 48
_cell_length_a 8.834762
_cell_length_b 31.358277
_cell_length_c 9.580720
_cell_angle_alpha 90.000000
_cell_angle_beta 90.000000
_cell_angle_gamma 90.000000
_cell_volume 2654.270587
_symmetry_space_group_name_H-M "P M N A"
_symmetry_group_IT_number 53
_symmetry_cell_setting 'orthorhombic'
loop_
_space_group_symop_operation_xyz
x,y,z
1/2-x,-y,1/2+z
x,-y,-z
1/2-x,y,1/2-z
-x,-y,-z
1/2+x,y,1/2-z
-x,y,z
1/2+x,-y,1/2+z
loop_
_atom_site_type_symbol
_atom_site_label
_atom_site_fract_x
_atom_site_fract_y
_atom_site_fract_z
Si Si1 0.818768 0.614104 0.904558
Si Si2 0.680607 0.287713 0.402759
Si Si3 0.682753 0.040344 0.095654
Si Si4 0.182145 0.881110 0.403934
Si Si5 0.681290 0.784515 0.096566
Si Si6 0.318711 0.541088 0.095657
O O1 0.750000 0.606640 0.750000
O O2 0.785878 0.663289 0.944816
O O3 0.000000 0.608698 0.897516
O O4 0.748353 0.581824 0.015351
O O5 0.750000 0.282094 0.250000
O O6 0.500000 0.283007 0.398187
O O7 0.751532 0.252317 0.501412
O O8 0.750000 0.037627 0.250000
O O9 0.500000 0.040548 0.106240
O O10 0.731018 0.083167 0.013990
O O11 0.726359 0.000000 0.000000
O O12 0.250000 0.888581 0.250000
O O13 0.221290 0.832865 0.449727
O O14 0.000000 0.883449 0.391645
O O15 0.750000 0.779719 0.250000
O O16 0.500000 0.781295 0.101092
O O17 0.250000 0.536711 0.250000
O O18 0.500000 0.544683 0.105994
O O19 0.282852 0.500000 0.000000
#
# Coordination Sequence:
#
# PCOD9417324 Si02
#       6
#     8   8   8   8   8   8
#     4  10  21  38  60  84 112 146 184 227 274 325
#     4  10  21  37  57  82 111 145 184 226 274 325
#     4  10  21  36  54  78 107 138 175 218 264 317
#     4   9  19  35  54  78 106 138 178 221 266 318
#     4  10  20  35  55  79 109 144 182 225 272 323
#     4  11  24  40  60  86 115 148 185 226 272 323
#
# _framework density 18.084064999999999
#
# number of rings (size 3 to 8) (size 9 to 14) (size 15 to 20)
#    0.000    2.000    0.000    3.000    0.000    7.667 
#    0.000    1.667    0.000    0.000    0.000    0.000 
#    0.000    0.000    0.000    0.000    0.000    0.000 
#
# Total GULP energy -268071.335217 kJ/mol
# GULP energy per Si atom -5584.819484 kJ/mol
# Density = 1.804290 g / cm^3
# Si number density = 18.084065 Si / 1000 Ang^3
#
#
#
# Elastic Constant Matrix: (Units=GPa)
#
#
# Indices 1 2 3 4 5 6 
#
# 1 58.6074 79.1536 63.3019 0.0000 0.0000 0.0000
# 2 79.1536 185.7504 134.3841 0.0000 0.0000 0.0000
# 3 63.3019 134.3841 152.0060 0.0000 0.0000 0.0000
# 4 0.0000 0.0000 0.0000 42.4587 0.0000 0.0000
# 5 0.0000 0.0000 0.0000 0.0000 39.3384 0.0000
# 6 0.0000 0.0000 0.0000 0.0000 0.0000 111.9604
#
#
#
# Elastic Compliance Matrix: (Units=1/GPa)
#
#
# Indices 1 2 3 4 5 6 
#
# 1 0.041301 -0.014307 -0.004551 0.000000 0.000000 0.000000
# 2 -0.014307 0.019893 -0.011629 0.000000 0.000000 0.000000
# 3 -0.004551 -0.011629 0.018755 0.000000 0.000000 0.000000
# 4 0.000000 0.000000 0.000000 0.023552 0.000000 0.000000
# 5 0.000000 0.000000 0.000000 0.000000 0.025420 0.000000
# 6 0.000000 0.000000 0.000000 0.000000 0.000000 0.008932
#
#
# Mechanical properties :
#
#
# Convention : Reuss Voigt Hill
#
# Bulk Modulus (GPa) = 52.70139 105.56032 79.13086
# Shear Modulus (GPa) = 24.37199 46.71979 35.54589
#
# Velocity S-wave (km/s) = 3.67509 5.08831 4.43831
# Velocity P-wave (km/s) = 6.87125 9.64468 8.37359
#
# Compressibility (1/GPa) = 0.01897483
#
# Stress axis : x y z
#
# Youngs Moduli (GPa) = 24.21256 50.26769 53.31879
#
# Poissons Ratio (x) = 0.71917 0.24267
# Poissons Ratio (y) = 0.34640 0.62006
# Poissons Ratio (z) = 0.11020 0.58458
#
# Static dielectric constant tensor:
#      x y z
#    x 1.613750 0.000000 0.000000 
#    y 0.000000 1.629060 0.000000 
#    z 0.000000 0.000000 1.564720 
# 
# From -- ./inp_files/6590.got.cif
#   From: 2010.05.17/outbox.cif.g08.bks.cpg/sg53_4_cif.got.tgz:6590.got - 2010.06.03 12:45:16.
