data_PCOD9417648
_publ_section_title
;
Structure prediction by ZEFSAII (Michael W. Deem and Ramdas Pophale) SiO2 
 PCOD9417648
Probable space group: P M N A
;
_chemical_formula_sum "Si O2"
_cell_formula_units_Z 48
_cell_length_a 10.141587
_cell_length_b 29.972783
_cell_length_c 9.087970
_cell_angle_alpha 90.000000
_cell_angle_beta 90.000000
_cell_angle_gamma 90.000000
_cell_volume 2762.484658
_symmetry_space_group_name_H-M "P M N A"
_symmetry_group_IT_number 53
_symmetry_cell_setting 'orthorhombic'
loop_
_space_group_symop_operation_xyz
x,y,z
1/2-x,-y,1/2+z
x,-y,-z
1/2-x,y,1/2-z
-x,-y,-z
1/2+x,y,1/2-z
-x,y,z
1/2+x,-y,1/2+z
loop_
_atom_site_type_symbol
_atom_site_label
_atom_site_fract_x
_atom_site_fract_y
_atom_site_fract_z
Si Si1 0.654937 0.641042 0.109772
Si Si2 0.652398 0.460892 0.884562
Si Si3 0.500000 0.953669 0.917649
Si Si4 0.657797 0.804849 0.107023
Si Si5 0.254199 0.108648 0.073616
Si Si6 0.846115 0.720740 0.611733
Si Si7 0.500000 0.950521 0.567543
O O1 0.750000 0.647902 0.250000
O O2 0.500000 0.647096 0.151445
O O3 0.671031 0.589739 0.058077
O O4 0.683850 0.676143 0.981511
O O5 0.750000 0.466513 0.750000
O O6 0.500000 0.464053 0.836170
O O7 0.675848 0.500000 0.000000
O O8 0.373300 0.924868 0.955755
O O9 0.500000 0.959153 0.742279
O O10 0.500000 0.000000 0.000000
O O11 0.750000 0.798560 0.250000
O O12 0.500000 0.811194 0.140236
O O13 0.715995 0.847028 0.017781
O O14 0.667577 0.762052 0.000556
O O15 0.250000 0.118522 0.250000
O O16 0.124703 0.080712 0.031885
O O17 0.750000 0.725444 0.750000
O O18 0.000000 0.719099 0.658735
O O19 0.500000 0.000000 0.500000
#
# Coordination Sequence:
#
# PCOD9417648 Si02
#       7
#     8   8   4   8   8   8   4
#     4   9  18  34  55  78 109 146 186 233 280 330
#     4   9  18  32  50  75 108 146 187 233 283 331
#     4  10  20  36  58  80 114 150 178 224 269 310
#     4  11  24  40  59  85 113 143 181 227 273 324
#     4  10  21  39  59  82 113 148 182 222 271 320
#     4  10  22  39  58  83 113 145 182 225 276 331
#     4  10  22  36  58  88 112 144 188 222 265 322
#
# _framework density 17.375664
#
# number of rings (size 3 to 8) (size 9 to 14) (size 15 to 20)
#    0.000    2.167    0.833    1.500    1.167    3.667 
#    0.000    0.000    0.000    0.000    0.000    0.000 
#    0.000    0.000    0.000    0.000    0.000    0.000 
#
# Total GULP energy -267719.174420 kJ/mol
# GULP energy per Si atom -5577.482800 kJ/mol
# Density = 1.733612 g / cm^3
# Si number density = 17.375664 Si / 1000 Ang^3
#
#
#
# Elastic Constant Matrix: (Units=GPa)
#
#
# Indices 1 2 3 4 5 6 
#
# 1 136.3731 87.1756 77.3652 0.0000 0.0000 0.0000
# 2 87.1756 138.0796 78.7225 0.0000 0.0000 0.0000
# 3 77.3652 78.7225 86.2697 0.0000 0.0000 0.0000
# 4 0.0000 0.0000 0.0000 91.5222 0.0000 0.0000
# 5 0.0000 0.0000 0.0000 0.0000 48.6021 0.0000
# 6 0.0000 0.0000 0.0000 0.0000 0.0000 33.4764
#
#
#
# Elastic Compliance Matrix: (Units=1/GPa)
#
#
# Indices 1 2 3 4 5 6 
#
# 1 0.015912 -0.003982 -0.010636 0.000000 0.000000 0.000000
# 2 -0.003982 0.016092 -0.011113 0.000000 0.000000 0.000000
# 3 -0.010636 -0.011113 0.031271 0.000000 0.000000 0.000000
# 4 0.000000 0.000000 0.000000 0.010926 0.000000 0.000000
# 5 0.000000 0.000000 0.000000 0.000000 0.020575 0.000000
# 6 0.000000 0.000000 0.000000 0.000000 0.000000 0.029872
#
#
# Mechanical properties :
#
#
# Convention : Reuss Voigt Hill
#
# Bulk Modulus (GPa) = 84.65738 94.13879 89.39809
# Shear Modulus (GPa) = 27.77019 42.55076 35.16047
#
# Velocity S-wave (km/s) = 4.00212 4.95398 4.50327
# Velocity P-wave (km/s) = 8.37756 9.32838 8.86572
#
# Compressibility (1/GPa) = 0.01181232
#
# Stress axis : x y z
#
# Youngs Moduli (GPa) = 62.84422 62.14147 31.97883
#
# Poissons Ratio (x) = 0.24747 0.34013
# Poissons Ratio (y) = 0.25027 0.35539
# Poissons Ratio (z) = 0.66841 0.69059
#
# Static dielectric constant tensor:
#      x y z
#    x 1.571120 0.000000 0.000000 
#    y 0.000000 1.583900 0.000000 
#    z 0.000000 0.000000 1.559330 
# 
# From -- ./inp_files/6787.got.cif
#   From: 2010.05.17/outbox.cif.g08.bks.cpg/sg53_4_cif.got.tgz:6787.got - 2010.06.03 12:45:16.
