data_PCOD9417738
_publ_section_title
;
Structure prediction by ZEFSAII (Michael W. Deem and Ramdas Pophale) SiO2 
 PCOD9417738
Probable space group: P M N A
;
_chemical_formula_sum "Si O2"
_cell_formula_units_Z 48
_cell_length_a 8.706523
_cell_length_b 31.887609
_cell_length_c 9.186323
_cell_angle_alpha 90.000000
_cell_angle_beta 90.000000
_cell_angle_gamma 90.000000
_cell_volume 2550.400703
_symmetry_space_group_name_H-M "P M N A"
_symmetry_group_IT_number 53
_symmetry_cell_setting 'orthorhombic'
loop_
_space_group_symop_operation_xyz
x,y,z
1/2-x,-y,1/2+z
x,-y,-z
1/2-x,y,1/2-z
-x,-y,-z
1/2+x,y,1/2-z
-x,y,z
1/2+x,-y,1/2+z
loop_
_atom_site_type_symbol
_atom_site_label
_atom_site_fract_x
_atom_site_fract_y
_atom_site_fract_z
Si Si1 0.316150 0.957451 0.088050
Si Si2 0.183297 0.620988 0.085845
Si Si3 0.684090 0.457644 0.088217
Si Si4 0.316528 0.121186 0.412045
Si Si5 0.816293 0.707102 0.413854
Si Si6 0.315618 0.199530 0.914231
O O1 0.250000 0.960393 0.250000
O O2 0.500000 0.952221 0.093805
O O3 0.243167 0.918015 0.005822
O O4 0.281829 0.000000 0.000000
O O5 0.250000 0.617510 0.250000
O O6 0.241433 0.665415 0.020598
O O7 0.000000 0.620934 0.093307
O O8 0.244299 0.582211 0.993080
O O9 0.750000 0.460746 0.250000
O O10 0.500000 0.453255 0.092663
O O11 0.721384 0.500000 0.000000
O O12 0.250000 0.118014 0.250000
O O13 0.500000 0.121013 0.407656
O O14 0.256798 0.163543 0.487845
O O15 0.750000 0.708478 0.250000
O O16 0.781506 0.753483 0.473750
O O17 0.000000 0.701946 0.409139
O O18 0.250000 0.196242 0.750000
O O19 0.500000 0.194914 0.908030
#
# Coordination Sequence:
#
# PCOD9417738 Si02
#       6
#     8   8   8   8   8   8
#     4  11  24  42  65  92 122 156 195 239 288 343
#     4  11  21  35  58  86 118 153 191 236 285 340
#     4  11  24  41  61  85 114 148 188 234 284 340
#     4  12  25  41  61  85 118 156 196 243 293 347
#     4   9  17  31  54  83 115 150 191 237 284 338
#     4  10  20  36  59  87 118 153 195 241 288 340
#
# _framework density 18.820571999999999
#
# number of rings (size 3 to 8) (size 9 to 14) (size 15 to 20)
#    0.000    1.333    0.000    7.500    0.000    7.333 
#    0.000    0.833    0.000    4.000    0.000    0.000 
#    0.000    0.000    0.000    0.000    0.000    0.000 
#
# Total GULP energy -268309.090592 kJ/mol
# GULP energy per Si atom -5589.772721 kJ/mol
# Density = 1.877774 g / cm^3
# Si number density = 18.820572 Si / 1000 Ang^3
#
#
#
# Elastic Constant Matrix: (Units=GPa)
#
#
# Indices 1 2 3 4 5 6 
#
# 1 138.0906 112.8979 69.1134 0.0000 0.0000 0.0000
# 2 112.8979 214.7956 99.7035 0.0000 0.0000 0.0000
# 3 69.1134 99.7035 132.3730 0.0000 0.0000 0.0000
# 4 0.0000 0.0000 0.0000 35.9396 0.0000 0.0000
# 5 0.0000 0.0000 0.0000 0.0000 31.2541 0.0000
# 6 0.0000 0.0000 0.0000 0.0000 0.0000 36.5365
#
#
#
# Elastic Compliance Matrix: (Units=1/GPa)
#
#
# Indices 1 2 3 4 5 6 
#
# 1 0.013244 -0.005768 -0.002570 0.000000 0.000000 0.000000
# 2 -0.005768 0.009670 -0.004272 0.000000 0.000000 0.000000
# 3 -0.002570 -0.004272 0.012114 0.000000 0.000000 0.000000
# 4 0.000000 0.000000 0.000000 0.027824 0.000000 0.000000
# 5 0.000000 0.000000 0.000000 0.000000 0.031996 0.000000
# 6 0.000000 0.000000 0.000000 0.000000 0.000000 0.027370
#
#
# Mechanical properties :
#
#
# Convention : Reuss Voigt Hill
#
# Bulk Modulus (GPa) = 101.96356 116.52098 109.24227
# Shear Modulus (GPa) = 33.17673 34.31567 33.74620
#
# Velocity S-wave (km/s) = 4.20311 4.27465 4.23903
# Velocity P-wave (km/s) = 8.82322 9.29567 9.06252
#
# Compressibility (1/GPa) = 0.00980743
#
# Stress axis : x y z
#
# Youngs Moduli (GPa) = 75.50799 103.40966 82.54775
#
# Poissons Ratio (x) = 0.59645 0.21217
# Poissons Ratio (y) = 0.43552 0.35266
# Poissons Ratio (z) = 0.19408 0.44179
#
# Static dielectric constant tensor:
#      x y z
#    x 1.625240 0.000000 0.000000 
#    y 0.000000 1.666300 0.000000 
#    z 0.000000 0.000000 1.610260 
# 
# From -- ./inp_files/6671.got.cif
#   From: 2010.05.17/outbox.cif.g08.bks.cpg/sg53_4_cif.got.tgz:6671.got - 2010.06.03 12:45:16.
