data_PCOD9417773
_publ_section_title
;
Structure prediction by ZEFSAII (Michael W. Deem and Ramdas Pophale) SiO2 
 PCOD9417773
Probable space group: P M N A
;
_chemical_formula_sum "Si O2"
_cell_formula_units_Z 36
_cell_length_a 18.192167
_cell_length_b 17.223332
_cell_length_c 5.306591
_cell_angle_alpha 90.000000
_cell_angle_beta 90.000000
_cell_angle_gamma 90.000000
_cell_volume 1662.712736
_symmetry_space_group_name_H-M "P M N A"
_symmetry_group_IT_number 53
_symmetry_cell_setting 'orthorhombic'
loop_
_space_group_symop_operation_xyz
x,y,z
1/2-x,-y,1/2+z
x,-y,-z
1/2-x,y,1/2-z
-x,-y,-z
1/2+x,y,1/2-z
-x,y,z
1/2+x,-y,1/2+z
loop_
_atom_site_type_symbol
_atom_site_label
_atom_site_fract_x
_atom_site_fract_y
_atom_site_fract_z
Si Si1 0.414536 0.876977 0.400366
Si Si2 0.666391 0.283060 0.639425
Si Si3 0.160232 0.454454 0.750044
Si Si4 0.336175 0.921879 0.921745
Si Si5 0.250000 0.783528 0.750000
O O1 0.500000 0.878560 0.460178
O O2 0.386875 0.790022 0.332027
O O3 0.370749 0.910479 0.643414
O O4 0.396672 0.921534 0.142379
O O5 0.750000 0.277960 0.750000
O O6 0.636025 0.365021 0.727981
O O7 0.686178 0.273221 0.343220
O O8 0.137055 0.500000 0.500000
O O9 0.250000 0.452650 0.750000
O O10 0.137211 0.500000 0.000000
O O11 0.283851 0.846532 0.943770
O O12 0.293273 0.000000 0.000000
#
# Coordination Sequence:
#
# PCOD9417773 Si02
#       5
#     8   8   8   8   4
#     4  11  24  41  61  88 118 159 204 244 298 360
#     4  10  20  36  61  83 118 155 193 246 293 354
#     4   9  19  30  50  82 115 146 182 232 290 345
#     4  11  24  40  61  87 120 158 199 252 304 356
#     4  10  22  36  60  90 120 154 206 250 308 356
#
# _framework density 21.651364000000001
#
# number of rings (size 3 to 8) (size 9 to 14) (size 15 to 20)
#    0.000    1.778    2.222    1.333    7.778    6.222 
#    0.000    0.000    0.000    1.333    0.000    0.000 
#    0.000    0.000    0.000    0.000    0.000    0.000 
#
# Total GULP energy -200539.379835 kJ/mol
# GULP energy per Si atom -5570.538329 kJ/mol
# Density = 2.160208 g / cm^3
# Si number density = 21.651364 Si / 1000 Ang^3
#
#
#
# Elastic Constant Matrix: (Units=GPa)
#
#
# Indices 1 2 3 4 5 6 
#
# 1 55.2126 10.5442 26.2816 0.0000 0.0000 0.0000
# 2 10.5442 159.3568 83.9799 0.0000 0.0000 0.0000
# 3 26.2816 83.9799 141.3617 0.0000 0.0000 0.0000
# 4 0.0000 0.0000 0.0000 27.3162 0.0000 0.0000
# 5 0.0000 0.0000 0.0000 0.0000 23.4218 0.0000
# 6 0.0000 0.0000 0.0000 0.0000 0.0000 -1.3560
#
#
#
# Elastic Compliance Matrix: (Units=1/GPa)
#
#
# Indices 1 2 3 4 5 6 
#
# 1 0.019963 0.000924 -0.004261 0.000000 0.000000 0.000000
# 2 0.000924 0.009178 -0.005624 0.000000 0.000000 0.000000
# 3 -0.004261 -0.005624 0.011208 0.000000 0.000000 0.000000
# 4 0.000000 0.000000 0.000000 0.036608 0.000000 0.000000
# 5 0.000000 0.000000 0.000000 0.000000 0.042695 0.000000
# 6 0.000000 0.000000 0.000000 0.000000 0.000000 -0.737485
#
#
# Mechanical properties :
#
#
# Convention : Reuss Voigt Hill
#
# Bulk Modulus (GPa) = 44.58774 66.39363 55.49069
# Shear Modulus (GPa) = -8.43974 25.55143 8.55585
#
# Velocity S-wave (km/s) = -1.97648 3.43903 1.99003
# Velocity P-wave (km/s) = 3.92805 6.81914 5.56463
#
# Compressibility (1/GPa) = 0.02242769
#
# Stress axis : x y z
#
# Youngs Moduli (GPa) = 50.09161 108.95558 89.22589
#
# Poissons Ratio (x) = -0.10073 0.38017
# Poissons Ratio (y) = -0.04631 0.50184
# Poissons Ratio (z) = 0.21343 0.61281
#
# Static dielectric constant tensor:
#      x y z
#    x 1.769360 0.000000 0.000000 
#    y 0.000000 1.823210 0.000000 
#    z 0.000000 0.000000 2.103210 
# 
# From -- ./inp_files/2770.got.cif
#   From: 2010.05.17/outbox.cif.g08.bks.cpg/sg53_2_cif.got.tgz:2770.got - 2010.06.03 12:45:16.
