data_PCOD9417166
_publ_section_title
;
Structure prediction by ZEFSAII (Michael W. Deem and Ramdas Pophale) SiO2 
 PCOD9417166
Probable space group: P M N A
;
_chemical_formula_sum "Si O2"
_cell_formula_units_Z 56
_cell_length_a 9.051051
_cell_length_b 20.955152
_cell_length_c 15.446304
_cell_angle_alpha 90.000000
_cell_angle_beta 90.000000
_cell_angle_gamma 90.000000
_cell_volume 2929.641003
_symmetry_space_group_name_H-M "P M N A"
_symmetry_group_IT_number 53
_symmetry_cell_setting 'orthorhombic'
loop_
_space_group_symop_operation_xyz
x,y,z
1/2-x,-y,1/2+z
x,-y,-z
1/2-x,y,1/2-z
-x,-y,-z
1/2+x,y,1/2-z
-x,y,z
1/2+x,-y,1/2+z
loop_
_atom_site_type_symbol
_atom_site_label
_atom_site_fract_x
_atom_site_fract_y
_atom_site_fract_z
Si Si1 0.173436 0.493164 0.603110
Si Si2 0.175009 0.619124 0.836672
Si Si3 0.175992 0.848550 0.524820
Si Si4 0.177091 0.347516 0.657848
Si Si5 0.822741 0.714628 0.992128
Si Si6 0.168803 0.030184 0.096572
Si Si7 0.674954 0.092702 0.834848
O O1 0.195549 0.500000 0.500000
O O2 0.269191 0.547299 0.648213
O O3 0.208238 0.421748 0.633971
O O4 0.000000 0.505192 0.621048
O O5 0.250000 0.644919 0.750000
O O6 0.213831 0.661033 0.920561
O O7 0.000000 0.619826 0.826544
O O8 0.257424 0.781930 0.538042
O O9 0.244482 0.903793 0.584933
O O10 0.201335 0.869504 0.424365
O O11 0.000000 0.843818 0.537589
O O12 0.250000 0.333108 0.750000
O O13 0.247428 0.305269 0.582110
O O14 0.000000 0.339124 0.660378
O O15 0.000000 0.717840 0.001477
O O16 0.000000 0.039119 0.126334
O O17 0.254372 0.977243 0.151521
O O18 0.163083 0.000000 0.000000
O O19 0.750000 0.122405 0.750000
O O20 0.500000 0.087863 0.822252
#
# Coordination Sequence:
#
# PCOD9417166 Si02
#       7
#     8   8   8   8   8   8   8
#     4  10  20  37  62  90 118 151 191 241 299 357
#     4  11  24  40  62  88 116 152 195 246 301 357
#     4  10  21  37  58  82 112 152 193 235 286 343
#     4  11  23  39  60  86 119 156 196 242 297 356
#     4  11  24  41  60  85 117 156 202 248 296 354
#     4   9  17  32  55  81 109 142 180 224 272 324
#     4  10  20  34  55  85 117 148 186 231 282 338
#
# _framework density 19.114968999999999
#
# number of rings (size 3 to 8) (size 9 to 14) (size 15 to 20)
#    0.000    1.714    1.429    3.000    0.000    8.286 
#    0.000    2.143    0.000    1.714    0.000    0.000 
#    0.000    0.000    0.000    0.000    0.000    0.000 
#
# Total GULP energy -312940.312228 kJ/mol
# GULP energy per Si atom -5588.219861 kJ/mol
# Density = 1.907146 g / cm^3
# Si number density = 19.114969 Si / 1000 Ang^3
#
#
#
# Elastic Constant Matrix: (Units=GPa)
#
#
# Indices 1 2 3 4 5 6 
#
# 1 57.4075 20.6351 13.9843 0.0000 0.0000 0.0000
# 2 20.6351 66.2824 -11.3749 0.0000 0.0000 0.0000
# 3 13.9843 -11.3749 43.2854 0.0000 0.0000 0.0000
# 4 0.0000 0.0000 0.0000 8.7739 0.0000 0.0000
# 5 0.0000 0.0000 0.0000 0.0000 25.2190 0.0000
# 6 0.0000 0.0000 0.0000 0.0000 0.0000 30.9680
#
#
#
# Elastic Compliance Matrix: (Units=1/GPa)
#
#
# Indices 1 2 3 4 5 6 
#
# 1 0.022961 -0.008819 -0.009736 0.000000 0.000000 0.000000
# 2 -0.008819 0.019187 0.007891 0.000000 0.000000 0.000000
# 3 -0.009736 0.007891 0.028321 0.000000 0.000000 0.000000
# 4 0.000000 0.000000 0.000000 0.113974 0.000000 0.000000
# 5 0.000000 0.000000 0.000000 0.000000 0.039653 0.000000
# 6 0.000000 0.000000 0.000000 0.000000 0.000000 0.032291
#
#
# Mechanical properties :
#
#
# Convention : Reuss Voigt Hill
#
# Bulk Modulus (GPa) = 20.34898 23.71827 22.03363
# Shear Modulus (GPa) = 17.00133 22.57423 19.78778
#
# Velocity S-wave (km/s) = 2.98556 3.44025 3.22094
# Velocity P-wave (km/s) = 4.74905 5.31184 5.03831
#
# Compressibility (1/GPa) = 0.04914250
#
# Stress axis : x y z
#
# Youngs Moduli (GPa) = 43.55243 52.11939 35.30889
#
# Poissons Ratio (x) = 0.45964 0.34375
# Poissons Ratio (y) = 0.38409 -0.27863
# Poissons Ratio (z) = 0.42401 -0.41128
#
# Static dielectric constant tensor:
#      x y z
#    x 1.634750 0.000000 0.000000 
#    y 0.000000 1.641830 0.000000 
#    z 0.000000 0.000000 1.669910 
# 
# From -- ./inp_files/20483.got.cif
#   From: 2010.05.17/outbox.cif.g08.bks.cpg/sg53_11_cif.got.tgz:20483.got - 2010.06.03 12:45:16.
