data_PCOD9417459
_publ_section_title
;
Structure prediction by ZEFSAII (Michael W. Deem and Ramdas Pophale) SiO2 
 PCOD9417459
Probable space group: P M N A
;
_chemical_formula_sum "Si O2"
_cell_formula_units_Z 48
_cell_length_a 16.284342
_cell_length_b 9.267796
_cell_length_c 15.873341
_cell_angle_alpha 90.000000
_cell_angle_beta 90.000000
_cell_angle_gamma 90.000000
_cell_volume 2395.603983
_symmetry_space_group_name_H-M "P M N A"
_symmetry_group_IT_number 53
_symmetry_cell_setting 'orthorhombic'
loop_
_space_group_symop_operation_xyz
x,y,z
1/2-x,-y,1/2+z
x,-y,-z
1/2-x,y,1/2-z
-x,-y,-z
1/2+x,y,1/2-z
-x,y,z
1/2+x,-y,1/2+z
loop_
_atom_site_type_symbol
_atom_site_label
_atom_site_fract_x
_atom_site_fract_y
_atom_site_fract_z
Si Si1 0.096639 0.068916 0.584226
Si Si2 0.370306 0.592951 0.081984
Si Si3 0.796001 0.335961 0.838452
Si Si4 0.901220 0.071181 0.909376
Si Si5 0.400319 0.892979 0.755535
Si Si6 0.906890 0.568081 0.751799
O O1 0.102050 0.240911 0.580128
O O2 0.000000 0.032306 0.584325
O O3 0.134293 0.000000 0.500000
O O4 0.130847 0.996492 0.669338
O O5 0.273453 0.606088 0.099242
O O6 0.407263 0.512809 0.162504
O O7 0.389749 0.500000 0.000000
O O8 0.750000 0.290055 0.750000
O O9 0.848577 0.210833 0.882717
O O10 0.853639 0.468198 0.811959
O O11 0.000000 0.103023 0.906960
O O12 0.882110 0.957618 0.835430
O O13 0.882964 0.000000 0.000000
O O14 0.500000 0.890018 0.761932
O O15 0.372031 0.728254 0.761959
O O16 0.000000 0.580031 0.783835
#
# Coordination Sequence:
#
# PCOD9417459 Si02
#       6
#     8   8   8   8   8   8
#     4  10  20  35  58  87 117 152 195 239 285 345
#     4  11  23  37  54  83 122 156 186 227 286 353
#     4  10  22  39  56  81 116 156 194 233 290 350
#     4  10  21  39  63  87 112 149 201 252 291 337
#     4   9  18  34  57  86 114 141 186 245 293 334
#     4  10  20  37  62  85 109 148 193 238 288 339
#
# _framework density 20.036701000000001
#
# number of rings (size 3 to 8) (size 9 to 14) (size 15 to 20)
#    0.000    2.000    0.000    4.000    0.000    6.000 
#    0.000    9.167    0.000    5.000    0.000    0.000 
#    0.000    0.000    0.000    0.000    0.000    0.000 
#
# Total GULP energy -267946.062785 kJ/mol
# GULP energy per Si atom -5582.209641 kJ/mol
# Density = 1.999110 g / cm^3
# Si number density = 20.036701 Si / 1000 Ang^3
#
#
#
# Elastic Constant Matrix: (Units=GPa)
#
#
# Indices 1 2 3 4 5 6 
#
# 1 42.7777 15.5861 15.6484 0.0000 0.0000 0.0000
# 2 15.5861 150.6967 72.1034 0.0000 0.0000 0.0000
# 3 15.6484 72.1034 127.5793 0.0000 0.0000 0.0000
# 4 0.0000 0.0000 0.0000 29.4532 0.0000 0.0000
# 5 0.0000 0.0000 0.0000 0.0000 3.0796 0.0000
# 6 0.0000 0.0000 0.0000 0.0000 0.0000 -69.2526
#
#
#
# Elastic Compliance Matrix: (Units=1/GPa)
#
#
# Indices 1 2 3 4 5 6 
#
# 1 0.024725 -0.001516 -0.002176 0.000000 0.000000 0.000000
# 2 -0.001516 0.009188 -0.005007 0.000000 0.000000 0.000000
# 3 -0.002176 -0.005007 0.010935 0.000000 0.000000 0.000000
# 4 0.000000 0.000000 0.000000 0.033952 0.000000 0.000000
# 5 0.000000 0.000000 0.000000 0.000000 0.324718 0.000000
# 6 0.000000 0.000000 0.000000 0.000000 0.000000 -0.014440
#
#
# Mechanical properties :
#
#
# Convention : Reuss Voigt Hill
#
# Bulk Modulus (GPa) = 36.42940 58.63663 47.53302
# Shear Modulus (GPa) = 12.03004 7.17042 9.60023
#
# Velocity S-wave (km/s) = 2.45296 1.89378 2.19128
# Velocity P-wave (km/s) = 5.12284 5.84038 5.49334
#
# Compressibility (1/GPa) = 0.02745035
#
# Stress axis : x y z
#
# Youngs Moduli (GPa) = 40.44491 108.83382 91.45041
#
# Poissons Ratio (x) = 0.16501 0.19898
# Poissons Ratio (y) = 0.06132 0.45789
# Poissons Ratio (z) = 0.08800 0.54493
#
# Static dielectric constant tensor:
#      x y z
#    x 1.746510 0.000000 0.000000 
#    y 0.000000 1.687240 0.000000 
#    z 0.000000 0.000000 1.701810 
# 
# From -- ./inp_files/23595.got.cif
#   From: 2010.05.17/outbox.cif.g08.bks.cpg/sg53_12_cif.got.tgz:23595.got - 2010.06.03 12:45:16.
