data_PCOD9417594
_publ_section_title
;
Structure prediction by ZEFSAII (Michael W. Deem and Ramdas Pophale) SiO2 
 PCOD9417594
Probable space group: P M N A
;
_chemical_formula_sum "Si O2"
_cell_formula_units_Z 48
_cell_length_a 8.356020
_cell_length_b 31.880955
_cell_length_c 9.610319
_cell_angle_alpha 90.000000
_cell_angle_beta 90.000000
_cell_angle_gamma 90.000000
_cell_volume 2560.168777
_symmetry_space_group_name_H-M "P M N A"
_symmetry_group_IT_number 53
_symmetry_cell_setting 'orthorhombic'
loop_
_space_group_symop_operation_xyz
x,y,z
1/2-x,-y,1/2+z
x,-y,-z
1/2-x,y,1/2-z
-x,-y,-z
1/2+x,y,1/2-z
-x,y,z
1/2+x,-y,1/2+z
loop_
_atom_site_type_symbol
_atom_site_label
_atom_site_fract_x
_atom_site_fract_y
_atom_site_fract_z
Si Si1 0.193386 0.367447 0.591866
Si Si2 0.306637 0.538518 0.092861
Si Si3 0.191950 0.132790 0.091827
Si Si4 0.306336 0.710961 0.908614
Si Si5 0.191327 0.209626 0.591639
Si Si6 0.306743 0.038407 0.406795
O O1 0.250000 0.359590 0.750000
O O2 0.245773 0.414516 0.549858
O O3 0.248333 0.331405 0.486696
O O4 0.000000 0.366878 0.593387
O O5 0.250000 0.532534 0.250000
O O6 0.500000 0.538218 0.089445
O O7 0.247635 0.500000 0.000000
O O8 0.250000 0.140835 0.250000
O O9 0.244893 0.085486 0.051481
O O10 0.000000 0.133964 0.092320
O O11 0.254763 0.167483 0.986226
O O12 0.250000 0.713360 0.750000
O O13 0.500000 0.711091 0.908236
O O14 0.251255 0.750773 0.999782
O O15 0.250000 0.211741 0.750000
O O16 0.000000 0.210885 0.593573
O O17 0.250000 0.032066 0.250000
O O18 0.500000 0.038127 0.410263
O O19 0.247483 0.000000 0.500000
#
# Coordination Sequence:
#
# PCOD9417594 Si02
#       6
#     8   8   8   8   8   8
#     4   9  18  34  53  74 101 133 170 210 254 302
#     4   9  18  32  50  73 102 134 168 209 254 301
#     4  10  20  36  57  80 108 141 177 217 261 309
#     4  10  22  37  54  77 104 135 170 210 256 306
#     4  11  23  38  56  79 106 137 174 215 261 311
#     4   9  19  35  54  78 107 139 175 214 257 305
#
# _framework density 18.748764000000001
#
# number of rings (size 3 to 8) (size 9 to 14) (size 15 to 20)
#    0.000    2.333    0.000    2.000    0.000    6.000 
#    0.000    1.667    0.000    0.000    0.000    0.000 
#    0.000    0.000    0.000    0.000    0.000    0.000 
#
# Total GULP energy -267876.754927 kJ/mol
# GULP energy per Si atom -5580.765728 kJ/mol
# Density = 1.870609 g / cm^3
# Si number density = 18.748764 Si / 1000 Ang^3
#
#
#
# Elastic Constant Matrix: (Units=GPa)
#
#
# Indices 1 2 3 4 5 6 
#
# 1 14.6635 27.9790 19.9571 0.0000 0.0000 0.0000
# 2 27.9790 212.2742 141.3528 0.0000 0.0000 0.0000
# 3 19.9571 141.3528 147.1799 0.0000 0.0000 0.0000
# 4 0.0000 0.0000 0.0000 42.9697 0.0000 0.0000
# 5 0.0000 0.0000 0.0000 0.0000 34.7601 0.0000
# 6 0.0000 0.0000 0.0000 0.0000 0.0000 37.2936
#
#
#
# Elastic Compliance Matrix: (Units=1/GPa)
#
#
# Indices 1 2 3 4 5 6 
#
# 1 0.091386 -0.010524 -0.002284 0.000000 0.000000 0.000000
# 2 -0.010524 0.014281 -0.012288 0.000000 0.000000 0.000000
# 3 -0.002284 -0.012288 0.018906 0.000000 0.000000 0.000000
# 4 0.000000 0.000000 0.000000 0.023272 0.000000 0.000000
# 5 0.000000 0.000000 0.000000 0.000000 0.028769 0.000000
# 6 0.000000 0.000000 0.000000 0.000000 0.000000 0.026814
#
#
# Mechanical properties :
#
#
# Convention : Reuss Voigt Hill
#
# Bulk Modulus (GPa) = 13.44453 83.63284 48.53869
# Shear Modulus (GPa) = 17.95880 35.32658 26.64269
#
# Velocity S-wave (km/s) = 3.09830 4.34546 3.77375
# Velocity P-wave (km/s) = 4.47054 8.35950 6.70325
#
# Compressibility (1/GPa) = 0.07437969
#
# Stress axis : x y z
#
# Youngs Moduli (GPa) = 10.94255 70.02377 52.89332
#
# Poissons Ratio (x) = 0.73696 0.12081
# Poissons Ratio (y) = 0.11516 0.64997
# Poissons Ratio (z) = 0.02499 0.86048
#
# Static dielectric constant tensor:
#      x y z
#    x 1.654700 0.000000 0.000000 
#    y 0.000000 1.678990 0.000000 
#    z 0.000000 0.000000 1.593460 
# 
# From -- ./inp_files/6604.got.cif
#   From: 2010.05.17/outbox.cif.g08.bks.cpg/sg53_4_cif.got.tgz:6604.got - 2010.06.03 12:45:16.
