data_PCOD9417761
_publ_section_title
;
Structure prediction by ZEFSAII (Michael W. Deem and Ramdas Pophale) SiO2 
 PCOD9417761
Probable space group: P M N A
;
_chemical_formula_sum "Si O2"
_cell_formula_units_Z 56
_cell_length_a 14.095446
_cell_length_b 15.674501
_cell_length_c 11.611991
_cell_angle_alpha 90.000000
_cell_angle_beta 90.000000
_cell_angle_gamma 90.000000
_cell_volume 2565.542637
_symmetry_space_group_name_H-M "P M N A"
_symmetry_group_IT_number 53
_symmetry_cell_setting 'orthorhombic'
loop_
_space_group_symop_operation_xyz
x,y,z
1/2-x,-y,1/2+z
x,-y,-z
1/2-x,y,1/2-z
-x,-y,-z
1/2+x,y,1/2-z
-x,y,z
1/2+x,-y,1/2+z
loop_
_atom_site_type_symbol
_atom_site_label
_atom_site_fract_x
_atom_site_fract_y
_atom_site_fract_z
Si Si1 0.608713 0.243972 0.686727
Si Si2 0.237858 0.355292 0.976252
Si Si3 0.384499 0.909083 0.149034
Si Si4 0.114268 0.902609 0.616741
Si Si5 0.898825 0.415008 0.671010
Si Si6 0.106114 0.280307 0.351162
Si Si7 0.851008 0.571307 0.813434
O O1 0.500000 0.232205 0.642310
O O2 0.682010 0.283590 0.595531
O O3 0.641534 0.158923 0.753149
O O4 0.602824 0.319293 0.781275
O O5 0.302354 0.419570 0.901031
O O6 0.316293 0.312566 0.058808
O O7 0.164073 0.406885 0.054306
O O8 0.500000 0.905888 0.149135
O O9 0.352181 0.007009 0.166383
O O10 0.355005 0.889200 0.016782
O O11 0.133832 0.815661 0.684290
O O12 0.000000 0.911714 0.612661
O O13 0.896295 0.482458 0.775057
O O14 0.000000 0.429148 0.608771
O O15 0.102180 0.346964 0.247582
O O16 0.000000 0.276254 0.403905
O O17 0.750000 0.569619 0.750000
#
# Coordination Sequence:
#
# PCOD9417761 Si02
#       7
#     8   8   8   8   8   8   8
#     4  10  21  35  57  88 123 161 201 246 302 361
#     4  11  23  40  61  86 123 163 200 252 309 363
#     4   8  14  28  51  84 117 149 193 244 298 356
#     4   8  14  27  54  85 114 148 192 246 299 351
#     4  11  23  40  62  88 116 152 199 248 296 356
#     4  10  20  36  60  89 118 156 203 251 303 364
#     4  10  23  39  56  82 117 155 196 243 297 358
#
# _framework density 21.827739999999999
#
# number of rings (size 3 to 8) (size 9 to 14) (size 15 to 20)
#    0.000    2.286    0.000    3.857    0.000    8.571 
#    0.000    5.000    0.000   18.857    0.000    4.000 
#    0.000    2.286    0.000    6.286    0.000    0.571 
#
# Total GULP energy -312484.051516 kJ/mol
# GULP energy per Si atom -5580.072349 kJ/mol
# Density = 2.177806 g / cm^3
# Si number density = 21.827740 Si / 1000 Ang^3
#
#
#
# Elastic Constant Matrix: (Units=GPa)
#
#
# Indices 1 2 3 4 5 6 
#
# 1 102.8453 31.6103 41.9643 0.0000 0.0000 0.0000
# 2 31.6103 163.8200 62.0269 0.0000 0.0000 0.0000
# 3 41.9643 62.0269 89.4547 0.0000 0.0000 0.0000
# 4 0.0000 0.0000 0.0000 28.3321 0.0000 0.0000
# 5 0.0000 0.0000 0.0000 0.0000 63.5184 0.0000
# 6 0.0000 0.0000 0.0000 0.0000 0.0000 15.0861
#
#
#
# Elastic Compliance Matrix: (Units=1/GPa)
#
#
# Indices 1 2 3 4 5 6 
#
# 1 0.012033 -0.000250 -0.005471 0.000000 0.000000 0.000000
# 2 -0.000250 0.008283 -0.005626 0.000000 0.000000 0.000000
# 3 -0.005471 -0.005626 0.017646 0.000000 0.000000 0.000000
# 4 0.000000 0.000000 0.000000 0.035296 0.000000 0.000000
# 5 0.000000 0.000000 0.000000 0.000000 0.015743 0.000000
# 6 0.000000 0.000000 0.000000 0.000000 0.000000 0.066286
#
#
# Mechanical properties :
#
#
# Convention : Reuss Voigt Hill
#
# Bulk Modulus (GPa) = 65.49936 69.70255 67.60096
# Shear Modulus (GPa) = 27.31195 36.08854 31.70025
#
# Velocity S-wave (km/s) = 3.54114 4.07053 3.81503
# Velocity P-wave (km/s) = 6.84047 7.35491 7.10235
#
# Compressibility (1/GPa) = 0.01526733
#
# Stress axis : x y z
#
# Youngs Moduli (GPa) = 83.10708 120.73525 56.66942
#
# Poissons Ratio (x) = 0.03022 0.31005
# Poissons Ratio (y) = 0.02080 0.31880
# Poissons Ratio (z) = 0.45469 0.67921
#
# Static dielectric constant tensor:
#      x y z
#    x 1.870760 0.000000 0.000000 
#    y 0.000000 1.828630 0.000000 
#    z 0.000000 0.000000 1.816850 
# 
# From -- ./inp_files/16033.got.cif
#   From: 2010.05.17/outbox.cif.g08.bks.cpg/sg53_9_cif.got.tgz:16033.got - 2010.06.03 12:45:16.
