data_PCOD9417407
_publ_section_title
;
Structure prediction by ZEFSAII (Michael W. Deem and Ramdas Pophale) SiO2 
 PCOD9417407
Probable space group: P M N A
;
_chemical_formula_sum "Si O2"
_cell_formula_units_Z 64
_cell_length_a 9.161152
_cell_length_b 26.481024
_cell_length_c 14.765958
_cell_angle_alpha 90.000000
_cell_angle_beta 90.000000
_cell_angle_gamma 90.000000
_cell_volume 3582.172476
_symmetry_space_group_name_H-M "P M N A"
_symmetry_group_IT_number 53
_symmetry_cell_setting 'orthorhombic'
loop_
_space_group_symop_operation_xyz
x,y,z
1/2-x,-y,1/2+z
x,-y,-z
1/2-x,y,1/2-z
-x,-y,-z
1/2+x,y,1/2-z
-x,y,z
1/2+x,-y,1/2+z
loop_
_atom_site_type_symbol
_atom_site_label
_atom_site_fract_x
_atom_site_fract_y
_atom_site_fract_z
Si Si1 0.331811 0.895896 0.835914
Si Si2 0.675120 0.368342 0.848737
Si Si3 0.330606 0.826046 0.010854
Si Si4 0.825142 0.364066 0.151530
Si Si5 0.674018 0.708326 0.989785
Si Si6 0.673861 0.890056 0.340231
Si Si7 0.169300 0.997546 0.891440
Si Si8 0.674244 0.441032 0.509638
O O1 0.250000 0.873940 0.750000
O O2 0.500000 0.904328 0.814638
O O3 0.320943 0.857404 0.918453
O O4 0.260031 0.949708 0.859295
O O5 0.750000 0.364757 0.750000
O O6 0.500000 0.372712 0.838200
O O7 0.739050 0.414683 0.908285
O O8 0.705659 0.320519 0.915366
O O9 0.500000 0.828940 0.042391
O O10 0.293714 0.767501 0.997957
O O11 0.225976 0.854556 0.079519
O O12 0.750000 0.367770 0.250000
O O13 0.761433 0.317775 0.092011
O O14 0.000000 0.359684 0.162327
O O15 0.794786 0.411776 0.084784
O O16 0.500000 0.702315 0.972779
O O17 0.750000 0.871387 0.250000
O O18 0.500000 0.890363 0.333200
O O19 0.722527 0.948088 0.357078
O O20 0.000000 0.991119 0.864209
O O21 0.174296 0.000000 0.000000
O O22 0.708583 0.500000 0.500000
O O23 0.500000 0.435647 0.526814
#
# Coordination Sequence:
#
# PCOD9417407 Si02
#       8
#     8   8   8   8   8   8   8   8
#     4  11  23  37  57  82 110 143 179 221 270 328
#     4  10  20  35  57  82 111 148 188 232 277 328
#     4  10  22  40  59  82 111 142 180 227 278 329
#     4  10  20  35  57  83 112 148 189 231 276 328
#     4   9  20  39  59  80 109 143 184 233 280 327
#     4  11  23  38  58  82 111 144 179 222 270 327
#     4  10  20  37  59  82 109 141 178 220 268 324
#     4   9  19  36  56  82 117 152 188 231 276 324
#
# _framework density 17.866254000000001
#
# number of rings (size 3 to 8) (size 9 to 14) (size 15 to 20)
#    0.000    2.000    1.250    1.875    0.000    6.000 
#    0.000    3.750    0.000    0.000    0.000    0.000 
#    0.000    0.000    0.000    0.000    0.000    0.000 
#
# Total GULP energy -357224.719505 kJ/mol
# GULP energy per Si atom -5581.636242 kJ/mol
# Density = 1.782559 g / cm^3
# Si number density = 17.866254 Si / 1000 Ang^3
#
#
#
# Elastic Constant Matrix: (Units=GPa)
#
#
# Indices 1 2 3 4 5 6 
#
# 1 80.3018 55.8844 65.7016 0.0000 0.0000 0.0000
# 2 55.8844 116.8592 44.4335 0.0000 0.0000 0.0000
# 3 65.7016 44.4335 125.6620 0.0000 0.0000 0.0000
# 4 0.0000 0.0000 0.0000 20.3289 0.0000 0.0000
# 5 0.0000 0.0000 0.0000 0.0000 33.8124 0.0000
# 6 0.0000 0.0000 0.0000 0.0000 0.0000 23.6779
#
#
#
# Elastic Compliance Matrix: (Units=1/GPa)
#
#
# Indices 1 2 3 4 5 6 
#
# 1 0.028241 -0.009117 -0.011542 0.000000 0.000000 0.000000
# 2 -0.009117 0.012830 0.000230 0.000000 0.000000 0.000000
# 3 -0.011542 0.000230 0.013911 0.000000 0.000000 0.000000
# 4 0.000000 0.000000 0.000000 0.049191 0.000000 0.000000
# 5 0.000000 0.000000 0.000000 0.000000 0.029575 0.000000
# 6 0.000000 0.000000 0.000000 0.000000 0.000000 0.042234
#
#
# Mechanical properties :
#
#
# Convention : Reuss Voigt Hill
#
# Bulk Modulus (GPa) = 70.79868 72.76243 71.78055
# Shear Modulus (GPa) = 22.56854 26.01740 24.29297
#
# Velocity S-wave (km/s) = 3.55800 3.82020 3.69143
# Velocity P-wave (km/s) = 7.52278 7.76358 7.64413
#
# Compressibility (1/GPa) = 0.01412456
#
# Stress axis : x y z
#
# Youngs Moduli (GPa) = 35.40918 77.94448 71.88466
#
# Poissons Ratio (x) = 0.71061 0.82970
# Poissons Ratio (y) = 0.32282 -0.01655
# Poissons Ratio (z) = 0.40870 -0.01794
#
# Static dielectric constant tensor:
#      x y z
#    x 1.602480 0.000000 0.000000 
#    y 0.000000 1.592460 0.000000 
#    z 0.000000 0.000000 1.620920 
# 
# From -- ./inp_files/20964.got.cif
#   From: 2010.05.17/outbox.cif.g08.bks.cpg/sg53_11_cif.got.tgz:20964.got - 2010.06.03 12:45:16.
