data_PCOD9417637
_publ_section_title
;
Structure prediction by ZEFSAII (Michael W. Deem and Ramdas Pophale) SiO2 
 PCOD9417637
Probable space group: P M N A
;
_chemical_formula_sum "Si O2"
_cell_formula_units_Z 64
_cell_length_a 16.682837
_cell_length_b 12.858695
_cell_length_c 13.001768
_cell_angle_alpha 90.000000
_cell_angle_beta 90.000000
_cell_angle_gamma 90.000000
_cell_volume 2789.132936
_symmetry_space_group_name_H-M "P M N A"
_symmetry_group_IT_number 53
_symmetry_cell_setting 'orthorhombic'
loop_
_space_group_symop_operation_xyz
x,y,z
1/2-x,-y,1/2+z
x,-y,-z
1/2-x,y,1/2-z
-x,-y,-z
1/2+x,y,1/2-z
-x,y,z
1/2+x,-y,1/2+z
loop_
_atom_site_type_symbol
_atom_site_label
_atom_site_fract_x
_atom_site_fract_y
_atom_site_fract_z
Si Si1 0.337113 0.990419 0.195885
Si Si2 0.091465 0.269140 0.154942
Si Si3 0.908565 0.489929 0.123034
Si Si4 0.159789 0.373864 0.529089
Si Si5 0.091751 0.191950 0.388167
Si Si6 0.595464 0.061211 0.405880
Si Si7 0.692676 0.316111 0.653745
Si Si8 0.593768 0.775663 0.198280
O O1 0.250000 0.994541 0.250000
O O2 0.393474 0.009749 0.295325
O O3 0.358589 0.875996 0.153660
O O4 0.356283 0.085415 0.117963
O O5 0.129785 0.380092 0.149858
O O6 0.086624 0.227699 0.269701
O O7 0.000000 0.286764 0.115780
O O8 0.131479 0.176783 0.093385
O O9 0.852903 0.576689 0.167687
O O10 0.000000 0.499772 0.162474
O O11 0.911573 0.500000 0.000000
O O12 0.154347 0.500000 0.500000
O O13 0.126951 0.293635 0.444056
O O14 0.250709 0.337806 0.556854
O O15 0.111629 0.328817 0.630170
O O16 0.000000 0.170900 0.424358
O O17 0.500000 0.072844 0.420851
O O18 0.631641 0.000000 0.500000
O O19 0.750000 0.293406 0.750000
O O20 0.622436 0.234981 0.681648
O O21 0.500000 0.795694 0.194396
#
# Coordination Sequence:
#
# PCOD9417637 Si02
#       8
#     8   8   8   8   8   8   8   8
#     4  11  23  45  65 103 143 179 225 285 360 421
#     4   8  17  34  58  91 125 162 211 270 330 389
#     4  10  20  36  57  86 124 167 218 268 323 401
#     4  11  25  45  67 103 141 180 234 294 353 415
#     4  10  22  43  71  98 133 181 231 286 338 412
#     4   9  18  37  64  93 126 171 224 276 327 402
#     4  10  23  42  61  94 130 171 215 278 349 406
#     4  11  24  45  73  99 133 182 236 289 342 415
#
# _framework density 22.946197999999999
#
# number of rings (size 3 to 8) (size 9 to 14) (size 15 to 20)
#    0.000    2.000    0.000    4.125    3.500    2.500 
#   13.500    3.750    0.000    0.000    0.000    0.000 
#    0.000    0.000    0.000    0.000    0.000    0.000 
#
# Total GULP energy -356506.686837 kJ/mol
# GULP energy per Si atom -5570.416982 kJ/mol
# Density = 2.289397 g / cm^3
# Si number density = 22.946198 Si / 1000 Ang^3
#
#
#
# Elastic Constant Matrix: (Units=GPa)
#
#
# Indices 1 2 3 4 5 6 
#
# 1 91.8209 56.4444 20.1804 0.0000 0.0000 0.0000
# 2 56.4444 163.4499 30.7736 0.0000 0.0000 0.0000
# 3 20.1804 30.7736 45.3099 0.0000 0.0000 0.0000
# 4 0.0000 0.0000 0.0000 37.5405 0.0000 0.0000
# 5 0.0000 0.0000 0.0000 0.0000 18.2707 0.0000
# 6 0.0000 0.0000 0.0000 0.0000 0.0000 25.2111
#
#
#
# Elastic Compliance Matrix: (Units=1/GPa)
#
#
# Indices 1 2 3 4 5 6 
#
# 1 0.014282 -0.004282 -0.003453 0.000000 0.000000 0.000000
# 2 -0.004282 0.008299 -0.003729 0.000000 0.000000 0.000000
# 3 -0.003453 -0.003729 0.026141 0.000000 0.000000 0.000000
# 4 0.000000 0.000000 0.000000 0.026638 0.000000 0.000000
# 5 0.000000 0.000000 0.000000 0.000000 0.054732 0.000000
# 6 0.000000 0.000000 0.000000 0.000000 0.000000 0.039665
#
#
# Mechanical properties :
#
#
# Convention : Reuss Voigt Hill
#
# Bulk Modulus (GPa) = 38.76922 57.26416 48.01669
# Shear Modulus (GPa) = 24.84069 29.08330 26.96200
#
# Velocity S-wave (km/s) = 3.29380 3.56400 3.43156
# Velocity P-wave (km/s) = 5.60338 6.47658 6.05574
#
# Compressibility (1/GPa) = 0.02579366
#
# Stress axis : x y z
#
# Youngs Moduli (GPa) = 70.01926 120.49792 38.25424
#
# Poissons Ratio (x) = 0.51596 0.13208
# Poissons Ratio (y) = 0.29981 0.14266
# Poissons Ratio (z) = 0.24176 0.44938
#
# Static dielectric constant tensor:
#      x y z
#    x 1.958040 0.000000 0.000000 
#    y 0.000000 1.935910 0.000000 
#    z 0.000000 0.000000 1.964240 
# 
# From -- ./inp_files/23922.got.cif
#   From: 2010.05.17/outbox.cif.g08.bks.cpg/sg53_12_cif.got.tgz:23922.got - 2010.06.03 12:45:16.
