data_PCOD9417072
_publ_section_title
;
Structure prediction by ZEFSAII (Michael W. Deem and Ramdas Pophale) SiO2 
 PCOD9417072
Probable space group: P M N A
;
_chemical_formula_sum "Si O2"
_cell_formula_units_Z 40
_cell_length_a 8.877132
_cell_length_b 14.041509
_cell_length_c 18.600179
_cell_angle_alpha 90.000000
_cell_angle_beta 90.000000
_cell_angle_gamma 90.000000
_cell_volume 2318.481229
_symmetry_space_group_name_H-M "P M N A"
_symmetry_group_IT_number 53
_symmetry_cell_setting 'orthorhombic'
loop_
_space_group_symop_operation_xyz
x,y,z
1/2-x,-y,1/2+z
x,-y,-z
1/2-x,y,1/2-z
-x,-y,-z
1/2+x,y,1/2-z
-x,y,z
1/2+x,-y,1/2+z
loop_
_atom_site_type_symbol
_atom_site_label
_atom_site_fract_x
_atom_site_fract_y
_atom_site_fract_z
Si Si1 0.819960 0.420618 0.171591
Si Si2 0.179934 0.295170 0.036606
Si Si3 0.817868 0.105722 0.524083
Si Si4 0.179671 0.190970 0.674195
Si Si5 0.819208 0.390911 0.601386
O O1 0.750000 0.406124 0.250000
O O2 0.787113 0.335621 0.115636
O O3 0.752530 0.515798 0.135714
O O4 0.000000 0.430713 0.177729
O O5 0.245193 0.190300 0.022204
O O6 0.000000 0.295363 0.026103
O O7 0.253900 0.364516 0.976862
O O8 0.773698 0.126095 0.606751
O O9 0.000000 0.115075 0.519424
O O10 0.775790 0.000000 0.500000
O O11 0.250000 0.165672 0.750000
O O12 0.217428 0.299281 0.651115
O O13 0.000000 0.185489 0.680168
O O14 0.000000 0.399810 0.596952
#
# Coordination Sequence:
#
# PCOD9417072 Si02
#       5
#     8   8   8   8   8
#     4  11  23  36  51  75 108 144 180 217 257 304
#     4  10  21  36  54  78 106 135 173 220 264 310
#     4   9  19  37  58  77 100 134 175 216 263 320
#     4   9  18  31  49  76 104 130 163 206 257 308
#     4  10  20  34  54  78 105 140 178 213 258 315
#
# _framework density 17.252673000000001
#
# number of rings (size 3 to 8) (size 9 to 14) (size 15 to 20)
#    0.000    2.200    0.000    4.200    0.000   11.600 
#    0.000    1.000    0.000    4.800    0.000    0.000 
#    0.000    0.000    0.000    0.000    0.000    0.000 
#
# Total GULP energy -223293.778721 kJ/mol
# GULP energy per Si atom -5582.344468 kJ/mol
# Density = 1.721341 g / cm^3
# Si number density = 17.252673 Si / 1000 Ang^3
#
#
#
# Elastic Constant Matrix: (Units=GPa)
#
#
# Indices 1 2 3 4 5 6 
#
# 1 48.7059 55.3582 65.1881 0.0000 0.0000 0.0000
# 2 55.3582 126.9890 108.2502 0.0000 0.0000 0.0000
# 3 65.1881 108.2502 159.7197 0.0000 0.0000 0.0000
# 4 0.0000 0.0000 0.0000 13.1036 0.0000 0.0000
# 5 0.0000 0.0000 0.0000 0.0000 30.3065 0.0000
# 6 0.0000 0.0000 0.0000 0.0000 0.0000 63.0410
#
#
#
# Elastic Compliance Matrix: (Units=1/GPa)
#
#
# Indices 1 2 3 4 5 6 
#
# 1 0.050581 -0.010543 -0.013499 0.000000 0.000000 0.000000
# 2 -0.010543 0.020847 -0.009826 0.000000 0.000000 0.000000
# 3 -0.013499 -0.009826 0.018430 0.000000 0.000000 0.000000
# 4 0.000000 0.000000 0.000000 0.076315 0.000000 0.000000
# 5 0.000000 0.000000 0.000000 0.000000 0.032996 0.000000
# 6 0.000000 0.000000 0.000000 0.000000 0.000000 0.015863
#
#
# Mechanical properties :
#
#
# Convention : Reuss Voigt Hill
#
# Bulk Modulus (GPa) = 45.20293 88.11196 66.65745
# Shear Modulus (GPa) = 17.23309 28.39809 22.81559
#
# Velocity S-wave (km/s) = 3.16391 4.06151 3.64048
# Velocity P-wave (km/s) = 6.29321 8.55434 7.50937
#
# Compressibility (1/GPa) = 0.02212246
#
# Stress axis : x y z
#
# Youngs Moduli (GPa) = 19.77036 47.96962 54.26028
#
# Poissons Ratio (x) = 0.50574 0.73244
# Poissons Ratio (y) = 0.20844 0.53315
# Poissons Ratio (z) = 0.26687 0.47134
#
# Static dielectric constant tensor:
#      x y z
#    x 1.579240 0.000000 0.000000 
#    y 0.000000 1.564590 0.000000 
#    z 0.000000 0.000000 1.577980 
# 
# From -- ./inp_files/19836.got.cif
#   From: 2010.05.17/outbox.cif.g08.bks.cpg/sg53_10_cif.got.tgz:19836.got - 2010.06.03 12:45:16.
