data_PCOD9417647
_publ_section_title
;
Structure prediction by ZEFSAII (Michael W. Deem and Ramdas Pophale) SiO2 
 PCOD9417647
Probable space group: P M N A
;
_chemical_formula_sum "Si O2"
_cell_formula_units_Z 44
_cell_length_a 9.508646
_cell_length_b 6.935838
_cell_length_c 27.125221
_cell_angle_alpha 90.000000
_cell_angle_beta 90.000000
_cell_angle_gamma 90.000000
_cell_volume 1788.919941
_symmetry_space_group_name_H-M "P M N A"
_symmetry_group_IT_number 53
_symmetry_cell_setting 'orthorhombic'
loop_
_space_group_symop_operation_xyz
x,y,z
1/2-x,-y,1/2+z
x,-y,-z
1/2-x,y,1/2-z
-x,-y,-z
1/2+x,y,1/2-z
-x,y,z
1/2+x,-y,1/2+z
loop_
_atom_site_type_symbol
_atom_site_label
_atom_site_fract_x
_atom_site_fract_y
_atom_site_fract_z
Si Si1 0.340789 0.372034 0.895946
Si Si2 0.500000 0.240407 0.260871
Si Si3 0.249178 0.879527 0.814191
Si Si4 0.834669 0.682111 0.201972
Si Si5 0.842097 0.821546 0.576166
Si Si6 0.838972 0.729606 0.013737
O O1 0.500000 0.304819 0.884864
O O2 0.245226 0.375041 0.847569
O O3 0.351650 0.590874 0.914642
O O4 0.263465 0.255443 0.939219
O O5 0.376413 0.266035 0.303112
O O6 0.378982 0.185950 0.219116
O O7 0.295181 0.899336 0.870726
O O8 0.181058 0.084385 0.798847
O O9 0.750000 0.614552 0.250000
O O10 0.000000 0.639797 0.207571
O O11 0.727807 0.837084 0.533101
O O12 0.000000 0.886891 0.562420
O O13 0.000000 0.784705 0.024554
O O14 0.842096 0.500000 0.000000
#
# Coordination Sequence:
#
# PCOD9417647 Si02
#       6
#     8   4   8   8   8   8
#     4  10  22  39  59  85 118 151 187 233 284 336
#     4  10  20  36  58  80 112 154 192 228 284 332
#     4  11  20  38  59  84 110 150 195 234 278 339
#     4  12  23  40  59  84 114 154 193 231 281 340
#     4  10  21  37  59  89 115 148 189 234 284 337
#     4   9  18  35  59  83 113 150 188 230 283 339
#
# _framework density 24.595845000000001
#
# number of rings (size 3 to 8) (size 9 to 14) (size 15 to 20)
#    0.000    1.636    3.636    1.636    2.545    2.909 
#    3.273    0.909    0.000    4.364    0.000    0.000 
#    0.000    0.000    0.000    0.000    0.000    0.000 
#
# Total GULP energy -245498.725698 kJ/mol
# GULP energy per Si atom -5579.516493 kJ/mol
# Density = 2.453986 g / cm^3
# Si number density = 24.595845 Si / 1000 Ang^3
#
#
#
# Elastic Constant Matrix: (Units=GPa)
#
#
# Indices 1 2 3 4 5 6 
#
# 1 281.5510 12.0945 85.2341 0.0000 0.0000 0.0000
# 2 12.0945 66.2226 -4.1472 0.0000 0.0000 0.0000
# 3 85.2341 -4.1472 154.0820 0.0000 0.0000 0.0000
# 4 0.0000 0.0000 0.0000 4.8143 0.0000 0.0000
# 5 0.0000 0.0000 0.0000 0.0000 47.2038 0.0000
# 6 0.0000 0.0000 0.0000 0.0000 0.0000 42.6893
#
#
#
# Elastic Compliance Matrix: (Units=1/GPa)
#
#
# Indices 1 2 3 4 5 6 
#
# 1 0.004324 -0.000941 -0.002417 0.000000 0.000000 0.000000
# 2 -0.000941 0.015331 0.000933 0.000000 0.000000 0.000000
# 3 -0.002417 0.000933 0.007852 0.000000 0.000000 0.000000
# 4 0.000000 0.000000 0.000000 0.207715 0.000000 0.000000
# 5 0.000000 0.000000 0.000000 0.000000 0.021185 0.000000
# 6 0.000000 0.000000 0.000000 0.000000 0.000000 0.023425
#
#
# Mechanical properties :
#
#
# Convention : Reuss Voigt Hill
#
# Bulk Modulus (GPa) = 44.13646 76.46869 60.30258
# Shear Modulus (GPa) = 17.10956 46.18642 31.64799
#
# Velocity S-wave (km/s) = 2.64034 4.33808 3.59098
# Velocity P-wave (km/s) = 5.22291 7.49996 6.46252
#
# Compressibility (1/GPa) = 0.02265701
#
# Stress axis : x y z
#
# Youngs Moduli (GPa) = 231.27013 65.22772 127.35100
#
# Poissons Ratio (x) = 0.06138 0.30784
# Poissons Ratio (y) = 0.21764 -0.11885
# Poissons Ratio (z) = 0.55903 -0.06087
#
# Static dielectric constant tensor:
#      x y z
#    x 1.793630 0.000000 0.000000 
#    y 0.000000 2.200110 0.000000 
#    z 0.000000 0.000000 1.829030 
# 
# From -- ./inp_files/33797.got.cif
#   From: 2010.05.17/outbox.cif.g08.bks.cpg/sg53_17_cif.got.tgz:33797.got - 2010.06.03 12:45:16.
