data_PCOD9417682
_publ_section_title
;
Structure prediction by ZEFSAII (Michael W. Deem and Ramdas Pophale) SiO2 
 PCOD9417682
Probable space group: P M N A
;
_chemical_formula_sum "Si O2"
_cell_formula_units_Z 48
_cell_length_a 8.561262
_cell_length_b 10.198686
_cell_length_c 29.446766
_cell_angle_alpha 90.000000
_cell_angle_beta 90.000000
_cell_angle_gamma 90.000000
_cell_volume 2571.103822
_symmetry_space_group_name_H-M "P M N A"
_symmetry_group_IT_number 53
_symmetry_cell_setting 'orthorhombic'
loop_
_space_group_symop_operation_xyz
x,y,z
1/2-x,-y,1/2+z
x,-y,-z
1/2-x,y,1/2-z
-x,-y,-z
1/2+x,y,1/2-z
-x,y,z
1/2+x,-y,1/2+z
loop_
_atom_site_type_symbol
_atom_site_label
_atom_site_fract_x
_atom_site_fract_y
_atom_site_fract_z
Si Si1 0.688317 0.276283 0.699258
Si Si2 0.813334 0.490754 0.872565
Si Si3 0.181830 0.619287 0.464701
Si Si4 0.311007 0.863983 0.975654
Si Si5 0.313300 0.009512 0.198867
Si Si6 0.812015 0.207946 0.123407
O O1 0.750000 0.296902 0.750000
O O2 0.500000 0.271144 0.699401
O O3 0.742969 0.394786 0.667271
O O4 0.751453 0.134127 0.684186
O O5 0.771566 0.422629 0.919922
O O6 0.755512 0.640848 0.871846
O O7 0.000000 0.498209 0.868455
O O8 0.188599 0.500000 0.500000
O O9 0.240990 0.746607 0.491220
O O10 0.000000 0.641476 0.452533
O O11 0.500000 0.856186 0.971372
O O12 0.240748 0.845278 0.925741
O O13 0.271288 0.000000 0.000000
O O14 0.250000 0.033120 0.250000
O O15 0.500000 0.007216 0.200326
O O16 0.254897 0.118031 0.163520
O O17 0.000000 0.205958 0.125671
#
# Coordination Sequence:
#
# PCOD9417682 Si02
#       6
#     8   8   8   8   8   8
#     4  10  21  40  62  89 119 151 192 239 289 349
#     4  10  23  39  59  87 120 155 195 241 291 348
#     4  10  20  36  58  83 115 154 196 239 288 345
#     4  10  22  39  57  84 119 155 199 246 292 347
#     4  11  23  41  64  89 118 154 194 241 294 349
#     4  11  23  40  60  87 121 158 199 242 292 349
#
# _framework density 18.669025999999999
#
# number of rings (size 3 to 8) (size 9 to 14) (size 15 to 20)
#    0.000    1.667    1.667    3.500    2.333    4.000 
#    0.000    1.667    0.000    0.000    0.000    0.000 
#    0.000    0.000    0.000    0.000    0.000    0.000 
#
# Total GULP energy -268120.600730 kJ/mol
# GULP energy per Si atom -5585.845849 kJ/mol
# Density = 1.862653 g / cm^3
# Si number density = 18.669026 Si / 1000 Ang^3
#
#
#
# Elastic Constant Matrix: (Units=GPa)
#
#
# Indices 1 2 3 4 5 6 
#
# 1 55.0579 48.2125 34.3303 0.0000 0.0000 0.0000
# 2 48.2125 169.0471 103.7542 0.0000 0.0000 0.0000
# 3 34.3303 103.7542 117.3303 0.0000 0.0000 0.0000
# 4 0.0000 0.0000 0.0000 38.4114 0.0000 0.0000
# 5 0.0000 0.0000 0.0000 0.0000 24.1988 0.0000
# 6 0.0000 0.0000 0.0000 0.0000 0.0000 15.8731
#
#
#
# Elastic Compliance Matrix: (Units=1/GPa)
#
#
# Indices 1 2 3 4 5 6 
#
# 1 0.024457 -0.005649 -0.002160 0.000000 0.000000 0.000000
# 2 -0.005649 0.014242 -0.010941 0.000000 0.000000 0.000000
# 3 -0.002160 -0.010941 0.018830 0.000000 0.000000 0.000000
# 4 0.000000 0.000000 0.000000 0.026034 0.000000 0.000000
# 5 0.000000 0.000000 0.000000 0.000000 0.041324 0.000000
# 6 0.000000 0.000000 0.000000 0.000000 0.000000 0.063000
#
#
# Mechanical properties :
#
#
# Convention : Reuss Voigt Hill
#
# Bulk Modulus (GPa) = 49.93157 79.33659 64.63408
# Shear Modulus (GPa) = 21.54585 26.03921 23.79253
#
# Velocity S-wave (km/s) = 3.40088 3.73873 3.57380
# Velocity P-wave (km/s) = 6.49808 7.82471 7.19205
#
# Compressibility (1/GPa) = 0.02002741
#
# Stress axis : x y z
#
# Youngs Moduli (GPa) = 40.88889 70.21613 53.10646
#
# Poissons Ratio (x) = 0.39665 0.11474
# Poissons Ratio (y) = 0.23098 0.58104
# Poissons Ratio (z) = 0.08834 0.76823
#
# Static dielectric constant tensor:
#      x y z
#    x 1.646230 0.000000 0.000000 
#    y 0.000000 1.654160 0.000000 
#    z 0.000000 0.000000 1.596460 
# 
# From -- ./inp_files/37790.got.cif
#   From: 2010.05.17/outbox.cif.g08.bks.cpg/sg53_19_cif.got.tgz:37790.got - 2010.06.03 12:45:16.
