data_PCOD9417111
_publ_section_title
;
Structure prediction by ZEFSAII (Michael W. Deem and Ramdas Pophale) SiO2 
 PCOD9417111
Probable space group: P M N A
;
_chemical_formula_sum "Si O2"
_cell_formula_units_Z 56
_cell_length_a 8.803004
_cell_length_b 22.041634
_cell_length_c 14.936891
_cell_angle_alpha 90.000000
_cell_angle_beta 90.000000
_cell_angle_gamma 90.000000
_cell_volume 2898.243681
_symmetry_space_group_name_H-M "P M N A"
_symmetry_group_IT_number 53
_symmetry_cell_setting 'orthorhombic'
loop_
_space_group_symop_operation_xyz
x,y,z
1/2-x,-y,1/2+z
x,-y,-z
1/2-x,y,1/2-z
-x,-y,-z
1/2+x,y,1/2-z
-x,y,z
1/2+x,-y,1/2+z
loop_
_atom_site_type_symbol
_atom_site_label
_atom_site_fract_x
_atom_site_fract_y
_atom_site_fract_z
Si Si1 0.182936 0.748603 0.151091
Si Si2 0.181447 0.030034 0.655992
Si Si3 0.181980 0.633836 0.030528
Si Si4 0.317493 0.866748 0.461593
Si Si5 0.680907 0.610106 0.844944
Si Si6 0.318825 0.533791 0.154512
Si Si7 0.318640 0.104674 0.342135
O O1 0.250000 0.747919 0.250000
O O2 0.227887 0.689473 0.094481
O O3 0.228366 0.808757 0.096661
O O4 0.000000 0.748680 0.157286
O O5 0.250000 0.053964 0.750000
O O6 0.235883 0.074144 0.577664
O O7 0.000000 0.027386 0.661004
O O8 0.249020 0.962645 0.645448
O O9 0.247286 0.573048 0.075603
O O10 0.000000 0.630711 0.027209
O O11 0.246538 0.641386 0.931085
O O12 0.500000 0.875155 0.452969
O O13 0.284693 0.859396 0.566877
O O14 0.750000 0.629705 0.750000
O O15 0.500000 0.617546 0.844211
O O16 0.714145 0.537806 0.854792
O O17 0.250000 0.553821 0.250000
O O18 0.500000 0.541749 0.155178
O O19 0.250000 0.129825 0.250000
O O20 0.500000 0.099131 0.332547
#
# Coordination Sequence:
#
# PCOD9417111 Si02
#       7
#     8   8   8   8   8   8   8
#     4  10  23  41  59  81 109 142 181 224 268 317
#     4  11  21  33  53  82 114 144 178 221 269 324
#     4  11  22  36  56  81 111 147 185 226 274 326
#     4  10  21  38  57  78 108 145 183 224 271 319
#     4  10  21  37  57  82 112 145 182 226 274 326
#     4  10  20  34  54  82 114 146 182 225 275 329
#     4  10  20  35  56  80 109 143 178 220 269 321
#
# _framework density 19.322047000000001
#
# number of rings (size 3 to 8) (size 9 to 14) (size 15 to 20)
#    0.000    1.714    0.000    5.571    0.000   10.286 
#    0.000    0.714    0.000    1.714    0.000    0.000 
#    0.000    0.000    0.000    0.000    0.000    0.000 
#
# Total GULP energy -313004.715325 kJ/mol
# GULP energy per Si atom -5589.369917 kJ/mol
# Density = 1.927807 g / cm^3
# Si number density = 19.322047 Si / 1000 Ang^3
#
#
#
# Elastic Constant Matrix: (Units=GPa)
#
#
# Indices 1 2 3 4 5 6 
#
# 1 55.4387 26.1049 56.7008 0.0000 0.0000 0.0000
# 2 26.1049 38.6139 48.7905 0.0000 0.0000 0.0000
# 3 56.7008 48.7905 192.2321 0.0000 0.0000 0.0000
# 4 0.0000 0.0000 0.0000 29.8469 0.0000 0.0000
# 5 0.0000 0.0000 0.0000 0.0000 38.6379 0.0000
# 6 0.0000 0.0000 0.0000 0.0000 0.0000 12.7199
#
#
#
# Elastic Compliance Matrix: (Units=1/GPa)
#
#
# Indices 1 2 3 4 5 6 
#
# 1 0.029866 -0.013337 -0.005424 0.000000 0.000000 0.000000
# 2 -0.013337 0.044080 -0.007254 0.000000 0.000000 0.000000
# 3 -0.005424 -0.007254 0.008643 0.000000 0.000000 0.000000
# 4 0.000000 0.000000 0.000000 0.033504 0.000000 0.000000
# 5 0.000000 0.000000 0.000000 0.000000 0.025881 0.000000
# 6 0.000000 0.000000 0.000000 0.000000 0.000000 0.078617
#
#
# Mechanical properties :
#
#
# Convention : Reuss Voigt Hill
#
# Bulk Modulus (GPa) = 32.72455 61.05303 46.88879
# Shear Modulus (GPa) = 17.67986 26.55350 22.11668
#
# Velocity S-wave (km/s) = 3.02819 3.71112 3.38692
# Velocity P-wave (km/s) = 5.40368 7.07315 6.29401
#
# Compressibility (1/GPa) = 0.03055810
#
# Stress axis : x y z
#
# Youngs Moduli (GPa) = 33.48323 22.68622 115.69967
#
# Poissons Ratio (x) = 0.30257 0.62757
# Poissons Ratio (y) = 0.44657 0.83928
# Poissons Ratio (z) = 0.18162 0.16456
#
# Static dielectric constant tensor:
#      x y z
#    x 1.644290 0.000000 0.000000 
#    y 0.000000 1.658790 0.000000 
#    z 0.000000 0.000000 1.684250 
# 
# From -- ./inp_files/20619.got.cif
#   From: 2010.05.17/outbox.cif.g08.bks.cpg/sg53_11_cif.got.tgz:20619.got - 2010.06.03 12:45:16.
