data_PCOD9417859
_publ_section_title
;
Structure prediction by ZEFSAII (Michael W. Deem and Ramdas Pophale) SiO2 
 PCOD9417859
Probable space group: P M N A
;
_chemical_formula_sum "Si O2"
_cell_formula_units_Z 48
_cell_length_a 8.698189
_cell_length_b 15.312791
_cell_length_c 19.561671
_cell_angle_alpha 90.000000
_cell_angle_beta 90.000000
_cell_angle_gamma 90.000000
_cell_volume 2605.488409
_symmetry_space_group_name_H-M "P M N A"
_symmetry_group_IT_number 53
_symmetry_cell_setting 'orthorhombic'
loop_
_space_group_symop_operation_xyz
x,y,z
1/2-x,-y,1/2+z
x,-y,-z
1/2-x,y,1/2-z
-x,-y,-z
1/2+x,y,1/2-z
-x,y,z
1/2+x,-y,1/2+z
loop_
_atom_site_type_symbol
_atom_site_label
_atom_site_fract_x
_atom_site_fract_y
_atom_site_fract_z
Si Si1 0.816690 0.100458 0.824109
Si Si2 0.183924 0.597521 0.824896
Si Si3 0.814962 0.594653 0.324335
Si Si4 0.184846 0.748246 0.580255
Si Si5 0.685051 0.245877 0.921930
Si Si6 0.684514 0.896804 0.675383
O O1 0.750000 0.125717 0.750000
O O2 0.753321 0.163374 0.882312
O O3 0.000000 0.106895 0.821152
O O4 0.776144 0.998743 0.836326
O O5 0.250000 0.621257 0.750000
O O6 0.245727 0.500338 0.840294
O O7 0.243875 0.666225 0.879994
O O8 0.000000 0.597351 0.821946
O O9 0.750000 0.620672 0.250000
O O10 0.772291 0.666855 0.380223
O O11 0.000000 0.588006 0.320519
O O12 0.232018 0.749549 0.500898
O O13 0.242924 0.834548 0.618845
O O14 0.000000 0.743273 0.583898
O O15 0.500000 0.239294 0.919848
O O16 0.750000 0.872608 0.750000
O O17 0.500000 0.887657 0.675728
#
# Coordination Sequence:
#
# PCOD9417859 Si02
#       6
#     8   8   8   8   8   8
#     4  10  21  37  60  85 113 146 186 233 279 328
#     4  11  22  38  60  85 111 144 185 231 278 330
#     4  10  20  37  59  84 111 143 184 230 275 326
#     4  11  23  39  57  81 114 152 187 227 278 334
#     4  10  23  39  57  82 115 152 188 226 277 333
#     4  10  21  38  59  85 112 145 187 233 280 329
#
# _framework density 18.422649
#
# number of rings (size 3 to 8) (size 9 to 14) (size 15 to 20)
#    0.000    1.667    0.000    5.500    0.000    7.333 
#    0.000    6.667    0.000    0.000    0.000    0.000 
#    0.000    0.000    0.000    0.000    0.000    0.000 
#
# Total GULP energy -268322.544820 kJ/mol
# GULP energy per Si atom -5590.053017 kJ/mol
# Density = 1.838072 g / cm^3
# Si number density = 18.422649 Si / 1000 Ang^3
#
#
#
# Elastic Constant Matrix: (Units=GPa)
#
#
# Indices 1 2 3 4 5 6 
#
# 1 76.4982 54.4151 65.4518 0.0000 0.0000 0.0000
# 2 54.4151 119.5912 125.7198 0.0000 0.0000 0.0000
# 3 65.4518 125.7198 192.6237 0.0000 0.0000 0.0000
# 4 0.0000 0.0000 0.0000 18.9840 0.0000 0.0000
# 5 0.0000 0.0000 0.0000 0.0000 31.4268 0.0000
# 6 0.0000 0.0000 0.0000 0.0000 0.0000 42.9298
#
#
#
# Elastic Compliance Matrix: (Units=1/GPa)
#
#
# Indices 1 2 3 4 5 6 
#
# 1 0.019758 -0.006156 -0.002695 0.000000 0.000000 0.000000
# 2 -0.006156 0.028558 -0.016547 0.000000 0.000000 0.000000
# 3 -0.002695 -0.016547 0.016907 0.000000 0.000000 0.000000
# 4 0.000000 0.000000 0.000000 0.052676 0.000000 0.000000
# 5 0.000000 0.000000 0.000000 0.000000 0.031820 0.000000
# 6 0.000000 0.000000 0.000000 0.000000 0.000000 0.023294
#
#
# Mechanical properties :
#
#
# Convention : Reuss Voigt Hill
#
# Bulk Modulus (GPa) = 69.32381 97.76516 83.54448
# Shear Modulus (GPa) = 21.87044 28.20988 25.04016
#
# Velocity S-wave (km/s) = 3.44924 3.91738 3.69074
# Velocity P-wave (km/s) = 7.31945 8.58162 7.97554
#
# Compressibility (1/GPa) = 0.01442506
#
# Stress axis : x y z
#
# Youngs Moduli (GPa) = 50.61366 35.01613 59.14628
#
# Poissons Ratio (x) = 0.21557 0.15942
# Poissons Ratio (y) = 0.31160 0.97871
# Poissons Ratio (z) = 0.13642 0.57942
#
# Static dielectric constant tensor:
#      x y z
#    x 1.615320 0.000000 0.000000 
#    y 0.000000 1.624500 0.000000 
#    z 0.000000 0.000000 1.608210 
# 
# From -- ./inp_files/26284.got.cif
#   From: 2010.05.17/outbox.cif.g08.bks.cpg/sg53_14_cif.got.tgz:26284.got - 2010.06.03 12:45:16.
