data_PCOD9417826
_publ_section_title
;
Structure prediction by ZEFSAII (Michael W. Deem and Ramdas Pophale) SiO2 
 PCOD9417826
Probable space group: P M N A
;
_chemical_formula_sum "Si O2"
_cell_formula_units_Z 48
_cell_length_a 27.140174
_cell_length_b 14.766713
_cell_length_c 6.016007
_cell_angle_alpha 90.000000
_cell_angle_beta 90.000000
_cell_angle_gamma 90.000000
_cell_volume 2411.042105
_symmetry_space_group_name_H-M "P M N A"
_symmetry_group_IT_number 53
_symmetry_cell_setting 'orthorhombic'
loop_
_space_group_symop_operation_xyz
x,y,z
1/2-x,-y,1/2+z
x,-y,-z
1/2-x,y,1/2-z
-x,-y,-z
1/2+x,y,1/2-z
-x,y,z
1/2+x,-y,1/2+z
loop_
_atom_site_type_symbol
_atom_site_label
_atom_site_fract_x
_atom_site_fract_y
_atom_site_fract_z
Si Si1 0.133415 0.858235 0.961955
Si Si2 0.390748 0.729934 0.155356
Si Si3 0.558149 0.100232 0.105241
Si Si4 0.702848 0.233443 0.111183
Si Si5 0.799901 0.063221 0.678198
Si Si6 0.059160 0.459995 0.747810
O O1 0.122042 0.769651 0.104983
O O2 0.161255 0.921397 0.132954
O O3 0.085799 0.896584 0.841091
O O4 0.173075 0.827221 0.784182
O O5 0.423199 0.642871 0.209600
O O6 0.417768 0.815017 0.031575
O O7 0.340298 0.708926 0.014051
O O8 0.500000 0.117491 0.126132
O O9 0.563685 0.000000 0.000000
O O10 0.750000 0.271498 0.250000
O O11 0.717176 0.158378 0.927925
O O12 0.750000 0.014169 0.750000
O O13 0.825139 0.000000 0.500000
O O14 0.074221 0.500000 0.500000
O O15 0.000000 0.466635 0.754646
O O16 0.075163 0.500000 0.000000
#
# Coordination Sequence:
#
# PCOD9417826 Si02
#       6
#     8   8   8   8   8   8
#     4  10  23  39  59  85 121 169 212 273 323 390
#     4  10  23  38  64  99 126 171 219 273 333 408
#     4  10  23  42  61  86 125 177 231 275 325 393
#     4  10  20  37  57  84 122 162 211 260 327 398
#     4  11  22  34  52  83 119 162 213 271 331 382
#     4  10  23  43  71 106 140 171 215 283 355 414
#
# _framework density 19.908404000000001
#
# number of rings (size 3 to 8) (size 9 to 14) (size 15 to 20)
#    0.000    1.833    1.667    1.000    4.667    9.333 
#    0.000    1.667    0.000    0.500    4.333    0.000 
#    0.000    0.000    0.000    0.000    0.000    0.000 
#
# Total GULP energy -267300.509343 kJ/mol
# GULP energy per Si atom -5568.760611 kJ/mol
# Density = 1.986309 g / cm^3
# Si number density = 19.908404 Si / 1000 Ang^3
#
#
#
# Elastic Constant Matrix: (Units=GPa)
#
#
# Indices 1 2 3 4 5 6 
#
# 1 94.8107 9.9614 39.9437 0.0000 0.0000 0.0000
# 2 9.9614 77.4257 41.7993 0.0000 0.0000 0.0000
# 3 39.9437 41.7993 137.1897 0.0000 0.0000 0.0000
# 4 0.0000 0.0000 0.0000 28.0910 0.0000 0.0000
# 5 0.0000 0.0000 0.0000 0.0000 36.9743 0.0000
# 6 0.0000 0.0000 0.0000 0.0000 0.0000 30.4519
#
#
#
# Elastic Compliance Matrix: (Units=1/GPa)
#
#
# Indices 1 2 3 4 5 6 
#
# 1 0.012033 0.000411 -0.003629 0.000000 0.000000 0.000000
# 2 0.000411 0.015472 -0.004834 0.000000 0.000000 0.000000
# 3 -0.003629 -0.004834 0.009818 0.000000 0.000000 0.000000
# 4 0.000000 0.000000 0.000000 0.035599 0.000000 0.000000
# 5 0.000000 0.000000 0.000000 0.000000 0.027046 0.000000
# 6 0.000000 0.000000 0.000000 0.000000 0.000000 0.032839
#
#
# Mechanical properties :
#
#
# Convention : Reuss Voigt Hill
#
# Bulk Modulus (GPa) = 47.12413 54.75944 50.94179
# Shear Modulus (GPa) = 32.05470 33.61823 32.83647
#
# Velocity S-wave (km/s) = 4.01697 4.11377 4.06566
# Velocity P-wave (km/s) = 6.72581 7.08022 6.90529
#
# Compressibility (1/GPa) = 0.02122055
#
# Stress axis : x y z
#
# Youngs Moduli (GPa) = 83.10542 64.63154 101.84913
#
# Poissons Ratio (x) = -0.02655 0.36957
# Poissons Ratio (y) = -0.03414 0.49231
# Poissons Ratio (z) = 0.30156 0.31241
#
# Static dielectric constant tensor:
#      x y z
#    x 1.715400 0.000000 0.000000 
#    y 0.000000 1.770160 0.000000 
#    z 0.000000 0.000000 1.828610 
# 
# From -- ./inp_files/4488.got.cif
#   From: 2010.05.17/outbox.cif.g08.bks.cpg/sg53_3_cif.got.tgz:4488.got - 2010.06.03 12:45:16.
