data_PCOD9417180
_publ_section_title
;
Structure prediction by ZEFSAII (Michael W. Deem and Ramdas Pophale) SiO2 
 PCOD9417180
Probable space group: P M N A
;
_chemical_formula_sum "Si O2"
_cell_formula_units_Z 44
_cell_length_a 9.900356
_cell_length_b 8.504545
_cell_length_c 24.210778
_cell_angle_alpha 90.000000
_cell_angle_beta 90.000000
_cell_angle_gamma 90.000000
_cell_volume 2038.499646
_symmetry_space_group_name_H-M "P M N A"
_symmetry_group_IT_number 53
_symmetry_cell_setting 'orthorhombic'
loop_
_space_group_symop_operation_xyz
x,y,z
1/2-x,-y,1/2+z
x,-y,-z
1/2-x,y,1/2-z
-x,-y,-z
1/2+x,y,1/2-z
-x,y,z
1/2+x,-y,1/2+z
loop_
_atom_site_type_symbol
_atom_site_label
_atom_site_fract_x
_atom_site_fract_y
_atom_site_fract_z
Si Si1 0.348112 0.151435 0.031932
Si Si2 0.250000 0.504705 0.750000
Si Si3 0.151313 0.393599 0.074317
Si Si4 0.642297 0.783122 0.693955
Si Si5 0.836367 0.688457 0.144617
Si Si6 0.152452 0.009252 0.650443
O O1 0.500000 0.182072 0.009956
O O2 0.256248 0.305129 0.035261
O O3 0.360512 0.090505 0.094531
O O4 0.290020 0.000000 0.000000
O O5 0.138591 0.637763 0.763376
O O6 0.236928 0.394501 0.802993
O O7 0.148342 0.301492 0.133537
O O8 0.182058 0.571294 0.092763
O O9 0.000000 0.383502 0.051468
O O10 0.500000 0.872065 0.697348
O O11 0.771270 0.896659 0.693577
O O12 0.755416 0.849384 0.137942
O O13 0.000000 0.703484 0.153482
O O14 0.000000 0.057617 0.667068
#
# Coordination Sequence:
#
# PCOD9417180 Si02
#       6
#     8   4   8   8   8   8
#     4   9  18  34  55  79 106 136 174 219 265 315
#     4  10  20  34  56  78  98 134 180 212 252 312
#     4   8  16  32  53  76 101 134 173 210 255 308
#     4   9  18  34  54  74 100 133 170 214 258 300
#     4  10  21  37  55  77 110 144 174 218 270 313
#     4  10  21  35  54  79 105 137 175 216 263 316
#
# _framework density 21.584503000000002
#
# number of rings (size 3 to 8) (size 9 to 14) (size 15 to 20)
#    0.000    2.727    0.000    2.182    0.000    5.455 
#    0.000    6.364    0.000    5.455    0.000    0.000 
#    0.000    0.000    0.000    0.000    0.000    0.000 
#
# Total GULP energy -244949.319273 kJ/mol
# GULP energy per Si atom -5567.029983 kJ/mol
# Density = 2.153538 g / cm^3
# Si number density = 21.584503 Si / 1000 Ang^3
#
#
#
# Elastic Constant Matrix: (Units=GPa)
#
#
# Indices 1 2 3 4 5 6 
#
# 1 111.9058 45.3666 24.3739 0.0000 0.0000 0.0000
# 2 45.3666 79.6573 4.2647 0.0000 0.0000 0.0000
# 3 24.3739 4.2647 47.0999 0.0000 0.0000 0.0000
# 4 0.0000 0.0000 0.0000 37.1910 0.0000 0.0000
# 5 0.0000 0.0000 0.0000 0.0000 6.1552 0.0000
# 6 0.0000 0.0000 0.0000 0.0000 0.0000 9.8268
#
#
#
# Elastic Compliance Matrix: (Units=1/GPa)
#
#
# Indices 1 2 3 4 5 6 
#
# 1 0.013194 -0.007183 -0.006177 0.000000 0.000000 0.000000
# 2 -0.007183 0.016526 0.002221 0.000000 0.000000 0.000000
# 3 -0.006177 0.002221 0.024227 0.000000 0.000000 0.000000
# 4 0.000000 0.000000 0.000000 0.026888 0.000000 0.000000
# 5 0.000000 0.000000 0.000000 0.000000 0.162463 0.000000
# 6 0.000000 0.000000 0.000000 0.000000 0.000000 0.101763
#
#
# Mechanical properties :
#
#
# Convention : Reuss Voigt Hill
#
# Bulk Modulus (GPa) = 31.57812 42.96369 37.27091
# Shear Modulus (GPa) = 13.23116 21.61179 17.42147
#
# Velocity S-wave (km/s) = 2.47856 3.16771 2.84408
# Velocity P-wave (km/s) = 4.78045 5.77298 5.30000
#
# Compressibility (1/GPa) = 0.03166750
#
# Stress axis : x y z
#
# Youngs Moduli (GPa) = 75.79389 60.51082 41.27617
#
# Poissons Ratio (x) = 0.43467 0.25497
# Poissons Ratio (y) = 0.54446 -0.09167
# Poissons Ratio (z) = 0.46820 -0.13439
#
# Static dielectric constant tensor:
#      x y z
#    x 1.807070 0.000000 0.000000 
#    y 0.000000 1.769480 0.000000 
#    z 0.000000 0.000000 1.867770 
# 
# From -- ./inp_files/37612.got.cif
#   From: 2010.05.17/outbox.cif.g08.bks.cpg/sg53_19_cif.got.tgz:37612.got - 2010.06.03 12:45:16.
