data_PCOD9417977
_publ_section_title
;
Structure prediction by ZEFSAII (Michael W. Deem and Ramdas Pophale) SiO2 
 PCOD9417977
Probable space group: P M N A
;
_chemical_formula_sum "Si O2"
_cell_formula_units_Z 48
_cell_length_a 19.550214
_cell_length_b 13.324879
_cell_length_c 9.553284
_cell_angle_alpha 90.000000
_cell_angle_beta 90.000000
_cell_angle_gamma 90.000000
_cell_volume 2488.670949
_symmetry_space_group_name_H-M "P M N A"
_symmetry_group_IT_number 53
_symmetry_cell_setting 'orthorhombic'
loop_
_space_group_symop_operation_xyz
x,y,z
1/2-x,-y,1/2+z
x,-y,-z
1/2-x,y,1/2-z
-x,-y,-z
1/2+x,y,1/2-z
-x,y,z
1/2+x,-y,1/2+z
loop_
_atom_site_type_symbol
_atom_site_label
_atom_site_fract_x
_atom_site_fract_y
_atom_site_fract_z
Si Si1 0.578355 0.676620 0.095933
Si Si2 0.855028 0.252685 0.095739
Si Si3 0.832574 0.500000 0.500000
Si Si4 0.500000 0.650524 0.621079
Si Si5 0.331820 0.814174 0.277539
Si Si6 0.000000 0.562801 0.189088
Si Si7 0.750000 0.593517 0.750000
Si Si8 0.683729 0.969735 0.656982
O O1 0.500000 0.702234 0.048689
O O2 0.626209 0.765713 0.149814
O O3 0.564529 0.611528 0.235812
O O4 0.619982 0.599256 0.002230
O O5 0.930793 0.288989 0.131046
O O6 0.801839 0.331402 0.165751
O O7 0.849194 0.139384 0.153526
O O8 0.844239 0.240518 0.927374
O O9 0.786315 0.520912 0.636514
O O10 0.500000 0.554193 0.719727
O O11 0.500000 0.599299 0.468151
O O12 0.250000 0.811883 0.250000
O O13 0.355168 0.930504 0.291753
O O14 0.750000 0.959466 0.750000
O O15 0.704584 0.000000 0.500000
#
# Coordination Sequence:
#
# PCOD9417977 Si02
#       8
#     8   8   4   4   8   4   4   8
#     4  10  21  41  61  87 125 162 206 246 307 366
#     4  11  21  40  61  93 121 164 199 256 305 366
#     4  12  27  42  60  97 120 168 204 264 295 362
#     4  11  20  36  58  91 126 161 202 251 316 357
#     4  10  20  37  65  91 123 158 205 255 305 362
#     4   9  20  35  61  84 118 170 200 244 297 378
#     4  12  28  40  66  86 132 156 214 248 306 364
#     4   9  19  37  61  90 120 156 202 251 307 364
#
# _framework density 19.287403999999999
#
# number of rings (size 3 to 8) (size 9 to 14) (size 15 to 20)
#    0.500    1.167    2.500    2.250    3.500    1.333 
#    3.000    1.250    0.000    0.000    0.000    1.750 
#    0.000    0.000    0.000    0.000    0.000    0.000 
#
# Total GULP energy -267394.540834 kJ/mol
# GULP energy per Si atom -5570.719601 kJ/mol
# Density = 1.924350 g / cm^3
# Si number density = 19.287404 Si / 1000 Ang^3
#
#
#
# Elastic Constant Matrix: (Units=GPa)
#
#
# Indices 1 2 3 4 5 6 
#
# 1 106.3751 39.6176 18.5392 0.0000 0.0000 0.0000
# 2 39.6176 82.4352 19.9979 0.0000 0.0000 0.0000
# 3 18.5392 19.9979 24.9448 0.0000 0.0000 0.0000
# 4 0.0000 0.0000 0.0000 23.3054 0.0000 0.0000
# 5 0.0000 0.0000 0.0000 0.0000 30.3196 0.0000
# 6 0.0000 0.0000 0.0000 0.0000 0.0000 25.0296
#
#
#
# Elastic Compliance Matrix: (Units=1/GPa)
#
#
# Indices 1 2 3 4 5 6 
#
# 1 0.011995 -0.004472 -0.005330 0.000000 0.000000 0.000000
# 2 -0.004472 0.016727 -0.010086 0.000000 0.000000 0.000000
# 3 -0.005330 -0.010086 0.052136 0.000000 0.000000 0.000000
# 4 0.000000 0.000000 0.000000 0.042908 0.000000 0.000000
# 5 0.000000 0.000000 0.000000 0.000000 0.032982 0.000000
# 6 0.000000 0.000000 0.000000 0.000000 0.000000 0.039953
#
#
# Mechanical properties :
#
#
# Convention : Reuss Voigt Hill
#
# Bulk Modulus (GPa) = 24.34165 41.11830 32.72998
# Shear Modulus (GPa) = 19.98645 24.77095 22.37870
#
# Velocity S-wave (km/s) = 3.22257 3.58761 3.40998
# Velocity P-wave (km/s) = 5.14728 6.20695 5.70179
#
# Compressibility (1/GPa) = 0.04108184
#
# Stress axis : x y z
#
# Youngs Moduli (GPa) = 83.36805 59.78511 19.18077
#
# Poissons Ratio (x) = 0.26734 0.10223
# Poissons Ratio (y) = 0.37280 0.19346
# Poissons Ratio (z) = 0.44434 0.60300
#
# Static dielectric constant tensor:
#      x y z
#    x 1.656980 0.000000 0.000000 
#    y 0.000000 1.712070 0.000000 
#    z 0.000000 0.000000 1.723880 
# 
# From -- ./inp_files/10078.got.cif
#   From: 2010.05.17/outbox.cif.g08.bks.cpg/sg53_6_cif.got.tgz:10078.got - 2010.06.03 12:45:16.
