data_PCOD9417741
_publ_section_title
;
Structure prediction by ZEFSAII (Michael W. Deem and Ramdas Pophale) SiO2 
 PCOD9417741
Probable space group: P M N A
;
_chemical_formula_sum "Si O2"
_cell_formula_units_Z 48
_cell_length_a 8.695629
_cell_length_b 15.039089
_cell_length_c 19.072610
_cell_angle_alpha 90.000000
_cell_angle_beta 90.000000
_cell_angle_gamma 90.000000
_cell_volume 2494.207955
_symmetry_space_group_name_H-M "P M N A"
_symmetry_group_IT_number 53
_symmetry_cell_setting 'orthorhombic'
loop_
_space_group_symop_operation_xyz
x,y,z
1/2-x,-y,1/2+z
x,-y,-z
1/2-x,y,1/2-z
-x,-y,-z
1/2+x,y,1/2-z
-x,y,z
1/2+x,-y,1/2+z
loop_
_atom_site_type_symbol
_atom_site_label
_atom_site_fract_x
_atom_site_fract_y
_atom_site_fract_z
Si Si1 0.816128 0.033585 0.826765
Si Si2 0.815495 0.380384 0.549246
Si Si3 0.683791 0.443950 0.399984
Si Si4 0.183399 0.718403 0.675824
Si Si5 0.184509 0.132773 0.074762
Si Si6 0.816143 0.175548 0.574459
O O1 0.750000 0.015241 0.750000
O O2 0.749862 0.124223 0.858896
O O3 0.000000 0.037974 0.823085
O O4 0.774520 0.954846 0.880955
O O5 0.738448 0.401722 0.474225
O O6 0.753549 0.457167 0.600381
O O7 0.778261 0.280476 0.572552
O O8 0.000000 0.388200 0.541566
O O9 0.500000 0.446683 0.397623
O O10 0.750396 0.378949 0.341239
O O11 0.250000 0.749959 0.750000
O O12 0.241868 0.784031 0.615228
O O13 0.000000 0.716926 0.677103
O O14 0.000000 0.141666 0.074084
O O15 0.245513 0.132367 0.995754
O O16 0.000000 0.166956 0.572460
#
# Coordination Sequence:
#
# PCOD9417741 Si02
#       6
#     8   8   8   8   8   8
#     4  11  25  43  63  88 122 162 204 254 308 367
#     4  10  20  36  59  88 120 156 199 248 298 352
#     4  11  21  35  58  87 119 158 199 246 300 358
#     4  12  24  39  59  87 124 164 204 254 311 371
#     4  11  23  40  63  92 123 159 204 254 307 365
#     4  11  23  39  64  94 124 161 204 253 304 360
#
# _framework density 19.244586999999999
#
# number of rings (size 3 to 8) (size 9 to 14) (size 15 to 20)
#    0.000    1.000    1.667    7.000    0.000    8.000 
#    0.000    0.833    0.000    4.000    0.000    0.000 
#    0.000    0.000    0.000    0.000    0.000    0.000 
#
# Total GULP energy -268512.726336 kJ/mol
# GULP energy per Si atom -5594.015132 kJ/mol
# Density = 1.920079 g / cm^3
# Si number density = 19.244587 Si / 1000 Ang^3
#
#
#
# Elastic Constant Matrix: (Units=GPa)
#
#
# Indices 1 2 3 4 5 6 
#
# 1 80.2237 47.9889 9.4719 0.0000 0.0000 0.0000
# 2 47.9889 113.2264 18.5990 0.0000 0.0000 0.0000
# 3 9.4719 18.5990 36.8456 0.0000 0.0000 0.0000
# 4 0.0000 0.0000 0.0000 24.6490 0.0000 0.0000
# 5 0.0000 0.0000 0.0000 0.0000 23.0853 0.0000
# 6 0.0000 0.0000 0.0000 0.0000 0.0000 41.7483
#
#
#
# Elastic Compliance Matrix: (Units=1/GPa)
#
#
# Indices 1 2 3 4 5 6 
#
# 1 0.016720 -0.006957 -0.000786 0.000000 0.000000 0.000000
# 2 -0.006957 0.012525 -0.004534 0.000000 0.000000 0.000000
# 3 -0.000786 -0.004534 0.029631 0.000000 0.000000 0.000000
# 4 0.000000 0.000000 0.000000 0.040570 0.000000 0.000000
# 5 0.000000 0.000000 0.000000 0.000000 0.043318 0.000000
# 6 0.000000 0.000000 0.000000 0.000000 0.000000 0.023953
#
#
# Mechanical properties :
#
#
# Convention : Reuss Voigt Hill
#
# Bulk Modulus (GPa) = 29.13661 42.49060 35.81360
# Shear Modulus (GPa) = 24.66554 28.17889 26.42222
#
# Velocity S-wave (km/s) = 3.58395 3.83070 3.70938
# Velocity P-wave (km/s) = 5.68325 6.45700 6.08244
#
# Compressibility (1/GPa) = 0.03432108
#
# Stress axis : x y z
#
# Youngs Moduli (GPa) = 59.80976 79.83828 33.74827
#
# Poissons Ratio (x) = 0.55545 0.02654
# Poissons Ratio (y) = 0.41611 0.15302
# Poissons Ratio (z) = 0.04703 0.36199
#
# Static dielectric constant tensor:
#      x y z
#    x 1.636460 0.000000 0.000000 
#    y 0.000000 1.690950 0.000000 
#    z 0.000000 0.000000 1.680150 
# 
# From -- ./inp_files/30510.got.cif
#   From: 2010.05.17/outbox.cif.g08.bks.cpg/sg53_16_cif.got.tgz:30510.got - 2010.06.03 12:45:16.
