data_PCOD9417275
_publ_section_title
;
Structure prediction by ZEFSAII (Michael W. Deem and Ramdas Pophale) SiO2 
 PCOD9417275
Probable space group: P M N A
;
_chemical_formula_sum "Si O2"
_cell_formula_units_Z 48
_cell_length_a 8.636972
_cell_length_b 31.854213
_cell_length_c 9.460017
_cell_angle_alpha 90.000000
_cell_angle_beta 90.000000
_cell_angle_gamma 90.000000
_cell_volume 2602.677204
_symmetry_space_group_name_H-M "P M N A"
_symmetry_group_IT_number 53
_symmetry_cell_setting 'orthorhombic'
loop_
_space_group_symop_operation_xyz
x,y,z
1/2-x,-y,1/2+z
x,-y,-z
1/2-x,y,1/2-z
-x,-y,-z
1/2+x,y,1/2-z
-x,y,z
1/2+x,-y,1/2+z
loop_
_atom_site_type_symbol
_atom_site_label
_atom_site_fract_x
_atom_site_fract_y
_atom_site_fract_z
Si Si1 0.185726 0.959539 0.908660
Si Si2 0.313791 0.302369 0.908672
Si Si3 0.686944 0.459460 0.590867
Si Si4 0.314032 0.621823 0.591631
Si Si5 0.313932 0.871524 0.908425
Si Si6 0.813583 0.207323 0.593437
O O1 0.250000 0.964045 0.750000
O O2 0.251762 0.915705 0.967964
O O3 0.000000 0.956800 0.903391
O O4 0.230246 0.000000 0.000000
O O5 0.250000 0.309814 0.750000
O O6 0.500000 0.305205 0.905311
O O7 0.268551 0.254650 0.950577
O O8 0.247093 0.336297 0.016098
O O9 0.736655 0.500000 0.500000
O O10 0.750000 0.460103 0.750000
O O11 0.500000 0.459953 0.598357
O O12 0.734070 0.417712 0.505598
O O13 0.250000 0.617704 0.750000
O O14 0.500000 0.622659 0.597060
O O15 0.250000 0.868499 0.750000
O O16 0.500000 0.872856 0.905583
O O17 0.261738 0.830594 0.994160
O O18 0.750000 0.200722 0.750000
O O19 0.000000 0.206497 0.597557
#
# Coordination Sequence:
#
# PCOD9417275 Si02
#       6
#     8   8   8   8   8   8
#     4  10  21  36  54  77 104 136 174 214 260 313
#     4  10  20  37  58  81 111 145 183 225 272 324
#     4  10  22  39  59  84 113 146 184 226 274 326
#     4  11  23  38  57  83 113 146 186 229 275 326
#     4  10  20  35  54  77 105 137 174 215 262 313
#     4   9  20  36  55  80 108 140 178 220 265 316
#
# _framework density 18.442549
#
# number of rings (size 3 to 8) (size 9 to 14) (size 15 to 20)
#    0.000    2.000    0.000    4.000    0.000    7.667 
#    0.000    5.000    0.000    0.000    0.000    0.000 
#    0.000    0.000    0.000    0.000    0.000    0.000 
#
# Total GULP energy -268039.253344 kJ/mol
# GULP energy per Si atom -5584.151111 kJ/mol
# Density = 1.840057 g / cm^3
# Si number density = 18.442549 Si / 1000 Ang^3
#
#
#
# Elastic Constant Matrix: (Units=GPa)
#
#
# Indices 1 2 3 4 5 6 
#
# 1 41.6345 47.6569 34.3040 0.0000 0.0000 0.0000
# 2 47.6569 197.9733 115.3084 0.0000 0.0000 0.0000
# 3 34.3040 115.3084 126.5785 0.0000 0.0000 0.0000
# 4 0.0000 0.0000 0.0000 41.9363 0.0000 0.0000
# 5 0.0000 0.0000 0.0000 0.0000 30.3711 0.0000
# 6 0.0000 0.0000 0.0000 0.0000 0.0000 28.6382
#
#
#
# Elastic Compliance Matrix: (Units=1/GPa)
#
#
# Indices 1 2 3 4 5 6 
#
# 1 0.033966 -0.005997 -0.003742 0.000000 0.000000 0.000000
# 2 -0.005997 0.011819 -0.009142 0.000000 0.000000 0.000000
# 3 -0.003742 -0.009142 0.017242 0.000000 0.000000 0.000000
# 4 0.000000 0.000000 0.000000 0.023846 0.000000 0.000000
# 5 0.000000 0.000000 0.000000 0.000000 0.032926 0.000000
# 6 0.000000 0.000000 0.000000 0.000000 0.000000 0.034918
#
#
# Mechanical properties :
#
#
# Convention : Reuss Voigt Hill
#
# Bulk Modulus (GPa) = 39.57890 84.52497 62.05194
# Shear Modulus (GPa) = 24.88779 31.45025 28.16902
#
# Velocity S-wave (km/s) = 3.67751 4.13402 3.91243
# Velocity P-wave (km/s) = 6.28803 8.28962 7.35721
#
# Compressibility (1/GPa) = 0.02526599
#
# Stress axis : x y z
#
# Youngs Moduli (GPa) = 29.44112 84.60697 57.99685
#
# Poissons Ratio (x) = 0.50737 0.21704
# Poissons Ratio (y) = 0.17655 0.53020
# Poissons Ratio (z) = 0.11018 0.77346
#
# Static dielectric constant tensor:
#      x y z
#    x 1.625120 0.000000 0.000000 
#    y 0.000000 1.652050 0.000000 
#    z 0.000000 0.000000 1.589770 
# 
# From -- ./inp_files/6652.got.cif
#   From: 2010.05.17/outbox.cif.g08.bks.cpg/sg53_4_cif.got.tgz:6652.got - 2010.06.03 12:45:16.
