data_PCOD9417084
_publ_section_title
;
Structure prediction by ZEFSAII (Michael W. Deem and Ramdas Pophale) SiO2 
 PCOD9417084
Probable space group: P M N A
;
_chemical_formula_sum "Si O2"
_cell_formula_units_Z 48
_cell_length_a 8.753065
_cell_length_b 16.152477
_cell_length_c 18.996793
_cell_angle_alpha 90.000000
_cell_angle_beta 90.000000
_cell_angle_gamma 90.000000
_cell_volume 2685.836523
_symmetry_space_group_name_H-M "P M N A"
_symmetry_group_IT_number 53
_symmetry_cell_setting 'orthorhombic'
loop_
_space_group_symop_operation_xyz
x,y,z
1/2-x,-y,1/2+z
x,-y,-z
1/2-x,y,1/2-z
-x,-y,-z
1/2+x,y,1/2-z
-x,y,z
1/2+x,-y,1/2+z
loop_
_atom_site_type_symbol
_atom_site_label
_atom_site_fract_x
_atom_site_fract_y
_atom_site_fract_z
Si Si1 0.323831 0.005094 0.585520
Si Si2 0.682066 0.675989 0.328826
Si Si3 0.815951 0.177294 0.076867
Si Si4 0.180978 0.823457 0.419852
Si Si5 0.817290 0.492923 0.670972
Si Si6 0.683386 0.323072 0.171060
O O1 0.500000 0.019321 0.606382
O O2 0.224825 0.084134 0.605992
O O3 0.321302 0.000000 0.500000
O O4 0.274045 0.913317 0.608379
O O5 0.750000 0.682411 0.250000
O O6 0.500000 0.673496 0.324980
O O7 0.738987 0.753695 0.373304
O O8 0.743605 0.589337 0.361273
O O9 0.757159 0.251709 0.124458
O O10 0.000000 0.178281 0.070311
O O11 0.742969 0.183781 0.999538
O O12 0.000000 0.812395 0.418586
O O13 0.750000 0.495657 0.750000
O O14 0.783301 0.584315 0.641330
O O15 0.000000 0.482868 0.673809
O O16 0.750000 0.318485 0.250000
O O17 0.500000 0.314107 0.173753
#
# Coordination Sequence:
#
# PCOD9417084 Si02
#       6
#     8   8   8   8   8   8
#     4   8  16  32  52  74 101 135 173 210 251 303
#     4  11  21  35  55  78 105 136 172 213 257 306
#     4  10  20  35  55  78 106 138 173 214 257 304
#     4  11  21  34  54  79 106 136 172 213 257 307
#     4   9  17  31  51  75 102 134 172 210 251 303
#     4  10  20  34  54  79 107 138 173 214 257 305
#
# _framework density 17.871528000000001
#
# number of rings (size 3 to 8) (size 9 to 14) (size 15 to 20)
#    0.000    2.167    0.000    6.500    0.000    5.667 
#    0.000    1.667    0.000    9.000    0.000    0.000 
#    0.000    0.000    0.000    0.000    0.000    0.000 
#
# Total GULP energy -267690.074696 kJ/mol
# GULP energy per Si atom -5576.876556 kJ/mol
# Density = 1.783085 g / cm^3
# Si number density = 17.871528 Si / 1000 Ang^3
#
#
#
# Elastic Constant Matrix: (Units=GPa)
#
#
# Indices 1 2 3 4 5 6 
#
# 1 123.2452 82.7322 29.1293 0.0000 0.0000 0.0000
# 2 82.7322 190.1883 51.3738 0.0000 0.0000 0.0000
# 3 29.1293 51.3738 35.4977 0.0000 0.0000 0.0000
# 4 0.0000 0.0000 0.0000 32.0430 0.0000 0.0000
# 5 0.0000 0.0000 0.0000 0.0000 24.8644 0.0000
# 6 0.0000 0.0000 0.0000 0.0000 0.0000 35.4240
#
#
#
# Elastic Compliance Matrix: (Units=1/GPa)
#
#
# Indices 1 2 3 4 5 6 
#
# 1 0.011747 -0.004115 -0.003685 0.000000 0.000000 0.000000
# 2 -0.004115 0.010074 -0.011203 0.000000 0.000000 0.000000
# 3 -0.003685 -0.011203 0.047408 0.000000 0.000000 0.000000
# 4 0.000000 0.000000 0.000000 0.031208 0.000000 0.000000
# 5 0.000000 0.000000 0.000000 0.000000 0.040218 0.000000
# 6 0.000000 0.000000 0.000000 0.000000 0.000000 0.028229
#
#
# Mechanical properties :
#
#
# Convention : Reuss Voigt Hill
#
# Bulk Modulus (GPa) = 32.02632 75.04463 53.53548
# Shear Modulus (GPa) = 23.00995 30.84599 26.92797
#
# Velocity S-wave (km/s) = 3.59210 4.15900 3.88590
# Velocity P-wave (km/s) = 5.92987 8.07127 7.08198
#
# Compressibility (1/GPa) = 0.03122432
#
# Stress axis : x y z
#
# Youngs Moduli (GPa) = 85.12940 99.26544 21.09346
#
# Poissons Ratio (x) = 0.40844 0.07772
# Poissons Ratio (y) = 0.35027 0.23631
# Poissons Ratio (z) = 0.31366 1.11208
#
# Static dielectric constant tensor:
#      x y z
#    x 1.594090 0.000000 0.000000 
#    y 0.000000 1.657350 0.000000 
#    z 0.000000 0.000000 1.596310 
# 
# From -- ./inp_files/30515.got.cif
#   From: 2010.05.17/outbox.cif.g08.bks.cpg/sg53_16_cif.got.tgz:30515.got - 2010.06.03 12:45:16.
