data_PCOD9417091
_publ_section_title
;
Structure prediction by ZEFSAII (Michael W. Deem and Ramdas Pophale) SiO2 
 PCOD9417091
Probable space group: P M N A
;
_chemical_formula_sum "Si O2"
_cell_formula_units_Z 64
_cell_length_a 8.738303
_cell_length_b 23.579675
_cell_length_c 16.419707
_cell_angle_alpha 90.000000
_cell_angle_beta 90.000000
_cell_angle_gamma 90.000000
_cell_volume 3383.220610
_symmetry_space_group_name_H-M "P M N A"
_symmetry_group_IT_number 53
_symmetry_cell_setting 'orthorhombic'
loop_
_space_group_symop_operation_xyz
x,y,z
1/2-x,-y,1/2+z
x,-y,-z
1/2-x,y,1/2-z
-x,-y,-z
1/2+x,y,1/2-z
-x,y,z
1/2+x,-y,1/2+z
loop_
_atom_site_type_symbol
_atom_site_label
_atom_site_fract_x
_atom_site_fract_y
_atom_site_fract_z
Si Si1 0.314970 0.130979 0.508699
Si Si2 0.815550 0.077410 0.163149
Si Si3 0.684464 0.944578 0.336885
Si Si4 0.316963 0.254737 0.994808
Si Si5 0.819416 0.637981 0.078910
Si Si6 0.683280 0.527742 0.336027
Si Si7 0.818113 0.424220 0.424627
Si Si8 0.818438 0.688862 0.664279
O O1 0.500000 0.130493 0.508077
O O2 0.264512 0.109298 0.419072
O O3 0.265650 0.090564 0.583558
O O4 0.255242 0.194153 0.522330
O O5 0.750000 0.097997 0.250000
O O6 0.000000 0.080754 0.167155
O O7 0.772691 0.010925 0.154344
O O8 0.750000 0.924275 0.250000
O O9 0.500000 0.941872 0.333116
O O10 0.500000 0.251055 0.996261
O O11 0.267720 0.302991 0.930728
O O12 0.263624 0.277113 0.084258
O O13 0.777968 0.593771 0.149496
O O14 0.000000 0.648961 0.080973
O O15 0.775102 0.601343 0.999521
O O16 0.750000 0.509678 0.250000
O O17 0.500000 0.521733 0.340179
O O18 0.760955 0.485926 0.400564
O O19 0.790103 0.377828 0.353392
O O20 0.000000 0.423875 0.442301
O O21 0.750000 0.706752 0.750000
O O22 0.000000 0.696463 0.667899
#
# Coordination Sequence:
#
# PCOD9417091 Si02
#       8
#     8   8   8   8   8   8   8   8
#     4  10  20  35  56  80 108 145 185 224 269 320
#     4   9  18  33  54  82 116 150 181 217 263 317
#     4   9  18  34  56  82 111 143 182 225 270 321
#     4  10  22  38  54  75 103 136 179 225 266 313
#     4  10  21  38  57  76 101 135 175 216 261 314
#     4  11  23  36  53  79 107 134 168 213 263 316
#     4  10  20  34  54  80 108 137 170 210 259 316
#     4   9  19  33  49  72 101 134 170 209 255 307
#
# _framework density 18.916886000000002
#
# number of rings (size 3 to 8) (size 9 to 14) (size 15 to 20)
#    0.000    2.250    0.000    3.375    0.000   10.500 
#    0.000    3.125    0.000    3.750    0.000    0.000 
#    0.000    0.000    0.000    0.000    0.000    0.000 
#
# Total GULP energy -357049.687299 kJ/mol
# GULP energy per Si atom -5578.901364 kJ/mol
# Density = 1.887383 g / cm^3
# Si number density = 18.916886 Si / 1000 Ang^3
#
#
#
# Elastic Constant Matrix: (Units=GPa)
#
#
# Indices 1 2 3 4 5 6 
#
# 1 2.8565 8.1463 7.4043 0.0000 0.0000 0.0000
# 2 8.1463 80.6356 26.0042 0.0000 0.0000 0.0000
# 3 7.4043 26.0042 65.4381 0.0000 0.0000 0.0000
# 4 0.0000 0.0000 0.0000 14.1190 0.0000 0.0000
# 5 0.0000 0.0000 0.0000 0.0000 26.9760 0.0000
# 6 0.0000 0.0000 0.0000 0.0000 0.0000 23.6864
#
#
#
# Elastic Compliance Matrix: (Units=1/GPa)
#
#
# Indices 1 2 3 4 5 6 
#
# 1 0.612178 -0.045315 -0.051260 0.000000 0.000000 0.000000
# 2 -0.045315 0.017579 -0.001858 0.000000 0.000000 0.000000
# 3 -0.051260 -0.001858 0.021820 0.000000 0.000000 0.000000
# 4 0.000000 0.000000 0.000000 0.070827 0.000000 0.000000
# 5 0.000000 0.000000 0.000000 0.000000 0.037070 0.000000
# 6 0.000000 0.000000 0.000000 0.000000 0.000000 0.042218
#
#
# Mechanical properties :
#
#
# Convention : Reuss Voigt Hill
#
# Bulk Modulus (GPa) = 2.19920 25.78218 13.99069
# Shear Modulus (GPa) = 4.34734 20.11463 12.23098
#
# Velocity S-wave (km/s) = 1.51760 3.26439 2.54552
# Velocity P-wave (km/s) = 2.05813 5.27893 4.00643
#
# Compressibility (1/GPa) = 0.45471047
#
# Stress axis : x y z
#
# Youngs Moduli (GPa) = 1.63351 56.88716 45.82926
#
# Poissons Ratio (x) = 2.57783 2.34923
# Poissons Ratio (y) = 0.07402 0.08516
# Poissons Ratio (z) = 0.08373 0.10571
#
# Static dielectric constant tensor:
#      x y z
#    x 1.637130 0.000000 0.000000 
#    y 0.000000 1.657770 0.000000 
#    z 0.000000 0.000000 0.899630 
# 
# From -- ./inp_files/20967.got.cif
#   From: 2010.05.17/outbox.cif.g08.bks.cpg/sg53_11_cif.got.tgz:20967.got - 2010.06.03 12:45:16.
