data_PCOD9417872
_publ_section_title
;
Structure prediction by ZEFSAII (Michael W. Deem and Ramdas Pophale) SiO2 
 PCOD9417872
Probable space group: P M N A
;
_chemical_formula_sum "Si O2"
_cell_formula_units_Z 48
_cell_length_a 32.258050
_cell_length_b 8.265393
_cell_length_c 9.513890
_cell_angle_alpha 90.000000
_cell_angle_beta 90.000000
_cell_angle_gamma 90.000000
_cell_volume 2536.645304
_symmetry_space_group_name_H-M "P M N A"
_symmetry_group_IT_number 53
_symmetry_cell_setting 'orthorhombic'
loop_
_space_group_symop_operation_xyz
x,y,z
1/2-x,-y,1/2+z
x,-y,-z
1/2-x,y,1/2-z
-x,-y,-z
1/2+x,y,1/2-z
-x,y,z
1/2+x,-y,1/2+z
loop_
_atom_site_type_symbol
_atom_site_label
_atom_site_fract_x
_atom_site_fract_y
_atom_site_fract_z
Si Si1 0.789526 0.037019 0.837159
Si Si2 0.453155 0.270542 0.929847
Si Si3 0.623317 0.499056 0.847313
Si Si4 0.369543 0.824911 0.672092
Si Si5 0.453193 0.924688 0.778145
Si Si6 0.328539 0.652545 0.408810
O O1 0.750000 0.982639 0.750000
O O2 0.795184 0.229413 0.840395
O O3 0.832418 0.949505 0.790793
O O4 0.782626 0.000000 0.000000
O O5 0.500000 0.333142 0.912792
O O6 0.419863 0.403687 0.880849
O O7 0.449385 0.105942 0.839481
O O8 0.449144 0.200695 0.089412
O O9 0.626128 0.680104 0.785015
O O10 0.644046 0.402349 0.721168
O O11 0.644865 0.500000 0.000000
O O12 0.415248 0.899895 0.672836
O O13 0.355954 0.752441 0.521910
O O14 0.500000 0.904035 0.721969
O O15 0.312591 0.500000 0.500000
#
# Coordination Sequence:
#
# PCOD9417872 Si02
#       6
#     8   8   8   8   8   8
#     4  10  22  42  65  88 116 152 193 240 296 351
#     4   9  18  31  49  80 121 154 196 253 298 336
#     4  11  20  33  54  85 113 154 202 239 289 347
#     4  10  20  37  59  84 118 155 191 240 299 352
#     4   9  17  32  55  83 116 157 200 243 294 358
#     4   9  21  40  59  82 120 153 184 237 304 354
#
# _framework density 18.922629000000001
#
# number of rings (size 3 to 8) (size 9 to 14) (size 15 to 20)
#    0.000    2.333    1.667    2.000    0.000    2.333 
#    3.000    9.167    0.000    9.500    0.000    0.000 
#    0.000    0.000    0.000    0.000    0.000    0.000 
#
# Total GULP energy -267230.125465 kJ/mol
# GULP energy per Si atom -5567.294281 kJ/mol
# Density = 1.887956 g / cm^3
# Si number density = 18.922629 Si / 1000 Ang^3
#
#
#
# Elastic Constant Matrix: (Units=GPa)
#
#
# Indices 1 2 3 4 5 6 
#
# 1 105.4546 47.8577 27.8363 0.0000 0.0000 0.0000
# 2 47.8577 86.1736 26.6441 0.0000 0.0000 0.0000
# 3 27.8363 26.6441 56.8929 0.0000 0.0000 0.0000
# 4 0.0000 0.0000 0.0000 18.8279 0.0000 0.0000
# 5 0.0000 0.0000 0.0000 0.0000 -11.6671 0.0000
# 6 0.0000 0.0000 0.0000 0.0000 0.0000 14.1706
#
#
#
# Elastic Compliance Matrix: (Units=1/GPa)
#
#
# Indices 1 2 3 4 5 6 
#
# 1 0.013266 -0.006268 -0.003555 0.000000 0.000000 0.000000
# 2 -0.006268 0.016531 -0.004675 0.000000 0.000000 0.000000
# 3 -0.003555 -0.004675 0.021506 0.000000 0.000000 0.000000
# 4 0.000000 0.000000 0.000000 0.053113 0.000000 0.000000
# 5 0.000000 0.000000 0.000000 0.000000 -0.085711 0.000000
# 6 0.000000 0.000000 0.000000 0.000000 0.000000 0.070569
#
#
# Mechanical properties :
#
#
# Convention : Reuss Voigt Hill
#
# Bulk Modulus (GPa) = 44.83088 50.35525 47.59306
# Shear Modulus (GPa) = 39.77586 14.01182 26.89384
#
# Velocity S-wave (km/s) = 4.58976 2.72413 3.77404
# Velocity P-wave (km/s) = 7.19937 6.04677 6.64810
#
# Compressibility (1/GPa) = 0.02230606
#
# Stress axis : x y z
#
# Youngs Moduli (GPa) = 75.38182 60.49226 46.49929
#
# Poissons Ratio (x) = 0.37917 0.16531
# Poissons Ratio (y) = 0.47250 0.21738
# Poissons Ratio (z) = 0.26799 0.28280
#
# Static dielectric constant tensor:
#      x y z
#    x 1.659030 0.000000 0.000000 
#    y 0.000000 1.756190 0.000000 
#    z 0.000000 0.000000 1.645000 
# 
# From -- ./inp_files/13055.got.cif
#   From: 2010.05.17/outbox.cif.g08.bks.cpg/sg53_7_cif.got.tgz:13055.got - 2010.06.03 12:45:16.
