data_PCOD9417889
_publ_section_title
;
Structure prediction by ZEFSAII (Michael W. Deem and Ramdas Pophale) SiO2 
 PCOD9417889
Probable space group: P M N A
;
_chemical_formula_sum "Si O2"
_cell_formula_units_Z 40
_cell_length_a 17.323614
_cell_length_b 12.508259
_cell_length_c 9.499480
_cell_angle_alpha 90.000000
_cell_angle_beta 90.000000
_cell_angle_gamma 90.000000
_cell_volume 2058.425704
_symmetry_space_group_name_H-M "P M N A"
_symmetry_group_IT_number 53
_symmetry_cell_setting 'orthorhombic'
loop_
_space_group_symop_operation_xyz
x,y,z
1/2-x,-y,1/2+z
x,-y,-z
1/2-x,y,1/2-z
-x,-y,-z
1/2+x,y,1/2-z
-x,y,z
1/2+x,-y,1/2+z
loop_
_atom_site_type_symbol
_atom_site_label
_atom_site_fract_x
_atom_site_fract_y
_atom_site_fract_z
Si Si1 0.412551 0.617729 0.431738
Si Si2 0.764050 0.704069 0.906141
Si Si3 0.408869 0.051528 0.855170
Si Si4 0.187995 0.054064 0.147461
Si Si5 0.167591 0.284218 0.673162
O O1 0.416217 0.500000 0.500000
O O2 0.500000 0.662832 0.442620
O O3 0.344333 0.669483 0.523514
O O4 0.383508 0.635360 0.269859
O O5 0.750000 0.656818 0.750000
O O6 0.777688 0.830124 0.883884
O O7 0.693148 0.684000 0.013992
O O8 0.500000 0.066303 0.866993
O O9 0.372762 0.168195 0.828108
O O10 0.389422 0.964398 0.735352
O O11 0.378469 0.000000 0.000000
O O12 0.250000 0.998122 0.250000
O O13 0.178315 0.000000 0.000000
O O14 0.250000 0.274762 0.750000
#
# Coordination Sequence:
#
# PCOD9417889 Si02
#       5
#     8   8   8   8   8
#     4  10  22  41  62  83 111 148 192 248 310 365
#     4  10  21  35  58  88 116 151 196 248 301 358
#     4  11  22  34  52  82 121 162 200 240 289 350
#     4  11  20  33  53  77 110 149 192 236 284 341
#     4  10  20  37  60  84 112 153 201 245 296 354
#
# _framework density 19.432326
#
# number of rings (size 3 to 8) (size 9 to 14) (size 15 to 20)
#    0.000    1.600    0.000    7.800    0.000    3.600 
#    0.000    2.000    0.000    2.400    0.000    0.000 
#    0.000    0.000    0.000    0.000    0.000    0.000 
#
# Total GULP energy -222821.292552 kJ/mol
# GULP energy per Si atom -5570.532314 kJ/mol
# Density = 1.938810 g / cm^3
# Si number density = 19.432326 Si / 1000 Ang^3
#
#
#
# Elastic Constant Matrix: (Units=GPa)
#
#
# Indices 1 2 3 4 5 6 
#
# 1 92.7563 13.3462 42.6447 0.0000 0.0000 0.0000
# 2 13.3462 35.2086 32.1017 0.0000 0.0000 0.0000
# 3 42.6447 32.1017 165.2890 0.0000 0.0000 0.0000
# 4 0.0000 0.0000 0.0000 18.6550 0.0000 0.0000
# 5 0.0000 0.0000 0.0000 0.0000 9.9306 0.0000
# 6 0.0000 0.0000 0.0000 0.0000 0.0000 24.0435
#
#
#
# Elastic Compliance Matrix: (Units=1/GPa)
#
#
# Indices 1 2 3 4 5 6 
#
# 1 0.012366 -0.002161 -0.002771 0.000000 0.000000 0.000000
# 2 -0.002161 0.034891 -0.006219 0.000000 0.000000 0.000000
# 3 -0.002771 -0.006219 0.007973 0.000000 0.000000 0.000000
# 4 0.000000 0.000000 0.000000 0.053605 0.000000 0.000000
# 5 0.000000 0.000000 0.000000 0.000000 0.100698 0.000000
# 6 0.000000 0.000000 0.000000 0.000000 0.000000 0.041591
#
#
# Mechanical properties :
#
#
# Convention : Reuss Voigt Hill
#
# Bulk Modulus (GPa) = 30.36895 52.15991 41.26443
# Shear Modulus (GPa) = 17.58076 24.20326 20.89201
#
# Velocity S-wave (km/s) = 3.01111 3.53301 3.28245
# Velocity P-wave (km/s) = 5.26793 6.59871 5.97051
#
# Compressibility (1/GPa) = 0.03292837
#
# Stress axis : x y z
#
# Youngs Moduli (GPa) = 80.86888 28.66030 125.42909
#
# Poissons Ratio (x) = 0.06194 0.34752
# Poissons Ratio (y) = 0.17478 0.78003
# Poissons Ratio (z) = 0.22406 0.17823
#
# Static dielectric constant tensor:
#      x y z
#    x 1.726890 0.000000 0.000000 
#    y 0.000000 0.911160 0.000000 
#    z 0.000000 0.000000 1.745670 
# 
# From -- ./inp_files/8376.got.cif
#   From: 2010.05.17/outbox.cif.g08.bks.cpg/sg53_5_cif.got.tgz:8376.got - 2010.06.03 12:45:16.
