data_PCOD9417593
_publ_section_title
;
Structure prediction by ZEFSAII (Michael W. Deem and Ramdas Pophale) SiO2 
 PCOD9417593
Probable space group: P M N A
;
_chemical_formula_sum "Si O2"
_cell_formula_units_Z 40
_cell_length_a 8.361321
_cell_length_b 26.404040
_cell_length_c 9.794615
_cell_angle_alpha 90.000000
_cell_angle_beta 90.000000
_cell_angle_gamma 90.000000
_cell_volume 2162.383150
_symmetry_space_group_name_H-M "P M N A"
_symmetry_group_IT_number 53
_symmetry_cell_setting 'orthorhombic'
loop_
_space_group_symop_operation_xyz
x,y,z
1/2-x,-y,1/2+z
x,-y,-z
1/2-x,y,1/2-z
-x,-y,-z
1/2+x,y,1/2-z
-x,y,z
1/2+x,-y,1/2+z
loop_
_atom_site_type_symbol
_atom_site_label
_atom_site_fract_x
_atom_site_fract_y
_atom_site_fract_z
Si Si1 0.193339 0.045592 0.094952
Si Si2 0.806886 0.751630 0.097798
Si Si3 0.806775 0.158465 0.095329
Si Si4 0.808046 0.636188 0.096276
Si Si5 0.308625 0.546741 0.905945
O O1 0.250000 0.038822 0.250000
O O2 0.244548 0.102071 0.048848
O O3 0.000000 0.044811 0.093925
O O4 0.251671 0.000000 0.000000
O O5 0.750000 0.763188 0.250000
O O6 0.754899 0.694029 0.066099
O O7 0.000000 0.751633 0.095006
O O8 0.748185 0.795099 0.996249
O O9 0.750000 0.164678 0.250000
O O10 0.000000 0.159186 0.093233
O O11 0.750000 0.623243 0.250000
O O12 0.000000 0.634570 0.096351
O O13 0.744417 0.597485 0.983968
O O14 0.250000 0.543912 0.750000
O O15 0.500000 0.544823 0.902926
O O16 0.249784 0.500000 0.000000
#
# Coordination Sequence:
#
# PCOD9417593 Si02
#       5
#     8   8   8   8   8
#     4   9  18  32  49  70  97 129 165 207 253 301
#     4   9  19  34  52  76 104 135 170 209 253 301
#     4   9  18  33  50  70  99 132 167 207 252 301
#     4  10  20  36  57  80 108 140 175 215 259 307
#     4  11  24  40  59  83 110 141 176 214 258 307
#
# _framework density 18.49811
#
# number of rings (size 3 to 8) (size 9 to 14) (size 15 to 20)
#    0.000    2.400    0.000    1.800    0.000    6.800 
#    0.000    2.000    0.000    0.000    0.000    0.000 
#    0.000    0.000    0.000    0.000    0.000    0.000 
#
# Total GULP energy -223166.440273 kJ/mol
# GULP energy per Si atom -5579.161007 kJ/mol
# Density = 1.845601 g / cm^3
# Si number density = 18.498110 Si / 1000 Ang^3
#
#
#
# Elastic Constant Matrix: (Units=GPa)
#
#
# Indices 1 2 3 4 5 6 
#
# 1 16.2164 23.5443 21.1859 0.0000 0.0000 0.0000
# 2 23.5443 168.5686 126.4274 0.0000 0.0000 0.0000
# 3 21.1859 126.4274 137.4293 0.0000 0.0000 0.0000
# 4 0.0000 0.0000 0.0000 42.5562 0.0000 0.0000
# 5 0.0000 0.0000 0.0000 0.0000 33.9460 0.0000
# 6 0.0000 0.0000 0.0000 0.0000 0.0000 45.3732
#
#
#
# Elastic Compliance Matrix: (Units=1/GPa)
#
#
# Indices 1 2 3 4 5 6 
#
# 1 0.079140 -0.006139 -0.006552 0.000000 0.000000 0.000000
# 2 -0.006139 0.019610 -0.017094 0.000000 0.000000 0.000000
# 3 -0.006552 -0.017094 0.024012 0.000000 0.000000 0.000000
# 4 0.000000 0.000000 0.000000 0.023498 0.000000 0.000000
# 5 0.000000 0.000000 0.000000 0.000000 0.029459 0.000000
# 6 0.000000 0.000000 0.000000 0.000000 0.000000 0.022039
#
#
# Mechanical properties :
#
#
# Convention : Reuss Voigt Hill
#
# Bulk Modulus (GPa) = 15.82502 73.83661 44.83081
# Shear Modulus (GPa) = 17.96016 34.44553 26.20285
#
# Velocity S-wave (km/s) = 3.11934 4.31990 3.76774
# Velocity P-wave (km/s) = 4.64190 8.05509 6.57387
#
# Compressibility (1/GPa) = 0.06319109
#
# Stress axis : x y z
#
# Youngs Moduli (GPa) = 12.63586 50.99313 41.64554
#
# Poissons Ratio (x) = 0.31307 0.27287
# Poissons Ratio (y) = 0.07758 0.71189
# Poissons Ratio (z) = 0.08279 0.87168
#
# Static dielectric constant tensor:
#      x y z
#    x 1.633880 0.000000 0.000000 
#    y 0.000000 1.668990 0.000000 
#    z 0.000000 0.000000 1.586720 
# 
# From -- ./inp_files/6262.got.cif
#   From: 2010.05.17/outbox.cif.g08.bks.cpg/sg53_4_cif.got.tgz:6262.got - 2010.06.03 12:45:16.
