data_PCOD9417924
_publ_section_title
;
Structure prediction by ZEFSAII (Michael W. Deem and Ramdas Pophale) SiO2 
 PCOD9417924
Probable space group: P M N A
;
_chemical_formula_sum "Si O2"
_cell_formula_units_Z 48
_cell_length_a 8.050746
_cell_length_b 11.171604
_cell_length_c 24.021083
_cell_angle_alpha 90.000000
_cell_angle_beta 90.000000
_cell_angle_gamma 90.000000
_cell_volume 2160.450109
_symmetry_space_group_name_H-M "P M N A"
_symmetry_group_IT_number 53
_symmetry_cell_setting 'orthorhombic'
loop_
_space_group_symop_operation_xyz
x,y,z
1/2-x,-y,1/2+z
x,-y,-z
1/2-x,y,1/2-z
-x,-y,-z
1/2+x,y,1/2-z
-x,y,z
1/2+x,-y,1/2+z
loop_
_atom_site_type_symbol
_atom_site_label
_atom_site_fract_x
_atom_site_fract_y
_atom_site_fract_z
Si Si1 0.693323 0.536757 0.879772
Si Si2 0.190930 0.309836 0.813305
Si Si3 0.194955 0.182530 0.583225
Si Si4 0.194539 0.764163 0.813219
Si Si5 0.798805 0.316572 0.481066
Si Si6 0.799176 0.080685 0.409351
O O1 0.500000 0.499161 0.885235
O O2 0.785161 0.436077 0.844724
O O3 0.704552 0.657921 0.843336
O O4 0.760279 0.576982 0.940601
O O5 0.250000 0.318063 0.750000
O O6 0.285329 0.216419 0.852635
O O7 0.000000 0.275506 0.813503
O O8 0.261049 0.289075 0.543509
O O9 0.000000 0.176063 0.569646
O O10 0.262908 0.049748 0.572508
O O11 0.250000 0.777074 0.750000
O O12 0.229421 0.881972 0.849463
O O13 0.000000 0.734037 0.815975
O O14 0.759509 0.190753 0.450186
O O15 0.000000 0.333021 0.481167
O O16 0.000000 0.076329 0.406244
#
# Coordination Sequence:
#
# PCOD9417924 Si02
#       6
#     8   8   8   8   8   8
#     4  10  20  38  62  87 114 145 186 233 283 337
#     4  12  26  43  60  81 112 151 194 236 284 338
#     4  10  20  37  61  87 116 152 192 231 274 329
#     4  11  21  34  54  81 113 148 189 237 289 340
#     4   8  16  33  61  92 117 145 184 229 276 332
#     4   9  18  34  57  85 116 151 191 233 277 329
#
# _framework density 22.217592
#
# number of rings (size 3 to 8) (size 9 to 14) (size 15 to 20)
#    0.000    2.000    0.000    5.500    0.000    4.000 
#    0.000    7.500    0.000    5.000    0.000    0.000 
#    0.000    0.000    0.000    0.000    0.000    0.000 
#
# Total GULP energy -268099.249868 kJ/mol
# GULP energy per Si atom -5585.401039 kJ/mol
# Density = 2.216702 g / cm^3
# Si number density = 22.217592 Si / 1000 Ang^3
#
#
#
# Elastic Constant Matrix: (Units=GPa)
#
#
# Indices 1 2 3 4 5 6 
#
# 1 24.6530 -9.4220 -8.5347 0.0000 0.0000 0.0000
# 2 -9.4220 56.8329 7.9940 0.0000 0.0000 0.0000
# 3 -8.5347 7.9940 122.2402 0.0000 0.0000 0.0000
# 4 0.0000 0.0000 0.0000 -22.4989 0.0000 0.0000
# 5 0.0000 0.0000 0.0000 0.0000 24.3306 0.0000
# 6 0.0000 0.0000 0.0000 0.0000 0.0000 22.6474
#
#
#
# Elastic Compliance Matrix: (Units=1/GPa)
#
#
# Indices 1 2 3 4 5 6 
#
# 1 0.044127 0.006946 0.002627 0.000000 0.000000 0.000000
# 2 0.006946 0.018852 -0.000748 0.000000 0.000000 0.000000
# 3 0.002627 -0.000748 0.008413 0.000000 0.000000 0.000000
# 4 0.000000 0.000000 0.000000 -0.044447 0.000000 0.000000
# 5 0.000000 0.000000 0.000000 0.000000 0.041100 0.000000
# 6 0.000000 0.000000 0.000000 0.000000 0.000000 0.044155
#
#
# Mechanical properties :
#
#
# Convention : Reuss Voigt Hill
#
# Bulk Modulus (GPa) = 11.23066 20.42230 15.82648
# Shear Modulus (GPa) = 40.24726 19.14175 29.69450
#
# Velocity S-wave (km/s) = 4.26079 2.93842 3.65983
# Velocity P-wave (km/s) = 5.41033 4.55239 4.99980
#
# Compressibility (1/GPa) = 0.08904199
#
# Stress axis : x y z
#
# Youngs Moduli (GPa) = 22.66183 53.04420 118.86490
#
# Poissons Ratio (x) = -0.36845 -0.31222
# Poissons Ratio (y) = -0.15741 0.08890
# Poissons Ratio (z) = -0.05953 0.03967
#
# Static dielectric constant tensor:
#      x y z
#    x 1.772220 0.000000 0.000000 
#    y 0.000000 1.837590 0.000000 
#    z 0.000000 0.000000 1.612290 
# 
# From -- ./inp_files/33917.got.cif
#   From: 2010.05.17/outbox.cif.g08.bks.cpg/sg53_17_cif.got.tgz:33917.got - 2010.06.03 12:45:16.
