data_PCOD9417921
_publ_section_title
;
Structure prediction by ZEFSAII (Michael W. Deem and Ramdas Pophale) SiO2 
 PCOD9417921
Probable space group: P M N A
;
_chemical_formula_sum "Si O2"
_cell_formula_units_Z 64
_cell_length_a 8.856316
_cell_length_b 21.847981
_cell_length_c 17.766482
_cell_angle_alpha 90.000000
_cell_angle_beta 90.000000
_cell_angle_gamma 90.000000
_cell_volume 3437.683216
_symmetry_space_group_name_H-M "P M N A"
_symmetry_group_IT_number 53
_symmetry_cell_setting 'orthorhombic'
loop_
_space_group_symop_operation_xyz
x,y,z
1/2-x,-y,1/2+z
x,-y,-z
1/2-x,y,1/2-z
-x,-y,-z
1/2+x,y,1/2-z
-x,y,z
1/2+x,-y,1/2+z
loop_
_atom_site_type_symbol
_atom_site_label
_atom_site_fract_x
_atom_site_fract_y
_atom_site_fract_z
Si Si1 0.179002 0.374625 0.172920
Si Si2 0.678779 0.003481 0.172330
Si Si3 0.320379 0.889158 0.064960
Si Si4 0.180186 0.877685 0.899542
Si Si5 0.819979 0.568409 0.527376
Si Si6 0.320811 0.252393 0.110309
Si Si7 0.678313 0.308615 0.944736
Si Si8 0.179780 0.782015 0.166979
O O1 0.250000 0.398382 0.250000
O O2 0.247153 0.307373 0.156712
O O3 0.000000 0.371209 0.178228
O O4 0.230002 0.415319 0.102407
O O5 0.750000 0.979920 0.250000
O O6 0.500000 0.012468 0.181714
O O7 0.756975 0.066869 0.150137
O O8 0.701212 0.953921 0.106491
O O9 0.500000 0.878763 0.054696
O O10 0.252471 0.837062 0.118684
O O11 0.240436 0.887708 0.984446
O O12 0.245680 0.812498 0.873719
O O13 0.000000 0.876778 0.898463
O O14 0.790386 0.500000 0.500000
O O15 0.785009 0.621364 0.466392
O O16 0.000000 0.574675 0.543090
O O17 0.500000 0.250374 0.123575
O O18 0.297943 0.270143 0.022047
O O19 0.500000 0.304364 0.926178
O O20 0.775072 0.279064 0.878766
O O21 0.250000 0.781552 0.250000
O O22 0.000000 0.789130 0.170765
#
# Coordination Sequence:
#
# PCOD9417921 Si02
#       8
#     8   8   8   8   8   8   8   8
#     4  11  22  37  59  89 125 160 203 249 297 352
#     4  11  25  43  61  82 113 152 195 245 301 357
#     4  11  23  41  63  86 115 152 196 244 297 355
#     4  12  24  38  61  90 118 152 196 242 293 356
#     4   9  19  38  64  91 121 161 203 244 295 353
#     4  10  20  37  61  86 117 153 192 239 295 350
#     4   9  18  35  59  85 117 151 188 236 288 347
#     4  12  24  37  58  86 118 153 195 244 298 355
#
# _framework density 18.617190000000001
#
# number of rings (size 3 to 8) (size 9 to 14) (size 15 to 20)
#    0.000    1.375    1.250    6.000    0.000    7.250 
#    0.000    3.125    0.000    0.000    0.000    0.000 
#    0.000    0.000    0.000    0.000    0.000    0.000 
#
# Total GULP energy -357909.798968 kJ/mol
# GULP energy per Si atom -5592.340609 kJ/mol
# Density = 1.857482 g / cm^3
# Si number density = 18.617190 Si / 1000 Ang^3
#
#
#
# Elastic Constant Matrix: (Units=GPa)
#
#
# Indices 1 2 3 4 5 6 
#
# 1 110.4934 43.1993 26.6242 0.0000 0.0000 0.0000
# 2 43.1993 82.3303 -1.2965 0.0000 0.0000 0.0000
# 3 26.6242 -1.2965 43.8829 0.0000 0.0000 0.0000
# 4 0.0000 0.0000 0.0000 10.1230 0.0000 0.0000
# 5 0.0000 0.0000 0.0000 0.0000 30.3350 0.0000
# 6 0.0000 0.0000 0.0000 0.0000 0.0000 74.2190
#
#
#
# Elastic Compliance Matrix: (Units=1/GPa)
#
#
# Indices 1 2 3 4 5 6 
#
# 1 0.014118 -0.007546 -0.008789 0.000000 0.000000 0.000000
# 2 -0.007546 0.016186 0.005057 0.000000 0.000000 0.000000
# 3 -0.008789 0.005057 0.028270 0.000000 0.000000 0.000000
# 4 0.000000 0.000000 0.000000 0.098785 0.000000 0.000000
# 5 0.000000 0.000000 0.000000 0.000000 0.032965 0.000000
# 6 0.000000 0.000000 0.000000 0.000000 0.000000 0.013474
#
#
# Mechanical properties :
#
#
# Convention : Reuss Voigt Hill
#
# Bulk Modulus (GPa) = 27.76505 41.52896 34.64700
# Shear Modulus (GPa) = 20.97669 34.14737 27.56203
#
# Velocity S-wave (km/s) = 3.36033 4.28738 3.85185
# Velocity P-wave (km/s) = 5.47739 6.84574 6.19943
#
# Compressibility (1/GPa) = 0.03601650
#
# Stress axis : x y z
#
# Youngs Moduli (GPa) = 70.82924 61.78364 35.37372
#
# Poissons Ratio (x) = 0.46625 0.31089
# Poissons Ratio (y) = 0.53451 -0.17888
# Poissons Ratio (z) = 0.62250 -0.31242
#
# Static dielectric constant tensor:
#      x y z
#    x 1.615090 0.000000 0.000000 
#    y 0.000000 1.634620 0.000000 
#    z 0.000000 0.000000 1.631660 
# 
# From -- ./inp_files/20910.got.cif
#   From: 2010.05.17/outbox.cif.g08.bks.cpg/sg53_11_cif.got.tgz:20910.got - 2010.06.03 12:45:16.
