data_PCOD9417967
_publ_section_title
;
Structure prediction by ZEFSAII (Michael W. Deem and Ramdas Pophale) SiO2 
 PCOD9417967
Probable space group: P M N A
;
_chemical_formula_sum "Si O2"
_cell_formula_units_Z 56
_cell_length_a 8.756330
_cell_length_b 21.691455
_cell_length_c 15.812676
_cell_angle_alpha 90.000000
_cell_angle_beta 90.000000
_cell_angle_gamma 90.000000
_cell_volume 3003.420751
_symmetry_space_group_name_H-M "P M N A"
_symmetry_group_IT_number 53
_symmetry_cell_setting 'orthorhombic'
loop_
_space_group_symop_operation_xyz
x,y,z
1/2-x,-y,1/2+z
x,-y,-z
1/2-x,y,1/2-z
-x,-y,-z
1/2+x,y,1/2-z
-x,y,z
1/2+x,-y,1/2+z
loop_
_atom_site_type_symbol
_atom_site_label
_atom_site_fract_x
_atom_site_fract_y
_atom_site_fract_z
Si Si1 0.814802 0.154055 0.496332
Si Si2 0.816001 0.075275 0.659151
Si Si3 0.182233 0.372421 0.161102
Si Si4 0.316570 0.290588 0.500320
Si Si5 0.184021 0.067135 0.340934
Si Si6 0.683292 0.363472 0.840763
Si Si7 0.183264 0.500274 0.599760
O O1 0.768903 0.119121 0.582486
O O2 0.743179 0.221317 0.491957
O O3 0.768945 0.112019 0.416490
O O4 0.000000 0.158820 0.496073
O O5 0.750000 0.093793 0.750000
O O6 0.000000 0.076408 0.663513
O O7 0.769768 0.004052 0.642679
O O8 0.250000 0.350597 0.250000
O O9 0.230897 0.330555 0.081692
O O10 0.237868 0.441896 0.143537
O O11 0.000000 0.371518 0.165936
O O12 0.500000 0.291554 0.505257
O O13 0.247939 0.321912 0.583897
O O14 0.250000 0.085473 0.250000
O O15 0.000000 0.068132 0.336759
O O16 0.750000 0.345563 0.750000
O O17 0.500000 0.359560 0.839966
O O18 0.726553 0.434590 0.860643
O O19 0.221646 0.500000 0.500000
O O20 0.000000 0.507373 0.607101
#
# Coordination Sequence:
#
# PCOD9417967 Si02
#       7
#     8   8   8   8   8   8   8
#     4  10  21  37  58  81 111 153 192 229 281 340
#     4   9  18  34  57  85 114 145 184 229 280 336
#     4  11  24  40  61  86 115 152 193 239 290 344
#     4  11  25  42  58  82 115 153 197 242 285 336
#     4   9  18  34  57  85 115 146 184 231 281 337
#     4  11  23  40  63  88 117 151 190 235 287 344
#     4  10  20  37  63  92 119 148 184 233 290 345
#
# _framework density 18.645406000000001
#
# number of rings (size 3 to 8) (size 9 to 14) (size 15 to 20)
#    0.000    1.857    1.429    2.143    0.000    8.286 
#    0.000    4.286    0.000    4.286    0.000    0.000 
#    0.000    0.000    0.000    0.000    0.000    0.000 
#
# Total GULP energy -312904.946179 kJ/mol
# GULP energy per Si atom -5587.588325 kJ/mol
# Density = 1.860297 g / cm^3
# Si number density = 18.645406 Si / 1000 Ang^3
#
#
#
# Elastic Constant Matrix: (Units=GPa)
#
#
# Indices 1 2 3 4 5 6 
#
# 1 21.7559 22.9876 31.2433 0.0000 0.0000 0.0000
# 2 22.9876 85.6963 51.9428 0.0000 0.0000 0.0000
# 3 31.2433 51.9428 133.8328 0.0000 0.0000 0.0000
# 4 0.0000 0.0000 0.0000 -2.2147 0.0000 0.0000
# 5 0.0000 0.0000 0.0000 0.0000 31.7364 0.0000
# 6 0.0000 0.0000 0.0000 0.0000 0.0000 77.5303
#
#
#
# Elastic Compliance Matrix: (Units=1/GPa)
#
#
# Indices 1 2 3 4 5 6 
#
# 1 0.078976 -0.013089 -0.013357 0.000000 0.000000 0.000000
# 2 -0.013089 0.017428 -0.003708 0.000000 0.000000 0.000000
# 3 -0.013357 -0.003708 0.012030 0.000000 0.000000 0.000000
# 4 0.000000 0.000000 0.000000 -0.451527 0.000000 0.000000
# 5 0.000000 0.000000 0.000000 0.000000 0.031510 0.000000
# 6 0.000000 0.000000 0.000000 0.000000 0.000000 0.012898
#
#
# Mechanical properties :
#
#
# Convention : Reuss Voigt Hill
#
# Bulk Modulus (GPa) = 20.77923 50.40358 35.59141
# Shear Modulus (GPa) = -22.48864 30.41783 3.96459
#
# Velocity S-wave (km/s) = -3.47670 4.04342 1.45977
# Velocity P-wave (km/s) = 2.22439 6.99217 4.68735
#
# Compressibility (1/GPa) = 0.04812498
#
# Stress axis : x y z
#
# Youngs Moduli (GPa) = 12.66202 57.37904 83.12883
#
# Poissons Ratio (x) = 0.75103 1.11035
# Poissons Ratio (y) = 0.16573 0.30828
# Poissons Ratio (z) = 0.16913 0.21279
#
# Static dielectric constant tensor:
#      x y z
#    x 1.626080 0.000000 0.000000 
#    y 0.000000 1.617850 0.000000 
#    z 0.000000 0.000000 1.629010 
# 
# From -- ./inp_files/20499.got.cif
#   From: 2010.05.17/outbox.cif.g08.bks.cpg/sg53_11_cif.got.tgz:20499.got - 2010.06.03 12:45:16.
