data_PCOD9417125
_publ_section_title
;
Structure prediction by ZEFSAII (Michael W. Deem and Ramdas Pophale) SiO2 
 PCOD9417125
Probable space group: P M N A
;
_chemical_formula_sum "Si O2"
_cell_formula_units_Z 56
_cell_length_a 9.026901
_cell_length_b 21.135951
_cell_length_c 15.490343
_cell_angle_alpha 90.000000
_cell_angle_beta 90.000000
_cell_angle_gamma 90.000000
_cell_volume 2955.435647
_symmetry_space_group_name_H-M "P M N A"
_symmetry_group_IT_number 53
_symmetry_cell_setting 'orthorhombic'
loop_
_space_group_symop_operation_xyz
x,y,z
1/2-x,-y,1/2+z
x,-y,-z
1/2-x,y,1/2-z
-x,-y,-z
1/2+x,y,1/2-z
-x,y,z
1/2+x,-y,1/2+z
loop_
_atom_site_type_symbol
_atom_site_label
_atom_site_fract_x
_atom_site_fract_y
_atom_site_fract_z
Si Si1 0.174301 0.489548 0.603011
Si Si2 0.176364 0.617804 0.836236
Si Si3 0.176315 0.851069 0.522717
Si Si4 0.177930 0.357694 0.840895
Si Si5 0.823991 0.717926 0.987434
Si Si6 0.168926 0.030167 0.096338
Si Si7 0.675863 0.091113 0.835664
O O1 0.187228 0.500000 0.500000
O O2 0.249547 0.550004 0.646727
O O3 0.255915 0.425723 0.631791
O O4 0.000000 0.485775 0.625063
O O5 0.250000 0.645096 0.750000
O O6 0.204508 0.662864 0.917935
O O7 0.000000 0.610994 0.825878
O O8 0.234925 0.780670 0.535284
O O9 0.255177 0.901980 0.584538
O O10 0.211564 0.871197 0.423531
O O11 0.000000 0.855473 0.533456
O O12 0.250000 0.339212 0.750000
O O13 0.000000 0.362170 0.833637
O O14 0.213674 0.308959 0.917894
O O15 0.000000 0.731755 0.985928
O O16 0.000000 0.035046 0.127407
O O17 0.261436 0.979661 0.150740
O O18 0.165577 0.000000 0.000000
O O19 0.750000 0.118786 0.750000
O O20 0.500000 0.089472 0.825792
#
# Coordination Sequence:
#
# PCOD9417125 Si02
#       7
#     8   8   8   8   8   8   8
#     4  11  22  37  61  90 117 149 191 241 295 352
#     4  11  23  41  63  87 115 150 193 242 298 352
#     4  10  21  36  57  82 112 149 190 235 281 337
#     4  11  23  40  60  85 118 155 195 242 295 352
#     4  10  23  41  60  82 115 157 198 241 291 350
#     4   9  17  32  55  80 107 141 180 223 271 324
#     4  10  20  34  54  84 117 148 185 231 282 335
#
# _framework density 18.948136999999999
#
# number of rings (size 3 to 8) (size 9 to 14) (size 15 to 20)
#    0.000    1.714    1.429    3.000    0.000    6.857 
#    0.000    3.571    0.000    1.714    0.000    0.000 
#    0.000    0.000    0.000    0.000    0.000    0.000 
#
# Total GULP energy -312919.609795 kJ/mol
# GULP energy per Si atom -5587.850175 kJ/mol
# Density = 1.890501 g / cm^3
# Si number density = 18.948137 Si / 1000 Ang^3
#
#
#
# Elastic Constant Matrix: (Units=GPa)
#
#
# Indices 1 2 3 4 5 6 
#
# 1 53.6953 19.2121 13.5644 0.0000 0.0000 0.0000
# 2 19.2121 66.5647 -12.5682 0.0000 0.0000 0.0000
# 3 13.5644 -12.5682 51.8851 0.0000 0.0000 0.0000
# 4 0.0000 0.0000 0.0000 7.6983 0.0000 0.0000
# 5 0.0000 0.0000 0.0000 0.0000 13.8974 0.0000
# 6 0.0000 0.0000 0.0000 0.0000 0.0000 27.1374
#
#
#
# Elastic Compliance Matrix: (Units=1/GPa)
#
#
# Indices 1 2 3 4 5 6 
#
# 1 0.023707 -0.008397 -0.008232 0.000000 0.000000 0.000000
# 2 -0.008397 0.018717 0.006729 0.000000 0.000000 0.000000
# 3 -0.008232 0.006729 0.023055 0.000000 0.000000 0.000000
# 4 0.000000 0.000000 0.000000 0.129898 0.000000 0.000000
# 5 0.000000 0.000000 0.000000 0.000000 0.071956 0.000000
# 6 0.000000 0.000000 0.000000 0.000000 0.000000 0.036850
#
#
# Mechanical properties :
#
#
# Convention : Reuss Voigt Hill
#
# Bulk Modulus (GPa) = 21.89110 23.61796 22.75453
# Shear Modulus (GPa) = 14.74014 19.87573 17.30793
#
# Velocity S-wave (km/s) = 2.79215 3.24227 3.02559
# Velocity P-wave (km/s) = 4.68754 5.14859 4.92347
#
# Compressibility (1/GPa) = 0.04568068
#
# Stress axis : x y z
#
# Youngs Moduli (GPa) = 42.18077 53.42733 43.37379
#
# Poissons Ratio (x) = 0.44862 0.35705
# Poissons Ratio (y) = 0.35418 -0.29186
# Poissons Ratio (z) = 0.34723 -0.35951
#
# Static dielectric constant tensor:
#      x y z
#    x 1.633100 0.000000 0.000000 
#    y 0.000000 1.618560 0.000000 
#    z 0.000000 0.000000 1.678670 
# 
# From -- ./inp_files/20482.got.cif
#   From: 2010.05.17/outbox.cif.g08.bks.cpg/sg53_11_cif.got.tgz:20482.got - 2010.06.03 12:45:16.
