data_PCOD9417991
_publ_section_title
;
Structure prediction by ZEFSAII (Michael W. Deem and Ramdas Pophale) SiO2 
 PCOD9417991
Probable space group: P M N A
;
_chemical_formula_sum "Si O2"
_cell_formula_units_Z 36
_cell_length_a 23.392948
_cell_length_b 7.445195
_cell_length_c 8.426801
_cell_angle_alpha 90.000000
_cell_angle_beta 90.000000
_cell_angle_gamma 90.000000
_cell_volume 1467.654297
_symmetry_space_group_name_H-M "P M N A"
_symmetry_group_IT_number 53
_symmetry_cell_setting 'orthorhombic'
loop_
_space_group_symop_operation_xyz
x,y,z
1/2-x,-y,1/2+z
x,-y,-z
1/2-x,y,1/2-z
-x,-y,-z
1/2+x,y,1/2-z
-x,y,z
1/2+x,-y,1/2+z
loop_
_atom_site_type_symbol
_atom_site_label
_atom_site_fract_x
_atom_site_fract_y
_atom_site_fract_z
Si Si1 0.734719 0.000000 0.500000
Si Si2 0.809483 0.440899 0.179217
Si Si3 0.439901 0.226873 0.886109
Si Si4 0.677953 0.158483 0.805518
Si Si5 0.063742 0.626419 0.743862
O O1 0.782142 0.849891 0.460565
O O2 0.698061 0.967186 0.341559
O O3 0.750000 0.360521 0.250000
O O4 0.818471 0.632298 0.264043
O O5 0.872087 0.342327 0.184718
O O6 0.798911 0.500000 0.000000
O O7 0.500000 0.133893 0.857720
O O8 0.386385 0.109901 0.841096
O O9 0.438920 0.410588 0.783705
O O10 0.435530 0.290019 0.067714
O O11 0.000000 0.674253 0.815466
#
# Coordination Sequence:
#
# PCOD9417991 Si02
#       5
#     4   8   8   8   8
#     4  10  20  38  58  74 112 166 202 238 284 334
#     4  11  23  36  56  91 123 148 189 253 309 358
#     4   8  15  32  61  88 115 150 190 241 293 360
#     4  10  21  40  56  82 112 155 202 242 288 353
#     4   8  16  32  57  89 122 156 185 226 309 380
#
# _framework density 24.528939999999999
#
# number of rings (size 3 to 8) (size 9 to 14) (size 15 to 20)
#    0.000    2.667    2.222    1.333    6.222    0.444 
#   12.000    1.111    0.000    0.000    0.000    0.000 
#    0.000    0.000    0.000    0.000    0.000    0.000 
#
# Total GULP energy -200422.068207 kJ/mol
# GULP energy per Si atom -5567.279672 kJ/mol
# Density = 2.447311 g / cm^3
# Si number density = 24.528940 Si / 1000 Ang^3
#
#
#
# Elastic Constant Matrix: (Units=GPa)
#
#
# Indices 1 2 3 4 5 6 
#
# 1 306.5162 18.5816 69.9702 0.0000 0.0000 0.0000
# 2 18.5816 57.5994 1.0962 0.0000 0.0000 0.0000
# 3 69.9702 1.0962 43.1107 0.0000 0.0000 0.0000
# 4 0.0000 0.0000 0.0000 33.8775 0.0000 0.0000
# 5 0.0000 0.0000 0.0000 0.0000 174.7616 0.0000
# 6 0.0000 0.0000 0.0000 0.0000 0.0000 25.3807
#
#
#
# Elastic Compliance Matrix: (Units=1/GPa)
#
#
# Indices 1 2 3 4 5 6 
#
# 1 0.005318 -0.001552 -0.008591 0.000000 0.000000 0.000000
# 2 -0.001552 0.017823 0.002066 0.000000 0.000000 0.000000
# 3 -0.008591 0.002066 0.037088 0.000000 0.000000 0.000000
# 4 0.000000 0.000000 0.000000 0.029518 0.000000 0.000000
# 5 0.000000 0.000000 0.000000 0.000000 0.005722 0.000000
# 6 0.000000 0.000000 0.000000 0.000000 0.000000 0.039400
#
#
# Mechanical properties :
#
#
# Convention : Reuss Voigt Hill
#
# Bulk Modulus (GPa) = 22.68971 65.16915 43.92943
# Shear Modulus (GPa) = 30.17233 67.97586 49.07410
#
# Velocity S-wave (km/s) = 3.51104 5.26998 4.47773
# Velocity P-wave (km/s) = 5.07019 7.97848 6.68442
#
# Compressibility (1/GPa) = 0.04407284
#
# Stress axis : x y z
#
# Youngs Moduli (GPa) = 188.04837 56.10838 26.96304
#
# Poissons Ratio (x) = 0.08708 0.23165
# Poissons Ratio (y) = 0.29185 -0.05570
# Poissons Ratio (z) = 1.61561 -0.11591
#
# Static dielectric constant tensor:
#      x y z
#    x 2.059020 0.000000 0.000000 
#    y 0.000000 1.375640 0.000000 
#    z 0.000000 0.000000 1.784290 
# 
# From -- ./inp_files/10593.got.cif
#   From: 2010.05.17/outbox.cif.g08.bks.cpg/sg53_6_cif.got.tgz:10593.got - 2010.06.03 12:45:16.
