data_PCOD9417949
_publ_section_title
;
Structure prediction by ZEFSAII (Michael W. Deem and Ramdas Pophale) SiO2 
 PCOD9417949
Probable space group: P M N A
;
_chemical_formula_sum "Si O2"
_cell_formula_units_Z 36
_cell_length_a 19.835592
_cell_length_b 5.477189
_cell_length_c 16.071517
_cell_angle_alpha 90.000000
_cell_angle_beta 90.000000
_cell_angle_gamma 90.000000
_cell_volume 1746.062423
_symmetry_space_group_name_H-M "P M N A"
_symmetry_group_IT_number 53
_symmetry_cell_setting 'orthorhombic'
loop_
_space_group_symop_operation_xyz
x,y,z
1/2-x,-y,1/2+z
x,-y,-z
1/2-x,y,1/2-z
-x,-y,-z
1/2+x,y,1/2-z
-x,y,z
1/2+x,-y,1/2+z
loop_
_atom_site_type_symbol
_atom_site_label
_atom_site_fract_x
_atom_site_fract_y
_atom_site_fract_z
Si Si1 0.572570 0.358285 0.125354
Si Si2 0.577941 0.779595 0.685243
Si Si3 0.343963 0.268973 0.670033
Si Si4 0.193175 0.723619 0.362905
Si Si5 0.118471 0.000000 0.500000
O O1 0.500000 0.495119 0.132512
O O2 0.577348 0.212021 0.213025
O O3 0.641696 0.505540 0.118442
O O4 0.572447 0.202778 0.041830
O O5 0.500000 0.781583 0.658481
O O6 0.612281 0.517614 0.664473
O O7 0.616683 0.017589 0.649826
O O8 0.322182 0.229504 0.766250
O O9 0.272629 0.311822 0.624606
O O10 0.166664 0.927983 0.424331
#
# Coordination Sequence:
#
# PCOD9417949 Si02
#       5
#     8   8   8   8   4
#     4  10  22  37  54  82 122 160 197 234 279 348
#     4  10  20  37  62  89 115 150 194 242 298 348
#     4  10  21  38  60  84 118 153 194 251 286 341
#     4  10  23  35  56  79 118 157 203 233 293 334
#     4  12  21  36  54  82 117 164 198 236 277 356
#
# _framework density 20.617819999999998
#
# number of rings (size 3 to 8) (size 9 to 14) (size 15 to 20)
#    0.000    1.778    2.222    1.667    3.111    5.333 
#    0.000    0.000    0.000    0.000    0.000    4.667 
#    0.000    0.000    0.000    0.000    0.000    0.000 
#
# Total GULP energy -200545.994074 kJ/mol
# GULP energy per Si atom -5570.722058 kJ/mol
# Density = 2.057089 g / cm^3
# Si number density = 20.617820 Si / 1000 Ang^3
#
#
#
# Elastic Constant Matrix: (Units=GPa)
#
#
# Indices 1 2 3 4 5 6 
#
# 1 225.0545 96.8464 20.1115 0.0000 0.0000 0.0000
# 2 96.8464 116.1104 9.7138 0.0000 0.0000 0.0000
# 3 20.1115 9.7138 14.2179 0.0000 0.0000 0.0000
# 4 0.0000 0.0000 0.0000 11.8811 0.0000 0.0000
# 5 0.0000 0.0000 0.0000 0.0000 196.5788 0.0000
# 6 0.0000 0.0000 0.0000 0.0000 0.0000 35.3615
#
#
#
# Elastic Compliance Matrix: (Units=1/GPa)
#
#
# Indices 1 2 3 4 5 6 
#
# 1 0.007490 -0.005686 -0.006710 0.000000 0.000000 0.000000
# 2 -0.005686 0.013451 -0.001147 0.000000 0.000000 0.000000
# 3 -0.006710 -0.001147 0.080609 0.000000 0.000000 0.000000
# 4 0.000000 0.000000 0.000000 0.084167 0.000000 0.000000
# 5 0.000000 0.000000 0.000000 0.000000 0.005087 0.000000
# 6 0.000000 0.000000 0.000000 0.000000 0.000000 0.028279
#
#
# Mechanical properties :
#
#
# Convention : Reuss Voigt Hill
#
# Bulk Modulus (GPa) = 13.42931 67.63623 40.53277
# Shear Modulus (GPa) = 18.45089 64.01168 41.23129
#
# Velocity S-wave (km/s) = 2.99473 5.57801 4.47675
# Velocity P-wave (km/s) = 4.29948 8.62331 6.81348
#
# Compressibility (1/GPa) = 0.07446401
#
# Stress axis : x y z
#
# Youngs Moduli (GPa) = 133.51725 74.34465 12.40559
#
# Poissons Ratio (x) = 0.42270 0.08324
# Poissons Ratio (y) = 0.75914 0.01423
# Poissons Ratio (z) = 0.89587 0.08529
#
# Static dielectric constant tensor:
#      x y z
#    x 1.811830 0.000000 0.000000 
#    y 0.000000 1.822730 0.000000 
#    z 0.000000 0.000000 1.747460 
# 
# From -- ./inp_files/29193.got.cif
#   From: 2010.05.17/outbox.cif.g08.bks.cpg/sg53_15_cif.got.tgz:29193.got - 2010.06.03 12:45:16.
