data_PCOD9417217
_publ_section_title
;
Structure prediction by ZEFSAII (Michael W. Deem and Ramdas Pophale) SiO2 
 PCOD9417217
Probable space group: P M N A
;
_chemical_formula_sum "Si O2"
_cell_formula_units_Z 24
_cell_length_a 10.924183
_cell_length_b 7.551879
_cell_length_c 14.952694
_cell_angle_alpha 90.000000
_cell_angle_beta 90.000000
_cell_angle_gamma 90.000000
_cell_volume 1233.568967
_symmetry_space_group_name_H-M "P M N A"
_symmetry_group_IT_number 53
_symmetry_cell_setting 'orthorhombic'
loop_
_space_group_symop_operation_xyz
x,y,z
1/2-x,-y,1/2+z
x,-y,-z
1/2-x,y,1/2-z
-x,-y,-z
1/2+x,y,1/2-z
-x,y,z
1/2+x,-y,1/2+z
loop_
_atom_site_type_symbol
_atom_site_label
_atom_site_fract_x
_atom_site_fract_y
_atom_site_fract_z
Si Si1 0.363824 0.575874 0.807810
Si Si2 0.854957 0.144070 0.928767
Si Si3 0.738405 0.500000 0.000000
Si Si4 0.750000 0.771971 0.250000
O O1 0.250000 0.655447 0.750000
O O2 0.500000 0.645528 0.788736
O O3 0.355831 0.368673 0.777454
O O4 0.336400 0.572337 0.914021
O O5 0.819442 0.339558 0.962382
O O6 0.789983 0.117627 0.834494
O O7 0.000000 0.130357 0.918439
O O8 0.813170 0.000000 0.000000
#
# Coordination Sequence:
#
# PCOD9417217 Si02
#       4
#     8   8   4   4
#     4   9  18  32  56  83 112 151 189 232 286 341
#     4  10  20  36  58  83 114 153 193 236 286 344
#     4  10  20  34  58  84 113 144 193 236 289 342
#     4   8  18  32  56  78 116 144 192 234 288 332
#
# _framework density 19.455742000000001
#
# number of rings (size 3 to 8) (size 9 to 14) (size 15 to 20)
#    1.000    1.667    0.000    2.000    0.000    1.333 
#    3.000    0.000    0.000   34.000    0.000    0.000 
#    0.000    0.000    0.000    0.000    0.000    0.000 
#
# Total GULP energy -133639.531273 kJ/mol
# GULP energy per Si atom -5568.313803 kJ/mol
# Density = 1.941146 g / cm^3
# Si number density = 19.455742 Si / 1000 Ang^3
#
#
#
# Elastic Constant Matrix: (Units=GPa)
#
#
# Indices 1 2 3 4 5 6 
#
# 1 95.6300 7.6552 53.5814 0.0000 0.0000 0.0000
# 2 7.6552 43.4786 30.4166 0.0000 0.0000 0.0000
# 3 53.5814 30.4166 165.7036 0.0000 0.0000 0.0000
# 4 0.0000 0.0000 0.0000 28.6213 0.0000 0.0000
# 5 0.0000 0.0000 0.0000 0.0000 8.7372 0.0000
# 6 0.0000 0.0000 0.0000 0.0000 0.0000 9.9933
#
#
#
# Elastic Compliance Matrix: (Units=1/GPa)
#
#
# Indices 1 2 3 4 5 6 
#
# 1 0.012791 0.000736 -0.004271 0.000000 0.000000 0.000000
# 2 0.000736 0.026431 -0.005090 0.000000 0.000000 0.000000
# 3 -0.004271 -0.005090 0.008350 0.000000 0.000000 0.000000
# 4 0.000000 0.000000 0.000000 0.034939 0.000000 0.000000
# 5 0.000000 0.000000 0.000000 0.000000 0.114453 0.000000
# 6 0.000000 0.000000 0.000000 0.000000 0.000000 0.100067
#
#
# Mechanical properties :
#
#
# Convention : Reuss Voigt Hill
#
# Bulk Modulus (GPa) = 32.97882 54.23540 43.60711
# Shear Modulus (GPa) = 15.41359 23.68096 19.54727
#
# Velocity S-wave (km/s) = 2.81773 3.49258 3.17315
# Velocity P-wave (km/s) = 5.25106 6.64838 5.99060
#
# Compressibility (1/GPa) = 0.03032249
#
# Stress axis : x y z
#
# Youngs Moduli (GPa) = 78.17859 37.83458 119.75677
#
# Poissons Ratio (x) = -0.02784 0.51151
# Poissons Ratio (y) = -0.05753 0.60952
# Poissons Ratio (z) = 0.33392 0.19256
#
# Static dielectric constant tensor:
#      x y z
#    x 1.673640 0.000000 0.000000 
#    y 0.000000 1.662590 0.000000 
#    z 0.000000 0.000000 1.701300 
# 
# From -- ./inp_files/19369.got.cif
#   From: 2010.05.17/outbox.cif.g08.bks.cpg/sg53_10_cif.got.tgz:19369.got - 2010.06.03 12:45:16.
