data_PCOD9417788
_publ_section_title
;
Structure prediction by ZEFSAII (Michael W. Deem and Ramdas Pophale) SiO2 
 PCOD9417788
Probable space group: P M N A
;
_chemical_formula_sum "Si O2"
_cell_formula_units_Z 56
_cell_length_a 21.208863
_cell_length_b 15.312106
_cell_length_c 8.900359
_cell_angle_alpha 90.000000
_cell_angle_beta 90.000000
_cell_angle_gamma 90.000000
_cell_volume 2890.412576
_symmetry_space_group_name_H-M "P M N A"
_symmetry_group_IT_number 53
_symmetry_cell_setting 'orthorhombic'
loop_
_space_group_symop_operation_xyz
x,y,z
1/2-x,-y,1/2+z
x,-y,-z
1/2-x,y,1/2-z
-x,-y,-z
1/2+x,y,1/2-z
-x,y,z
1/2+x,-y,1/2+z
loop_
_atom_site_type_symbol
_atom_site_label
_atom_site_fract_x
_atom_site_fract_y
_atom_site_fract_z
Si Si1 0.929692 0.079898 0.114104
Si Si2 0.427006 0.245399 0.896409
Si Si3 0.625100 0.091685 0.072890
Si Si4 0.626054 0.227770 0.569894
Si Si5 0.739046 0.093506 0.570425
Si Si6 0.575940 0.596904 0.567165
Si Si7 0.076552 0.412323 0.418473
O O1 0.880554 0.082039 0.249400
O O2 0.000000 0.071412 0.179638
O O3 0.923699 0.168554 0.020625
O O4 0.921120 0.000000 0.000000
O O5 0.500000 0.259148 0.854323
O O6 0.388994 0.225875 0.746112
O O7 0.420247 0.166325 0.011827
O O8 0.402671 0.330359 0.983062
O O9 0.694978 0.112402 0.012893
O O10 0.606870 0.000000 0.000000
O O11 0.690684 0.173403 0.546341
O O12 0.615869 0.326587 0.512727
O O13 0.750000 0.082982 0.750000
O O14 0.718165 0.000000 0.500000
O O15 0.586416 0.500000 0.500000
O O16 0.500000 0.614778 0.551263
O O17 0.592855 0.594969 0.743648
O O18 0.098607 0.500000 0.500000
O O19 0.000000 0.412780 0.421632
#
# Coordination Sequence:
#
# PCOD9417788 Si02
#       7
#     8   8   8   8   8   8   8
#     4  11  24  39  59  93 134 169 206 267 340 404
#     4  11  21  35  59  90 124 163 206 259 332 397
#     4  11  24  41  62  85 120 164 214 266 318 387
#     4  12  23  38  62  91 128 167 213 268 326 379
#     4  11  26  46  67  91 120 170 228 283 319 380
#     4  10  20  36  61  96 135 173 213 262 330 404
#     4   9  18  34  56  85 124 165 205 250 306 383
#
# _framework density 19.374396000000001
#
# number of rings (size 3 to 8) (size 9 to 14) (size 15 to 20)
#    0.000    1.286    1.429    4.714    6.000    5.714 
#    0.000    0.000    0.000    0.857    3.714    0.000 
#    0.000    0.000    0.000    0.000    0.000    0.000 
#
# Total GULP energy -312843.632938 kJ/mol
# GULP energy per Si atom -5586.493445 kJ/mol
# Density = 1.933030 g / cm^3
# Si number density = 19.374396 Si / 1000 Ang^3
#
#
#
# Elastic Constant Matrix: (Units=GPa)
#
#
# Indices 1 2 3 4 5 6 
#
# 1 60.9127 27.8594 37.8589 0.0000 0.0000 0.0000
# 2 27.8594 147.9244 54.6033 0.0000 0.0000 0.0000
# 3 37.8589 54.6033 140.9567 0.0000 0.0000 0.0000
# 4 0.0000 0.0000 0.0000 39.3011 0.0000 0.0000
# 5 0.0000 0.0000 0.0000 0.0000 133.8473 0.0000
# 6 0.0000 0.0000 0.0000 0.0000 0.0000 32.7243
#
#
#
# Elastic Compliance Matrix: (Units=1/GPa)
#
#
# Indices 1 2 3 4 5 6 
#
# 1 0.020255 -0.002108 -0.004624 0.000000 0.000000 0.000000
# 2 -0.002108 0.008108 -0.002574 0.000000 0.000000 0.000000
# 3 -0.004624 -0.002574 0.009333 0.000000 0.000000 0.000000
# 4 0.000000 0.000000 0.000000 0.025445 0.000000 0.000000
# 5 0.000000 0.000000 0.000000 0.000000 0.007471 0.000000
# 6 0.000000 0.000000 0.000000 0.000000 0.000000 0.030558
#
#
# Mechanical properties :
#
#
# Convention : Reuss Voigt Hill
#
# Bulk Modulus (GPa) = 52.40075 65.60410 59.00243
# Shear Modulus (GPa) = 39.63753 56.47270 48.05511
#
# Velocity S-wave (km/s) = 4.52804 5.40476 4.98571
# Velocity P-wave (km/s) = 7.37852 8.53717 7.97891
#
# Compressibility (1/GPa) = 0.01908370
#
# Stress axis : x y z
#
# Youngs Moduli (GPa) = 49.37127 123.34197 107.14106
#
# Poissons Ratio (x) = 0.26000 0.49537
# Poissons Ratio (y) = 0.10407 0.27583
# Poissons Ratio (z) = 0.22827 0.31754
#
# Static dielectric constant tensor:
#      x y z
#    x 1.705220 0.000000 0.000000 
#    y 0.000000 1.644630 0.000000 
#    z 0.000000 0.000000 1.686340 
# 
# From -- ./inp_files/11055.got.cif
#   From: 2010.05.17/outbox.cif.g08.bks.cpg/sg53_6_cif.got.tgz:11055.got - 2010.06.03 12:45:16.
