data_PCOD9417989
_publ_section_title
;
Structure prediction by ZEFSAII (Michael W. Deem and Ramdas Pophale) SiO2 
 PCOD9417989
Probable space group: P M N A
;
_chemical_formula_sum "Si O2"
_cell_formula_units_Z 56
_cell_length_a 21.147880
_cell_length_b 9.214277
_cell_length_c 15.452828
_cell_angle_alpha 90.000000
_cell_angle_beta 90.000000
_cell_angle_gamma 90.000000
_cell_volume 3011.175526
_symmetry_space_group_name_H-M "P M N A"
_symmetry_group_IT_number 53
_symmetry_cell_setting 'orthorhombic'
loop_
_space_group_symop_operation_xyz
x,y,z
1/2-x,-y,1/2+z
x,-y,-z
1/2-x,y,1/2-z
-x,-y,-z
1/2+x,y,1/2-z
-x,y,z
1/2+x,-y,1/2+z
loop_
_atom_site_type_symbol
_atom_site_label
_atom_site_fract_x
_atom_site_fract_y
_atom_site_fract_z
Si Si1 0.843579 0.071693 0.795353
Si Si2 0.711673 0.197974 0.864513
Si Si3 0.072703 0.527790 0.838666
Si Si4 0.725757 0.661282 0.959549
Si Si5 0.640376 0.207008 0.410827
Si Si6 0.426750 0.224801 0.581042
Si Si7 0.685058 0.523569 0.797920
O O1 0.783184 0.151336 0.840495
O O2 0.830706 0.088163 0.692946
O O3 0.905205 0.155879 0.828171
O O4 0.849123 0.913806 0.837836
O O5 0.697093 0.358498 0.828273
O O6 0.705272 0.222754 0.967311
O O7 0.086214 0.680990 0.882737
O O8 0.084232 0.396596 0.905996
O O9 0.124653 0.520770 0.763380
O O10 0.000000 0.514469 0.809848
O O11 0.793433 0.711800 0.924512
O O12 0.679184 0.631314 0.879465
O O13 0.734324 0.500000 0.000000
O O14 0.616744 0.160100 0.505677
O O15 0.500000 0.197633 0.563418
O O16 0.750000 0.567054 0.750000
#
# Coordination Sequence:
#
# PCOD9417989 Si02
#       7
#     8   8   8   8   8   8   8
#     4  11  22  35  56  81 121 164 200 247 302 374
#     4  10  20  38  57  82 121 160 201 254 313 367
#     4  11  23  39  61  88 124 165 208 259 316 374
#     4  10  21  34  62  91 119 156 205 264 316 365
#     4  12  23  34  53  91 125 157 203 247 309 381
#     4  11  22  38  58  80 117 167 204 242 304 378
#     4  11  18  35  63  90 117 155 210 264 313 370
#
# _framework density 18.597387999999999
#
# number of rings (size 3 to 8) (size 9 to 14) (size 15 to 20)
#    0.000    1.143    5.714    2.143    0.000    5.143 
#    0.000    0.000    0.000    4.714    0.000    1.000 
#    0.000    0.000    0.000    0.000    0.000    0.000 
#
# Total GULP energy -312386.787463 kJ/mol
# GULP energy per Si atom -5578.335490 kJ/mol
# Density = 1.855506 g / cm^3
# Si number density = 18.597388 Si / 1000 Ang^3
#
#
#
# Elastic Constant Matrix: (Units=GPa)
#
#
# Indices 1 2 3 4 5 6 
#
# 1 73.4050 28.9142 44.7918 0.0000 0.0000 0.0000
# 2 28.9142 59.0869 36.3462 0.0000 0.0000 0.0000
# 3 44.7918 36.3462 89.9482 0.0000 0.0000 0.0000
# 4 0.0000 0.0000 0.0000 29.1758 0.0000 0.0000
# 5 0.0000 0.0000 0.0000 0.0000 25.9426 0.0000
# 6 0.0000 0.0000 0.0000 0.0000 0.0000 -4.4051
#
#
#
# Elastic Compliance Matrix: (Units=1/GPa)
#
#
# Indices 1 2 3 4 5 6 
#
# 1 0.020633 -0.005026 -0.008244 0.000000 0.000000 0.000000
# 2 -0.005026 0.023747 -0.007093 0.000000 0.000000 0.000000
# 3 -0.008244 -0.007093 0.018089 0.000000 0.000000 0.000000
# 4 0.000000 0.000000 0.000000 0.034275 0.000000 0.000000
# 5 0.000000 0.000000 0.000000 0.000000 0.038547 0.000000
# 6 0.000000 0.000000 0.000000 0.000000 0.000000 -0.227009
#
#
# Mechanical properties :
#
#
# Convention : Reuss Voigt Hill
#
# Bulk Modulus (GPa) = 45.99065 49.17162 47.58113
# Shear Modulus (GPa) = -114.29646 17.63518 -48.33064
#
# Velocity S-wave (km/s) = -7.84804 3.08273 -5.10336
# Velocity P-wave (km/s) = 7.57225 6.25847 3.01419
#
# Compressibility (1/GPa) = 0.02174355
#
# Stress axis : x y z
#
# Youngs Moduli (GPa) = 48.46562 42.11131 55.28265
#
# Poissons Ratio (x) = 0.21164 0.45575
# Poissons Ratio (y) = 0.24358 0.39211
# Poissons Ratio (z) = 0.39955 0.29869
#
# Static dielectric constant tensor:
#      x y z
#    x 1.604160 0.000000 0.000000 
#    y 0.000000 1.685160 0.000000 
#    z 0.000000 0.000000 1.732250 
# 
# From -- ./inp_files/24367.got.cif
#   From: 2010.05.17/outbox.cif.g08.bks.cpg/sg53_13_cif.got.tgz:24367.got - 2010.06.03 12:45:16.
