data_PCOD9417361
_publ_section_title
;
Structure prediction by ZEFSAII (Michael W. Deem and Ramdas Pophale) SiO2 
 PCOD9417361
Probable space group: P M N A
;
_chemical_formula_sum "Si O2"
_cell_formula_units_Z 64
_cell_length_a 7.840330
_cell_length_b 24.601373
_cell_length_c 15.241987
_cell_angle_alpha 90.000000
_cell_angle_beta 90.000000
_cell_angle_gamma 90.000000
_cell_volume 2939.918392
_symmetry_space_group_name_H-M "P M N A"
_symmetry_group_IT_number 53
_symmetry_cell_setting 'orthorhombic'
loop_
_space_group_symop_operation_xyz
x,y,z
1/2-x,-y,1/2+z
x,-y,-z
1/2-x,y,1/2-z
-x,-y,-z
1/2+x,y,1/2-z
-x,y,z
1/2+x,-y,1/2+z
loop_
_atom_site_type_symbol
_atom_site_label
_atom_site_fract_x
_atom_site_fract_y
_atom_site_fract_z
Si Si1 0.790634 0.864753 0.027120
Si Si2 0.703808 0.253840 0.533144
Si Si3 0.295135 0.414661 0.151779
Si Si4 0.191564 0.525557 0.402947
Si Si5 0.294918 0.962171 0.349527
Si Si6 0.796069 0.298939 0.352568
Si Si7 0.201086 0.354806 0.852984
Si Si8 0.204959 0.085796 0.151372
O O1 0.732512 0.805858 0.060286
O O2 0.732686 0.915810 0.084991
O O3 0.000000 0.864508 0.028956
O O4 0.735933 0.875958 0.927119
O O5 0.500000 0.254212 0.544928
O O6 0.735943 0.259133 0.428700
O O7 0.775264 0.304695 0.589652
O O8 0.250000 0.400387 0.250000
O O9 0.500000 0.419239 0.135774
O O10 0.216037 0.474402 0.141282
O O11 0.233888 0.358462 0.109279
O O12 0.181322 0.500000 0.500000
O O13 0.261880 0.585738 0.394594
O O14 0.000000 0.530886 0.366293
O O15 0.250000 0.947590 0.250000
O O16 0.500000 0.964285 0.358590
O O17 0.231438 0.023841 0.364123
O O18 0.750000 0.287688 0.250000
O O19 0.000000 0.301375 0.353260
O O20 0.250000 0.354508 0.750000
O O21 0.000000 0.348884 0.854712
O O22 0.250000 0.102608 0.250000
O O23 0.000000 0.083923 0.146886
#
# Coordination Sequence:
#
# PCOD9417361 Si02
#       8
#     8   8   8   8   8   8   8   8
#     4   9  18  34  55  76 103 141 182 222 265 318
#     4  10  22  39  56  77 106 143 189 235 275 319
#     4   9  18  31  49  73  98 125 158 199 250 308
#     4  10  20  35  56  81 108 136 169 215 272 331
#     4   9  17  31  53  80 107 137 174 216 265 319
#     4  10  20  36  58  82 110 143 178 221 275 334
#     4  11  24  40  58  80 110 150 193 236 281 330
#     4   9  17  31  53  80 109 140 173 212 263 323
#
# _framework density 21.769311999999999
#
# number of rings (size 3 to 8) (size 9 to 14) (size 15 to 20)
#    0.000    2.375    0.000    2.250    0.000    6.750 
#    0.000    3.125    0.000    3.000    0.000    0.000 
#    0.000    0.000    0.000    0.000    0.000    0.000 
#
# Total GULP energy -356474.845624 kJ/mol
# GULP energy per Si atom -5569.919463 kJ/mol
# Density = 2.171976 g / cm^3
# Si number density = 21.769312 Si / 1000 Ang^3
#
#
#
# Elastic Constant Matrix: (Units=GPa)
#
#
# Indices 1 2 3 4 5 6 
#
# 1 28.4602 5.9315 -7.6803 0.0000 0.0000 0.0000
# 2 5.9315 93.2606 50.6363 0.0000 0.0000 0.0000
# 3 -7.6803 50.6363 72.4416 0.0000 0.0000 0.0000
# 4 0.0000 0.0000 0.0000 33.6674 0.0000 0.0000
# 5 0.0000 0.0000 0.0000 0.0000 20.5948 0.0000
# 6 0.0000 0.0000 0.0000 0.0000 0.0000 -1.1413
#
#
#
# Elastic Compliance Matrix: (Units=1/GPa)
#
#
# Indices 1 2 3 4 5 6 
#
# 1 0.039309 -0.007676 0.009533 0.000000 0.000000 0.000000
# 2 -0.007676 0.018780 -0.013941 0.000000 0.000000 0.000000
# 3 0.009533 -0.013941 0.024560 0.000000 0.000000 0.000000
# 4 0.000000 0.000000 0.000000 0.029702 0.000000 0.000000
# 5 0.000000 0.000000 0.000000 0.000000 0.048556 0.000000
# 6 0.000000 0.000000 0.000000 0.000000 0.000000 -0.876200
#
#
# Mechanical properties :
#
#
# Convention : Reuss Voigt Hill
#
# Bulk Modulus (GPa) = 17.09959 32.43749 24.76854
# Shear Modulus (GPa) = -7.44457 20.30916 6.43230
#
# Velocity S-wave (km/s) = -1.85126 3.05770 1.72080
# Velocity P-wave (km/s) = 1.81725 5.23440 3.91799
#
# Compressibility (1/GPa) = 0.05848093
#
# Stress axis : x y z
#
# Youngs Moduli (GPa) = 25.43932 53.24728 40.71702
#
# Poissons Ratio (x) = 0.40874 -0.38816
# Poissons Ratio (y) = 0.19528 0.56764
# Poissons Ratio (z) = -0.24252 0.74233
#
# Static dielectric constant tensor:
#      x y z
#    x 1.756600 0.000000 0.000000 
#    y 0.000000 1.926260 0.000000 
#    z 0.000000 0.000000 -3.278350 
# 
# From -- ./inp_files/20972.got.cif
#   From: 2010.05.17/outbox.cif.g08.bks.cpg/sg53_11_cif.got.tgz:20972.got - 2010.06.03 12:45:16.
