data_PCOD9417018
_publ_section_title
;
Structure prediction by ZEFSAII (Michael W. Deem and Ramdas Pophale) SiO2 
 PCOD9417018
Probable space group: P M N A
;
_chemical_formula_sum "Si O2"
_cell_formula_units_Z 56
_cell_length_a 8.694504
_cell_length_b 24.505947
_cell_length_c 14.730503
_cell_angle_alpha 90.000000
_cell_angle_beta 90.000000
_cell_angle_gamma 90.000000
_cell_volume 3138.584881
_symmetry_space_group_name_H-M "P M N A"
_symmetry_group_IT_number 53
_symmetry_cell_setting 'orthorhombic'
loop_
_space_group_symop_operation_xyz
x,y,z
1/2-x,-y,1/2+z
x,-y,-z
1/2-x,y,1/2-z
-x,-y,-z
1/2+x,y,1/2-z
-x,y,z
1/2+x,-y,1/2+z
loop_
_atom_site_type_symbol
_atom_site_label
_atom_site_fract_x
_atom_site_fract_y
_atom_site_fract_z
Si Si1 0.185375 0.439362 0.149496
Si Si2 0.815754 0.768128 0.506311
Si Si3 0.185390 0.439055 0.850497
Si Si4 0.684341 0.851815 0.648635
Si Si5 0.684139 0.146437 0.851330
Si Si6 0.185581 0.937089 0.006578
Si Si7 0.813558 0.353082 0.000102
O O1 0.250000 0.433108 0.250000
O O2 0.230807 0.500154 0.116073
O O3 0.000000 0.438684 0.151949
O O4 0.234460 0.389953 0.085775
O O5 0.746060 0.799608 0.592989
O O6 0.770789 0.802431 0.415978
O O7 0.756671 0.706671 0.500916
O O8 0.000000 0.769401 0.513020
O O9 0.250000 0.432849 0.750000
O O10 0.234648 0.389625 0.914140
O O11 0.000000 0.438359 0.848130
O O12 0.750000 0.855296 0.750000
O O13 0.500000 0.849393 0.653262
O O14 0.728037 0.903201 0.584209
O O15 0.750000 0.149761 0.750000
O O16 0.500000 0.144769 0.846373
O O17 0.743948 0.093939 0.907037
O O18 0.000000 0.935069 0.014613
O O19 0.233143 0.000000 0.000000
O O20 0.000000 0.348766 0.000136
#
# Coordination Sequence:
#
# PCOD9417018 Si02
#       7
#     8   8   8   8   8   8   8
#     4   9  18  33  52  74 100 131 167 207 254 310
#     4  10  22  38  54  76 105 136 177 224 265 310
#     4   9  18  33  52  74 101 132 167 208 255 311
#     4  10  20  36  58  80 107 143 179 216 260 309
#     4  10  21  37  57  79 106 143 182 221 265 312
#     4   9  19  36  57  84 116 145 176 216 260 308
#     4  10  20  34  53  75 101 135 171 209 260 316
#
# _framework density 17.842435999999999
#
# number of rings (size 3 to 8) (size 9 to 14) (size 15 to 20)
#    0.000    2.429    0.000    1.714    0.000    7.143 
#    0.000    5.714    0.000    4.286    0.000    0.000 
#    0.000    0.000    0.000    0.000    0.000    0.000 
#
# Total GULP energy -312425.254541 kJ/mol
# GULP energy per Si atom -5579.022403 kJ/mol
# Density = 1.780183 g / cm^3
# Si number density = 17.842436 Si / 1000 Ang^3
#
#
#
# Elastic Constant Matrix: (Units=GPa)
#
#
# Indices 1 2 3 4 5 6 
#
# 1 28.2604 41.9416 40.0962 0.0000 0.0000 0.0000
# 2 41.9416 188.4823 96.3446 0.0000 0.0000 0.0000
# 3 40.0962 96.3446 156.7704 0.0000 0.0000 0.0000
# 4 0.0000 0.0000 0.0000 14.5401 0.0000 0.0000
# 5 0.0000 0.0000 0.0000 0.0000 27.6406 0.0000
# 6 0.0000 0.0000 0.0000 0.0000 0.0000 26.8199
#
#
#
# Elastic Compliance Matrix: (Units=1/GPa)
#
#
# Indices 1 2 3 4 5 6 
#
# 1 0.063735 -0.008529 -0.011059 0.000000 0.000000 0.000000
# 2 -0.008529 0.008877 -0.003274 0.000000 0.000000 0.000000
# 3 -0.011059 -0.003274 0.011219 0.000000 0.000000 0.000000
# 4 0.000000 0.000000 0.000000 0.068776 0.000000 0.000000
# 5 0.000000 0.000000 0.000000 0.000000 0.036179 0.000000
# 6 0.000000 0.000000 0.000000 0.000000 0.000000 0.037286
#
#
# Mechanical properties :
#
#
# Convention : Reuss Voigt Hill
#
# Bulk Modulus (GPa) = 26.24261 81.14201 53.69231
# Shear Modulus (GPa) = 17.57481 26.80883 22.19182
#
# Velocity S-wave (km/s) = 3.14188 3.88046 3.53053
# Velocity P-wave (km/s) = 5.28221 8.10265 6.83940
#
# Compressibility (1/GPa) = 0.03810597
#
# Stress axis : x y z
#
# Youngs Moduli (GPa) = 15.69003 112.65026 89.13188
#
# Poissons Ratio (x) = 0.96084 0.98573
# Poissons Ratio (y) = 0.13383 0.29181
# Poissons Ratio (z) = 0.17352 0.36881
#
# Static dielectric constant tensor:
#      x y z
#    x 1.600670 0.000000 0.000000 
#    y 0.000000 1.597940 0.000000 
#    z 0.000000 0.000000 1.587810 
# 
# From -- ./inp_files/20500.got.cif
#   From: 2010.05.17/outbox.cif.g08.bks.cpg/sg53_11_cif.got.tgz:20500.got - 2010.06.03 12:45:16.
