data_PCOD9417467
_publ_section_title
;
Structure prediction by ZEFSAII (Michael W. Deem and Ramdas Pophale) SiO2 
 PCOD9417467
Probable space group: P M N A
;
_chemical_formula_sum "Si O2"
_cell_formula_units_Z 64
_cell_length_a 9.042135
_cell_length_b 15.105332
_cell_length_c 24.088304
_cell_angle_alpha 90.000000
_cell_angle_beta 90.000000
_cell_angle_gamma 90.000000
_cell_volume 3290.087781
_symmetry_space_group_name_H-M "P M N A"
_symmetry_group_IT_number 53
_symmetry_cell_setting 'orthorhombic'
loop_
_space_group_symop_operation_xyz
x,y,z
1/2-x,-y,1/2+z
x,-y,-z
1/2-x,y,1/2-z
-x,-y,-z
1/2+x,y,1/2-z
-x,y,z
1/2+x,-y,1/2+z
loop_
_atom_site_type_symbol
_atom_site_label
_atom_site_fract_x
_atom_site_fract_y
_atom_site_fract_z
Si Si1 0.324147 0.197782 0.306576
Si Si2 0.323105 0.396596 0.994833
Si Si3 0.322910 0.334744 0.870484
Si Si4 0.176686 0.649571 0.893137
Si Si5 0.833138 0.896360 0.982884
Si Si6 0.823642 0.145511 0.594069
Si Si7 0.675397 0.054016 0.127400
Si Si8 0.177561 0.493070 0.809026
O O1 0.250000 0.228796 0.250000
O O2 0.500000 0.194685 0.300740
O O3 0.286570 0.266349 0.355362
O O4 0.259980 0.102633 0.323392
O O5 0.500000 0.388944 0.999993
O O6 0.249778 0.347978 0.046717
O O7 0.282233 0.500000 0.000000
O O8 0.283586 0.362714 0.933676
O O9 0.500000 0.348190 0.863324
O O10 0.290850 0.230104 0.867912
O O11 0.235875 0.397483 0.828693
O O12 0.221424 0.563116 0.857147
O O13 0.000000 0.645886 0.899970
O O14 0.730681 0.898483 0.929012
O O15 0.000000 0.865148 0.970190
O O16 0.762601 0.848589 0.035812
O O17 0.842154 0.000000 0.000000
O O18 0.000000 0.146871 0.581967
O O19 0.789603 0.050248 0.620940
O O20 0.500000 0.063645 0.133474
O O21 0.250000 0.516403 0.750000
O O22 0.000000 0.494468 0.804114
#
# Coordination Sequence:
#
# PCOD9417467 Si02
#       8
#     8   8   8   8   8   8   8   8
#     4  11  24  42  61  86 116 151 196 246 300 357
#     4  10  20  35  58  89 122 157 194 235 290 348
#     4  10  21  38  58  86 123 158 196 240 285 345
#     4  10  23  40  60  87 119 152 191 238 292 352
#     4   9  17  30  50  78 111 146 185 231 280 334
#     4   9  19  35  56  82 115 154 194 235 285 341
#     4  10  20  36  57  81 111 149 193 240 288 339
#     4  11  23  40  62  86 113 151 193 239 289 342
#
# _framework density 19.452369999999998
#
# number of rings (size 3 to 8) (size 9 to 14) (size 15 to 20)
#    0.000    2.000    1.250    1.875    1.750    4.750 
#    0.000    0.625    0.000    0.000    0.000    0.000 
#    0.000    0.000    0.000    0.000    0.000    0.000 
#
# Total GULP energy -357508.092605 kJ/mol
# GULP energy per Si atom -5586.063947 kJ/mol
# Density = 1.940810 g / cm^3
# Si number density = 19.452370 Si / 1000 Ang^3
#
#
#
# Elastic Constant Matrix: (Units=GPa)
#
#
# Indices 1 2 3 4 5 6 
#
# 1 36.7792 25.5299 20.8944 0.0000 0.0000 0.0000
# 2 25.5299 72.6906 4.9853 0.0000 0.0000 0.0000
# 3 20.8944 4.9853 58.7703 0.0000 0.0000 0.0000
# 4 0.0000 0.0000 0.0000 20.6629 0.0000 0.0000
# 5 0.0000 0.0000 0.0000 0.0000 34.1554 0.0000
# 6 0.0000 0.0000 0.0000 0.0000 0.0000 48.7998
#
#
#
# Elastic Compliance Matrix: (Units=1/GPa)
#
#
# Indices 1 2 3 4 5 6 
#
# 1 0.046424 -0.015262 -0.015210 0.000000 0.000000 0.000000
# 2 -0.015262 0.018855 0.003827 0.000000 0.000000 0.000000
# 3 -0.015210 0.003827 0.022099 0.000000 0.000000 0.000000
# 4 0.000000 0.000000 0.000000 0.048396 0.000000 0.000000
# 5 0.000000 0.000000 0.000000 0.000000 0.029278 0.000000
# 6 0.000000 0.000000 0.000000 0.000000 0.000000 0.020492
#
#
# Mechanical properties :
#
#
# Convention : Reuss Voigt Hill
#
# Bulk Modulus (GPa) = 29.33735 30.11770 29.72752
# Shear Modulus (GPa) = 19.98433 28.51230 24.24831
#
# Velocity S-wave (km/s) = 3.20870 3.83266 3.53448
# Velocity P-wave (km/s) = 5.37048 5.92471 5.65439
#
# Compressibility (1/GPa) = 0.03408624
#
# Stress axis : x y z
#
# Youngs Moduli (GPa) = 21.54054 53.03753 45.25188
#
# Poissons Ratio (x) = 0.80944 0.68830
# Poissons Ratio (y) = 0.32874 -0.17316
# Poissons Ratio (z) = 0.32764 -0.20295
#
# Static dielectric constant tensor:
#      x y z
#    x 1.653370 0.000000 0.000000 
#    y 0.000000 1.713620 0.000000 
#    z 0.000000 0.000000 1.663660 
# 
# From -- ./inp_files/34287.got.cif
#   From: 2010.05.17/outbox.cif.g08.bks.cpg/sg53_18_cif.got.tgz:34287.got - 2010.06.03 12:45:16.
