data_PCOD9417653
_publ_section_title
;
Structure prediction by ZEFSAII (Michael W. Deem and Ramdas Pophale) SiO2 
 PCOD9417653
Probable space group: P M N A
;
_chemical_formula_sum "Si O2"
_cell_formula_units_Z 64
_cell_length_a 8.496783
_cell_length_b 18.875943
_cell_length_c 21.209478
_cell_angle_alpha 90.000000
_cell_angle_beta 90.000000
_cell_angle_gamma 90.000000
_cell_volume 3401.677709
_symmetry_space_group_name_H-M "P M N A"
_symmetry_group_IT_number 53
_symmetry_cell_setting 'orthorhombic'
loop_
_space_group_symop_operation_xyz
x,y,z
1/2-x,-y,1/2+z
x,-y,-z
1/2-x,y,1/2-z
-x,-y,-z
1/2+x,y,1/2-z
-x,y,z
1/2+x,-y,1/2+z
loop_
_atom_site_type_symbol
_atom_site_label
_atom_site_fract_x
_atom_site_fract_y
_atom_site_fract_z
Si Si1 0.189829 0.795368 0.818643
Si Si2 0.310312 0.707578 0.181580
Si Si3 0.189855 0.040982 0.181373
Si Si4 0.190598 0.293986 0.060427
Si Si5 0.188704 0.793381 0.440956
Si Si6 0.190533 0.047056 0.940079
Si Si7 0.690244 0.457337 0.437904
Si Si8 0.311501 0.543661 0.181288
O O1 0.250000 0.772849 0.750000
O O2 0.240359 0.877191 0.829024
O O3 0.242828 0.745670 0.875733
O O4 0.000000 0.794690 0.817642
O O5 0.250000 0.730880 0.250000
O O6 0.500000 0.708299 0.182716
O O7 0.256221 0.756270 0.123966
O O8 0.259758 0.625707 0.171774
O O9 0.250000 0.018469 0.250000
O O10 0.000000 0.040476 0.182089
O O11 0.243000 0.991262 0.124330
O O12 0.242130 0.375664 0.059258
O O13 0.000000 0.292752 0.059427
O O14 0.250689 0.251660 0.000009
O O15 0.247839 0.873550 0.444824
O O16 0.000000 0.792725 0.441252
O O17 0.000000 0.049113 0.940038
O O18 0.239634 0.000000 0.000000
O O19 0.743283 0.500000 0.500000
O O20 0.500000 0.458060 0.437276
O O21 0.748933 0.495699 0.375069
O O22 0.250000 0.521020 0.250000
O O23 0.500000 0.542143 0.181591
#
# Coordination Sequence:
#
# PCOD9417653 Si02
#       8
#     8   8   8   8   8   8   8   8
#     4   9  18  34  55  78 104 136 175 215 258 311
#     4   9  20  37  56  80 109 143 182 224 271 325
#     4   9  18  33  54  77 102 134 170 211 257 309
#     4  10  21  37  56  78 108 146 184 221 266 325
#     4  11  23  37  55  82 112 139 177 228 275 319
#     4  10  21  38  58  78 104 141 182 219 262 321
#     4  10  21  36  55  81 111 143 183 230 277 327
#     4  10  20  36  58  81 109 145 184 226 274 328
#
# _framework density 18.814246000000001
#
# number of rings (size 3 to 8) (size 9 to 14) (size 15 to 20)
#    0.000    2.250    0.000    2.250    0.000    6.500 
#    0.000    6.250    0.000    0.000    0.000    0.000 
#    0.000    0.000    0.000    0.000    0.000    0.000 
#
# Total GULP energy -357404.680311 kJ/mol
# GULP energy per Si atom -5584.448130 kJ/mol
# Density = 1.877142 g / cm^3
# Si number density = 18.814246 Si / 1000 Ang^3
#
#
#
# Elastic Constant Matrix: (Units=GPa)
#
#
# Indices 1 2 3 4 5 6 
#
# 1 6.9432 26.0534 28.6045 0.0000 0.0000 0.0000
# 2 26.0534 151.8770 135.1282 0.0000 0.0000 0.0000
# 3 28.6045 135.1282 212.0049 0.0000 0.0000 0.0000
# 4 0.0000 0.0000 0.0000 43.2028 0.0000 0.0000
# 5 0.0000 0.0000 0.0000 0.0000 32.9272 0.0000
# 6 0.0000 0.0000 0.0000 0.0000 0.0000 5.4802
#
#
#
# Elastic Compliance Matrix: (Units=1/GPa)
#
#
# Indices 1 2 3 4 5 6 
#
# 1 0.464381 -0.055242 -0.027446 0.000000 0.000000 0.000000
# 2 -0.055242 0.021781 -0.006429 0.000000 0.000000 0.000000
# 3 -0.027446 -0.006429 0.012518 0.000000 0.000000 0.000000
# 4 0.000000 0.000000 0.000000 0.023147 0.000000 0.000000
# 5 0.000000 0.000000 0.000000 0.000000 0.030370 0.000000
# 6 0.000000 0.000000 0.000000 0.000000 0.000000 0.182474
#
#
# Mechanical properties :
#
#
# Convention : Reuss Voigt Hill
#
# Bulk Modulus (GPa) = 3.12066 83.37746 43.24906
# Shear Modulus (GPa) = 4.90331 28.39132 16.64732
#
# Velocity S-wave (km/s) = 1.61612 3.88884 2.97783
# Velocity P-wave (km/s) = 2.26819 8.03595 5.90429
#
# Compressibility (1/GPa) = 0.32044545
#
# Stress axis : x y z
#
# Youngs Moduli (GPa) = 2.15341 45.91162 79.88580
#
# Poissons Ratio (x) = 2.53626 2.19251
# Poissons Ratio (y) = 0.11896 0.51361
# Poissons Ratio (z) = 0.05910 0.29518
#
# Static dielectric constant tensor:
#      x y z
#    x 1.643030 0.000000 0.000000 
#    y 0.000000 1.634260 0.000000 
#    z 0.000000 0.000000 1.623780 
# 
# From -- ./inp_files/26893.got.cif
#   From: 2010.05.17/outbox.cif.g08.bks.cpg/sg53_14_cif.got.tgz:26893.got - 2010.06.03 12:45:16.
