data_PCOD9417478
_publ_section_title
;
Structure prediction by ZEFSAII (Michael W. Deem and Ramdas Pophale) SiO2 
 PCOD9417478
Probable space group: P M N A
;
_chemical_formula_sum "Si O2"
_cell_formula_units_Z 40
_cell_length_a 15.006006
_cell_length_b 7.783170
_cell_length_c 18.388053
_cell_angle_alpha 90.000000
_cell_angle_beta 90.000000
_cell_angle_gamma 90.000000
_cell_volume 2147.619700
_symmetry_space_group_name_H-M "P M N A"
_symmetry_group_IT_number 53
_symmetry_cell_setting 'orthorhombic'
loop_
_space_group_symop_operation_xyz
x,y,z
1/2-x,-y,1/2+z
x,-y,-z
1/2-x,y,1/2-z
-x,-y,-z
1/2+x,y,1/2-z
-x,y,z
1/2+x,-y,1/2+z
loop_
_atom_site_type_symbol
_atom_site_label
_atom_site_fract_x
_atom_site_fract_y
_atom_site_fract_z
Si Si1 0.103069 0.369761 0.933044
Si Si2 0.842229 0.080463 0.208665
Si Si3 0.754121 0.076431 0.924160
Si Si4 0.605319 0.527981 0.721851
Si Si5 0.603475 0.210642 0.813001
O O1 0.176287 0.225182 0.943951
O O2 0.129705 0.464361 0.858373
O O3 0.000000 0.306458 0.925697
O O4 0.104093 0.500000 0.000000
O O5 0.750000 0.065800 0.250000
O O6 0.876598 0.270012 0.226702
O O7 0.815509 0.051042 0.124963
O O8 0.896532 0.923096 0.244542
O O9 0.671749 0.141686 0.874221
O O10 0.720796 0.000000 0.000000
O O11 0.500000 0.505933 0.727612
O O12 0.639956 0.393396 0.782109
O O13 0.500000 0.224627 0.838108
#
# Coordination Sequence:
#
# PCOD9417478 Si02
#       5
#     8   8   8   8   8
#     4  10  21  36  57  88 123 159 195 243 310 373
#     4  10  21  34  60  90 116 157 202 252 302 358
#     4  11  23  39  59  91 125 165 205 254 318 367
#     4  10  20  35  59  85 115 157 197 246 306 359
#     4  10  22  41  62  87 122 163 210 258 303 365
#
# _framework density 18.625271999999999
#
# number of rings (size 3 to 8) (size 9 to 14) (size 15 to 20)
#    0.000    1.800    2.000    1.800    2.800    1.600 
#    0.000    0.000    0.000    0.600    0.000    0.000 
#    0.000    0.000    0.000    0.000    0.000    0.000 
#
# Total GULP energy -222895.047601 kJ/mol
# GULP energy per Si atom -5572.376190 kJ/mol
# Density = 1.858288 g / cm^3
# Si number density = 18.625272 Si / 1000 Ang^3
#
#
#
# Elastic Constant Matrix: (Units=GPa)
#
#
# Indices 1 2 3 4 5 6 
#
# 1 43.7123 19.0109 40.0677 0.0000 0.0000 0.0000
# 2 19.0109 103.2782 43.3299 0.0000 0.0000 0.0000
# 3 40.0677 43.3299 105.4693 0.0000 0.0000 0.0000
# 4 0.0000 0.0000 0.0000 -909.2651 0.0000 0.0000
# 5 0.0000 0.0000 0.0000 0.0000 30.6268 0.0000
# 6 0.0000 0.0000 0.0000 0.0000 0.0000 32.6517
#
#
#
# Elastic Compliance Matrix: (Units=1/GPa)
#
#
# Indices 1 2 3 4 5 6 
#
# 1 0.035193 -0.001050 -0.012939 0.000000 0.000000 0.000000
# 2 -0.001050 0.011730 -0.004420 0.000000 0.000000 0.000000
# 3 -0.012939 -0.004420 0.016213 0.000000 0.000000 0.000000
# 4 0.000000 0.000000 0.000000 -0.001100 0.000000 0.000000
# 5 0.000000 0.000000 0.000000 0.000000 0.032651 0.000000
# 6 0.000000 0.000000 0.000000 0.000000 0.000000 0.030626
#
#
# Mechanical properties :
#
#
# Convention : Reuss Voigt Hill
#
# Bulk Modulus (GPa) = 37.99556 50.80853 44.40205
# Shear Modulus (GPa) = 29.25609 -159.19392 -64.96891
#
# Velocity S-wave (km/s) = 3.96760 -9.25514 -5.91252
# Velocity P-wave (km/s) = 6.43688 9.32049 4.76645
#
# Compressibility (1/GPa) = 0.02631886
#
# Stress axis : x y z
#
# Youngs Moduli (GPa) = 28.41454 85.24872 61.67975
#
# Poissons Ratio (x) = 0.08950 0.79805
# Poissons Ratio (y) = 0.02983 0.27265
# Poissons Ratio (z) = 0.36764 0.37683
#
# Static dielectric constant tensor:
#      x y z
#    x 1.632860 0.000000 0.000000 
#    y 0.000000 1.937620 0.000000 
#    z 0.000000 0.000000 1.660880 
# 
# From -- ./inp_files/22451.got.cif
#   From: 2010.05.17/outbox.cif.g08.bks.cpg/sg53_12_cif.got.tgz:22451.got - 2010.06.03 12:45:16.
