data_PCOD9417997
_publ_section_title
;
Structure prediction by ZEFSAII (Michael W. Deem and Ramdas Pophale) SiO2 
 PCOD9417997
Probable space group: P M N A
;
_chemical_formula_sum "Si O2"
_cell_formula_units_Z 36
_cell_length_a 25.243383
_cell_length_b 11.277580
_cell_length_c 6.155881
_cell_angle_alpha 90.000000
_cell_angle_beta 90.000000
_cell_angle_gamma 90.000000
_cell_volume 1752.482496
_symmetry_space_group_name_H-M "P M N A"
_symmetry_group_IT_number 53
_symmetry_cell_setting 'orthorhombic'
loop_
_space_group_symop_operation_xyz
x,y,z
1/2-x,-y,1/2+z
x,-y,-z
1/2-x,y,1/2-z
-x,-y,-z
1/2+x,y,1/2-z
-x,y,z
1/2+x,-y,1/2+z
loop_
_atom_site_type_symbol
_atom_site_label
_atom_site_fract_x
_atom_site_fract_y
_atom_site_fract_z
Si Si1 0.700892 0.625534 0.108320
Si Si2 0.642135 0.793281 0.788183
Si Si3 0.560375 0.158969 0.833645
Si Si4 0.627564 0.000000 0.500000
Si Si5 0.098791 0.623868 0.085474
O O1 0.750000 0.667658 0.250000
O O2 0.650288 0.602226 0.263071
O O3 0.715111 0.500000 0.000000
O O4 0.684715 0.724423 0.933261
O O5 0.617977 0.698038 0.622330
O O6 0.659710 0.905585 0.644355
O O7 0.595652 0.836666 0.949871
O O8 0.500000 0.123628 0.871296
O O9 0.590234 0.075002 0.661825
O O10 0.562188 0.290297 0.727441
O O11 0.076441 0.500000 0.000000
#
# Coordination Sequence:
#
# PCOD9417997 Si02
#       5
#     8   8   8   4   8
#     4  11  22  36  64  99 122 151 201 260 314 373
#     4  10  22  38  60  93 125 162 206 251 311 365
#     4  10  22  37  60  93 122 162 216 261 302 361
#     4  10  21  40  64  88 120 170 206 258 307 364
#     4  10  20  38  58  88 129 165 200 246 313 375
#
# _framework density 20.542287000000002
#
# number of rings (size 3 to 8) (size 9 to 14) (size 15 to 20)
#    0.000    1.778    2.222    1.667    0.000    5.778 
#    0.000    1.111    0.000    0.000  208.000    0.000 
#    0.000    0.000    0.000    0.000    0.000    0.000 
#
# Total GULP energy -201171.702131 kJ/mol
# GULP energy per Si atom -5588.102837 kJ/mol
# Density = 2.049553 g / cm^3
# Si number density = 20.542287 Si / 1000 Ang^3
#
#
#
# Elastic Constant Matrix: (Units=GPa)
#
#
# Indices 1 2 3 4 5 6 
#
# 1 49.0014 14.5295 19.4376 0.0000 0.0000 0.0000
# 2 14.5295 130.4070 56.4233 0.0000 0.0000 0.0000
# 3 19.4376 56.4233 117.7964 0.0000 0.0000 0.0000
# 4 0.0000 0.0000 0.0000 49.8451 0.0000 0.0000
# 5 0.0000 0.0000 0.0000 0.0000 -0.9240 0.0000
# 6 0.0000 0.0000 0.0000 0.0000 0.0000 5.5852
#
#
#
# Elastic Compliance Matrix: (Units=1/GPa)
#
#
# Indices 1 2 3 4 5 6 
#
# 1 0.021963 -0.001109 -0.003093 0.000000 0.000000 0.000000
# 2 -0.001109 0.009729 -0.004477 0.000000 0.000000 0.000000
# 3 -0.003093 -0.004477 0.011144 0.000000 0.000000 0.000000
# 4 0.000000 0.000000 0.000000 0.020062 0.000000 0.000000
# 5 0.000000 0.000000 0.000000 0.000000 -1.082246 0.000000
# 6 0.000000 0.000000 0.000000 0.000000 0.000000 0.179045
#
#
# Mechanical properties :
#
#
# Convention : Reuss Voigt Hill
#
# Bulk Modulus (GPa) = 39.24893 53.10953 46.17923
# Shear Modulus (GPa) = -6.13909 24.68888 9.27489
#
# Velocity S-wave (km/s) = -1.73061 3.47054 2.12716
# Velocity P-wave (km/s) = 3.89288 6.47838 5.34434
#
# Compressibility (1/GPa) = 0.02547840
#
# Stress axis : x y z
#
# Youngs Moduli (GPa) = 45.53050 102.78598 89.73353
#
# Poissons Ratio (x) = 0.11397 0.27755
# Poissons Ratio (y) = 0.05048 0.40175
# Poissons Ratio (z) = 0.14083 0.46018
#
# Static dielectric constant tensor:
#      x y z
#    x 1.684250 0.000000 0.000000 
#    y 0.000000 1.759370 0.000000 
#    z 0.000000 0.000000 1.728860 
# 
# From -- ./inp_files/3483.got.cif
#   From: 2010.05.17/outbox.cif.g08.bks.cpg/sg53_2_cif.got.tgz:3483.got - 2010.06.03 12:45:16.
