data_PCOD9417778
_publ_section_title
;
Structure prediction by ZEFSAII (Michael W. Deem and Ramdas Pophale) SiO2 
 PCOD9417778
Probable space group: P M N A
;
_chemical_formula_sum "Si O2"
_cell_formula_units_Z 48
_cell_length_a 9.567872
_cell_length_b 30.870497
_cell_length_c 8.806969
_cell_angle_alpha 90.000000
_cell_angle_beta 90.000000
_cell_angle_gamma 90.000000
_cell_volume 2601.270081
_symmetry_space_group_name_H-M "P M N A"
_symmetry_group_IT_number 53
_symmetry_cell_setting 'orthorhombic'
loop_
_space_group_symop_operation_xyz
x,y,z
1/2-x,-y,1/2+z
x,-y,-z
1/2-x,y,1/2-z
-x,-y,-z
1/2+x,y,1/2-z
-x,y,z
1/2+x,-y,1/2+z
loop_
_atom_site_type_symbol
_atom_site_label
_atom_site_fract_x
_atom_site_fract_y
_atom_site_fract_z
Si Si1 0.500000 0.549387 0.935928
Si Si2 0.332716 0.042366 0.907250
Si Si3 0.743736 0.602553 0.431508
Si Si4 0.329416 0.767652 0.086201
Si Si5 0.835512 0.863814 0.405954
Si Si6 0.328780 0.308119 0.409744
Si Si7 0.500000 0.453096 0.427467
O O1 0.500000 0.545807 0.754053
O O2 0.500000 0.500000 0.000000
O O3 0.624553 0.578930 0.996422
O O4 0.250000 0.042012 0.750000
O O5 0.500000 0.039487 0.881409
O O6 0.305163 0.089713 0.983022
O O7 0.290488 0.000000 0.000000
O O8 0.750000 0.600538 0.250000
O O9 0.711945 0.651340 0.483864
O O10 0.626340 0.573271 0.504803
O O11 0.250000 0.765932 0.250000
O O12 0.500000 0.759563 0.098313
O O13 0.310391 0.816730 0.022160
O O14 0.246599 0.733779 0.982205
O O15 0.750000 0.863825 0.250000
O O16 0.000000 0.864264 0.368733
O O17 0.250000 0.315899 0.250000
O O18 0.500000 0.304658 0.397185
O O19 0.500000 0.500000 0.500000
#
# Coordination Sequence:
#
# PCOD9417778 Si02
#       7
#     4   8   8   8   8   8   4
#     4  12  26  44  70 100 132 174 208 256 309 366
#     4   9  17  30  49  74 107 146 190 241 295 354
#     4  12  26  44  68  97 128 165 211 258 306 367
#     4  10  20  36  61  89 119 155 199 252 305 365
#     4   8  15  29  50  77 108 146 192 241 295 353
#     4  12  26  44  65  91 124 162 205 254 315 378
#     4  12  24  46  68  96 134 168 212 254 307 364
#
# _framework density 18.452524
#
# number of rings (size 3 to 8) (size 9 to 14) (size 15 to 20)
#    0.000    1.500    0.833    5.000    2.333    1.000 
#    0.000    0.833    0.000    2.000    0.000    0.000 
#    0.000    0.000    0.000    0.000    0.000    0.000 
#
# Total GULP energy -267348.719604 kJ/mol
# GULP energy per Si atom -5569.764992 kJ/mol
# Density = 1.841053 g / cm^3
# Si number density = 18.452524 Si / 1000 Ang^3
#
#
#
# Elastic Constant Matrix: (Units=GPa)
#
#
# Indices 1 2 3 4 5 6 
#
# 1 134.0415 69.5072 45.8379 0.0000 0.0000 0.0000
# 2 69.5072 186.5023 64.5294 0.0000 0.0000 0.0000
# 3 45.8379 64.5294 130.7030 0.0000 0.0000 0.0000
# 4 0.0000 0.0000 0.0000 32.4383 0.0000 0.0000
# 5 0.0000 0.0000 0.0000 0.0000 25.2459 0.0000
# 6 0.0000 0.0000 0.0000 0.0000 0.0000 29.6919
#
#
#
# Elastic Compliance Matrix: (Units=1/GPa)
#
#
# Indices 1 2 3 4 5 6 
#
# 1 0.009638 -0.002922 -0.001938 0.000000 0.000000 0.000000
# 2 -0.002922 0.007352 -0.002605 0.000000 0.000000 0.000000
# 3 -0.001938 -0.002605 0.009617 0.000000 0.000000 0.000000
# 4 0.000000 0.000000 0.000000 0.030828 0.000000 0.000000
# 5 0.000000 0.000000 0.000000 0.000000 0.039610 0.000000
# 6 0.000000 0.000000 0.000000 0.000000 0.000000 0.033679
#
#
# Mechanical properties :
#
#
# Convention : Reuss Voigt Hill
#
# Bulk Modulus (GPa) = 85.63164 90.11064 87.87114
# Shear Modulus (GPa) = 33.43461 35.56669 34.50065
#
# Velocity S-wave (km/s) = 4.26129 4.39506 4.32869
# Velocity P-wave (km/s) = 8.40944 8.64264 8.52684
#
# Compressibility (1/GPa) = 0.01167793
#
# Stress axis : x y z
#
# Youngs Moduli (GPa) = 103.75648 136.01597 103.98579
#
# Poissons Ratio (x) = 0.39737 0.20149
# Poissons Ratio (y) = 0.30313 0.27091
# Poissons Ratio (z) = 0.20105 0.35435
#
# Static dielectric constant tensor:
#      x y z
#    x 1.597350 0.000000 0.000000 
#    y 0.000000 1.643030 0.000000 
#    z 0.000000 0.000000 1.607230 
# 
# From -- ./inp_files/6861.got.cif
#   From: 2010.05.17/outbox.cif.g08.bks.cpg/sg53_4_cif.got.tgz:6861.got - 2010.06.03 12:45:16.
