data_PCOD9417345
_publ_section_title
;
Structure prediction by ZEFSAII (Michael W. Deem and Ramdas Pophale) SiO2 
 PCOD9417345
Probable space group: P M N A
;
_chemical_formula_sum "Si O2"
_cell_formula_units_Z 32
_cell_length_a 13.706320
_cell_length_b 4.793118
_cell_length_c 22.222550
_cell_angle_alpha 90.000000
_cell_angle_beta 90.000000
_cell_angle_gamma 90.000000
_cell_volume 1459.932847
_symmetry_space_group_name_H-M "P M N A"
_symmetry_group_IT_number 53
_symmetry_cell_setting 'orthorhombic'
loop_
_space_group_symop_operation_xyz
x,y,z
1/2-x,-y,1/2+z
x,-y,-z
1/2-x,y,1/2-z
-x,-y,-z
1/2+x,y,1/2-z
-x,y,z
1/2+x,-y,1/2+z
loop_
_atom_site_type_symbol
_atom_site_label
_atom_site_fract_x
_atom_site_fract_y
_atom_site_fract_z
Si Si1 0.890363 0.339068 0.320805
Si Si2 0.800046 0.160399 0.124841
Si Si3 0.887028 0.658038 0.061967
Si Si4 0.109659 0.830888 0.234213
O O1 0.860530 0.544387 0.266051
O O2 0.000000 0.422484 0.340903
O O3 0.805937 0.302372 0.369725
O O4 0.897356 0.039645 0.290053
O O5 0.820254 0.925584 0.074727
O O6 0.824549 0.984222 0.185034
O O7 0.871499 0.421182 0.113024
O O8 0.000000 0.748483 0.060033
O O9 0.863954 0.500000 0.000000
O O10 0.000000 0.798821 0.208525
#
# Coordination Sequence:
#
# PCOD9417345 Si02
#       4
#     8   8   8   8
#     4  10  22  38  57  85 122 157 191 235 285 346
#     4  12  22  37  63  88 118 162 204 240 296 361
#     4  11  24  41  61  88 120 154 199 256 310 355
#     4  10  20  35  55  84 119 153 192 235 284 348
#
# _framework density 21.918814999999999
#
# number of rings (size 3 to 8) (size 9 to 14) (size 15 to 20)
#    0.000    1.250    0.000    6.750    0.000    6.000 
#    0.000    0.000    0.000    6.000    0.000    0.000 
#    0.000    0.000    0.000    0.000    0.000    0.000 
#
# Total GULP energy -178821.540149 kJ/mol
# GULP energy per Si atom -5588.173130 kJ/mol
# Density = 2.186893 g / cm^3
# Si number density = 21.918815 Si / 1000 Ang^3
#
#
#
# Elastic Constant Matrix: (Units=GPa)
#
#
# Indices 1 2 3 4 5 6 
#
# 1 136.0083 36.3807 28.6175 0.0000 0.0000 0.0000
# 2 36.3807 97.2727 14.6022 0.0000 0.0000 0.0000
# 3 28.6175 14.6022 38.6306 0.0000 0.0000 0.0000
# 4 0.0000 0.0000 0.0000 34.1900 0.0000 0.0000
# 5 0.0000 0.0000 0.0000 0.0000 25.5936 0.0000
# 6 0.0000 0.0000 0.0000 0.0000 0.0000 18.3044
#
#
#
# Elastic Compliance Matrix: (Units=1/GPa)
#
#
# Indices 1 2 3 4 5 6 
#
# 1 0.009286 -0.002587 -0.005901 0.000000 0.000000 0.000000
# 2 -0.002587 0.011620 -0.002476 0.000000 0.000000 0.000000
# 3 -0.005901 -0.002476 0.031194 0.000000 0.000000 0.000000
# 4 0.000000 0.000000 0.000000 0.029248 0.000000 0.000000
# 5 0.000000 0.000000 0.000000 0.000000 0.039072 0.000000
# 6 0.000000 0.000000 0.000000 0.000000 0.000000 0.054632
#
#
# Mechanical properties :
#
#
# Convention : Reuss Voigt Hill
#
# Bulk Modulus (GPa) = 33.14403 47.90139 40.52271
# Shear Modulus (GPa) = 24.15030 28.43836 26.29433
#
# Velocity S-wave (km/s) = 3.32295 3.60591 3.46732
# Velocity P-wave (km/s) = 5.46596 6.26404 5.87856
#
# Compressibility (1/GPa) = 0.03017134
#
# Stress axis : x y z
#
# Youngs Moduli (GPa) = 107.68623 86.06107 32.05788
#
# Poissons Ratio (x) = 0.22266 0.18918
# Poissons Ratio (y) = 0.27861 0.07936
# Poissons Ratio (z) = 0.63548 0.21305
#
# Static dielectric constant tensor:
#      x y z
#    x 1.902750 0.000000 0.000000 
#    y 0.000000 1.782030 0.000000 
#    z 0.000000 0.000000 1.839280 
# 
# From -- ./inp_files/32111.got.cif
#   From: 2010.05.17/outbox.cif.g08.bks.cpg/sg53_17_cif.got.tgz:32111.got - 2010.06.03 12:45:16.
