data_PCOD9417474
_publ_section_title
;
Structure prediction by ZEFSAII (Michael W. Deem and Ramdas Pophale) SiO2 
 PCOD9417474
Probable space group: P M N A
;
_chemical_formula_sum "Si O2"
_cell_formula_units_Z 40
_cell_length_a 14.458508
_cell_length_b 7.327525
_cell_length_c 14.261117
_cell_angle_alpha 90.000000
_cell_angle_beta 90.000000
_cell_angle_gamma 90.000000
_cell_volume 1510.895165
_symmetry_space_group_name_H-M "P M N A"
_symmetry_group_IT_number 53
_symmetry_cell_setting 'orthorhombic'
loop_
_space_group_symop_operation_xyz
x,y,z
1/2-x,-y,1/2+z
x,-y,-z
1/2-x,y,1/2-z
-x,-y,-z
1/2+x,y,1/2-z
-x,y,z
1/2+x,-y,1/2+z
loop_
_atom_site_type_symbol
_atom_site_label
_atom_site_fract_x
_atom_site_fract_y
_atom_site_fract_z
Si Si1 0.000000 0.631491 0.364985
Si Si2 0.000000 0.800245 0.635979
Si Si3 0.704560 0.116008 0.652505
Si Si4 0.661668 0.744934 0.995953
Si Si5 0.701164 0.675606 0.655571
Si Si6 0.000000 0.753970 0.843583
Si Si7 0.500000 0.857836 0.331324
O O1 0.912616 0.661397 0.432743
O O2 0.000000 0.769185 0.277634
O O3 0.000000 0.416928 0.343368
O O4 0.091917 0.846778 0.578172
O O5 0.000000 0.866956 0.742120
O O6 0.750000 0.180001 0.750000
O O7 0.768341 0.154651 0.564485
O O8 0.603768 0.202493 0.640891
O O9 0.697308 0.896996 0.661383
O O10 0.729109 0.631207 0.927676
O O11 0.750000 0.608208 0.750000
O O12 0.592547 0.636996 0.645910
O O13 0.000000 0.947353 0.894430
#
# Coordination Sequence:
#
# PCOD9417474 Si02
#       7
#     4   4   8   8   8   4   4
#     4  11  24  42  63  92 123 159 216 262 305 364
#     4  11  24  42  63  92 123 159 216 262 305 364
#     4  10  20  35  58  93 126 158 203 251 307 372
#     4  11  21  37  60  84 121 161 201 251 304 358
#     4  10  20  35  58  93 126 158 203 251 307 372
#     4  10  21  40  63  91 130 162 200 256 309 369
#     4  10  21  40  63  91 130 162 200 256 309 369
#
# _framework density 26.474371000000001
#
# number of rings (size 3 to 8) (size 9 to 14) (size 15 to 20)
#    0.000    1.600    4.000    1.800    0.000    2.400 
#    0.000   14.000    0.000    0.000    0.000    7.000 
#    0.000    0.000    0.000    0.000    0.000    0.000 
#
# Total GULP energy -223465.727372 kJ/mol
# GULP energy per Si atom -5586.643184 kJ/mol
# Density = 2.641411 g / cm^3
# Si number density = 26.474371 Si / 1000 Ang^3
#
#
#
# Elastic Constant Matrix: (Units=GPa)
#
#
# Indices 1 2 3 4 5 6 
#
# 1 300.5273 19.5556 74.1140 0.0000 0.0000 0.0000
# 2 19.5556 75.2551 -5.5775 0.0000 0.0000 0.0000
# 3 74.1140 -5.5775 112.1908 0.0000 0.0000 0.0000
# 4 0.0000 0.0000 0.0000 104.6460 0.0000 0.0000
# 5 0.0000 0.0000 0.0000 0.0000 51.6409 0.0000
# 6 0.0000 0.0000 0.0000 0.0000 0.0000 3.6654
#
#
#
# Elastic Compliance Matrix: (Units=1/GPa)
#
#
# Indices 1 2 3 4 5 6 
#
# 1 0.004092 -0.001268 -0.002766 0.000000 0.000000 0.000000
# 2 -0.001268 0.013730 0.001521 0.000000 0.000000 0.000000
# 3 -0.002766 0.001521 0.010817 0.000000 0.000000 0.000000
# 4 0.000000 0.000000 0.000000 0.009556 0.000000 0.000000
# 5 0.000000 0.000000 0.000000 0.000000 0.019364 0.000000
# 6 0.000000 0.000000 0.000000 0.000000 0.000000 0.272821
#
#
# Mechanical properties :
#
#
# Convention : Reuss Voigt Hill
#
# Bulk Modulus (GPa) = 42.35398 73.79526 58.07462
# Shear Modulus (GPa) = 14.56540 58.64920 36.60730
#
# Velocity S-wave (km/s) = 2.34811 4.71182 3.72256
# Velocity P-wave (km/s) = 4.83574 7.58528 6.36085
#
# Compressibility (1/GPa) = 0.02361053
#
# Stress axis : x y z
#
# Youngs Moduli (GPa) = 244.36362 72.83089 92.45131
#
# Poissons Ratio (x) = 0.09238 0.25576
# Poissons Ratio (y) = 0.30996 -0.14058
# Poissons Ratio (z) = 0.67602 -0.11074
#
# Static dielectric constant tensor:
#      x y z
#    x 2.019790 0.000000 0.000000 
#    y 0.000000 1.671380 0.000000 
#    z 0.000000 0.000000 2.002370 
# 
# From -- ./inp_files/22529.got.cif
#   From: 2010.05.17/outbox.cif.g08.bks.cpg/sg53_12_cif.got.tgz:22529.got - 2010.06.03 12:45:16.
