data_PCOD9417155
_publ_section_title
;
Structure prediction by ZEFSAII (Michael W. Deem and Ramdas Pophale) SiO2 
 PCOD9417155
Probable space group: P M N A
;
_chemical_formula_sum "Si O2"
_cell_formula_units_Z 48
_cell_length_a 14.058697
_cell_length_b 9.705743
_cell_length_c 17.440149
_cell_angle_alpha 90.000000
_cell_angle_beta 90.000000
_cell_angle_gamma 90.000000
_cell_volume 2379.710075
_symmetry_space_group_name_H-M "P M N A"
_symmetry_group_IT_number 53
_symmetry_cell_setting 'orthorhombic'
loop_
_space_group_symop_operation_xyz
x,y,z
1/2-x,-y,1/2+z
x,-y,-z
1/2-x,y,1/2-z
-x,-y,-z
1/2+x,y,1/2-z
-x,y,z
1/2+x,-y,1/2+z
loop_
_atom_site_type_symbol
_atom_site_label
_atom_site_fract_x
_atom_site_fract_y
_atom_site_fract_z
Si Si1 0.702060 0.981424 0.870202
Si Si2 0.113520 0.263212 0.585484
Si Si3 0.108201 0.938205 0.794972
Si Si4 0.614151 0.493273 0.800539
Si Si5 0.609085 0.377055 0.355234
Si Si6 0.792886 0.675940 0.567489
O O1 0.655216 0.110785 0.910746
O O2 0.643419 0.954715 0.791912
O O3 0.811691 0.009799 0.846985
O O4 0.701301 0.839578 0.916616
O O5 0.135681 0.343971 0.664277
O O6 0.160101 0.344609 0.514793
O O7 0.000000 0.260159 0.575422
O O8 0.000000 0.987299 0.804247
O O9 0.110841 0.776351 0.817640
O O10 0.500000 0.509711 0.799622
O O11 0.644158 0.523485 0.713461
O O12 0.653836 0.602297 0.861900
O O13 0.500000 0.408188 0.376186
O O14 0.683979 0.372498 0.423882
#
# Coordination Sequence:
#
# PCOD9417155 Si02
#       6
#     8   8   8   8   8   8
#     4  10  20  34  55  84 116 153 190 232 284 344
#     4  11  24  37  53  85 124 153 181 233 301 352
#     4   9  17  33  57  82 110 146 193 242 278 325
#     4  10  20  36  58  82 111 147 188 237 289 337
#     4   9  18  35  61  86 105 141 199 245 274 323
#     4  11  20  35  58  85 115 150 193 233 280 346
#
# _framework density 20.170525000000001
#
# number of rings (size 3 to 8) (size 9 to 14) (size 15 to 20)
#    0.000    2.000    1.667    2.500    0.000    4.000 
#    6.000    0.833    0.000    6.000    0.000    0.000 
#    0.000    0.000    0.000    0.000    0.000    0.000 
#
# Total GULP energy -268064.565798 kJ/mol
# GULP energy per Si atom -5584.678454 kJ/mol
# Density = 2.012462 g / cm^3
# Si number density = 20.170525 Si / 1000 Ang^3
#
#
#
# Elastic Constant Matrix: (Units=GPa)
#
#
# Indices 1 2 3 4 5 6 
#
# 1 102.2749 29.2332 34.2211 0.0000 0.0000 0.0000
# 2 29.2332 61.7551 16.9690 0.0000 0.0000 0.0000
# 3 34.2211 16.9690 53.7370 0.0000 0.0000 0.0000
# 4 0.0000 0.0000 0.0000 17.1689 0.0000 0.0000
# 5 0.0000 0.0000 0.0000 0.0000 29.0181 0.0000
# 6 0.0000 0.0000 0.0000 0.0000 0.0000 16.9201
#
#
#
# Elastic Compliance Matrix: (Units=1/GPa)
#
#
# Indices 1 2 3 4 5 6 
#
# 1 0.013430 -0.004388 -0.007167 0.000000 0.000000 0.000000
# 2 -0.004388 0.019165 -0.003258 0.000000 0.000000 0.000000
# 3 -0.007167 -0.003258 0.024202 0.000000 0.000000 0.000000
# 4 0.000000 0.000000 0.000000 0.058245 0.000000 0.000000
# 5 0.000000 0.000000 0.000000 0.000000 0.034461 0.000000
# 6 0.000000 0.000000 0.000000 0.000000 0.000000 0.059101
#
#
# Mechanical properties :
#
#
# Convention : Reuss Voigt Hill
#
# Bulk Modulus (GPa) = 36.80245 42.06819 39.43532
# Shear Modulus (GPa) = 20.21948 21.77767 20.99858
#
# Velocity S-wave (km/s) = 3.16955 3.28941 3.23003
# Velocity P-wave (km/s) = 5.62850 5.94378 5.78828
#
# Compressibility (1/GPa) = 0.02717210
#
# Stress axis : x y z
#
# Youngs Moduli (GPa) = 74.46126 52.17764 41.31922
#
# Poissons Ratio (x) = 0.22896 0.29613
# Poissons Ratio (y) = 0.32674 0.13460
# Poissons Ratio (z) = 0.53365 0.16997
#
# Static dielectric constant tensor:
#      x y z
#    x 1.723570 0.000000 0.000000 
#    y 0.000000 1.706260 0.000000 
#    z 0.000000 0.000000 1.715270 
# 
# From -- ./inp_files/28274.got.cif
#   From: 2010.05.17/outbox.cif.g08.bks.cpg/sg53_15_cif.got.tgz:28274.got - 2010.06.03 12:45:16.
