data_PCOD9417569
_publ_section_title
;
Structure prediction by ZEFSAII (Michael W. Deem and Ramdas Pophale) SiO2 
 PCOD9417569
Probable space group: P M N A
;
_chemical_formula_sum "Si O2"
_cell_formula_units_Z 48
_cell_length_a 16.922710
_cell_length_b 16.281713
_cell_length_c 7.981057
_cell_angle_alpha 90.000000
_cell_angle_beta 90.000000
_cell_angle_gamma 90.000000
_cell_volume 2199.026281
_symmetry_space_group_name_H-M "P M N A"
_symmetry_group_IT_number 53
_symmetry_cell_setting 'orthorhombic'
loop_
_space_group_symop_operation_xyz
x,y,z
1/2-x,-y,1/2+z
x,-y,-z
1/2-x,y,1/2-z
-x,-y,-z
1/2+x,y,1/2-z
-x,y,z
1/2+x,-y,1/2+z
loop_
_atom_site_type_symbol
_atom_site_label
_atom_site_fract_x
_atom_site_fract_y
_atom_site_fract_z
Si Si1 0.594273 0.725019 0.978407
Si Si2 0.413668 0.816364 0.502678
Si Si3 0.821279 0.686933 0.851085
Si Si4 0.668715 0.043947 0.316623
Si Si5 0.340385 0.873799 0.177962
Si Si6 0.710076 0.584238 0.071177
O O1 0.500000 0.727868 0.010348
O O2 0.634996 0.813120 0.026833
O O3 0.645215 0.656757 0.079763
O O4 0.610289 0.691378 0.788603
O O5 0.500000 0.783675 0.531274
O O6 0.350240 0.744874 0.503990
O O7 0.393155 0.885146 0.640988
O O8 0.404087 0.853721 0.321067
O O9 0.750000 0.727313 0.750000
O O10 0.779037 0.609569 0.936980
O O11 0.750000 0.081548 0.250000
O O12 0.680376 0.000000 0.500000
O O13 0.651877 0.972840 0.181144
O O14 0.250000 0.859430 0.250000
O O15 0.750000 0.573191 0.250000
O O16 0.674307 0.500000 0.000000
#
# Coordination Sequence:
#
# PCOD9417569 Si02
#       6
#     8   8   8   8   8   8
#     4  11  22  37  60  90 125 160 199 253 312 367
#     4  11  21  34  55  83 116 153 200 259 314 361
#     4  10  21  38  60  85 118 157 200 245 297 370
#     4   9  20  35  54  79 112 156 207 258 309 367
#     4  10  20  36  56  81 115 161 212 254 302 367
#     4  11  23  43  69  94 121 159 206 253 308 376
#
# _framework density 21.827843999999999
#
# number of rings (size 3 to 8) (size 9 to 14) (size 15 to 20)
#    0.000    1.667    0.000    6.500    0.000    6.667 
#    0.000    0.833    0.000    6.000    0.000    0.000 
#    0.000    0.000    0.000    0.000    0.000    0.000 
#
# Total GULP energy -267328.520191 kJ/mol
# GULP energy per Si atom -5569.344171 kJ/mol
# Density = 2.177816 g / cm^3
# Si number density = 21.827844 Si / 1000 Ang^3
#
#
#
# Elastic Constant Matrix: (Units=GPa)
#
#
# Indices 1 2 3 4 5 6 
#
# 1 78.5051 5.0163 20.0584 0.0000 0.0000 0.0000
# 2 5.0163 74.0469 20.7374 0.0000 0.0000 0.0000
# 3 20.0584 20.7374 90.4082 0.0000 0.0000 0.0000
# 4 0.0000 0.0000 0.0000 28.5610 0.0000 0.0000
# 5 0.0000 0.0000 0.0000 0.0000 22.6214 0.0000
# 6 0.0000 0.0000 0.0000 0.0000 0.0000 -22.2034
#
#
#
# Elastic Compliance Matrix: (Units=1/GPa)
#
#
# Indices 1 2 3 4 5 6 
#
# 1 0.013504 -0.000081 -0.002977 0.000000 0.000000 0.000000
# 2 -0.000081 0.014433 -0.003292 0.000000 0.000000 0.000000
# 3 -0.002977 -0.003292 0.012477 0.000000 0.000000 0.000000
# 4 0.000000 0.000000 0.000000 0.035013 0.000000 0.000000
# 5 0.000000 0.000000 0.000000 0.000000 0.044206 0.000000
# 6 0.000000 0.000000 0.000000 0.000000 0.000000 -0.045038
#
#
# Mechanical properties :
#
#
# Convention : Reuss Voigt Hill
#
# Bulk Modulus (GPa) = 36.08627 37.17604 36.63115
# Shear Modulus (GPa) = 51.79585 18.93900 35.36743
#
# Velocity S-wave (km/s) = 4.87655 2.94879 4.02965
# Velocity P-wave (km/s) = 6.94808 5.35372 6.20234
#
# Compressibility (1/GPa) = 0.02771137
#
# Stress axis : x y z
#
# Youngs Moduli (GPa) = 74.05232 69.28790 80.14904
#
# Poissons Ratio (x) = 0.00561 0.23864
# Poissons Ratio (y) = 0.00599 0.26389
# Poissons Ratio (z) = 0.22049 0.22813
#
# Static dielectric constant tensor:
#      x y z
#    x 1.797610 0.000000 0.000000 
#    y 0.000000 1.829130 0.000000 
#    z 0.000000 0.000000 1.929320 
# 
# From -- ./inp_files/10016.got.cif
#   From: 2010.05.17/outbox.cif.g08.bks.cpg/sg53_6_cif.got.tgz:10016.got - 2010.06.03 12:45:16.
