data_PCOD9417802
_publ_section_title
;
Structure prediction by ZEFSAII (Michael W. Deem and Ramdas Pophale) SiO2 
 PCOD9417802
Probable space group: P M N A
;
_chemical_formula_sum "Si O2"
_cell_formula_units_Z 64
_cell_length_a 19.664162
_cell_length_b 11.460233
_cell_length_c 13.594297
_cell_angle_alpha 90.000000
_cell_angle_beta 90.000000
_cell_angle_gamma 90.000000
_cell_volume 3063.554740
_symmetry_space_group_name_H-M "P M N A"
_symmetry_group_IT_number 53
_symmetry_cell_setting 'orthorhombic'
loop_
_space_group_symop_operation_xyz
x,y,z
1/2-x,-y,1/2+z
x,-y,-z
1/2-x,y,1/2-z
-x,-y,-z
1/2+x,y,1/2-z
-x,y,z
1/2+x,-y,1/2+z
loop_
_atom_site_type_symbol
_atom_site_label
_atom_site_fract_x
_atom_site_fract_y
_atom_site_fract_z
Si Si1 0.923066 0.242737 0.100682
Si Si2 0.575547 0.924773 0.789722
Si Si3 0.821128 0.696704 0.204239
Si Si4 0.803927 0.137566 0.973652
Si Si5 0.347303 0.814285 0.956807
Si Si6 0.077116 0.820235 0.341837
Si Si7 0.577742 0.417080 0.094321
Si Si8 0.578473 0.503269 0.315902
O O1 0.917810 0.156699 0.195073
O O2 0.865740 0.202148 0.026926
O O3 0.914403 0.376501 0.134160
O O4 0.000000 0.229877 0.061218
O O5 0.500000 0.899837 0.832707
O O6 0.633983 0.896960 0.866664
O O7 0.576739 0.063181 0.775413
O O8 0.750000 0.654823 0.250000
O O9 0.870968 0.733047 0.292150
O O10 0.864442 0.595190 0.150561
O O11 0.806705 0.810698 0.137050
O O12 0.730675 0.175940 0.014474
O O13 0.810440 0.000000 0.000000
O O14 0.369706 0.686754 0.921040
O O15 0.394470 0.846212 0.049907
O O16 0.000000 0.775059 0.348072
O O17 0.500000 0.370526 0.096274
O O18 0.587380 0.479676 0.198855
O O19 0.583125 0.500000 0.000000
O O20 0.500000 0.543388 0.332537
#
# Coordination Sequence:
#
# PCOD9417802 Si02
#       8
#     8   8   8   8   8   8   8   8
#     4  10  23  46  72  97 126 173 229 285 337 397
#     4  10  20  38  65  98 134 169 220 276 325 391
#     4  12  26  45  65  93 137 178 220 278 332 404
#     4  12  28  47  66  97 137 180 227 279 341 402
#     4  12  22  38  63  98 139 177 216 269 339 402
#     4  11  22  38  65  98 129 175 224 270 330 395
#     4  10  20  36  64 100 139 178 219 271 331 400
#     4  10  22  44  70  97 131 172 226 282 339 399
#
# _framework density 20.890764999999998
#
# number of rings (size 3 to 8) (size 9 to 14) (size 15 to 20)
#    0.000    1.125    2.500    4.125    0.000    5.250 
#    0.000    1.250    0.000    0.000    0.000    0.000 
#    0.000    0.000    0.000    0.000    0.000    0.000 
#
# Total GULP energy -357663.225734 kJ/mol
# GULP energy per Si atom -5588.487902 kJ/mol
# Density = 2.084322 g / cm^3
# Si number density = 20.890765 Si / 1000 Ang^3
#
#
#
# Elastic Constant Matrix: (Units=GPa)
#
#
# Indices 1 2 3 4 5 6 
#
# 1 152.1785 42.2792 34.5363 0.0000 0.0000 0.0000
# 2 42.2792 88.2541 1.3202 0.0000 0.0000 0.0000
# 3 34.5363 1.3202 28.3406 0.0000 0.0000 0.0000
# 4 0.0000 0.0000 0.0000 26.1228 0.0000 0.0000
# 5 0.0000 0.0000 0.0000 0.0000 26.5532 0.0000
# 6 0.0000 0.0000 0.0000 0.0000 0.0000 18.6167
#
#
#
# Elastic Compliance Matrix: (Units=1/GPa)
#
#
# Indices 1 2 3 4 5 6 
#
# 1 0.010949 -0.005049 -0.013107 0.000000 0.000000 0.000000
# 2 -0.005049 0.013667 0.005516 0.000000 0.000000 0.000000
# 3 -0.013107 0.005516 0.051000 0.000000 0.000000 0.000000
# 4 0.000000 0.000000 0.000000 0.038281 0.000000 0.000000
# 5 0.000000 0.000000 0.000000 0.000000 0.037660 0.000000
# 6 0.000000 0.000000 0.000000 0.000000 0.000000 0.053715
#
#
# Mechanical properties :
#
#
# Convention : Reuss Voigt Hill
#
# Bulk Modulus (GPa) = 19.86621 47.22718 33.54669
# Shear Modulus (GPa) = 20.21585 26.96770 23.59178
#
# Velocity S-wave (km/s) = 3.11415 3.59680 3.36414
# Velocity P-wave (km/s) = 4.73928 6.31704 5.58417
#
# Compressibility (1/GPa) = 0.05033673
#
# Stress axis : x y z
#
# Youngs Moduli (GPa) = 91.33644 73.16797 19.60765
#
# Poissons Ratio (x) = 0.36942 0.25700
# Poissons Ratio (y) = 0.46116 -0.10816
# Poissons Ratio (z) = 1.19714 -0.40360
#
# Static dielectric constant tensor:
#      x y z
#    x 1.730790 0.000000 0.000000 
#    y 0.000000 1.810120 0.000000 
#    z 0.000000 0.000000 1.744170 
# 
# From -- ./inp_files/23914.got.cif
#   From: 2010.05.17/outbox.cif.g08.bks.cpg/sg53_12_cif.got.tgz:23914.got - 2010.06.03 12:45:16.
