data_PCOD9417150
_publ_section_title
;
Structure prediction by ZEFSAII (Michael W. Deem and Ramdas Pophale) SiO2 
 PCOD9417150
Probable space group: P M N A
;
_chemical_formula_sum "Si O2"
_cell_formula_units_Z 64
_cell_length_a 9.225824
_cell_length_b 19.739445
_cell_length_c 18.901782
_cell_angle_alpha 90.000000
_cell_angle_beta 90.000000
_cell_angle_gamma 90.000000
_cell_volume 3442.253523
_symmetry_space_group_name_H-M "P M N A"
_symmetry_group_IT_number 53
_symmetry_cell_setting 'orthorhombic'
loop_
_space_group_symop_operation_xyz
x,y,z
1/2-x,-y,1/2+z
x,-y,-z
1/2-x,y,1/2-z
-x,-y,-z
1/2+x,y,1/2-z
-x,y,z
1/2+x,-y,1/2+z
loop_
_atom_site_type_symbol
_atom_site_label
_atom_site_fract_x
_atom_site_fract_y
_atom_site_fract_z
Si Si1 0.170355 0.872196 0.324836
Si Si2 0.831972 0.202238 0.034425
Si Si3 0.669826 0.523149 0.577543
Si Si4 0.166294 0.383251 0.321015
Si Si5 0.171534 0.270077 0.591991
Si Si6 0.168199 0.219751 0.321551
Si Si7 0.331771 0.939288 0.450065
Si Si8 0.829166 0.609451 0.174932
O O1 0.250000 0.874226 0.250000
O O2 0.187935 0.797592 0.359968
O O3 0.239471 0.924900 0.380204
O O4 0.000000 0.884467 0.316026
O O5 0.753153 0.196151 0.109251
O O6 0.000000 0.223008 0.042802
O O7 0.745985 0.253365 0.983025
O O8 0.828941 0.129830 0.995323
O O9 0.719275 0.500000 0.500000
O O10 0.500000 0.541972 0.572294
O O11 0.758682 0.584255 0.611119
O O12 0.682815 0.459778 0.630645
O O13 0.250000 0.404880 0.250000
O O14 0.171035 0.301901 0.323899
O O15 0.000000 0.405259 0.316248
O O16 0.252599 0.331163 0.630575
O O17 0.000000 0.283274 0.583624
O O18 0.250000 0.198575 0.250000
O O19 0.000000 0.198650 0.321525
O O20 0.500000 0.953184 0.431078
O O21 0.279140 0.000000 0.500000
O O22 0.750000 0.603186 0.250000
O O23 0.000000 0.624575 0.184829
#
# Coordination Sequence:
#
# PCOD9417150 Si02
#       8
#     8   8   8   8   8   8   8   8
#     4  10  20  34  55  83 114 148 186 229 273 322
#     4  10  20  35  58  85 114 148 182 224 276 327
#     4  10  23  40  56  78 108 143 182 227 275 328
#     4  10  21  37  58  81 104 139 180 226 277 329
#     4  10  21  36  56  83 114 146 182 227 275 329
#     4  10  21  37  57  84 113 144 185 232 280 330
#     4   9  19  37  59  83 113 149 188 227 270 324
#     4  11  23  38  56  80 109 145 183 225 278 331
#
# _framework density 18.592472000000001
#
# number of rings (size 3 to 8) (size 9 to 14) (size 15 to 20)
#    0.000    2.000    0.000    3.000    1.750    7.000 
#    0.000    0.625    0.000    0.000    0.000    0.000 
#    0.000    0.000    0.000    0.000    0.000    0.000 
#
# Total GULP energy -357552.688820 kJ/mol
# GULP energy per Si atom -5586.760763 kJ/mol
# Density = 1.855015 g / cm^3
# Si number density = 18.592472 Si / 1000 Ang^3
#
#
#
# Elastic Constant Matrix: (Units=GPa)
#
#
# Indices 1 2 3 4 5 6 
#
# 1 129.0378 17.8438 66.9579 0.0000 0.0000 0.0000
# 2 17.8438 9.9860 -4.8002 0.0000 0.0000 0.0000
# 3 66.9579 -4.8002 124.4955 0.0000 0.0000 0.0000
# 4 0.0000 0.0000 0.0000 26.2688 0.0000 0.0000
# 5 0.0000 0.0000 0.0000 0.0000 37.6579 0.0000
# 6 0.0000 0.0000 0.0000 0.0000 0.0000 17.8191
#
#
#
# Elastic Compliance Matrix: (Units=1/GPa)
#
#
# Indices 1 2 3 4 5 6 
#
# 1 0.019819 -0.041303 -0.012252 0.000000 0.000000 0.000000
# 2 -0.041303 0.188108 0.029467 0.000000 0.000000 0.000000
# 3 -0.012252 0.029467 0.015758 0.000000 0.000000 0.000000
# 4 0.000000 0.000000 0.000000 0.038068 0.000000 0.000000
# 5 0.000000 0.000000 0.000000 0.000000 0.026555 0.000000
# 6 0.000000 0.000000 0.000000 0.000000 0.000000 0.056120
#
#
# Mechanical properties :
#
#
# Convention : Reuss Voigt Hill
#
# Bulk Modulus (GPa) = 5.69768 47.05804 26.37786
# Shear Modulus (GPa) = 11.08389 28.58367 19.83378
#
# Velocity S-wave (km/s) = 2.44427 3.92520 3.26968
# Velocity P-wave (km/s) = 3.32221 6.77555 5.33597
#
# Compressibility (1/GPa) = 0.17550995
#
# Stress axis : x y z
#
# Youngs Moduli (GPa) = 50.45777 5.31609 63.46008
#
# Poissons Ratio (x) = 0.21957 0.77749
# Poissons Ratio (y) = 2.08405 -1.86998
# Poissons Ratio (z) = 0.61819 -0.15665
#
# Static dielectric constant tensor:
#      x y z
#    x 1.628320 0.000000 0.000000 
#    y 0.000000 1.628040 0.000000 
#    z 0.000000 0.000000 1.626610 
# 
# From -- ./inp_files/26805.got.cif
#   From: 2010.05.17/outbox.cif.g08.bks.cpg/sg53_14_cif.got.tgz:26805.got - 2010.06.03 12:45:16.
