data_PCOD9417411
_publ_section_title
;
Structure prediction by ZEFSAII (Michael W. Deem and Ramdas Pophale) SiO2 
 PCOD9417411
Probable space group: P M N A
;
_chemical_formula_sum "Si O2"
_cell_formula_units_Z 48
_cell_length_a 8.676253
_cell_length_b 31.695725
_cell_length_c 9.279435
_cell_angle_alpha 90.000000
_cell_angle_beta 90.000000
_cell_angle_gamma 90.000000
_cell_volume 2551.845823
_symmetry_space_group_name_H-M "P M N A"
_symmetry_group_IT_number 53
_symmetry_cell_setting 'orthorhombic'
loop_
_space_group_symop_operation_xyz
x,y,z
1/2-x,-y,1/2+z
x,-y,-z
1/2-x,y,1/2-z
-x,-y,-z
1/2+x,y,1/2-z
-x,y,z
1/2+x,-y,1/2+z
loop_
_atom_site_type_symbol
_atom_site_label
_atom_site_fract_x
_atom_site_fract_y
_atom_site_fract_z
Si Si1 0.813981 0.040988 0.589889
Si Si2 0.185183 0.876843 0.589206
Si Si3 0.314702 0.375083 0.088613
Si Si4 0.813999 0.458641 0.588597
Si Si5 0.315193 0.786821 0.589244
Si Si6 0.685024 0.703705 0.410993
O O1 0.750000 0.039312 0.750000
O O2 0.767025 0.084083 0.510108
O O3 0.000000 0.040435 0.594833
O O4 0.763013 0.000000 0.500000
O O5 0.250000 0.883341 0.750000
O O6 0.248518 0.831653 0.538214
O O7 0.000000 0.875153 0.595508
O O8 0.250000 0.377144 0.250000
O O9 0.500000 0.373388 0.094006
O O10 0.268427 0.416636 0.998332
O O11 0.251654 0.334099 0.006944
O O12 0.763510 0.500000 0.500000
O O13 0.750000 0.458572 0.750000
O O14 0.000000 0.459337 0.596293
O O15 0.250000 0.779271 0.750000
O O16 0.500000 0.789690 0.598125
O O17 0.273355 0.748156 0.485815
O O18 0.750000 0.701228 0.250000
O O19 0.500000 0.700511 0.407437
#
# Coordination Sequence:
#
# PCOD9417411 Si02
#       6
#     8   8   8   8   8   8
#     4  10  22  38  56  81 111 144 183 225 272 326
#     4  10  20  35  57  83 111 144 183 227 274 327
#     4  11  23  39  61  87 116 151 192 237 285 339
#     4  10  22  39  59  86 118 152 191 234 282 336
#     4  10  21  37  58  83 111 146 186 228 277 332
#     4  11  24  40  59  84 115 151 190 235 286 338
#
# _framework density 18.809913999999999
#
# number of rings (size 3 to 8) (size 9 to 14) (size 15 to 20)
#    0.000    1.667    0.000    5.000    0.000    9.333 
#    0.000    3.333    0.000    0.000    0.000    0.000 
#    0.000    0.000    0.000    0.000    0.000    0.000 
#
# Total GULP energy -268330.608916 kJ/mol
# GULP energy per Si atom -5590.221019 kJ/mol
# Density = 1.876710 g / cm^3
# Si number density = 18.809914 Si / 1000 Ang^3
#
#
#
# Elastic Constant Matrix: (Units=GPa)
#
#
# Indices 1 2 3 4 5 6 
#
# 1 42.8384 57.5740 46.1233 0.0000 0.0000 0.0000
# 2 57.5740 211.8093 136.6310 0.0000 0.0000 0.0000
# 3 46.1233 136.6310 178.6413 0.0000 0.0000 0.0000
# 4 0.0000 0.0000 0.0000 41.1017 0.0000 0.0000
# 5 0.0000 0.0000 0.0000 0.0000 35.9430 0.0000
# 6 0.0000 0.0000 0.0000 0.0000 0.0000 -61.1652
#
#
#
# Elastic Compliance Matrix: (Units=1/GPa)
#
#
# Indices 1 2 3 4 5 6 
#
# 1 0.038028 -0.007902 -0.003775 0.000000 0.000000 0.000000
# 2 -0.007902 0.010961 -0.006343 0.000000 0.000000 0.000000
# 3 -0.003775 -0.006343 0.011424 0.000000 0.000000 0.000000
# 4 0.000000 0.000000 0.000000 0.024330 0.000000 0.000000
# 5 0.000000 0.000000 0.000000 0.000000 0.027822 0.000000
# 6 0.000000 0.000000 0.000000 0.000000 0.000000 -0.016349
#
#
# Mechanical properties :
#
#
# Convention : Reuss Voigt Hill
#
# Bulk Modulus (GPa) = 41.02898 101.54950 71.28924
# Shear Modulus (GPa) = 35.61813 16.03993 25.82903
#
# Velocity S-wave (km/s) = 4.35625 2.92334 3.70964
# Velocity P-wave (km/s) = 6.86749 8.09314 7.50538
#
# Compressibility (1/GPa) = 0.02437302
#
# Stress axis : x y z
#
# Youngs Moduli (GPa) = 26.29676 91.23500 87.53646
#
# Poissons Ratio (x) = 0.72090 0.33044
# Poissons Ratio (y) = 0.20779 0.55525
# Poissons Ratio (z) = 0.09927 0.57871
#
# Static dielectric constant tensor:
#      x y z
#    x 1.637330 0.000000 0.000000 
#    y 0.000000 1.647060 0.000000 
#    z 0.000000 0.000000 1.601050 
# 
# From -- ./inp_files/6728.got.cif
#   From: 2010.05.17/outbox.cif.g08.bks.cpg/sg53_4_cif.got.tgz:6728.got - 2010.06.03 12:45:16.
