data_PCOD9417263
_publ_section_title
;
Structure prediction by ZEFSAII (Michael W. Deem and Ramdas Pophale) SiO2 
 PCOD9417263
Probable space group: P M N A
;
_chemical_formula_sum "Si O2"
_cell_formula_units_Z 64
_cell_length_a 8.549089
_cell_length_b 17.500440
_cell_length_c 23.925117
_cell_angle_alpha 90.000000
_cell_angle_beta 90.000000
_cell_angle_gamma 90.000000
_cell_volume 3579.504202
_symmetry_space_group_name_H-M "P M N A"
_symmetry_group_IT_number 53
_symmetry_cell_setting 'orthorhombic'
loop_
_space_group_symop_operation_xyz
x,y,z
1/2-x,-y,1/2+z
x,-y,-z
1/2-x,y,1/2-z
-x,-y,-z
1/2+x,y,1/2-z
-x,y,z
1/2+x,-y,1/2+z
loop_
_atom_site_type_symbol
_atom_site_label
_atom_site_fract_x
_atom_site_fract_y
_atom_site_fract_z
Si Si1 0.309986 0.586889 0.508210
Si Si2 0.810947 0.805400 0.811858
Si Si3 0.680825 0.165731 0.490602
Si Si4 0.190229 0.058904 0.103487
Si Si5 0.184880 0.716246 0.426270
Si Si6 0.187073 0.758091 0.190793
Si Si7 0.181468 0.304836 0.099870
Si Si8 0.311180 0.064067 0.689804
O O1 0.258843 0.500000 0.500000
O O2 0.500000 0.588107 0.509396
O O3 0.257861 0.645483 0.460295
O O4 0.249888 0.624205 0.566229
O O5 0.750000 0.812941 0.750000
O O6 0.767538 0.877110 0.850497
O O7 0.749810 0.729588 0.843576
O O8 0.000000 0.803137 0.811466
O O9 0.500000 0.151516 0.506908
O O10 0.766226 0.204584 0.542614
O O11 0.680902 0.233463 0.443792
O O12 0.743143 0.091381 0.456984
O O13 0.000000 0.057114 0.098899
O O14 0.240949 0.981219 0.134072
O O15 0.246430 0.716998 0.363374
O O16 0.000000 0.709899 0.427910
O O17 0.250000 0.728754 0.250000
O O18 0.235893 0.847420 0.186491
O O19 0.000000 0.755245 0.190316
O O20 0.000000 0.323300 0.111340
O O21 0.250000 0.033691 0.750000
O O22 0.500000 0.059341 0.691647
#
# Coordination Sequence:
#
# PCOD9417263 Si02
#       8
#     8   8   8   8   8   8   8   8
#     4   9  17  32  56  80  97 119 153 190 232 285
#     4   9  15  23  37  58  87 121 154 186 220 264
#     4   8  14  28  48  66  89 124 163 199 236 284
#     4   8  14  26  44  65  90 122 161 205 249 288
#     4  11  21  33  51  75 103 130 158 197 245 295
#     4  10  20  35  54  74  97 127 166 208 249 295
#     4   7  12  24  41  62  88 116 146 182 222 263
#     4   9  17  29  46  68  93 124 164 211 259 301
#
# _framework density 17.879570999999999
#
# number of rings (size 3 to 8) (size 9 to 14) (size 15 to 20)
#    0.000    3.125    0.000    4.125    0.000    0.750 
#    0.000    6.875    0.000    4.500    0.000    1.750 
#    0.000    0.000    0.000    0.000    0.000    0.000 
#
# Total GULP energy -356299.649483 kJ/mol
# GULP energy per Si atom -5567.182023 kJ/mol
# Density = 1.783888 g / cm^3
# Si number density = 17.879571 Si / 1000 Ang^3
#
#
#
# Elastic Constant Matrix: (Units=GPa)
#
#
# Indices 1 2 3 4 5 6 
#
# 1 12.8059 5.2374 9.4922 0.0000 0.0000 0.0000
# 2 5.2374 41.8567 12.0218 0.0000 0.0000 0.0000
# 3 9.4922 12.0218 71.7394 0.0000 0.0000 0.0000
# 4 0.0000 0.0000 0.0000 19.5465 0.0000 0.0000
# 5 0.0000 0.0000 0.0000 0.0000 25.1189 0.0000
# 6 0.0000 0.0000 0.0000 0.0000 0.0000 10.8052
#
#
#
# Elastic Compliance Matrix: (Units=1/GPa)
#
#
# Indices 1 2 3 4 5 6 
#
# 1 0.089157 -0.008161 -0.010429 0.000000 0.000000 0.000000
# 2 -0.008161 0.025846 -0.003251 0.000000 0.000000 0.000000
# 3 -0.010429 -0.003251 0.015864 0.000000 0.000000 0.000000
# 4 0.000000 0.000000 0.000000 0.051160 0.000000 0.000000
# 5 0.000000 0.000000 0.000000 0.000000 0.039811 0.000000
# 6 0.000000 0.000000 0.000000 0.000000 0.000000 0.092548
#
#
# Mechanical properties :
#
#
# Convention : Reuss Voigt Hill
#
# Bulk Modulus (GPa) = 11.46993 19.98942 15.72968
# Shear Modulus (GPa) = 12.91557 17.73749 15.32653
#
# Velocity S-wave (km/s) = 2.69060 3.15310 2.93099
# Velocity P-wave (km/s) = 4.01017 4.94575 4.50233
#
# Compressibility (1/GPa) = 0.08718449
#
# Stress axis : x y z
#
# Youngs Moduli (GPa) = 11.21620 38.69068 63.03531
#
# Poissons Ratio (x) = 0.31574 0.65741
# Poissons Ratio (y) = 0.09153 0.20495
# Poissons Ratio (z) = 0.11698 0.12580
#
# Static dielectric constant tensor:
#      x y z
#    x 1.606870 0.000000 0.000000 
#    y 0.000000 1.636190 0.000000 
#    z 0.000000 0.000000 1.633890 
# 
# From -- ./inp_files/34529.got.cif
#   From: 2010.05.17/outbox.cif.g08.bks.cpg/sg53_18_cif.got.tgz:34529.got - 2010.06.03 12:45:16.
