data_PCOD9417318
_publ_section_title
;
Structure prediction by ZEFSAII (Michael W. Deem and Ramdas Pophale) SiO2 
 PCOD9417318
Probable space group: P M N A
;
_chemical_formula_sum "Si O2"
_cell_formula_units_Z 40
_cell_length_a 21.910315
_cell_length_b 5.553790
_cell_length_c 14.522957
_cell_angle_alpha 90.000000
_cell_angle_beta 90.000000
_cell_angle_gamma 90.000000
_cell_volume 1767.230210
_symmetry_space_group_name_H-M "P M N A"
_symmetry_group_IT_number 53
_symmetry_cell_setting 'orthorhombic'
loop_
_space_group_symop_operation_xyz
x,y,z
1/2-x,-y,1/2+z
x,-y,-z
1/2-x,y,1/2-z
-x,-y,-z
1/2+x,y,1/2-z
-x,y,z
1/2+x,-y,1/2+z
loop_
_atom_site_type_symbol
_atom_site_label
_atom_site_fract_x
_atom_site_fract_y
_atom_site_fract_z
Si Si1 0.069647 0.563032 0.892874
Si Si2 0.265678 0.750559 0.955739
Si Si3 0.178665 0.215819 0.205884
Si Si4 0.369191 0.712525 0.238102
Si Si5 0.094863 0.250265 0.529180
O O1 0.120900 0.756104 0.864824
O O2 0.085742 0.340237 0.823989
O O3 0.000000 0.640717 0.875212
O O4 0.075441 0.500000 0.000000
O O5 0.338316 0.750027 0.977079
O O6 0.242369 0.500000 0.000000
O O7 0.239913 0.764367 0.853178
O O8 0.242706 0.000000 0.000000
O O9 0.167882 0.460994 0.263781
O O10 0.170323 0.951716 0.247395
O O11 0.398741 0.744557 0.138745
O O12 0.065763 0.500000 0.500000
O O13 0.066096 0.000000 0.500000
#
# Coordination Sequence:
#
# PCOD9417318 Si02
#       5
#     8   8   8   8   8
#     4   9  21  39  64  93 121 156 196 247 310 363
#     4  10  20  35  55  78 115 159 197 240 288 344
#     4  10  21  35  60  83 122 155 192 247 294 354
#     4  10  22  38  61  88 120 159 199 245 302 358
#     4  10  21  40  61  84 117 163 204 247 293 351
#
# _framework density 22.634291999999999
#
# number of rings (size 3 to 8) (size 9 to 14) (size 15 to 20)
#    1.200    1.000    0.000    3.000    2.800    0.800 
#    0.000   26.000    0.000    1.200    0.000    0.000 
#    0.000    0.000    0.000    0.000    0.000    0.000 
#
# Total GULP energy -223073.701635 kJ/mol
# GULP energy per Si atom -5576.842541 kJ/mol
# Density = 2.258278 g / cm^3
# Si number density = 22.634292 Si / 1000 Ang^3
#
#
#
# Elastic Constant Matrix: (Units=GPa)
#
#
# Indices 1 2 3 4 5 6 
#
# 1 90.8282 36.5670 38.4560 0.0000 0.0000 0.0000
# 2 36.5670 190.7800 64.9873 0.0000 0.0000 0.0000
# 3 38.4560 64.9873 135.7442 0.0000 0.0000 0.0000
# 4 0.0000 0.0000 0.0000 41.2895 0.0000 0.0000
# 5 0.0000 0.0000 0.0000 0.0000 -0.6235 0.0000
# 6 0.0000 0.0000 0.0000 0.0000 0.0000 0.6088
#
#
#
# Elastic Compliance Matrix: (Units=1/GPa)
#
#
# Indices 1 2 3 4 5 6 
#
# 1 0.012842 -0.001460 -0.002939 0.000000 0.000000 0.000000
# 2 -0.001460 0.006429 -0.002664 0.000000 0.000000 0.000000
# 3 -0.002939 -0.002664 0.009475 0.000000 0.000000 0.000000
# 4 0.000000 0.000000 0.000000 0.024219 0.000000 0.000000
# 5 0.000000 0.000000 0.000000 0.000000 -1.603969 0.000000
# 6 0.000000 0.000000 0.000000 0.000000 0.000000 1.642704
#
#
# Mechanical properties :
#
#
# Convention : Reuss Voigt Hill
#
# Bulk Modulus (GPa) = 68.40416 77.48587 72.94501
# Shear Modulus (GPa) = 45.16705 26.74444 35.95575
#
# Velocity S-wave (km/s) = 4.47196 3.44115 3.98999
# Velocity P-wave (km/s) = 7.54663 7.07792 7.31603
#
# Compressibility (1/GPa) = 0.01461899
#
# Stress axis : x y z
#
# Youngs Moduli (GPa) = 77.86909 155.54340 105.54207
#
# Poissons Ratio (x) = 0.22714 0.31019
# Poissons Ratio (y) = 0.11371 0.28119
# Poissons Ratio (z) = 0.22886 0.41440
#
# Static dielectric constant tensor:
#      x y z
#    x 1.842270 0.000000 0.000000 
#    y 0.000000 1.801170 0.000000 
#    z 0.000000 0.000000 1.836190 
# 
# From -- ./inp_files/18588.got.cif
#   From: 2010.05.17/outbox.cif.g08.bks.cpg/sg53_10_cif.got.tgz:18588.got - 2010.06.03 12:45:16.
