data_PCOD9417715
_publ_section_title
;
Structure prediction by ZEFSAII (Michael W. Deem and Ramdas Pophale) SiO2 
 PCOD9417715
Probable space group: P M N A
;
_chemical_formula_sum "Si O2"
_cell_formula_units_Z 40
_cell_length_a 9.150500
_cell_length_b 7.329836
_cell_length_c 30.589359
_cell_angle_alpha 90.000000
_cell_angle_beta 90.000000
_cell_angle_gamma 90.000000
_cell_volume 2051.679219
_symmetry_space_group_name_H-M "P M N A"
_symmetry_group_IT_number 53
_symmetry_cell_setting 'orthorhombic'
loop_
_space_group_symop_operation_xyz
x,y,z
1/2-x,-y,1/2+z
x,-y,-z
1/2-x,y,1/2-z
-x,-y,-z
1/2+x,y,1/2-z
-x,y,z
1/2+x,-y,1/2+z
loop_
_atom_site_type_symbol
_atom_site_label
_atom_site_fract_x
_atom_site_fract_y
_atom_site_fract_z
Si Si1 0.176155 0.825188 0.889297
Si Si2 0.172189 0.786317 0.382016
Si Si3 0.166938 0.205878 0.206862
Si Si4 0.672115 0.460659 0.050008
Si Si5 0.168602 0.238696 0.793817
O O1 0.223509 0.746769 0.841515
O O2 0.232946 0.695592 0.927359
O O3 0.000000 0.839527 0.888610
O O4 0.247090 0.024779 0.893190
O O5 0.188244 0.641984 0.420846
O O6 0.245516 0.711272 0.337666
O O7 0.000000 0.820114 0.374383
O O8 0.250000 0.268060 0.250000
O O9 0.000000 0.265216 0.210194
O O10 0.169014 0.983740 0.207125
O O11 0.500000 0.408174 0.050961
O O12 0.712642 0.500000 0.000000
O O13 0.250000 0.299900 0.750000
O O14 0.000000 0.296285 0.795247
#
# Coordination Sequence:
#
# PCOD9417715 Si02
#       5
#     8   8   8   8   8
#     4  10  21  37  58  85 116 149 186 231 283 338
#     4  10  20  36  59  84 113 150 189 231 281 335
#     4   8  15  27  46  75 108 142 178 216 261 315
#     4  10  23  42  61  82 109 144 189 239 289 342
#     4   9  16  28  49  79 114 149 187 227 270 326
#
# _framework density 19.496226
#
# number of rings (size 3 to 8) (size 9 to 14) (size 15 to 20)
#    0.000    2.600    0.000    3.000    0.000    8.400 
#    0.000    5.000    0.000    2.400    0.000    0.000 
#    0.000    0.000    0.000    0.000    0.000    0.000 
#
# Total GULP energy -223349.433889 kJ/mol
# GULP energy per Si atom -5583.735847 kJ/mol
# Density = 1.945185 g / cm^3
# Si number density = 19.496226 Si / 1000 Ang^3
#
#
#
# Elastic Constant Matrix: (Units=GPa)
#
#
# Indices 1 2 3 4 5 6 
#
# 1 108.3496 41.6240 81.8345 0.0000 0.0000 0.0000
# 2 41.6240 74.4241 38.7958 0.0000 0.0000 0.0000
# 3 81.8345 38.7958 172.8439 0.0000 0.0000 0.0000
# 4 0.0000 0.0000 0.0000 29.6916 0.0000 0.0000
# 5 0.0000 0.0000 0.0000 0.0000 35.6268 0.0000
# 6 0.0000 0.0000 0.0000 0.0000 0.0000 -1.4781
#
#
#
# Elastic Compliance Matrix: (Units=1/GPa)
#
#
# Indices 1 2 3 4 5 6 
#
# 1 0.016293 -0.005766 -0.006420 0.000000 0.000000 0.000000
# 2 -0.005766 0.017257 -0.001144 0.000000 0.000000 0.000000
# 3 -0.006420 -0.001144 0.009082 0.000000 0.000000 0.000000
# 4 0.000000 0.000000 0.000000 0.033680 0.000000 0.000000
# 5 0.000000 0.000000 0.000000 0.000000 0.028069 0.000000
# 6 0.000000 0.000000 0.000000 0.000000 0.000000 -0.676560
#
#
# Mechanical properties :
#
#
# Convention : Reuss Voigt Hill
#
# Bulk Modulus (GPa) = 62.60357 75.56957 69.08657
# Shear Modulus (GPa) = -9.25591 25.65894 8.20152
#
# Velocity S-wave (km/s) = -2.18125 3.63174 2.05325
# Velocity P-wave (km/s) = 5.08296 7.51208 6.41357
#
# Compressibility (1/GPa) = 0.01597353
#
# Stress axis : x y z
#
# Youngs Moduli (GPa) = 61.37450 57.94604 110.10929
#
# Poissons Ratio (x) = 0.33411 0.70691
# Poissons Ratio (y) = 0.35388 0.12592
# Poissons Ratio (z) = 0.39403 0.06627
#
# Static dielectric constant tensor:
#      x y z
#    x 1.613480 0.000000 0.000000 
#    y 0.000000 1.705420 0.000000 
#    z 0.000000 0.000000 1.666720 
# 
# From -- ./inp_files/33608.got.cif
#   From: 2010.05.17/outbox.cif.g08.bks.cpg/sg53_17_cif.got.tgz:33608.got - 2010.06.03 12:45:16.
