data_PCOD9417691
_publ_section_title
;
Structure prediction by ZEFSAII (Michael W. Deem and Ramdas Pophale) SiO2 
 PCOD9417691
Probable space group: P M N A
;
_chemical_formula_sum "Si O2"
_cell_formula_units_Z 56
_cell_length_a 13.963670
_cell_length_b 13.449812
_cell_length_c 13.376209
_cell_angle_alpha 90.000000
_cell_angle_beta 90.000000
_cell_angle_gamma 90.000000
_cell_volume 2512.168909
_symmetry_space_group_name_H-M "P M N A"
_symmetry_group_IT_number 53
_symmetry_cell_setting 'orthorhombic'
loop_
_space_group_symop_operation_xyz
x,y,z
1/2-x,-y,1/2+z
x,-y,-z
1/2-x,y,1/2-z
-x,-y,-z
1/2+x,y,1/2-z
-x,y,z
1/2+x,-y,1/2+z
loop_
_atom_site_type_symbol
_atom_site_label
_atom_site_fract_x
_atom_site_fract_y
_atom_site_fract_z
Si Si1 0.884933 0.733787 0.415021
Si Si2 0.113810 0.683791 0.636071
Si Si3 0.115629 0.235339 0.157422
Si Si4 0.106613 0.545206 0.890084
Si Si5 0.807337 0.951423 0.390770
Si Si6 0.885238 0.016503 0.181418
Si Si7 0.802684 0.525421 0.379371
O O1 0.850856 0.721944 0.530089
O O2 0.848640 0.840384 0.380719
O O3 0.846571 0.633493 0.363582
O O4 0.000000 0.731878 0.410588
O O5 0.146820 0.748473 0.728422
O O6 0.139985 0.570242 0.658610
O O7 0.000000 0.690450 0.631124
O O8 0.140659 0.339269 0.104107
O O9 0.141805 0.123329 0.131864
O O10 0.000000 0.234122 0.154174
O O11 0.193102 0.482522 0.844368
O O12 0.000000 0.541938 0.844076
O O13 0.096882 0.500000 0.000000
O O14 0.826173 0.000000 0.500000
O O15 0.857817 0.012641 0.299733
O O16 0.693013 0.945569 0.369822
O O17 0.000000 0.998297 0.169727
O O18 0.803422 0.500000 0.500000
#
# Coordination Sequence:
#
# PCOD9417691 Si02
#       7
#     8   8   8   8   8   8   8
#     4  10  20  36  58  84 117 155 197 252 316 378
#     4   9  17  31  55  87 115 142 186 244 309 378
#     4   9  18  34  57  84 115 152 193 246 308 366
#     4   9  18  32  50  76 112 151 190 232 285 359
#     4  11  24  40  64  95 124 161 218 277 331 387
#     4  10  23  43  64  90 128 170 216 271 328 388
#     4   9  18  31  51  78 110 146 185 230 292 368
#
# _framework density 22.291495000000001
#
# number of rings (size 3 to 8) (size 9 to 14) (size 15 to 20)
#    0.000    2.429    0.000    1.714    0.000   10.571 
#    0.000    3.571    0.000    2.571    0.000    0.000 
#    0.000    0.000    0.000    0.000    0.000    0.000 
#
# Total GULP energy -312435.228822 kJ/mol
# GULP energy per Si atom -5579.200515 kJ/mol
# Density = 2.224076 g / cm^3
# Si number density = 22.291495 Si / 1000 Ang^3
#
#
#
# Elastic Constant Matrix: (Units=GPa)
#
#
# Indices 1 2 3 4 5 6 
#
# 1 144.0050 55.6419 4.0561 0.0000 0.0000 0.0000
# 2 55.6419 148.9052 15.9208 0.0000 0.0000 0.0000
# 3 4.0561 15.9208 43.9517 0.0000 0.0000 0.0000
# 4 0.0000 0.0000 0.0000 29.5015 0.0000 0.0000
# 5 0.0000 0.0000 0.0000 0.0000 -35.2805 0.0000
# 6 0.0000 0.0000 0.0000 0.0000 0.0000 32.8297
#
#
#
# Elastic Compliance Matrix: (Units=1/GPa)
#
#
# Indices 1 2 3 4 5 6 
#
# 1 0.008122 -0.003074 0.000364 0.000000 0.000000 0.000000
# 2 -0.003074 0.008150 -0.002668 0.000000 0.000000 0.000000
# 3 0.000364 -0.002668 0.023685 0.000000 0.000000 0.000000
# 4 0.000000 0.000000 0.000000 0.033897 0.000000 0.000000
# 5 0.000000 0.000000 0.000000 0.000000 -0.028344 0.000000
# 6 0.000000 0.000000 0.000000 0.000000 0.000000 0.030460
#
#
# Mechanical properties :
#
#
# Convention : Reuss Voigt Hill
#
# Bulk Modulus (GPa) = 34.24658 54.23328 44.23993
# Shear Modulus (GPa) = 51.83565 22.82635 37.33100
#
# Velocity S-wave (km/s) = 4.82743 3.20346 4.09672
# Velocity P-wave (km/s) = 6.81678 6.16967 6.50128
#
# Compressibility (1/GPa) = 0.02919999
#
# Stress axis : x y z
#
# Youngs Moduli (GPa) = 123.12830 122.70609 42.22035
#
# Poissons Ratio (x) = 0.37717 -0.01536
# Poissons Ratio (y) = 0.37846 0.11266
# Poissons Ratio (z) = -0.04481 0.32743
#
# Static dielectric constant tensor:
#      x y z
#    x 1.849240 0.000000 0.000000 
#    y 0.000000 1.791010 0.000000 
#    z 0.000000 0.000000 1.953230 
# 
# From -- ./inp_files/22762.got.cif
#   From: 2010.05.17/outbox.cif.g08.bks.cpg/sg53_12_cif.got.tgz:22762.got - 2010.06.03 12:45:16.
