data_PCOD9417537
_publ_section_title
;
Structure prediction by ZEFSAII (Michael W. Deem and Ramdas Pophale) SiO2 
 PCOD9417537
Probable space group: P M N A
;
_chemical_formula_sum "Si O2"
_cell_formula_units_Z 56
_cell_length_a 19.232345
_cell_length_b 9.328902
_cell_length_c 17.091230
_cell_angle_alpha 90.000000
_cell_angle_beta 90.000000
_cell_angle_gamma 90.000000
_cell_volume 3066.451432
_symmetry_space_group_name_H-M "P M N A"
_symmetry_group_IT_number 53
_symmetry_cell_setting 'orthorhombic'
loop_
_space_group_symop_operation_xyz
x,y,z
1/2-x,-y,1/2+z
x,-y,-z
1/2-x,y,1/2-z
-x,-y,-z
1/2+x,y,1/2-z
-x,y,z
1/2+x,-y,1/2+z
loop_
_atom_site_type_symbol
_atom_site_label
_atom_site_fract_x
_atom_site_fract_y
_atom_site_fract_z
Si Si1 0.579222 0.107271 0.267516
Si Si2 0.579249 0.781919 0.217121
Si Si3 0.314141 0.422931 0.694199
Si Si4 0.288335 0.104596 0.174803
Si Si5 0.352325 0.886925 0.060483
Si Si6 0.240246 0.661143 0.028814
Si Si7 0.338209 0.282874 0.382316
O O1 0.500000 0.149026 0.250847
O O2 0.636386 0.157982 0.203810
O O3 0.605771 0.171780 0.349269
O O4 0.583539 0.935131 0.261643
O O5 0.500000 0.730297 0.221591
O O6 0.632925 0.673230 0.256309
O O7 0.599151 0.818131 0.127022
O O8 0.250000 0.464367 0.750000
O O9 0.281931 0.341560 0.619203
O O10 0.350234 0.563207 0.657078
O O11 0.250000 0.035878 0.250000
O O12 0.236873 0.228806 0.148766
O O13 0.298806 0.987321 0.108689
O O14 0.306452 0.764654 0.019587
O O15 0.386404 0.000000 0.000000
O O16 0.257503 0.500000 0.000000
O O17 0.175180 0.707336 0.974547
#
# Coordination Sequence:
#
# PCOD9417537 Si02
#       7
#     8   8   8   8   8   8   8
#     4   9  19  35  55  78 113 149 187 235 281 338
#     4  10  23  39  56  86 117 149 198 242 281 347
#     4  11  21  35  60  82 111 153 192 236 288 341
#     4   9  18  31  55  83 113 135 191 240 279 330
#     4  11  20  34  60  83 112 158 188 237 299 342
#     4  10  22  35  53  89 121 142 187 245 291 343
#     4  10  20  36  55  87 116 146 187 241 292 344
#
# _framework density 18.262152
#
# number of rings (size 3 to 8) (size 9 to 14) (size 15 to 20)
#    0.000    2.000    2.857    1.286    6.000    0.857 
#    0.000    0.714    0.000    4.714    0.000    0.000 
#    0.000    0.000    0.000    0.000    0.000    0.000 
#
# Total GULP energy -312124.276233 kJ/mol
# GULP energy per Si atom -5573.647790 kJ/mol
# Density = 1.822059 g / cm^3
# Si number density = 18.262152 Si / 1000 Ang^3
#
#
#
# Elastic Constant Matrix: (Units=GPa)
#
#
# Indices 1 2 3 4 5 6 
#
# 1 81.6927 15.5963 14.8460 0.0000 0.0000 0.0000
# 2 15.5963 32.7132 14.3509 0.0000 0.0000 0.0000
# 3 14.8460 14.3509 76.4185 0.0000 0.0000 0.0000
# 4 0.0000 0.0000 0.0000 29.7453 0.0000 0.0000
# 5 0.0000 0.0000 0.0000 0.0000 14.8748 0.0000
# 6 0.0000 0.0000 0.0000 0.0000 0.0000 10.8231
#
#
#
# Elastic Compliance Matrix: (Units=1/GPa)
#
#
# Indices 1 2 3 4 5 6 
#
# 1 0.013634 -0.005818 -0.001556 0.000000 0.000000 0.000000
# 2 -0.005818 0.035795 -0.005592 0.000000 0.000000 0.000000
# 3 -0.001556 -0.005592 0.014438 0.000000 0.000000 0.000000
# 4 0.000000 0.000000 0.000000 0.033619 0.000000 0.000000
# 5 0.000000 0.000000 0.000000 0.000000 0.067228 0.000000
# 6 0.000000 0.000000 0.000000 0.000000 0.000000 0.092395
#
#
# Mechanical properties :
#
#
# Convention : Reuss Voigt Hill
#
# Bulk Modulus (GPa) = 26.35985 31.15676 28.75830
# Shear Modulus (GPa) = 16.90980 20.82408 18.86694
#
# Velocity S-wave (km/s) = 3.04624 3.38048 3.21770
# Velocity P-wave (km/s) = 5.18056 5.68636 5.43934
#
# Compressibility (1/GPa) = 0.03793649
#
# Stress axis : x y z
#
# Youngs Moduli (GPa) = 73.34346 27.93656 69.26023
#
# Poissons Ratio (x) = 0.16252 0.10779
# Poissons Ratio (y) = 0.42668 0.38730
# Poissons Ratio (z) = 0.11414 0.15622
#
# Static dielectric constant tensor:
#      x y z
#    x 1.611570 0.000000 0.000000 
#    y 0.000000 1.656390 0.000000 
#    z 0.000000 0.000000 1.676880 
# 
# From -- ./inp_files/29315.got.cif
#   From: 2010.05.17/outbox.cif.g08.bks.cpg/sg53_15_cif.got.tgz:29315.got - 2010.06.03 12:45:16.
