data_PCOD9417342
_publ_section_title
;
Structure prediction by ZEFSAII (Michael W. Deem and Ramdas Pophale) SiO2 
 PCOD9417342
Probable space group: P M N A
;
_chemical_formula_sum "Si O2"
_cell_formula_units_Z 64
_cell_length_a 9.083927
_cell_length_b 12.920155
_cell_length_c 28.068654
_cell_angle_alpha 90.000000
_cell_angle_beta 90.000000
_cell_angle_gamma 90.000000
_cell_volume 3294.298484
_symmetry_space_group_name_H-M "P M N A"
_symmetry_group_IT_number 53
_symmetry_cell_setting 'orthorhombic'
loop_
_space_group_symop_operation_xyz
x,y,z
1/2-x,-y,1/2+z
x,-y,-z
1/2-x,y,1/2-z
-x,-y,-z
1/2+x,y,1/2-z
-x,y,z
1/2+x,-y,1/2+z
loop_
_atom_site_type_symbol
_atom_site_label
_atom_site_fract_x
_atom_site_fract_y
_atom_site_fract_z
Si Si1 0.171647 0.171294 0.571431
Si Si2 0.332293 0.726158 0.295579
Si Si3 0.323340 0.851554 0.801296
Si Si4 0.334414 0.116916 0.481058
Si Si5 0.331232 0.627343 0.394139
Si Si6 0.321824 0.058719 0.655829
Si Si7 0.825572 0.452609 0.447083
Si Si8 0.826466 0.773868 0.596480
O O1 0.215741 0.165099 0.516592
O O2 0.222762 0.285095 0.586305
O O3 0.263848 0.090109 0.603346
O O4 0.000000 0.153921 0.579044
O O5 0.250000 0.688467 0.250000
O O6 0.500000 0.744113 0.282455
O O7 0.325693 0.644432 0.337903
O O8 0.278771 0.838005 0.314284
O O9 0.250000 0.825994 0.750000
O O10 0.500000 0.861861 0.794994
O O11 0.298159 0.773676 0.846412
O O12 0.254052 0.959699 0.820457
O O13 0.500000 0.159903 0.486206
O O14 0.275564 0.140044 0.428451
O O15 0.340744 0.000000 0.500000
O O16 0.500000 0.648586 0.409307
O O17 0.275029 0.518620 0.411930
O O18 0.500000 0.048786 0.654924
O O19 0.794515 0.500000 0.500000
O O20 0.799832 0.332613 0.432900
O O21 0.000000 0.470704 0.439075
O O22 0.000000 0.800071 0.591118
#
# Coordination Sequence:
#
# PCOD9417342 Si02
#       8
#     8   8   8   8   8   8   8   8
#     4  11  21  34  55  83 117 156 193 231 281 341
#     4   9  19  33  51  78 112 147 184 230 280 332
#     4  11  23  39  59  83 114 155 200 246 294 345
#     4  11  23  37  56  84 118 154 190 232 285 343
#     4  10  21  37  56  82 113 144 184 232 282 336
#     4  10  20  35  55  83 119 155 198 248 291 342
#     4  10  21  39  63  88 112 143 186 235 290 352
#     4  10  23  41  60  86 118 150 193 247 298 355
#
# _framework density 19.427506000000001
#
# number of rings (size 3 to 8) (size 9 to 14) (size 15 to 20)
#    0.000    1.750    0.000    5.250    0.000    9.750 
#    0.000    0.625    0.000    3.000    0.000    0.000 
#    0.000    0.000    0.000    0.000    0.000    0.000 
#
# Total GULP energy -356977.617167 kJ/mol
# GULP energy per Si atom -5577.775268 kJ/mol
# Density = 1.938329 g / cm^3
# Si number density = 19.427506 Si / 1000 Ang^3
#
#
#
# Elastic Constant Matrix: (Units=GPa)
#
#
# Indices 1 2 3 4 5 6 
#
# 1 73.6410 36.1128 45.3119 0.0000 0.0000 0.0000
# 2 36.1128 57.9372 27.2605 0.0000 0.0000 0.0000
# 3 45.3119 27.2605 95.0140 0.0000 0.0000 0.0000
# 4 0.0000 0.0000 0.0000 238.5157 0.0000 0.0000
# 5 0.0000 0.0000 0.0000 0.0000 33.7634 0.0000
# 6 0.0000 0.0000 0.0000 0.0000 0.0000 23.8619
#
#
#
# Elastic Compliance Matrix: (Units=1/GPa)
#
#
# Indices 1 2 3 4 5 6 
#
# 1 0.024170 -0.011147 -0.008329 0.000000 0.000000 0.000000
# 2 -0.011147 0.025094 -0.001884 0.000000 0.000000 0.000000
# 3 -0.008329 -0.001884 0.015037 0.000000 0.000000 0.000000
# 4 0.000000 0.000000 0.000000 0.004193 0.000000 0.000000
# 5 0.000000 0.000000 0.000000 0.000000 0.029618 0.000000
# 6 0.000000 0.000000 0.000000 0.000000 0.000000 0.041908
#
#
# Mechanical properties :
#
#
# Convention : Reuss Voigt Hill
#
# Bulk Modulus (GPa) = 46.33248 49.32917 47.83083
# Shear Modulus (GPa) = 26.32501 67.08869 46.70685
#
# Velocity S-wave (km/s) = 3.68508 5.88284 4.90854
# Velocity P-wave (km/s) = 6.48129 8.46110 7.53649
#
# Compressibility (1/GPa) = 0.02158313
#
# Stress axis : x y z
#
# Youngs Moduli (GPa) = 41.37298 39.84950 66.50177
#
# Poissons Ratio (x) = 0.44420 0.55387
# Poissons Ratio (y) = 0.46118 0.12529
# Poissons Ratio (z) = 0.34458 0.07507
#
# Static dielectric constant tensor:
#      x y z
#    x 1.657140 0.000000 0.000000 
#    y 0.000000 1.694690 0.000000 
#    z 0.000000 0.000000 1.736700 
# 
# From -- ./inp_files/38176.got.cif
#   From: 2010.05.17/outbox.cif.g08.bks.cpg/sg53_20_cif.got.tgz:38176.got - 2010.06.03 12:45:16.
