data_PCOD9417517
_publ_section_title
;
Structure prediction by ZEFSAII (Michael W. Deem and Ramdas Pophale) SiO2 
 PCOD9417517
Probable space group: P M N A
;
_chemical_formula_sum "Si O2"
_cell_formula_units_Z 60
_cell_length_a 14.204652
_cell_length_b 17.792055
_cell_length_c 12.011692
_cell_angle_alpha 90.000000
_cell_angle_beta 90.000000
_cell_angle_gamma 90.000000
_cell_volume 3035.714314
_symmetry_space_group_name_H-M "P M N A"
_symmetry_group_IT_number 53
_symmetry_cell_setting 'orthorhombic'
loop_
_space_group_symop_operation_xyz
x,y,z
1/2-x,-y,1/2+z
x,-y,-z
1/2-x,y,1/2-z
-x,-y,-z
1/2+x,y,1/2-z
-x,y,z
1/2+x,-y,1/2+z
loop_
_atom_site_type_symbol
_atom_site_label
_atom_site_fract_x
_atom_site_fract_y
_atom_site_fract_z
Si Si1 0.388919 0.682932 0.181423
Si Si2 0.263847 0.461038 0.880606
Si Si3 0.889329 0.653156 0.067418
Si Si4 0.791927 0.922286 0.064225
Si Si5 0.250000 0.007103 0.250000
Si Si6 0.113097 0.790405 0.927924
Si Si7 0.109631 0.135031 0.304636
Si Si8 0.608965 0.832385 0.051614
O O1 0.500000 0.670715 0.162323
O O2 0.332428 0.609834 0.142560
O O3 0.375470 0.694080 0.313482
O O4 0.361198 0.757974 0.116898
O O5 0.250000 0.494188 0.750000
O O6 0.165096 0.424164 0.917349
O O7 0.295247 0.500000 0.000000
O O8 0.000000 0.639957 0.051831
O O9 0.854114 0.708904 0.970617
O O10 0.683286 0.897812 0.072520
O O11 0.818996 0.950758 0.185389
O O12 0.846704 0.854845 0.008017
O O13 0.803580 0.000000 0.000000
O O14 0.180845 0.065014 0.313368
O O15 0.136627 0.815517 0.802743
O O16 0.000000 0.789979 0.937243
O O17 0.114375 0.180894 0.418824
O O18 0.000000 0.111122 0.290228
O O19 0.500000 0.850174 0.078693
#
# Coordination Sequence:
#
# PCOD9417517 Si02
#       8
#     8   8   8   8   4   8   8   8
#     4   9  19  37  60  84 112 145 181 223 269 318
#     4  10  21  39  61  88 121 152 182 219 269 325
#     4   9  19  37  60  84 112 145 181 223 269 318
#     4  12  23  35  52  73 103 140 183 230 277 331
#     4  12  24  36  46  74 104 138 182 228 288 334
#     4  10  21  37  56  79 104 138 183 227 275 325
#     4  10  20  36  54  72 106 141 172 226 284 331
#     4  10  21  37  56  79 104 138 183 227 275 325
#
# _framework density 19.764704999999999
#
# number of rings (size 3 to 8) (size 9 to 14) (size 15 to 20)
#    0.000    1.867    2.667    0.800    1.867    2.133 
#    2.400    0.000    0.000    0.000    0.000    0.000 
#    0.000    0.000    0.000    0.000    0.000    0.000 
#
# Total GULP energy -334075.648058 kJ/mol
# GULP energy per Si atom -5567.927468 kJ/mol
# Density = 1.971972 g / cm^3
# Si number density = 19.764705 Si / 1000 Ang^3
#
#
#
# Elastic Constant Matrix: (Units=GPa)
#
#
# Indices 1 2 3 4 5 6 
#
# 1 27.7026 -1.7741 2.4434 0.0000 0.0000 0.0000
# 2 -1.7741 21.2826 10.5261 0.0000 0.0000 0.0000
# 3 2.4434 10.5261 65.4996 0.0000 0.0000 0.0000
# 4 0.0000 0.0000 0.0000 36.5754 0.0000 0.0000
# 5 0.0000 0.0000 0.0000 0.0000 20.4889 0.0000
# 6 0.0000 0.0000 0.0000 0.0000 0.0000 17.1146
#
#
#
# Elastic Compliance Matrix: (Units=1/GPa)
#
#
# Indices 1 2 3 4 5 6 
#
# 1 0.036534 0.004041 -0.002012 0.000000 0.000000 0.000000
# 2 0.004041 0.051491 -0.008426 0.000000 0.000000 0.000000
# 3 -0.002012 -0.008426 0.016696 0.000000 0.000000 0.000000
# 4 0.000000 0.000000 0.000000 0.027341 0.000000 0.000000
# 5 0.000000 0.000000 0.000000 0.000000 0.048807 0.000000
# 6 0.000000 0.000000 0.000000 0.000000 0.000000 0.058430
#
#
# Mechanical properties :
#
#
# Convention : Reuss Voigt Hill
#
# Bulk Modulus (GPa) = 10.87819 15.20839 13.04329
# Shear Modulus (GPa) = 17.68440 21.72174 19.70307
#
# Velocity S-wave (km/s) = 2.99448 3.31874 3.16077
# Velocity P-wave (km/s) = 4.17991 4.73253 4.46478
#
# Compressibility (1/GPa) = 0.09192704
#
# Stress axis : x y z
#
# Youngs Moduli (GPa) = 27.37177 19.42092 59.89327
#
# Poissons Ratio (x) = -0.07847 0.12052
# Poissons Ratio (y) = -0.11060 0.50464
# Poissons Ratio (z) = 0.05508 0.16363
#
# Static dielectric constant tensor:
#      x y z
#    x 1.724200 0.000000 0.000000 
#    y 0.000000 1.650860 0.000000 
#    z 0.000000 0.000000 1.861740 
# 
# From -- ./inp_files/16187.got.cif
#   From: 2010.05.17/outbox.cif.g08.bks.cpg/sg53_9_cif.got.tgz:16187.got - 2010.06.03 12:45:16.
