data_PCOD9417883
_publ_section_title
;
Structure prediction by ZEFSAII (Michael W. Deem and Ramdas Pophale) SiO2 
 PCOD9417883
Probable space group: P M N A
;
_chemical_formula_sum "Si O2"
_cell_formula_units_Z 48
_cell_length_a 29.483559
_cell_length_b 14.264571
_cell_length_c 5.267566
_cell_angle_alpha 90.000000
_cell_angle_beta 90.000000
_cell_angle_gamma 90.000000
_cell_volume 2215.381922
_symmetry_space_group_name_H-M "P M N A"
_symmetry_group_IT_number 53
_symmetry_cell_setting 'orthorhombic'
loop_
_space_group_symop_operation_xyz
x,y,z
1/2-x,-y,1/2+z
x,-y,-z
1/2-x,y,1/2-z
-x,-y,-z
1/2+x,y,1/2-z
-x,y,z
1/2+x,-y,1/2+z
loop_
_atom_site_type_symbol
_atom_site_label
_atom_site_fract_x
_atom_site_fract_y
_atom_site_fract_z
Si Si1 0.072816 0.274103 0.713277
Si Si2 0.609763 0.108689 0.518413
Si Si3 0.300396 0.094477 0.851205
Si Si4 0.149406 0.447628 0.248624
Si Si5 0.847625 0.244621 0.382835
Si Si6 0.450880 0.385432 0.277354
O O1 0.074080 0.166659 0.809133
O O2 0.125667 0.284350 0.630408
O O3 0.049764 0.310795 0.455920
O O4 0.056336 0.334018 0.952523
O O5 0.659925 0.106215 0.645202
O O6 0.618936 0.172033 0.266611
O O7 0.596181 0.000000 0.500000
O O8 0.250000 0.086120 0.750000
O O9 0.305371 0.183390 0.034366
O O10 0.311832 0.000000 0.000000
O O11 0.165708 0.500000 0.500000
O O12 0.162167 0.338267 0.231064
O O13 0.093933 0.447528 0.255869
O O14 0.164855 0.500000 0.000000
O O15 0.500000 0.433013 0.271378
#
# Coordination Sequence:
#
# PCOD9417883 Si02
#       6
#     8   8   8   8   8   8
#     4  10  20  37  59  88 123 165 210 248 305 384
#     4  11  20  37  64  89 124 167 213 254 309 380
#     4  11  23  36  60 102 141 166 197 252 321 390
#     4  11  23  39  64  94 124 161 221 267 308 372
#     4  10  22  40  61  92 127 172 209 255 317 372
#     4  11  22  39  62  90 127 162 201 267 344 390
#
# _framework density 21.666694
#
# number of rings (size 3 to 8) (size 9 to 14) (size 15 to 20)
#    0.000    1.333    5.000    3.000    2.333    0.667 
#    0.000    0.000    0.000    3.000    4.333    0.000 
#    0.000    0.000    0.000    0.000    0.000    0.000 
#
# Total GULP energy -267785.898656 kJ/mol
# GULP energy per Si atom -5578.872889 kJ/mol
# Density = 2.161738 g / cm^3
# Si number density = 21.666694 Si / 1000 Ang^3
#
#
#
# Elastic Constant Matrix: (Units=GPa)
#
#
# Indices 1 2 3 4 5 6 
#
# 1 18.7471 -21.3381 2.5777 0.0000 0.0000 0.0000
# 2 -21.3381 109.5154 49.3515 0.0000 0.0000 0.0000
# 3 2.5777 49.3515 143.2470 0.0000 0.0000 0.0000
# 4 0.0000 0.0000 0.0000 45.1483 0.0000 0.0000
# 5 0.0000 0.0000 0.0000 0.0000 -3.9492 0.0000
# 6 0.0000 0.0000 0.0000 0.0000 0.0000 4.1482
#
#
#
# Elastic Compliance Matrix: (Units=1/GPa)
#
#
# Indices 1 2 3 4 5 6 
#
# 1 0.074845 0.017982 -0.007542 0.000000 0.000000 0.000000
# 2 0.017982 0.015129 -0.005536 0.000000 0.000000 0.000000
# 3 -0.007542 -0.005536 0.009024 0.000000 0.000000 0.000000
# 4 0.000000 0.000000 0.000000 0.022149 0.000000 0.000000
# 5 0.000000 0.000000 0.000000 0.000000 -0.253214 0.000000
# 6 0.000000 0.000000 0.000000 0.000000 0.000000 0.241066
#
#
# Mechanical properties :
#
#
# Convention : Reuss Voigt Hill
#
# Bulk Modulus (GPa) = 9.19068 36.96576 23.07822
# Shear Modulus (GPa) = 36.91106 25.13069 31.02087
#
# Velocity S-wave (km/s) = 4.13193 3.40939 3.78793
# Velocity P-wave (km/s) = 5.19758 5.70935 5.45947
#
# Compressibility (1/GPa) = 0.10880582
#
# Stress axis : x y z
#
# Youngs Moduli (GPa) = 13.36093 66.09663 110.81670
#
# Poissons Ratio (x) = -1.18852 0.83576
# Poissons Ratio (y) = -0.24025 0.61348
# Poissons Ratio (z) = 0.10077 0.36591
#
# Static dielectric constant tensor:
#      x y z
#    x 1.759590 0.000000 0.000000 
#    y 0.000000 1.867320 0.000000 
#    z 0.000000 0.000000 1.920020 
# 
# From -- ./inp_files/5283.got.cif
#   From: 2010.05.17/outbox.cif.g08.bks.cpg/sg53_3_cif.got.tgz:5283.got - 2010.06.03 12:45:16.
