data_PCOD9417565
_publ_section_title
;
Structure prediction by ZEFSAII (Michael W. Deem and Ramdas Pophale) SiO2 
 PCOD9417565
Probable space group: P M N A
;
_chemical_formula_sum "Si O2"
_cell_formula_units_Z 64
_cell_length_a 8.826724
_cell_length_b 12.320678
_cell_length_c 31.452848
_cell_angle_alpha 90.000000
_cell_angle_beta 90.000000
_cell_angle_gamma 90.000000
_cell_volume 3420.535725
_symmetry_space_group_name_H-M "P M N A"
_symmetry_group_IT_number 53
_symmetry_cell_setting 'orthorhombic'
loop_
_space_group_symop_operation_xyz
x,y,z
1/2-x,-y,1/2+z
x,-y,-z
1/2-x,y,1/2-z
-x,-y,-z
1/2+x,y,1/2-z
-x,y,z
1/2+x,-y,1/2+z
loop_
_atom_site_type_symbol
_atom_site_label
_atom_site_fract_x
_atom_site_fract_y
_atom_site_fract_z
Si Si1 0.676813 0.866154 0.613718
Si Si2 0.321726 0.738943 0.057355
Si Si3 0.319579 0.246864 0.704072
Si Si4 0.318116 0.480739 0.796380
Si Si5 0.818983 0.490775 0.950224
Si Si6 0.818798 0.635386 0.624096
Si Si7 0.180310 0.904111 0.366141
Si Si8 0.676634 0.877756 0.512250
O O1 0.750044 0.754717 0.629239
O O2 0.686044 0.864624 0.562482
O O3 0.000000 0.872394 0.874461
O O4 0.762672 0.973686 0.628675
O O5 0.500000 0.714291 0.059180
O O6 0.230063 0.628944 0.064967
O O7 0.288001 0.832868 0.091610
O O8 0.274790 0.789641 0.012303
O O9 0.250000 0.221745 0.750000
O O10 0.500000 0.255313 0.706432
O O11 0.249627 0.363443 0.691603
O O12 0.267187 0.156317 0.671331
O O13 0.250000 0.509632 0.750000
O O14 0.500000 0.472144 0.792561
O O15 0.281900 0.563807 0.834198
O O16 0.746275 0.577775 0.918264
O O17 0.000000 0.503374 0.948804
O O18 0.771585 0.500000 0.000000
O O19 0.000000 0.641137 0.620321
O O20 0.000000 0.901571 0.358952
O O21 0.500000 0.864852 0.499147
O O22 0.723980 0.000000 0.500000
#
# Coordination Sequence:
#
# PCOD9417565 Si02
#       8
#     8   8   8   8   8   8   8   8
#     4  11  23  39  60  85 115 157 203 244 293 352
#     4  11  23  36  57  86 115 150 193 243 295 345
#     4  11  22  38  63  92 121 152 187 233 290 349
#     4  10  21  39  64  93 122 153 193 241 296 356
#     4  11  24  40  58  83 117 158 202 246 295 354
#     4  11  24  41  61  87 121 158 198 249 305 358
#     4  11  23  39  58  85 119 151 191 239 288 343
#     4  10  20  36  56  80 114 153 196 245 292 345
#
# _framework density 18.710519999999999
#
# number of rings (size 3 to 8) (size 9 to 14) (size 15 to 20)
#    0.000    1.250    1.250    5.625    0.000   11.750 
#    0.000    0.625    0.000    1.500    0.000    0.000 
#    0.000    0.000    0.000    0.000    0.000    0.000 
#
# Total GULP energy -357890.306052 kJ/mol
# GULP energy per Si atom -5592.036032 kJ/mol
# Density = 1.866793 g / cm^3
# Si number density = 18.710520 Si / 1000 Ang^3
#
#
#
# Elastic Constant Matrix: (Units=GPa)
#
#
# Indices 1 2 3 4 5 6 
#
# 1 81.5635 50.3089 48.0194 0.0000 0.0000 0.0000
# 2 50.3089 108.3741 59.4918 0.0000 0.0000 0.0000
# 3 48.0194 59.4918 71.9422 0.0000 0.0000 0.0000
# 4 0.0000 0.0000 0.0000 30.8113 0.0000 0.0000
# 5 0.0000 0.0000 0.0000 0.0000 -17.5608 0.0000
# 6 0.0000 0.0000 0.0000 0.0000 0.0000 37.8898
#
#
#
# Elastic Compliance Matrix: (Units=1/GPa)
#
#
# Indices 1 2 3 4 5 6 
#
# 1 0.021003 -0.003762 -0.010908 0.000000 0.000000 0.000000
# 2 -0.003762 0.017572 -0.012020 0.000000 0.000000 0.000000
# 3 -0.010908 -0.012020 0.031120 0.000000 0.000000 0.000000
# 4 0.000000 0.000000 0.000000 0.032456 0.000000 0.000000
# 5 0.000000 0.000000 0.000000 0.000000 -0.056945 0.000000
# 6 0.000000 0.000000 0.000000 0.000000 0.000000 0.026392
#
#
# Mechanical properties :
#
#
# Convention : Reuss Voigt Hill
#
# Bulk Modulus (GPa) = 61.29062 64.16888 62.72975
# Shear Modulus (GPa) = 38.33890 17.16537 27.75214
#
# Velocity S-wave (km/s) = 4.53156 3.03218 3.85546
# Velocity P-wave (km/s) = 7.75941 6.82853 7.30881
#
# Compressibility (1/GPa) = 0.01631571
#
# Stress axis : x y z
#
# Youngs Moduli (GPa) = 47.61332 56.90872 32.13320
#
# Poissons Ratio (x) = 0.21409 0.35050
# Poissons Ratio (y) = 0.17912 0.38624
# Poissons Ratio (z) = 0.51935 0.68404
#
# Static dielectric constant tensor:
#      x y z
#    x 1.631090 0.000000 0.000000 
#    y 0.000000 1.626650 0.000000 
#    z 0.000000 0.000000 1.653310 
# 
# From -- ./inp_files/38183.got.cif
#   From: 2010.05.17/outbox.cif.g08.bks.cpg/sg53_20_cif.got.tgz:38183.got - 2010.06.03 12:45:16.
