data_PCOD9417807
_publ_section_title
;
Structure prediction by ZEFSAII (Michael W. Deem and Ramdas Pophale) SiO2 
 PCOD9417807
Probable space group: P M N A
;
_chemical_formula_sum "Si O2"
_cell_formula_units_Z 40
_cell_length_a 10.230418
_cell_length_b 14.038806
_cell_length_c 13.755210
_cell_angle_alpha 90.000000
_cell_angle_beta 90.000000
_cell_angle_gamma 90.000000
_cell_volume 1975.562512
_symmetry_space_group_name_H-M "P M N A"
_symmetry_group_IT_number 53
_symmetry_cell_setting 'orthorhombic'
loop_
_space_group_symop_operation_xyz
x,y,z
1/2-x,-y,1/2+z
x,-y,-z
1/2-x,y,1/2-z
-x,-y,-z
1/2+x,y,1/2-z
-x,y,z
1/2+x,-y,1/2+z
loop_
_atom_site_type_symbol
_atom_site_label
_atom_site_fract_x
_atom_site_fract_y
_atom_site_fract_z
Si Si1 0.500000 0.891181 0.476055
Si Si2 0.241331 0.395719 0.132199
Si Si3 0.244271 0.190654 0.867223
Si Si4 0.500000 0.113677 0.975381
Si Si5 0.339974 0.398101 0.653011
Si Si6 0.000000 0.281372 0.372777
Si Si7 0.000000 0.263489 0.138743
O O1 0.375115 0.866656 0.411720
O O2 0.500000 0.832137 0.576722
O O3 0.500000 0.000000 0.500000
O O4 0.250000 0.398277 0.250000
O O5 0.201330 0.502746 0.103812
O O6 0.375996 0.347303 0.100916
O O7 0.124825 0.324745 0.108758
O O8 0.250000 0.185102 0.750000
O O9 0.374533 0.147531 0.913664
O O10 0.210035 0.300409 0.894463
O O11 0.500000 0.181580 0.070563
O O12 0.500000 0.000000 0.000000
O O13 0.250000 0.398908 0.750000
O O14 0.500000 0.395720 0.667637
O O15 0.000000 0.258102 0.256672
#
# Coordination Sequence:
#
# PCOD9417807 Si02
#       7
#     4   8   8   4   8   4   4
#     4  12  25  44  67  98 128 169 229 290 333 391
#     4   9  18  34  61  94 134 174 218 264 326 395
#     4  11  25  45  70  98 134 174 220 273 338 403
#     4  12  27  48  69  96 134 175 227 292 343 393
#     4  10  20  36  65 101 138 179 221 267 329 399
#     4  10  22  40  63  96 133 179 222 274 335 401
#     4  10  20  38  63  92 131 175 220 274 331 397
#
# _framework density 20.247398
#
# number of rings (size 3 to 8) (size 9 to 14) (size 15 to 20)
#    0.000    1.600    2.000    2.400    8.400    1.600 
#    0.000    8.000    0.000    0.000    0.000    0.000 
#    0.000    0.000    0.000    0.000    0.000    0.000 
#
# Total GULP energy -223248.742662 kJ/mol
# GULP energy per Si atom -5581.218567 kJ/mol
# Density = 2.020131 g / cm^3
# Si number density = 20.247398 Si / 1000 Ang^3
#
#
#
# Elastic Constant Matrix: (Units=GPa)
#
#
# Indices 1 2 3 4 5 6 
#
# 1 225.3408 106.8277 65.5590 0.0000 0.0000 0.0000
# 2 106.8277 241.2810 72.1000 0.0000 0.0000 0.0000
# 3 65.5590 72.1000 127.6874 0.0000 0.0000 0.0000
# 4 0.0000 0.0000 0.0000 40.1037 0.0000 0.0000
# 5 0.0000 0.0000 0.0000 0.0000 26.4225 0.0000
# 6 0.0000 0.0000 0.0000 0.0000 0.0000 52.4397
#
#
#
# Elastic Compliance Matrix: (Units=1/GPa)
#
#
# Indices 1 2 3 4 5 6 
#
# 1 0.005974 -0.002079 -0.001893 0.000000 0.000000 0.000000
# 2 -0.002079 0.005710 -0.002156 0.000000 0.000000 0.000000
# 3 -0.001893 -0.002156 0.010021 0.000000 0.000000 0.000000
# 4 0.000000 0.000000 0.000000 0.024935 0.000000 0.000000
# 5 0.000000 0.000000 0.000000 0.000000 0.037847 0.000000
# 6 0.000000 0.000000 0.000000 0.000000 0.000000 0.019070
#
#
# Mechanical properties :
#
#
# Convention : Reuss Voigt Hill
#
# Bulk Modulus (GPa) = 105.85163 120.36474 113.10818
# Shear Modulus (GPa) = 42.02964 47.11467 44.57216
#
# Velocity S-wave (km/s) = 4.56104 4.82908 4.69697
# Velocity P-wave (km/s) = 8.95154 9.52205 9.24120
#
# Compressibility (1/GPa) = 0.00944719
#
# Stress axis : x y z
#
# Youngs Moduli (GPa) = 167.38315 175.14487 99.78757
#
# Poissons Ratio (x) = 0.36420 0.18892
# Poissons Ratio (y) = 0.34806 0.21518
# Poissons Ratio (z) = 0.31690 0.37767
#
# Static dielectric constant tensor:
#      x y z
#    x 1.600880 0.000000 0.000000 
#    y 0.000000 1.714280 0.000000 
#    z 0.000000 0.000000 1.423700 
# 
# From -- ./inp_files/19970.got.cif
#   From: 2010.05.17/outbox.cif.g08.bks.cpg/sg53_10_cif.got.tgz:19970.got - 2010.06.03 12:45:16.
