data_PCOD9417644
_publ_section_title
;
Structure prediction by ZEFSAII (Michael W. Deem and Ramdas Pophale) SiO2 
 PCOD9417644
Probable space group: P M N A
;
_chemical_formula_sum "Si O2"
_cell_formula_units_Z 48
_cell_length_a 8.967574
_cell_length_b 9.893017
_cell_length_c 31.012997
_cell_angle_alpha 90.000000
_cell_angle_beta 90.000000
_cell_angle_gamma 90.000000
_cell_volume 2751.360270
_symmetry_space_group_name_H-M "P M N A"
_symmetry_group_IT_number 53
_symmetry_cell_setting 'orthorhombic'
loop_
_space_group_symop_operation_xyz
x,y,z
1/2-x,-y,1/2+z
x,-y,-z
1/2-x,y,1/2-z
-x,-y,-z
1/2+x,y,1/2-z
-x,y,z
1/2+x,-y,1/2+z
loop_
_atom_site_type_symbol
_atom_site_label
_atom_site_fract_x
_atom_site_fract_y
_atom_site_fract_z
Si Si1 0.322007 0.650882 0.984717
Si Si2 0.820626 0.994648 0.866373
Si Si3 0.820574 0.694621 0.891662
Si Si4 0.177711 0.809275 0.296871
Si Si5 0.175784 0.210750 0.936430
Si Si6 0.177239 0.409198 0.855734
O O1 0.500000 0.653512 0.981539
O O2 0.251290 0.681845 0.938600
O O3 0.275940 0.500000 0.000000
O O4 0.266831 0.754641 0.021123
O O5 0.781855 0.837852 0.870502
O O6 0.000000 0.008938 0.860231
O O7 0.738403 0.072340 0.828077
O O8 0.785314 0.073550 0.910969
O O9 0.778660 0.563917 0.863440
O O10 0.000000 0.690593 0.896734
O O11 0.250000 0.821370 0.250000
O O12 0.232568 0.670956 0.319631
O O13 0.000000 0.813203 0.294293
O O14 0.199395 0.328746 0.900811
O O15 0.000000 0.207754 0.947011
O O16 0.000000 0.401169 0.846021
#
# Coordination Sequence:
#
# PCOD9417644 Si02
#       6
#     8   8   8   8   8   8
#     4  11  22  32  47  75 111 148 191 238 274 314
#     4   9  20  38  58  83 111 142 182 227 277 330
#     4  10  20  36  58  80 109 147 184 226 275 326
#     4  11  22  38  62  86 110 141 176 218 266 326
#     4   9  17  32  53  75 104 143 188 229 267 321
#     4   9  18  34  57  83 108 138 179 224 269 320
#
# _framework density 17.445917000000001
#
# number of rings (size 3 to 8) (size 9 to 14) (size 15 to 20)
#    0.000    2.167    1.667    3.000    0.000    5.333 
#    0.000    4.167    0.000    0.000    0.000    0.000 
#    0.000    0.000    0.000    0.000    0.000    0.000 
#
# Total GULP energy -267942.744744 kJ/mol
# GULP energy per Si atom -5582.140516 kJ/mol
# Density = 1.740621 g / cm^3
# Si number density = 17.445917 Si / 1000 Ang^3
#
#
#
# Elastic Constant Matrix: (Units=GPa)
#
#
# Indices 1 2 3 4 5 6 
#
# 1 58.0238 53.5207 61.0107 0.0000 0.0000 0.0000
# 2 53.5207 149.3475 60.8151 0.0000 0.0000 0.0000
# 3 61.0107 60.8151 114.7282 0.0000 0.0000 0.0000
# 4 0.0000 0.0000 0.0000 13.7610 0.0000 0.0000
# 5 0.0000 0.0000 0.0000 0.0000 30.2987 0.0000
# 6 0.0000 0.0000 0.0000 0.0000 0.0000 28.4814
#
#
#
# Elastic Compliance Matrix: (Units=1/GPa)
#
#
# Indices 1 2 3 4 5 6 
#
# 1 0.045980 -0.008316 -0.020043 0.000000 0.000000 0.000000
# 2 -0.008316 0.010043 -0.000901 0.000000 0.000000 0.000000
# 3 -0.020043 -0.000901 0.019853 0.000000 0.000000 0.000000
# 4 0.000000 0.000000 0.000000 0.072669 0.000000 0.000000
# 5 0.000000 0.000000 0.000000 0.000000 0.033005 0.000000
# 6 0.000000 0.000000 0.000000 0.000000 0.000000 0.035111
#
#
# Mechanical properties :
#
#
# Convention : Reuss Voigt Hill
#
# Bulk Modulus (GPa) = 57.62156 74.75473 66.18815
# Shear Modulus (GPa) = 17.79575 24.29175 21.04375
#
# Velocity S-wave (km/s) = 3.19729 3.73554 3.47685
# Velocity P-wave (km/s) = 6.83598 7.84526 7.35795
#
# Compressibility (1/GPa) = 0.01735461
#
# Stress axis : x y z
#
# Youngs Moduli (GPa) = 21.74865 99.57298 50.37070
#
# Poissons Ratio (x) = 0.82802 1.00960
# Poissons Ratio (y) = 0.18086 0.04540
# Poissons Ratio (z) = 0.43592 0.08975
#
# Static dielectric constant tensor:
#      x y z
#    x 1.579050 0.000000 0.000000 
#    y 0.000000 1.609080 0.000000 
#    z 0.000000 0.000000 1.552540 
# 
# From -- ./inp_files/37788.got.cif
#   From: 2010.05.17/outbox.cif.g08.bks.cpg/sg53_19_cif.got.tgz:37788.got - 2010.06.03 12:45:16.
