data_PCOD9417935
_publ_section_title
;
Structure prediction by ZEFSAII (Michael W. Deem and Ramdas Pophale) SiO2 
 PCOD9417935
Probable space group: P M N A
;
_chemical_formula_sum "Si O2"
_cell_formula_units_Z 48
_cell_length_a 8.933201
_cell_length_b 14.666883
_cell_length_c 20.722383
_cell_angle_alpha 90.000000
_cell_angle_beta 90.000000
_cell_angle_gamma 90.000000
_cell_volume 2715.092498
_symmetry_space_group_name_H-M "P M N A"
_symmetry_group_IT_number 53
_symmetry_cell_setting 'orthorhombic'
loop_
_space_group_symop_operation_xyz
x,y,z
1/2-x,-y,1/2+z
x,-y,-z
1/2-x,y,1/2-z
-x,-y,-z
1/2+x,y,1/2-z
-x,y,z
1/2+x,-y,1/2+z
loop_
_atom_site_type_symbol
_atom_site_label
_atom_site_fract_x
_atom_site_fract_y
_atom_site_fract_z
Si Si1 0.178817 0.942513 0.564327
Si Si2 0.321984 0.559732 0.181612
Si Si3 0.820835 0.552639 0.933506
Si Si4 0.821050 0.244500 0.022637
Si Si5 0.178990 0.256554 0.870269
Si Si6 0.320941 0.945588 0.319236
O O1 0.235479 0.840126 0.553316
O O2 0.000000 0.944889 0.571633
O O3 0.218855 0.000000 0.500000
O O4 0.255433 0.989565 0.625499
O O5 0.250000 0.534501 0.250000
O O6 0.500000 0.558455 0.186011
O O7 0.264618 0.492892 0.125512
O O8 0.265423 0.660843 0.162721
O O9 0.787292 0.659023 0.944049
O O10 0.000000 0.542302 0.923495
O O11 0.784596 0.500000 0.000000
O O12 0.000000 0.228676 0.027136
O O13 0.785189 0.252353 0.946458
O O14 0.214204 0.159076 0.838843
O O15 0.000000 0.272976 0.864412
O O16 0.250000 0.965777 0.250000
O O17 0.500000 0.954471 0.316891
#
# Coordination Sequence:
#
# PCOD9417935 Si02
#       6
#     8   8   8   8   8   8
#     4  11  23  38  59  88 123 158 198 246 293 348
#     4  12  25  39  59  87 123 161 200 245 297 356
#     4  10  20  39  64  88 119 156 197 243 293 351
#     4  10  20  37  63  91 119 155 198 243 293 351
#     4  10  20  37  61  90 122 157 195 242 299 356
#     4  11  23  39  61  87 121 159 200 245 297 357
#
# _framework density 17.678954999999998
#
# number of rings (size 3 to 8) (size 9 to 14) (size 15 to 20)
#    0.000    1.333    3.333    3.000    0.000    5.000 
#    0.000    0.833    0.000    4.000    0.000    0.000 
#    0.000    0.000    0.000    0.000    0.000    0.000 
#
# Total GULP energy -268364.326780 kJ/mol
# GULP energy per Si atom -5590.923475 kJ/mol
# Density = 1.763872 g / cm^3
# Si number density = 17.678955 Si / 1000 Ang^3
#
#
#
# Elastic Constant Matrix: (Units=GPa)
#
#
# Indices 1 2 3 4 5 6 
#
# 1 74.2700 66.6442 79.2434 0.0000 0.0000 0.0000
# 2 66.6442 119.5074 76.4905 0.0000 0.0000 0.0000
# 3 79.2434 76.4905 163.8717 0.0000 0.0000 0.0000
# 4 0.0000 0.0000 0.0000 15.5563 0.0000 0.0000
# 5 0.0000 0.0000 0.0000 0.0000 27.8557 0.0000
# 6 0.0000 0.0000 0.0000 0.0000 0.0000 119.7825
#
#
#
# Elastic Compliance Matrix: (Units=1/GPa)
#
#
# Indices 1 2 3 4 5 6 
#
# 1 0.039283 -0.013901 -0.012508 0.000000 0.000000 0.000000
# 2 -0.013901 0.016852 -0.001144 0.000000 0.000000 0.000000
# 3 -0.012508 -0.001144 0.012684 0.000000 0.000000 0.000000
# 4 0.000000 0.000000 0.000000 0.064283 0.000000 0.000000
# 5 0.000000 0.000000 0.000000 0.000000 0.035899 0.000000
# 6 0.000000 0.000000 0.000000 0.000000 0.000000 0.008348
#
#
# Mechanical properties :
#
#
# Convention : Reuss Voigt Hill
#
# Bulk Modulus (GPa) = 72.91474 89.15613 81.03544
# Shear Modulus (GPa) = 21.09466 41.65695 31.37581
#
# Velocity S-wave (km/s) = 3.45803 4.85944 4.21735
# Velocity P-wave (km/s) = 7.56818 9.05680 8.34575
#
# Compressibility (1/GPa) = 0.01371465
#
# Stress axis : x y z
#
# Youngs Moduli (GPa) = 25.45606 59.34060 78.83657
#
# Poissons Ratio (x) = 0.82491 0.98605
# Poissons Ratio (y) = 0.35387 0.09017
# Poissons Ratio (z) = 0.31839 0.06787
#
# Static dielectric constant tensor:
#      x y z
#    x 1.586870 0.000000 0.000000 
#    y 0.000000 1.577930 0.000000 
#    z 0.000000 0.000000 1.574620 
# 
# From -- ./inp_files/26184.got.cif
#   From: 2010.05.17/outbox.cif.g08.bks.cpg/sg53_14_cif.got.tgz:26184.got - 2010.06.03 12:45:16.
