data_PCOD9417606
_publ_section_title
;
Structure prediction by ZEFSAII (Michael W. Deem and Ramdas Pophale) SiO2 
 PCOD9417606
Probable space group: P M N A
;
_chemical_formula_sum "Si O2"
_cell_formula_units_Z 40
_cell_length_a 8.690708
_cell_length_b 26.509620
_cell_length_c 9.236944
_cell_angle_alpha 90.000000
_cell_angle_beta 90.000000
_cell_angle_gamma 90.000000
_cell_volume 2128.075204
_symmetry_space_group_name_H-M "P M N A"
_symmetry_group_IT_number 53
_symmetry_cell_setting 'orthorhombic'
loop_
_space_group_symop_operation_xyz
x,y,z
1/2-x,-y,1/2+z
x,-y,-z
1/2-x,y,1/2-z
-x,-y,-z
1/2+x,y,1/2-z
-x,y,z
1/2+x,-y,1/2+z
loop_
_atom_site_type_symbol
_atom_site_label
_atom_site_fract_x
_atom_site_fract_y
_atom_site_fract_z
Si Si1 0.684567 0.449198 0.588056
Si Si2 0.315050 0.155644 0.087368
Si Si3 0.185448 0.254732 0.588868
Si Si4 0.315463 0.049816 0.411392
Si Si5 0.185032 0.354433 0.412020
O O1 0.723733 0.500000 0.500000
O O2 0.750000 0.451639 0.750000
O O3 0.500000 0.444831 0.593992
O O4 0.752962 0.401468 0.503697
O O5 0.250000 0.161907 0.250000
O O6 0.500000 0.153928 0.094866
O O7 0.252752 0.102228 0.029300
O O8 0.267013 0.202855 0.989304
O O9 0.250000 0.258542 0.750000
O O10 0.232297 0.302723 0.492273
O O11 0.000000 0.254875 0.596188
O O12 0.250000 0.044814 0.250000
O O13 0.500000 0.053786 0.406768
O O14 0.272798 0.000000 0.500000
O O15 0.250000 0.355935 0.250000
O O16 0.000000 0.356368 0.406829
#
# Coordination Sequence:
#
# PCOD9417606 Si02
#       5
#     8   8   8   8   8
#     4  11  24  41  62  89 121 156 195 240 288 339
#     4  10  20  36  57  81 109 143 184 227 275 330
#     4  10  23  39  57  84 115 148 186 231 281 334
#     4  10  21  36  55  80 109 143 183 226 275 329
#     4  11  23  40  62  88 118 153 194 237 286 341
#
# _framework density 18.796327000000002
#
# number of rings (size 3 to 8) (size 9 to 14) (size 15 to 20)
#    0.000    1.600    0.000    5.400    0.000   10.400 
#    0.000    4.000    0.000    0.000    0.000    0.000 
#    0.000    0.000    0.000    0.000    0.000    0.000 
#
# Total GULP energy -223601.754564 kJ/mol
# GULP energy per Si atom -5590.043864 kJ/mol
# Density = 1.875355 g / cm^3
# Si number density = 18.796327 Si / 1000 Ang^3
#
#
#
# Elastic Constant Matrix: (Units=GPa)
#
#
# Indices 1 2 3 4 5 6 
#
# 1 54.3632 66.6888 48.0699 0.0000 0.0000 0.0000
# 2 66.6888 220.6572 118.8228 0.0000 0.0000 0.0000
# 3 48.0699 118.8228 159.1896 0.0000 0.0000 0.0000
# 4 0.0000 0.0000 0.0000 38.2319 0.0000 0.0000
# 5 0.0000 0.0000 0.0000 0.0000 33.7976 0.0000
# 6 0.0000 0.0000 0.0000 0.0000 0.0000 52.9034
#
#
#
# Elastic Compliance Matrix: (Units=1/GPa)
#
#
# Indices 1 2 3 4 5 6 
#
# 1 0.030623 -0.007149 -0.003911 0.000000 0.000000 0.000000
# 2 -0.007149 0.009247 -0.004743 0.000000 0.000000 0.000000
# 3 -0.003911 -0.004743 0.011003 0.000000 0.000000 0.000000
# 4 0.000000 0.000000 0.000000 0.026156 0.000000 0.000000
# 5 0.000000 0.000000 0.000000 0.000000 0.029588 0.000000
# 6 0.000000 0.000000 0.000000 0.000000 0.000000 0.018902
#
#
# Mechanical properties :
#
#
# Convention : Reuss Voigt Hill
#
# Bulk Modulus (GPa) = 51.90339 100.15255 76.02797
# Shear Modulus (GPa) = 30.57209 38.36182 34.46696
#
# Velocity S-wave (km/s) = 4.03736 4.52256 4.28683
# Velocity P-wave (km/s) = 7.02902 8.98165 8.06465
#
# Compressibility (1/GPa) = 0.01926656
#
# Stress axis : x y z
#
# Youngs Moduli (GPa) = 32.65528 108.14573 90.88275
#
# Poissons Ratio (x) = 0.77315 0.35542
# Poissons Ratio (y) = 0.23346 0.43108
# Poissons Ratio (z) = 0.12771 0.51296
#
# Static dielectric constant tensor:
#      x y z
#    x 1.635100 0.000000 0.000000 
#    y 0.000000 1.650100 0.000000 
#    z 0.000000 0.000000 1.605550 
# 
# From -- ./inp_files/6283.got.cif
#   From: 2010.05.17/outbox.cif.g08.bks.cpg/sg53_4_cif.got.tgz:6283.got - 2010.06.03 12:45:16.
