data_PCOD9417493
_publ_section_title
;
Structure prediction by ZEFSAII (Michael W. Deem and Ramdas Pophale) SiO2 
 PCOD9417493
Probable space group: P M N A
;
_chemical_formula_sum "Si O2"
_cell_formula_units_Z 48
_cell_length_a 16.615818
_cell_length_b 25.149283
_cell_length_c 5.269587
_cell_angle_alpha 90.000000
_cell_angle_beta 90.000000
_cell_angle_gamma 90.000000
_cell_volume 2202.033459
_symmetry_space_group_name_H-M "P M N A"
_symmetry_group_IT_number 53
_symmetry_cell_setting 'orthorhombic'
loop_
_space_group_symop_operation_xyz
x,y,z
1/2-x,-y,1/2+z
x,-y,-z
1/2-x,y,1/2-z
-x,-y,-z
1/2+x,y,1/2-z
-x,y,z
1/2+x,-y,1/2+z
loop_
_atom_site_type_symbol
_atom_site_label
_atom_site_fract_x
_atom_site_fract_y
_atom_site_fract_z
Si Si1 0.903524 0.620723 0.068597
Si Si2 0.598478 0.559797 0.933295
Si Si3 0.327654 0.835150 0.430143
Si Si4 0.841394 0.952088 0.821820
Si Si5 0.500000 0.143347 0.594568
Si Si6 0.200471 0.719230 0.986181
Si Si7 0.000000 0.080294 0.428860
O O1 0.875173 0.598196 0.338611
O O2 0.000000 0.619354 0.069253
O O3 0.875743 0.582649 0.838371
O O4 0.873988 0.680403 0.026546
O O5 0.500000 0.559299 0.930122
O O6 0.624165 0.500000 0.000000
O O7 0.250000 0.838003 0.250000
O O8 0.331893 0.892591 0.562763
O O9 0.417609 0.828740 0.319325
O O10 0.319644 0.780381 0.583151
O O11 0.750000 0.966424 0.750000
O O12 0.913582 0.946125 0.622693
O O13 0.868412 0.000000 0.000000
O O14 0.500000 0.127428 0.294335
O O15 0.500000 0.092072 0.773224
O O16 0.250000 0.696948 0.750000
O O17 0.250000 0.720152 0.250000
#
# Coordination Sequence:
#
# PCOD9417493 Si02
#       7
#     8   8   8   8   4   8   4
#     4  10  20  35  60  89 120 157 209 257 302 361
#     4   9  17  32  57  91 124 157 199 255 311 361
#     4  10  22  41  64  91 126 165 211 262 320 381
#     4  11  22  39  64  94 127 165 213 263 322 387
#     4  10  22  40  67  94 120 164 205 256 311 374
#     4  11  24  41  62  85 122 167 204 253 316 372
#     4  10  23  42  62  92 128 160 200 254 316 378
#
# _framework density 21.798034999999999
#
# number of rings (size 3 to 8) (size 9 to 14) (size 15 to 20)
#    0.000    1.833    0.000    3.750    1.167    7.333 
#    0.000    3.750    1.833   10.000    0.000    0.000 
#    0.000    0.000    0.000    0.000    0.000    0.000 
#
# Total GULP energy -267625.774806 kJ/mol
# GULP energy per Si atom -5575.536975 kJ/mol
# Density = 2.174842 g / cm^3
# Si number density = 21.798035 Si / 1000 Ang^3
#
#
#
# Elastic Constant Matrix: (Units=GPa)
#
#
# Indices 1 2 3 4 5 6 
#
# 1 98.5256 -4.0181 9.2069 0.0000 0.0000 0.0000
# 2 -4.0181 84.7274 -1.5843 0.0000 0.0000 0.0000
# 3 9.2069 -1.5843 58.9920 0.0000 0.0000 0.0000
# 4 0.0000 0.0000 0.0000 9.9809 0.0000 0.0000
# 5 0.0000 0.0000 0.0000 0.0000 25.3437 0.0000
# 6 0.0000 0.0000 0.0000 0.0000 0.0000 -18.5181
#
#
#
# Elastic Compliance Matrix: (Units=1/GPa)
#
#
# Indices 1 2 3 4 5 6 
#
# 1 0.010318 0.000459 -0.001598 0.000000 0.000000 0.000000
# 2 0.000459 0.011829 0.000246 0.000000 0.000000 0.000000
# 3 -0.001598 0.000246 0.017207 0.000000 0.000000 0.000000
# 4 0.000000 0.000000 0.000000 0.100192 0.000000 0.000000
# 5 0.000000 0.000000 0.000000 0.000000 0.039458 0.000000
# 6 0.000000 0.000000 0.000000 0.000000 0.000000 -0.054001
#
#
# Mechanical properties :
#
#
# Convention : Reuss Voigt Hill
#
# Bulk Modulus (GPa) = 26.61768 27.71710 27.16739
# Shear Modulus (GPa) = 35.89114 19.27067 27.58090
#
# Velocity S-wave (km/s) = 4.06215 2.97653 3.56095
# Velocity P-wave (km/s) = 5.85141 4.95540 5.42194
#
# Compressibility (1/GPa) = 0.03756902
#
# Stress axis : x y z
#
# Youngs Moduli (GPa) = 96.92078 84.53842 58.11436
#
# Poissons Ratio (x) = -0.03884 0.09286
# Poissons Ratio (y) = -0.04453 -0.01429
# Poissons Ratio (z) = 0.15487 -0.02079
#
# Static dielectric constant tensor:
#      x y z
#    x 1.896790 0.000000 0.000000 
#    y 0.000000 1.793330 0.000000 
#    z 0.000000 0.000000 1.835600 
# 
# From -- ./inp_files/2253.got.cif
#   From: 2010.05.17/outbox.cif.g08.bks.cpg/sg53_2_cif.got.tgz:2253.got - 2010.06.03 12:45:16.
