data_PCOD9417065
_publ_section_title
;
Structure prediction by ZEFSAII (Michael W. Deem and Ramdas Pophale) SiO2 
 PCOD9417065
Probable space group: P M N A
;
_chemical_formula_sum "Si O2"
_cell_formula_units_Z 48
_cell_length_a 8.595147
_cell_length_b 18.108800
_cell_length_c 16.051102
_cell_angle_alpha 90.000000
_cell_angle_beta 90.000000
_cell_angle_gamma 90.000000
_cell_volume 2498.318682
_symmetry_space_group_name_H-M "P M N A"
_symmetry_group_IT_number 53
_symmetry_cell_setting 'orthorhombic'
loop_
_space_group_symop_operation_xyz
x,y,z
1/2-x,-y,1/2+z
x,-y,-z
1/2-x,y,1/2-z
-x,-y,-z
1/2+x,y,1/2-z
-x,y,z
1/2+x,-y,1/2+z
loop_
_atom_site_type_symbol
_atom_site_label
_atom_site_fract_x
_atom_site_fract_y
_atom_site_fract_z
Si Si1 0.812969 0.188093 0.654999
Si Si2 0.315417 0.346939 0.157501
Si Si3 0.311502 0.816854 0.844602
Si Si4 0.687799 0.343999 0.656483
Si Si5 0.310242 0.084971 0.998601
Si Si6 0.827580 0.497263 0.097848
O O1 0.750000 0.176809 0.750000
O O2 0.755502 0.267840 0.620820
O O3 0.764095 0.127249 0.586529
O O4 0.000000 0.189259 0.660440
O O5 0.250000 0.350355 0.250000
O O6 0.500000 0.346449 0.157919
O O7 0.264237 0.266048 0.125990
O O8 0.260649 0.422150 0.116120
O O9 0.250000 0.829280 0.750000
O O10 0.500000 0.819431 0.839850
O O11 0.260422 0.873360 0.916593
O O12 0.750000 0.342579 0.750000
O O13 0.500000 0.341328 0.651738
O O14 0.741585 0.423429 0.622522
O O15 0.500000 0.086081 0.998943
O O16 0.259503 0.000000 0.000000
O O17 0.000000 0.492141 0.138141
O O18 0.844690 0.500000 0.000000
#
# Coordination Sequence:
#
# PCOD9417065 Si02
#       6
#     8   8   8   8   8   8
#     4  10  20  35  58  83 111 145 183 227 272 324
#     4  10  20  34  54  77 104 139 181 226 268 320
#     4   9  19  36  57  83 111 143 185 225 272 327
#     4  10  20  35  54  75 103 140 180 221 266 317
#     4   9  19  36  58  83 112 146 180 220 273 331
#     4  10  22  36  50  75 109 143 179 222 271 318
#
# _framework density 19.212923
#
# number of rings (size 3 to 8) (size 9 to 14) (size 15 to 20)
#    0.000    2.333    0.000    3.000    2.333    4.333 
#    0.000    1.667    0.000    3.500    0.000    0.000 
#    0.000    0.000    0.000    0.000    0.000    0.000 
#
# Total GULP energy -267407.957161 kJ/mol
# GULP energy per Si atom -5570.999108 kJ/mol
# Density = 1.916919 g / cm^3
# Si number density = 19.212923 Si / 1000 Ang^3
#
#
#
# Elastic Constant Matrix: (Units=GPa)
#
#
# Indices 1 2 3 4 5 6 
#
# 1 32.6365 38.1849 19.7290 0.0000 0.0000 0.0000
# 2 38.1849 214.0448 99.2238 0.0000 0.0000 0.0000
# 3 19.7290 99.2238 90.8433 0.0000 0.0000 0.0000
# 4 0.0000 0.0000 0.0000 44.4707 0.0000 0.0000
# 5 0.0000 0.0000 0.0000 0.0000 13.8439 0.0000
# 6 0.0000 0.0000 0.0000 0.0000 0.0000 21.9095
#
#
#
# Elastic Compliance Matrix: (Units=1/GPa)
#
#
# Indices 1 2 3 4 5 6 
#
# 1 0.038861 -0.006118 -0.001757 0.000000 0.000000 0.000000
# 2 -0.006118 0.010427 -0.010060 0.000000 0.000000 0.000000
# 3 -0.001757 -0.010060 0.022378 0.000000 0.000000 0.000000
# 4 0.000000 0.000000 0.000000 0.022487 0.000000 0.000000
# 5 0.000000 0.000000 0.000000 0.000000 0.072234 0.000000
# 6 0.000000 0.000000 0.000000 0.000000 0.000000 0.045642
#
#
# Mechanical properties :
#
#
# Convention : Reuss Voigt Hill
#
# Bulk Modulus (GPa) = 27.93697 72.42220 50.17959
# Shear Modulus (GPa) = 19.24332 28.07064 23.65698
#
# Velocity S-wave (km/s) = 3.16821 3.82649 3.51280
# Velocity P-wave (km/s) = 5.28732 7.56961 6.52896
#
# Compressibility (1/GPa) = 0.03579487
#
# Stress axis : x y z
#
# Youngs Moduli (GPa) = 25.73278 95.90610 44.68732
#
# Poissons Ratio (x) = 0.58676 0.07852
# Poissons Ratio (y) = 0.15744 0.44956
# Poissons Ratio (z) = 0.04522 0.96482
#
# Static dielectric constant tensor:
#      x y z
#    x 1.801880 0.000000 0.000000 
#    y 0.000000 1.770430 0.000000 
#    z 0.000000 0.000000 1.633670 
# 
# From -- ./inp_files/20248.got.cif
#   From: 2010.05.17/outbox.cif.g08.bks.cpg/sg53_11_cif.got.tgz:20248.got - 2010.06.03 12:45:16.
