data_PCOD9417863
_publ_section_title
;
Structure prediction by ZEFSAII (Michael W. Deem and Ramdas Pophale) SiO2 
 PCOD9417863
Probable space group: P M N A
;
_chemical_formula_sum "Si O2"
_cell_formula_units_Z 48
_cell_length_a 8.595617
_cell_length_b 31.526167
_cell_length_c 9.340773
_cell_angle_alpha 90.000000
_cell_angle_beta 90.000000
_cell_angle_gamma 90.000000
_cell_volume 2531.226717
_symmetry_space_group_name_H-M "P M N A"
_symmetry_group_IT_number 53
_symmetry_cell_setting 'orthorhombic'
loop_
_space_group_symop_operation_xyz
x,y,z
1/2-x,-y,1/2+z
x,-y,-z
1/2-x,y,1/2-z
-x,-y,-z
1/2+x,y,1/2-z
-x,y,z
1/2+x,-y,1/2+z
loop_
_atom_site_type_symbol
_atom_site_label
_atom_site_fract_x
_atom_site_fract_y
_atom_site_fract_z
Si Si1 0.812563 0.621242 0.091395
Si Si2 0.312769 0.282043 0.589649
Si Si3 0.812202 0.041424 0.088651
Si Si4 0.812846 0.874897 0.088770
Si Si5 0.814300 0.795524 0.589633
Si Si6 0.312023 0.459000 0.409338
O O1 0.750000 0.612543 0.250000
O O2 0.767418 0.669430 0.052283
O O3 0.000000 0.620233 0.096294
O O4 0.759027 0.584538 0.984710
O O5 0.250000 0.273535 0.750000
O O6 0.500000 0.278897 0.590602
O O7 0.243503 0.248274 0.480408
O O8 0.750000 0.041375 0.250000
O O9 0.000000 0.040723 0.094923
O O10 0.765633 0.083624 0.002284
O O11 0.760533 0.000000 0.000000
O O12 0.750000 0.877423 0.250000
O O13 0.000000 0.872975 0.092601
O O14 0.748702 0.833542 0.008971
O O15 0.750000 0.800151 0.750000
O O16 0.000000 0.796651 0.592356
O O17 0.261887 0.500000 0.500000
O O18 0.250000 0.461921 0.250000
O O19 0.500000 0.458786 0.406780
#
# Coordination Sequence:
#
# PCOD9417863 Si02
#       6
#     8   8   8   8   8   8
#     4   9  19  35  56  82 111 144 183 227 273 327
#     4  10  20  37  59  84 114 148 188 231 279 334
#     4  10  22  39  60  88 120 154 193 236 283 336
#     4  11  23  40  62  88 118 153 194 237 285 339
#     4  12  25  41  60  84 115 150 190 236 287 339
#     4  10  21  36  54  79 110 143 182 226 273 327
#
# _framework density 18.963137
#
# number of rings (size 3 to 8) (size 9 to 14) (size 15 to 20)
#    0.000    1.667    0.000    4.500    0.000    5.333 
#    0.000    1.667    0.000    0.000    0.000    0.000 
#    0.000    0.000    0.000    0.000    0.000    0.000 
#
# Total GULP energy -268316.260873 kJ/mol
# GULP energy per Si atom -5589.922102 kJ/mol
# Density = 1.891998 g / cm^3
# Si number density = 18.963137 Si / 1000 Ang^3
#
#
#
# Elastic Constant Matrix: (Units=GPa)
#
#
# Indices 1 2 3 4 5 6 
#
# 1 55.0867 44.6218 45.0334 0.0000 0.0000 0.0000
# 2 44.6218 160.7033 126.2653 0.0000 0.0000 0.0000
# 3 45.0334 126.2653 193.7763 0.0000 0.0000 0.0000
# 4 0.0000 0.0000 0.0000 43.1764 0.0000 0.0000
# 5 0.0000 0.0000 0.0000 0.0000 39.9270 0.0000
# 6 0.0000 0.0000 0.0000 0.0000 0.0000 -55.7609
#
#
#
# Elastic Compliance Matrix: (Units=1/GPa)
#
#
# Indices 1 2 3 4 5 6 
#
# 1 0.024013 -0.004678 -0.002533 0.000000 0.000000 0.000000
# 2 -0.004678 0.013662 -0.007815 0.000000 0.000000 0.000000
# 3 -0.002533 -0.007815 0.010841 0.000000 0.000000 0.000000
# 4 0.000000 0.000000 0.000000 0.023161 0.000000 0.000000
# 5 0.000000 0.000000 0.000000 0.000000 0.025046 0.000000
# 6 0.000000 0.000000 0.000000 0.000000 0.000000 -0.017934
#
#
# Mechanical properties :
#
#
# Convention : Reuss Voigt Hill
#
# Bulk Modulus (GPa) = 54.15518 93.48971 73.82244
# Shear Modulus (GPa) = 43.48060 18.37823 30.92942
#
# Velocity S-wave (km/s) = 4.79362 3.11650 4.04298
# Velocity P-wave (km/s) = 7.69796 7.89670 7.79796
#
# Compressibility (1/GPa) = 0.01846545
#
# Stress axis : x y z
#
# Youngs Moduli (GPa) = 41.64481 73.19737 92.23918
#
# Poissons Ratio (x) = 0.34239 0.23360
# Poissons Ratio (y) = 0.19480 0.72084
# Poissons Ratio (z) = 0.10547 0.57203
#
# Static dielectric constant tensor:
#      x y z
#    x 1.639220 0.000000 0.000000 
#    y 0.000000 1.660710 0.000000 
#    z 0.000000 0.000000 1.603040 
# 
# From -- ./inp_files/6586.got.cif
#   From: 2010.05.17/outbox.cif.g08.bks.cpg/sg53_4_cif.got.tgz:6586.got - 2010.06.03 12:45:16.
