data_PCOD9417909
_publ_section_title
;
Structure prediction by ZEFSAII (Michael W. Deem and Ramdas Pophale) SiO2 
 PCOD9417909
Probable space group: P M N A
;
_chemical_formula_sum "Si O2"
_cell_formula_units_Z 64
_cell_length_a 8.919841
_cell_length_b 15.720230
_cell_length_c 24.285640
_cell_angle_alpha 90.000000
_cell_angle_beta 90.000000
_cell_angle_gamma 90.000000
_cell_volume 3405.379848
_symmetry_space_group_name_H-M "P M N A"
_symmetry_group_IT_number 53
_symmetry_cell_setting 'orthorhombic'
loop_
_space_group_symop_operation_xyz
x,y,z
1/2-x,-y,1/2+z
x,-y,-z
1/2-x,y,1/2-z
-x,-y,-z
1/2+x,y,1/2-z
-x,y,z
1/2+x,-y,1/2+z
loop_
_atom_site_type_symbol
_atom_site_label
_atom_site_fract_x
_atom_site_fract_y
_atom_site_fract_z
Si Si1 0.823362 0.650360 0.495526
Si Si2 0.680438 0.911453 0.115490
Si Si3 0.680760 0.253491 0.310168
Si Si4 0.679910 0.749056 0.189853
Si Si5 0.177265 0.853988 0.506088
Si Si6 0.679831 0.593284 0.608674
Si Si7 0.821535 0.599819 0.119580
Si Si8 0.820931 0.910921 0.880273
O O1 0.804735 0.752254 0.501355
O O2 0.761605 0.607620 0.550766
O O3 0.734534 0.619337 0.442123
O O4 0.000000 0.632906 0.488401
O O5 0.500000 0.918253 0.116426
O O6 0.722373 0.830070 0.152111
O O7 0.751885 0.998707 0.135872
O O8 0.724812 0.894604 0.051971
O O9 0.750000 0.260073 0.250000
O O10 0.500000 0.253880 0.306108
O O11 0.724379 0.332721 0.348969
O O12 0.726739 0.166132 0.340399
O O13 0.750000 0.757250 0.250000
O O14 0.500000 0.746214 0.193086
O O15 0.739501 0.664440 0.160232
O O16 0.265516 0.888431 0.558360
O O17 0.000000 0.872011 0.513927
O O18 0.500000 0.599722 0.599508
O O19 0.711418 0.499148 0.631137
O O20 0.000000 0.612681 0.123074
O O21 0.000000 0.915582 0.879532
#
# Coordination Sequence:
#
# PCOD9417909 Si02
#       8
#     8   8   8   8   8   8   8   8
#     4  11  21  36  61  92 124 159 200 245 297 359
#     4  10  22  41  62  86 121 159 194 241 297 358
#     4  10  23  42  61  83 116 154 199 248 294 349
#     4  11  24  44  65  88 120 159 205 253 303 357
#     4  10  20  37  60  87 120 159 196 236 297 359
#     4  10  22  41  61  88 124 159 198 246 303 359
#     4  11  23  39  63  91 123 162 199 246 304 358
#     4  11  23  38  60  91 121 153 196 247 297 353
#
# _framework density 18.793792
#
# number of rings (size 3 to 8) (size 9 to 14) (size 15 to 20)
#    0.000    1.500    2.500    2.250    0.000    8.500 
#    0.000    3.750    0.000    0.000    0.000    0.000 
#    0.000    0.000    0.000    0.000    0.000    0.000 
#
# Total GULP energy -357804.767434 kJ/mol
# GULP energy per Si atom -5590.699491 kJ/mol
# Density = 1.875102 g / cm^3
# Si number density = 18.793792 Si / 1000 Ang^3
#
#
#
# Elastic Constant Matrix: (Units=GPa)
#
#
# Indices 1 2 3 4 5 6 
#
# 1 27.6906 28.7333 17.4555 0.0000 0.0000 0.0000
# 2 28.7333 89.4107 14.8809 0.0000 0.0000 0.0000
# 3 17.4555 14.8809 84.0378 0.0000 0.0000 0.0000
# 4 0.0000 0.0000 0.0000 6.5399 0.0000 0.0000
# 5 0.0000 0.0000 0.0000 0.0000 29.0483 0.0000
# 6 0.0000 0.0000 0.0000 0.0000 0.0000 31.3655
#
#
#
# Elastic Compliance Matrix: (Units=1/GPa)
#
#
# Indices 1 2 3 4 5 6 
#
# 1 0.060652 -0.017923 -0.009424 0.000000 0.000000 0.000000
# 2 -0.017923 0.016820 0.000744 0.000000 0.000000 0.000000
# 3 -0.009424 0.000744 0.013725 0.000000 0.000000 0.000000
# 4 0.000000 0.000000 0.000000 0.152908 0.000000 0.000000
# 5 0.000000 0.000000 0.000000 0.000000 0.034425 0.000000
# 6 0.000000 0.000000 0.000000 0.000000 0.000000 0.031882
#
#
# Mechanical properties :
#
#
# Convention : Reuss Voigt Hill
#
# Bulk Modulus (GPa) = 26.32158 35.91983 31.12070
# Shear Modulus (GPa) = 13.28790 22.72869 18.00830
#
# Velocity S-wave (km/s) = 2.66190 3.48138 3.09885
# Velocity P-wave (km/s) = 4.84598 5.94256 5.42206
#
# Compressibility (1/GPa) = 0.03799165
#
# Stress axis : x y z
#
# Youngs Moduli (GPa) = 16.48751 59.45241 72.85896
#
# Poissons Ratio (x) = 1.06555 0.68665
# Poissons Ratio (y) = 0.29550 -0.05423
# Poissons Ratio (z) = 0.15538 -0.04425
#
# Static dielectric constant tensor:
#      x y z
#    x 1.633370 0.000000 0.000000 
#    y 0.000000 1.654750 0.000000 
#    z 0.000000 0.000000 1.608230 
# 
# From -- ./inp_files/34147.got.cif
#   From: 2010.05.17/outbox.cif.g08.bks.cpg/sg53_18_cif.got.tgz:34147.got - 2010.06.03 12:45:16.
