data_PCOD9417274
_publ_section_title
;
Structure prediction by ZEFSAII (Michael W. Deem and Ramdas Pophale) SiO2 
 PCOD9417274
Probable space group: P M N A
;
_chemical_formula_sum "Si O2"
_cell_formula_units_Z 56
_cell_length_a 16.538176
_cell_length_b 8.304608
_cell_length_c 21.230931
_cell_angle_alpha 90.000000
_cell_angle_beta 90.000000
_cell_angle_gamma 90.000000
_cell_volume 2915.921215
_symmetry_space_group_name_H-M "P M N A"
_symmetry_group_IT_number 53
_symmetry_cell_setting 'orthorhombic'
loop_
_space_group_symop_operation_xyz
x,y,z
1/2-x,-y,1/2+z
x,-y,-z
1/2-x,y,1/2-z
-x,-y,-z
1/2+x,y,1/2-z
-x,y,z
1/2+x,-y,1/2+z
loop_
_atom_site_type_symbol
_atom_site_label
_atom_site_fract_x
_atom_site_fract_y
_atom_site_fract_z
Si Si1 0.218722 0.096424 0.943451
Si Si2 0.901368 0.481256 0.292030
Si Si3 0.588562 0.326892 0.532614
Si Si4 0.695621 0.796894 0.184764
Si Si5 0.094384 0.477810 0.150194
Si Si6 0.904391 0.131698 0.129175
Si Si7 0.595517 0.886646 0.780486
O O1 0.166945 0.227536 0.981478
O O2 0.263146 0.172772 0.883336
O O3 0.150043 0.987385 0.910139
O O4 0.263812 0.000000 0.000000
O O5 0.856116 0.631897 0.323045
O O6 0.873268 0.501270 0.219278
O O7 0.881120 0.292756 0.306055
O O8 0.000000 0.497517 0.297110
O O9 0.586752 0.500000 0.500000
O O10 0.500000 0.251877 0.520760
O O11 0.596802 0.367984 0.606749
O O12 0.750000 0.786974 0.250000
O O13 0.642686 0.959241 0.194295
O O14 0.123989 0.315560 0.117507
O O15 0.000000 0.439440 0.160352
O O16 0.893667 0.112534 0.204546
O O17 0.000000 0.109885 0.115667
O O18 0.500000 0.904296 0.792455
#
# Coordination Sequence:
#
# PCOD9417274 Si02
#       7
#     8   8   8   8   8   8   8
#     4  12  25  38  51  81 123 162 199 235 301 362
#     4   9  19  37  61  87 113 148 200 253 300 351
#     4  10  20  35  54  76 108 158 210 240 270 335
#     4  12  23  38  58  91 124 161 195 243 309 368
#     4   8  15  29  52  81 107 137 186 243 285 325
#     4   9  17  33  57  83 116 155 195 236 282 345
#     4   9  19  38  64  91 117 154 201 254 300 349
#
# _framework density 19.204909000000001
#
# number of rings (size 3 to 8) (size 9 to 14) (size 15 to 20)
#    0.000    2.143    1.429    4.286    0.000    2.857 
#    5.143    0.000    0.000    1.714    0.000    2.000 
#    0.000    0.000    0.000    0.000    0.000    0.000 
#
# Total GULP energy -311791.425667 kJ/mol
# GULP energy per Si atom -5567.704030 kJ/mol
# Density = 1.916120 g / cm^3
# Si number density = 19.204909 Si / 1000 Ang^3
#
#
#
# Elastic Constant Matrix: (Units=GPa)
#
#
# Indices 1 2 3 4 5 6 
#
# 1 47.5872 52.8369 31.1494 0.0000 0.0000 0.0000
# 2 52.8369 104.7958 38.8607 0.0000 0.0000 0.0000
# 3 31.1494 38.8607 66.7136 0.0000 0.0000 0.0000
# 4 0.0000 0.0000 0.0000 25.0937 0.0000 0.0000
# 5 0.0000 0.0000 0.0000 0.0000 135.0340 0.0000
# 6 0.0000 0.0000 0.0000 0.0000 0.0000 34.2307
#
#
#
# Elastic Compliance Matrix: (Units=1/GPa)
#
#
# Indices 1 2 3 4 5 6 
#
# 1 0.054365 -0.022956 -0.012012 0.000000 0.000000 0.000000
# 2 -0.022956 0.021865 -0.002018 0.000000 0.000000 0.000000
# 3 -0.012012 -0.002018 0.021773 0.000000 0.000000 0.000000
# 4 0.000000 0.000000 0.000000 0.039851 0.000000 0.000000
# 5 0.000000 0.000000 0.000000 0.000000 0.007406 0.000000
# 6 0.000000 0.000000 0.000000 0.000000 0.000000 0.029214
#
#
# Mechanical properties :
#
#
# Convention : Reuss Voigt Hill
#
# Bulk Modulus (GPa) = 41.61136 51.64340 46.62738
# Shear Modulus (GPa) = 19.49657 45.28831 32.39244
#
# Velocity S-wave (km/s) = 3.18966 4.86136 4.11137
# Velocity P-wave (km/s) = 5.93964 7.64588 6.84612
#
# Compressibility (1/GPa) = 0.02403190
#
# Stress axis : x y z
#
# Youngs Moduli (GPa) = 18.39408 45.73552 45.92779
#
# Poissons Ratio (x) = 1.04991 0.55168
# Poissons Ratio (y) = 0.42226 0.09267
# Poissons Ratio (z) = 0.22095 0.09229
#
# Static dielectric constant tensor:
#      x y z
#    x 1.693300 0.000000 0.000000 
#    y 0.000000 1.745820 0.000000 
#    z 0.000000 0.000000 1.716060 
# 
# From -- ./inp_files/32478.got.cif
#   From: 2010.05.17/outbox.cif.g08.bks.cpg/sg53_17_cif.got.tgz:32478.got - 2010.06.03 12:45:16.
