data_PCOD9417618
_publ_section_title
;
Structure prediction by ZEFSAII (Michael W. Deem and Ramdas Pophale) SiO2 
 PCOD9417618
Probable space group: P M N A
;
_chemical_formula_sum "Si O2"
_cell_formula_units_Z 40
_cell_length_a 8.628843
_cell_length_b 26.297149
_cell_length_c 9.354948
_cell_angle_alpha 90.000000
_cell_angle_beta 90.000000
_cell_angle_gamma 90.000000
_cell_volume 2122.768390
_symmetry_space_group_name_H-M "P M N A"
_symmetry_group_IT_number 53
_symmetry_cell_setting 'orthorhombic'
loop_
_space_group_symop_operation_xyz
x,y,z
1/2-x,-y,1/2+z
x,-y,-z
1/2-x,y,1/2-z
-x,-y,-z
1/2+x,y,1/2-z
-x,y,z
1/2+x,-y,1/2+z
loop_
_atom_site_type_symbol
_atom_site_label
_atom_site_fract_x
_atom_site_fract_y
_atom_site_fract_z
Si Si1 0.186529 0.246419 0.909350
Si Si2 0.814849 0.356598 0.590246
Si Si3 0.185919 0.449840 0.090507
Si Si4 0.186961 0.148224 0.090326
Si Si5 0.312716 0.950359 0.410393
O O1 0.250000 0.236198 0.750000
O O2 0.252807 0.301099 0.954576
O O3 0.000000 0.249212 0.903438
O O4 0.233249 0.200833 0.014043
O O5 0.750000 0.365956 0.750000
O O6 0.755328 0.400501 0.486581
O O7 0.000000 0.355941 0.595345
O O8 0.250000 0.454424 0.250000
O O9 0.000000 0.445770 0.093599
O O10 0.227824 0.500000 0.000000
O O11 0.250000 0.144424 0.250000
O O12 0.000000 0.147246 0.095697
O O13 0.237799 0.100403 0.994065
O O14 0.250000 0.951601 0.250000
O O15 0.500000 0.950217 0.404366
O O16 0.263976 0.000000 0.500000
#
# Coordination Sequence:
#
# PCOD9417618 Si02
#       5
#     8   8   8   8   8
#     4  10  20  36  57  82 112 146 189 234 280 336
#     4  11  22  38  61  87 117 152 191 235 285 338
#     4  11  24  41  62  88 118 152 191 234 282 337
#     4  10  22  37  55  81 112 147 187 232 279 333
#     4  10  21  37  57  83 113 145 185 230 278 334
#
# _framework density 18.843318
#
# number of rings (size 3 to 8) (size 9 to 14) (size 15 to 20)
#    0.000    1.600    0.000    6.000    0.000    6.800 
#    0.000    2.000    0.000    0.000    0.000    0.000 
#    0.000    0.000    0.000    0.000    0.000    0.000 
#
# Total GULP energy -223636.556655 kJ/mol
# GULP energy per Si atom -5590.913916 kJ/mol
# Density = 1.880043 g / cm^3
# Si number density = 18.843318 Si / 1000 Ang^3
#
#
#
# Elastic Constant Matrix: (Units=GPa)
#
#
# Indices 1 2 3 4 5 6 
#
# 1 66.2239 61.8898 52.2477 0.0000 0.0000 0.0000
# 2 61.8898 191.5639 143.1270 0.0000 0.0000 0.0000
# 3 52.2477 143.1270 177.5636 0.0000 0.0000 0.0000
# 4 0.0000 0.0000 0.0000 26.0025 0.0000 0.0000
# 5 0.0000 0.0000 0.0000 0.0000 38.2539 0.0000
# 6 0.0000 0.0000 0.0000 0.0000 0.0000 -15.4376
#
#
#
# Elastic Compliance Matrix: (Units=1/GPa)
#
#
# Indices 1 2 3 4 5 6 
#
# 1 0.021873 -0.005677 -0.001860 0.000000 0.000000 0.000000
# 2 -0.005677 0.014598 -0.010096 0.000000 0.000000 0.000000
# 3 -0.001860 -0.010096 0.014317 0.000000 0.000000 0.000000
# 4 0.000000 0.000000 0.000000 0.038458 0.000000 0.000000
# 5 0.000000 0.000000 0.000000 0.000000 0.026141 0.000000
# 6 0.000000 0.000000 0.000000 0.000000 0.000000 -0.064777
#
#
# Mechanical properties :
#
#
# Convention : Reuss Voigt Hill
#
# Bulk Modulus (GPa) = 64.42632 105.54229 84.98430
# Shear Modulus (GPa) = 54.91453 21.63621 38.27537
#
# Velocity S-wave (km/s) = 5.40426 3.39221 4.51182
# Velocity P-wave (km/s) = 8.55605 8.45428 8.50532
#
# Compressibility (1/GPa) = 0.01552161
#
# Stress axis : x y z
#
# Youngs Moduli (GPa) = 45.71786 68.50460 69.84572
#
# Poissons Ratio (x) = 0.38889 0.12994
# Poissons Ratio (y) = 0.25953 0.70517
# Poissons Ratio (z) = 0.08505 0.69163
#
# Static dielectric constant tensor:
#      x y z
#    x 1.635780 0.000000 0.000000 
#    y 0.000000 1.644690 0.000000 
#    z 0.000000 0.000000 1.603500 
# 
# From -- ./inp_files/6293.got.cif
#   From: 2010.05.17/outbox.cif.g08.bks.cpg/sg53_4_cif.got.tgz:6293.got - 2010.06.03 12:45:16.
