data_PCOD9417253
_publ_section_title
;
Structure prediction by ZEFSAII (Michael W. Deem and Ramdas Pophale) SiO2 
 PCOD9417253
Probable space group: P M N A
;
_chemical_formula_sum "Si O2"
_cell_formula_units_Z 58
_cell_length_a 9.122422
_cell_length_b 21.633344
_cell_length_c 16.259809
_cell_angle_alpha 90.000000
_cell_angle_beta 90.000000
_cell_angle_gamma 90.000000
_cell_volume 3208.848807
_symmetry_space_group_name_H-M "P M N A"
_symmetry_group_IT_number 53
_symmetry_cell_setting 'orthorhombic'
loop_
_space_group_symop_operation_xyz
x,y,z
1/2-x,-y,1/2+z
x,-y,-z
1/2-x,y,1/2-z
-x,-y,-z
1/2+x,y,1/2-z
-x,y,z
1/2+x,-y,1/2+z
loop_
_atom_site_type_symbol
_atom_site_label
_atom_site_fract_x
_atom_site_fract_y
_atom_site_fract_z
Si Si1 0.672935 0.180335 0.835191
Si Si2 0.824570 0.566658 0.338726
Si Si3 0.675490 0.570658 0.839657
Si Si4 0.326278 0.306004 0.921210
Si Si5 0.825038 0.182836 0.165977
Si Si6 0.673415 0.689046 0.587646
Si Si7 0.162875 0.872214 0.007278
Si Si8 0.000000 0.000000 0.000000
O O1 0.750000 0.162696 0.750000
O O2 0.500000 0.168229 0.830088
O O3 0.693585 0.253715 0.852332
O O4 0.740877 0.146686 0.914812
O O5 0.750000 0.570850 0.250000
O O6 0.792257 0.498283 0.373715
O O7 0.781372 0.625761 0.391973
O O8 0.000000 0.570092 0.327947
O O9 0.750000 0.573630 0.750000
O O10 0.500000 0.577111 0.832661
O O11 0.741409 0.626550 0.891113
O O12 0.500000 0.307022 0.942240
O O13 0.231780 0.288330 0.999941
O O14 0.750000 0.161800 0.250000
O O15 0.796315 0.255713 0.151505
O O16 0.000000 0.173743 0.172846
O O17 0.777303 0.148856 0.081750
O O18 0.500000 0.677962 0.586460
O O19 0.000000 0.841231 0.016003
O O20 0.125247 0.944738 0.005238
#
# Coordination Sequence:
#
# PCOD9417253 Si02
#       8
#     8   8   8   8   8   8   8   2
#     4  11  22  36  62  95 127 163 205 254 301 358
#     4   9  19  35  53  73 103 145 191 246 307 366
#     4  10  20  35  53  73 104 144 193 248 305 367
#     4  10  21  36  54  81 113 151 198 249 306 359
#     4  10  21  36  59  87 120 154 195 245 297 353
#     4  11  22  35  53  80 109 152 197 249 306 359
#     4   9  19  41  65  90 121 165 199 236 302 347
#     4   8  20  40  78  84 128 170 196 240 300 340
#
# _framework density 18.075019000000001
#
# number of rings (size 3 to 8) (size 9 to 14) (size 15 to 20)
#    0.414    1.655    1.379    2.069    0.000    4.966 
#    0.000    3.793    0.000    0.000    0.000    0.000 
#    0.000    0.000    0.000    0.000    0.000    0.000 
#
# Total GULP energy -322871.022621 kJ/mol
# GULP energy per Si atom -5566.741769 kJ/mol
# Density = 1.803388 g / cm^3
# Si number density = 18.075019 Si / 1000 Ang^3
#
#
#
# Elastic Constant Matrix: (Units=GPa)
#
#
# Indices 1 2 3 4 5 6 
#
# 1 54.9958 41.5383 54.2671 0.0000 0.0000 0.0000
# 2 41.5383 99.7274 43.9541 0.0000 0.0000 0.0000
# 3 54.2671 43.9541 125.2873 0.0000 0.0000 0.0000
# 4 0.0000 0.0000 0.0000 4.4294 0.0000 0.0000
# 5 0.0000 0.0000 0.0000 0.0000 31.3963 0.0000
# 6 0.0000 0.0000 0.0000 0.0000 0.0000 22.9336
#
#
#
# Elastic Compliance Matrix: (Units=1/GPa)
#
#
# Indices 1 2 3 4 5 6 
#
# 1 0.039238 -0.010472 -0.013322 0.000000 0.000000 0.000000
# 2 -0.010472 0.014656 -0.000606 0.000000 0.000000 0.000000
# 3 -0.013322 -0.000606 0.013964 0.000000 0.000000 0.000000
# 4 0.000000 0.000000 0.000000 0.225765 0.000000 0.000000
# 5 0.000000 0.000000 0.000000 0.000000 0.031851 0.000000
# 6 0.000000 0.000000 0.000000 0.000000 0.000000 0.043604
#
#
# Mechanical properties :
#
#
# Convention : Reuss Voigt Hill
#
# Bulk Modulus (GPa) = 52.46782 62.16997 57.31890
# Shear Modulus (GPa) = 11.78606 21.10191 16.44398
#
# Velocity S-wave (km/s) = 2.55632 3.42052 3.01950
# Velocity P-wave (km/s) = 6.14849 7.07603 6.62850
#
# Compressibility (1/GPa) = 0.01905930
#
# Stress axis : x y z
#
# Youngs Moduli (GPa) = 25.48566 68.23084 71.61051
#
# Poissons Ratio (x) = 0.71450 0.95397
# Poissons Ratio (y) = 0.26688 0.04339
# Poissons Ratio (z) = 0.33951 0.04135
#
# Static dielectric constant tensor:
#      x y z
#    x 1.607140 0.000000 0.000000 
#    y 0.000000 1.626390 0.000000 
#    z 0.000000 0.000000 1.623850 
# 
# From -- ./inp_files/20707.got.cif
#   From: 2010.05.17/outbox.cif.g08.bks.cpg/sg53_11_cif.got.tgz:20707.got - 2010.06.03 12:45:16.
