data_PCOD9417726
_publ_section_title
;
Structure prediction by ZEFSAII (Michael W. Deem and Ramdas Pophale) SiO2 
 PCOD9417726
Probable space group: P M N A
;
_chemical_formula_sum "Si O2"
_cell_formula_units_Z 64
_cell_length_a 13.840824
_cell_length_b 10.584377
_cell_length_c 21.931333
_cell_angle_alpha 90.000000
_cell_angle_beta 90.000000
_cell_angle_gamma 90.000000
_cell_volume 3212.863507
_symmetry_space_group_name_H-M "P M N A"
_symmetry_group_IT_number 53
_symmetry_cell_setting 'orthorhombic'
loop_
_space_group_symop_operation_xyz
x,y,z
1/2-x,-y,1/2+z
x,-y,-z
1/2-x,y,1/2-z
-x,-y,-z
1/2+x,y,1/2-z
-x,y,z
1/2+x,-y,1/2+z
loop_
_atom_site_type_symbol
_atom_site_label
_atom_site_fract_x
_atom_site_fract_y
_atom_site_fract_z
Si Si1 0.111014 0.267387 0.008243
Si Si2 0.803690 0.371700 0.887815
Si Si3 0.885122 0.125443 0.211318
Si Si4 0.387189 0.375205 0.355661
Si Si5 0.309454 0.861354 0.976142
Si Si6 0.731073 0.878999 0.320269
Si Si7 0.385611 0.059062 0.148054
Si Si8 0.109350 0.380143 0.545213
O O1 0.137773 0.357837 0.951498
O O2 0.000000 0.222842 0.002447
O O3 0.120222 0.337573 0.073020
O O4 0.196048 0.163253 0.010452
O O5 0.837800 0.490188 0.848953
O O6 0.814656 0.237914 0.854672
O O7 0.691799 0.390933 0.904409
O O8 0.849783 0.257428 0.183735
O O9 0.869961 0.114184 0.283979
O O10 0.000000 0.117202 0.199892
O O11 0.834503 0.004831 0.180672
O O12 0.500000 0.389576 0.340842
O O13 0.336365 0.860207 0.904992
O O14 0.366208 0.748246 0.008797
O O15 0.336945 0.000000 0.000000
O O16 0.750000 0.845399 0.250000
O O17 0.831258 0.924049 0.350862
O O18 0.500000 0.048532 0.137487
O O19 0.118930 0.500000 0.500000
O O20 0.000000 0.377198 0.568317
#
# Coordination Sequence:
#
# PCOD9417726 Si02
#       8
#     8   8   8   8   8   8   8   8
#     4  10  21  36  56  85 121 156 187 229 293 360
#     4  11  21  36  59  85 115 151 193 235 288 348
#     4   9  20  39  62  85 113 152 195 240 292 348
#     4  10  20  36  59  86 114 148 192 239 286 341
#     4  11  22  36  59  91 118 146 191 243 291 343
#     4  10  22  39  57  83 116 151 190 233 288 349
#     4  10  20  37  61  85 112 151 197 242 289 342
#     4  10  22  39  57  80 114 151 186 231 289 347
#
# _framework density 19.919924000000002
#
# number of rings (size 3 to 8) (size 9 to 14) (size 15 to 20)
#    0.000    1.875    0.000    4.875    0.000    4.750 
#    0.000    5.625    0.000    1.500    0.000    0.000 
#    0.000    0.000    0.000    0.000    0.000    0.000 
#
# Total GULP energy -357529.944694 kJ/mol
# GULP energy per Si atom -5586.405386 kJ/mol
# Density = 1.987459 g / cm^3
# Si number density = 19.919924 Si / 1000 Ang^3
#
#
#
# Elastic Constant Matrix: (Units=GPa)
#
#
# Indices 1 2 3 4 5 6 
#
# 1 90.4712 49.0689 24.9105 0.0000 0.0000 0.0000
# 2 49.0689 148.5767 42.0100 0.0000 0.0000 0.0000
# 3 24.9105 42.0100 45.9345 0.0000 0.0000 0.0000
# 4 0.0000 0.0000 0.0000 12.5133 0.0000 0.0000
# 5 0.0000 0.0000 0.0000 0.0000 3.4591 0.0000
# 6 0.0000 0.0000 0.0000 0.0000 0.0000 -0.0002
#
#
#
# Elastic Compliance Matrix: (Units=1/GPa)
#
#
# Indices 1 2 3 4 5 6 
#
# 1 0.014146 -0.003376 -0.004584 0.000000 0.000000 0.000000
# 2 -0.003376 0.009884 -0.007208 0.000000 0.000000 0.000000
# 3 -0.004584 -0.007208 0.030849 0.000000 0.000000 0.000000
# 4 0.000000 0.000000 0.000000 0.079915 0.000000 0.000000
# 5 0.000000 0.000000 0.000000 0.000000 0.289096 0.000000
# 6 0.000000 0.000000 0.000000 0.000000 0.000000**********
#
#
# Mechanical properties :
#
#
# Convention : Reuss Voigt Hill
#
# Bulk Modulus (GPa) = 40.74693 57.44016 49.09354
# Shear Modulus (GPa) = -0.00101 14.46063 7.22981
#
# Velocity S-wave (km/s) = -0.02260 2.69725 1.90717
# Velocity P-wave (km/s) = 4.52759 6.21275 5.43587
#
# Compressibility (1/GPa) = 0.02454173
#
# Stress axis : x y z
#
# Youngs Moduli (GPa) = 70.68927 101.17756 32.41608
#
# Poissons Ratio (x) = 0.34155 0.14861
# Poissons Ratio (y) = 0.23863 0.23367
# Poissons Ratio (z) = 0.32406 0.72934
#
# Static dielectric constant tensor:
#      x y z
#    x 1.724530 0.000000 0.000000 
#    y 0.000000 1.687810 0.000000 
#    z 0.000000 0.000000 1.711710 
# 
# From -- ./inp_files/35341.got.cif
#   From: 2010.05.17/outbox.cif.g08.bks.cpg/sg53_18_cif.got.tgz:35341.got - 2010.06.03 12:45:16.
