data_PCOD9417941
_publ_section_title
;
Structure prediction by ZEFSAII (Michael W. Deem and Ramdas Pophale) SiO2 
 PCOD9417941
Probable space group: P M N A
;
_chemical_formula_sum "Si O2"
_cell_formula_units_Z 56
_cell_length_a 14.183075
_cell_length_b 8.489541
_cell_length_c 21.170108
_cell_angle_alpha 90.000000
_cell_angle_beta 90.000000
_cell_angle_gamma 90.000000
_cell_volume 2549.046061
_symmetry_space_group_name_H-M "P M N A"
_symmetry_group_IT_number 53
_symmetry_cell_setting 'orthorhombic'
loop_
_space_group_symop_operation_xyz
x,y,z
1/2-x,-y,1/2+z
x,-y,-z
1/2-x,y,1/2-z
-x,-y,-z
1/2+x,y,1/2-z
-x,y,z
1/2+x,-y,1/2+z
loop_
_atom_site_type_symbol
_atom_site_label
_atom_site_fract_x
_atom_site_fract_y
_atom_site_fract_z
Si Si1 0.112631 0.259086 0.243903
Si Si2 0.887840 0.938494 0.310901
Si Si3 0.277390 0.920070 0.068782
Si Si4 0.107465 0.122631 0.108106
Si Si5 0.211479 0.673976 0.984044
Si Si6 0.890117 0.411242 0.701173
Si Si7 0.602956 0.579270 0.930631
O O1 0.124068 0.228826 0.169720
O O2 0.148653 0.429781 0.266079
O O3 0.000000 0.263051 0.257128
O O4 0.148211 0.100774 0.279350
O O5 0.863857 0.942082 0.384999
O O6 0.850728 0.765500 0.288633
O O7 0.000000 0.936436 0.300907
O O8 0.185962 0.988608 0.104138
O O9 0.251871 0.744800 0.048500
O O10 0.290083 0.000000 0.000000
O O11 0.128550 0.224261 0.045672
O O12 0.000000 0.065087 0.110200
O O13 0.299990 0.676668 0.934639
O O14 0.180664 0.500000 0.000000
O O15 0.890192 0.456956 0.626835
O O16 0.000000 0.400651 0.720952
O O17 0.500000 0.661142 0.922344
O O18 0.600494 0.500000 0.000000
#
# Coordination Sequence:
#
# PCOD9417941 Si02
#       7
#     8   8   8   8   8   8   8
#     4   9  20  39  63  88 118 164 212 254 308 374
#     4  10  20  37  61  93 133 166 199 248 303 375
#     4  10  23  39  59  89 122 163 206 252 307 373
#     4  10  23  45  64  80 115 164 210 267 328 364
#     4  10  21  38  61  93 125 149 205 262 305 382
#     4   9  18  34  58  89 125 163 203 243 294 366
#     4   9  17  31  56  88 128 169 192 234 307 373
#
# _framework density 21.969003000000001
#
# number of rings (size 3 to 8) (size 9 to 14) (size 15 to 20)
#    0.000    2.429    0.000    1.714    4.000    5.429 
#    2.571    0.000    3.143    0.000    0.000    0.000 
#    0.000    0.000    0.000    0.000    0.000    0.000 
#
# Total GULP energy -312191.564860 kJ/mol
# GULP energy per Si atom -5574.849373 kJ/mol
# Density = 2.191900 g / cm^3
# Si number density = 21.969003 Si / 1000 Ang^3
#
#
#
# Elastic Constant Matrix: (Units=GPa)
#
#
# Indices 1 2 3 4 5 6 
#
# 1 56.6616 16.3962 11.1084 0.0000 0.0000 0.0000
# 2 16.3962 109.5225 6.8118 0.0000 0.0000 0.0000
# 3 11.1084 6.8118 39.9731 0.0000 0.0000 0.0000
# 4 0.0000 0.0000 0.0000 -459.0288 0.0000 0.0000
# 5 0.0000 0.0000 0.0000 0.0000 26.6238 0.0000
# 6 0.0000 0.0000 0.0000 0.0000 0.0000 5.4293
#
#
#
# Elastic Compliance Matrix: (Units=1/GPa)
#
#
# Indices 1 2 3 4 5 6 
#
# 1 0.019367 -0.002592 -0.004940 0.000000 0.000000 0.000000
# 2 -0.002592 0.009575 -0.000911 0.000000 0.000000 0.000000
# 3 -0.004940 -0.000911 0.026545 0.000000 0.000000 0.000000
# 4 0.000000 0.000000 0.000000 -0.002179 0.000000 0.000000
# 5 0.000000 0.000000 0.000000 0.000000 0.037560 0.000000
# 6 0.000000 0.000000 0.000000 0.000000 0.000000 0.184186
#
#
# Mechanical properties :
#
#
# Convention : Reuss Voigt Hill
#
# Bulk Modulus (GPa) = 25.90685 30.53222 28.21953
# Shear Modulus (GPa) = 16.40368 -73.93908 -28.76770
#
# Velocity S-wave (km/s) = 2.73550 -5.80768 -3.62258
# Velocity P-wave (km/s) = 4.66855 5.57173 2.15045
#
# Compressibility (1/GPa) = 0.03859983
#
# Stress axis : x y z
#
# Youngs Moduli (GPa) = 51.63347 104.43550 37.67178
#
# Poissons Ratio (x) = 0.27071 0.18611
# Poissons Ratio (y) = 0.13384 0.03433
# Poissons Ratio (z) = 0.25509 0.09518
#
# Static dielectric constant tensor:
#      x y z
#    x 1.818820 0.000000 0.000000 
#    y 0.000000 1.878810 0.000000 
#    z 0.000000 0.000000 1.771610 
# 
# From -- ./inp_files/32481.got.cif
#   From: 2010.05.17/outbox.cif.g08.bks.cpg/sg53_17_cif.got.tgz:32481.got - 2010.06.03 12:45:16.
