data_PCOD9417743
_publ_section_title
;
Structure prediction by ZEFSAII (Michael W. Deem and Ramdas Pophale) SiO2 
 PCOD9417743
Probable space group: P M N A
;
_chemical_formula_sum "Si O2"
_cell_formula_units_Z 36
_cell_length_a 14.914567
_cell_length_b 12.791487
_cell_length_c 6.944820
_cell_angle_alpha 90.000000
_cell_angle_beta 90.000000
_cell_angle_gamma 90.000000
_cell_volume 1324.929217
_symmetry_space_group_name_H-M "P M N A"
_symmetry_group_IT_number 53
_symmetry_cell_setting 'orthorhombic'
loop_
_space_group_symop_operation_xyz
x,y,z
1/2-x,-y,1/2+z
x,-y,-z
1/2-x,y,1/2-z
-x,-y,-z
1/2+x,y,1/2-z
-x,y,z
1/2+x,-y,1/2+z
loop_
_atom_site_type_symbol
_atom_site_label
_atom_site_fract_x
_atom_site_fract_y
_atom_site_fract_z
Si Si1 0.750000 0.855150 0.750000
Si Si2 0.597006 0.019397 0.770320
Si Si3 0.398097 0.710083 0.732435
Si Si4 0.854555 0.746234 0.307131
Si Si5 0.642467 0.480313 0.775817
O O1 0.812942 0.767111 0.859821
O O2 0.675256 0.945340 0.701602
O O3 0.500000 0.984660 0.703162
O O4 0.607195 0.142887 0.742902
O O5 0.600602 0.000000 0.000000
O O6 0.500000 0.744312 0.696456
O O7 0.392536 0.587055 0.686351
O O8 0.375462 0.738520 0.960434
O O9 0.750000 0.749434 0.250000
O O10 0.891180 0.635810 0.229156
O O11 0.750000 0.479870 0.750000
O O12 0.622577 0.500000 0.000000
#
# Coordination Sequence:
#
# PCOD9417743 Si02
#       5
#     4   8   8   8   8
#     4  12  22  36  58  90 120 156 198 250 296 352
#     4  11  22  37  59  86 116 156 202 244 292 356
#     4  11  22  38  64  90 116 158 208 246 290 363
#     4  10  20  36  59  90 122 151 190 250 304 352
#     4   9  19  35  59  93 120 155 200 251 309 364
#
# _framework density 27.171263
#
# number of rings (size 3 to 8) (size 9 to 14) (size 15 to 20)
#    0.000    1.556    4.444    1.333    0.000    4.889 
#    0.000    0.000    0.000   15.333    0.000    0.000 
#    0.000    0.000    0.000    0.000    0.000    0.000 
#
# Total GULP energy -200596.008214 kJ/mol
# GULP energy per Si atom -5572.111339 kJ/mol
# Density = 2.710942 g / cm^3
# Si number density = 27.171263 Si / 1000 Ang^3
#
#
#
# Elastic Constant Matrix: (Units=GPa)
#
#
# Indices 1 2 3 4 5 6 
#
# 1 202.4558 103.7135 -12.4751 0.0000 0.0000 0.0000
# 2 103.7135 283.0625 3.5224 0.0000 0.0000 0.0000
# 3 -12.4751 3.5224 109.5720 0.0000 0.0000 0.0000
# 4 0.0000 0.0000 0.0000 10.7272 0.0000 0.0000
# 5 0.0000 0.0000 0.0000 0.0000 35.0768 0.0000
# 6 0.0000 0.0000 0.0000 0.0000 0.0000 27.8903
#
#
#
# Elastic Compliance Matrix: (Units=1/GPa)
#
#
# Indices 1 2 3 4 5 6 
#
# 1 0.006145 -0.002261 0.000772 0.000000 0.000000 0.000000
# 2 -0.002261 0.004366 -0.000398 0.000000 0.000000 0.000000
# 3 0.000772 -0.000398 0.009227 0.000000 0.000000 0.000000
# 4 0.000000 0.000000 0.000000 0.093221 0.000000 0.000000
# 5 0.000000 0.000000 0.000000 0.000000 0.028509 0.000000
# 6 0.000000 0.000000 0.000000 0.000000 0.000000 0.035855
#
#
# Mechanical properties :
#
#
# Convention : Reuss Voigt Hill
#
# Bulk Modulus (GPa) = 62.63575 87.17911 74.90743
# Shear Modulus (GPa) = 26.82142 48.09416 37.45779
#
# Velocity S-wave (km/s) = 3.14526 4.21175 3.71695
# Velocity P-wave (km/s) = 6.02432 7.47037 6.78598
#
# Compressibility (1/GPa) = 0.01596532
#
# Stress axis : x y z
#
# Youngs Moduli (GPa) = 162.72526 229.02922 108.37588
#
# Poissons Ratio (x) = 0.51789 -0.08370
# Poissons Ratio (y) = 0.36796 0.04311
# Poissons Ratio (z) = -0.12568 0.09111
#
# Static dielectric constant tensor:
#      x y z
#    x 2.163600 0.000000 0.000000 
#    y 0.000000 2.066690 0.000000 
#    z 0.000000 0.000000 2.355250 
# 
# From -- ./inp_files/15688.got.cif
#   From: 2010.05.17/outbox.cif.g08.bks.cpg/sg53_8_cif.got.tgz:15688.got - 2010.06.03 12:45:16.
