data_PCOD9417391
_publ_section_title
;
Structure prediction by ZEFSAII (Michael W. Deem and Ramdas Pophale) SiO2 
 PCOD9417391
Probable space group: P M N A
;
_chemical_formula_sum "Si O2"
_cell_formula_units_Z 40
_cell_length_a 20.150886
_cell_length_b 5.152726
_cell_length_c 20.103703
_cell_angle_alpha 90.000000
_cell_angle_beta 90.000000
_cell_angle_gamma 90.000000
_cell_volume 2087.407574
_symmetry_space_group_name_H-M "P M N A"
_symmetry_group_IT_number 53
_symmetry_cell_setting 'orthorhombic'
loop_
_space_group_symop_operation_xyz
x,y,z
1/2-x,-y,1/2+z
x,-y,-z
1/2-x,y,1/2-z
-x,-y,-z
1/2+x,y,1/2-z
-x,y,z
1/2+x,-y,1/2+z
loop_
_atom_site_type_symbol
_atom_site_label
_atom_site_fract_x
_atom_site_fract_y
_atom_site_fract_z
Si Si1 0.923254 0.419126 0.797580
Si Si2 0.072348 0.550164 0.645077
Si Si3 0.340529 0.932950 0.689732
Si Si4 0.142607 0.257107 0.544056
Si Si5 0.804591 0.064817 0.343862
O O1 0.921946 0.406934 0.716312
O O2 0.892217 0.698465 0.812882
O O3 0.000000 0.396499 0.817279
O O4 0.877806 0.196737 0.829510
O O5 0.077721 0.356386 0.583050
O O6 0.135770 0.738071 0.638117
O O7 0.000000 0.683272 0.645370
O O8 0.272318 0.853455 0.653520
O O9 0.319657 0.984922 0.766506
O O10 0.166621 0.500000 0.500000
O O11 0.133501 0.000000 0.500000
O O12 0.189081 0.174992 0.605810
#
# Coordination Sequence:
#
# PCOD9417391 Si02
#       5
#     8   8   8   8   8
#     4  10  20  35  56  87 116 144 180 226 285 340
#     4  10  22  39  57  78 114 156 197 236 273 315
#     4  10  21  34  62  80 111 148 181 234 280 348
#     4  12  24  39  55  76 111 153 199 246 267 315
#     4  10  22  38  57  81 110 145 201 228 287 323
#
# _framework density 19.162526
#
# number of rings (size 3 to 8) (size 9 to 14) (size 15 to 20)
#    0.000    1.600    4.000    0.600    2.800    4.000 
#    0.000    0.000    0.000    0.000    0.000    0.000 
#    0.000   16.000    0.000    0.000    0.000    0.000 
#
# Total GULP energy -222842.904758 kJ/mol
# GULP energy per Si atom -5571.072619 kJ/mol
# Density = 1.911891 g / cm^3
# Si number density = 19.162526 Si / 1000 Ang^3
#
#
#
# Elastic Constant Matrix: (Units=GPa)
#
#
# Indices 1 2 3 4 5 6 
#
# 1 141.0739 48.2920 19.2295 0.0000 0.0000 0.0000
# 2 48.2920 101.1984 19.8384 0.0000 0.0000 0.0000
# 3 19.2295 19.8384 31.7521 0.0000 0.0000 0.0000
# 4 0.0000 0.0000 0.0000 16.6918 0.0000 0.0000
# 5 0.0000 0.0000 0.0000 0.0000 1.1647 0.0000
# 6 0.0000 0.0000 0.0000 0.0000 0.0000 25.9656
#
#
#
# Elastic Compliance Matrix: (Units=1/GPa)
#
#
# Indices 1 2 3 4 5 6 
#
# 1 0.008725 -0.003564 -0.003057 0.000000 0.000000 0.000000
# 2 -0.003564 0.012717 -0.005787 0.000000 0.000000 0.000000
# 3 -0.003057 -0.005787 0.036961 0.000000 0.000000 0.000000
# 4 0.000000 0.000000 0.000000 0.059910 0.000000 0.000000
# 5 0.000000 0.000000 0.000000 0.000000 0.858614 0.000000
# 6 0.000000 0.000000 0.000000 0.000000 0.000000 0.038512
#
#
# Mechanical properties :
#
#
# Convention : Reuss Voigt Hill
#
# Bulk Modulus (GPa) = 29.77386 49.86046 39.81716
# Shear Modulus (GPa) = 4.75533 21.20872 12.98203
#
# Velocity S-wave (km/s) = 1.57701 3.33044 2.60565
# Velocity P-wave (km/s) = 4.34594 6.39260 5.46592
#
# Compressibility (1/GPa) = 0.03358650
#
# Stress axis : x y z
#
# Youngs Moduli (GPa) = 114.60836 78.63527 27.05564
#
# Poissons Ratio (x) = 0.28029 0.08271
# Poissons Ratio (y) = 0.40852 0.15656
# Poissons Ratio (z) = 0.35038 0.45504
#
# Static dielectric constant tensor:
#      x y z
#    x 1.699190 0.000000 0.000000 
#    y 0.000000 1.726000 0.000000 
#    z 0.000000 0.000000 1.697740 
# 
# From -- ./inp_files/32683.got.cif
#   From: 2010.05.17/outbox.cif.g08.bks.cpg/sg53_17_cif.got.tgz:32683.got - 2010.06.03 12:45:16.
