data_PCOD9417311
_publ_section_title
;
Structure prediction by ZEFSAII (Michael W. Deem and Ramdas Pophale) SiO2 
 PCOD9417311
Probable space group: P M N A
;
_chemical_formula_sum "Si O2"
_cell_formula_units_Z 48
_cell_length_a 8.478808
_cell_length_b 32.037219
_cell_length_c 9.263217
_cell_angle_alpha 90.000000
_cell_angle_beta 90.000000
_cell_angle_gamma 90.000000
_cell_volume 2516.236448
_symmetry_space_group_name_H-M "P M N A"
_symmetry_group_IT_number 53
_symmetry_cell_setting 'orthorhombic'
loop_
_space_group_symop_operation_xyz
x,y,z
1/2-x,-y,1/2+z
x,-y,-z
1/2-x,y,1/2-z
-x,-y,-z
1/2+x,y,1/2-z
-x,y,z
1/2+x,-y,1/2+z
loop_
_atom_site_type_symbol
_atom_site_label
_atom_site_fract_x
_atom_site_fract_y
_atom_site_fract_z
Si Si1 0.689133 0.370240 0.914016
Si Si2 0.309333 0.958728 0.086381
Si Si3 0.190628 0.711606 0.587104
Si Si4 0.809344 0.123789 0.413542
Si Si5 0.690657 0.793779 0.086645
Si Si6 0.189125 0.540786 0.086859
O O1 0.750000 0.365407 0.750000
O O2 0.500000 0.370883 0.909993
O O3 0.748649 0.414924 0.970967
O O4 0.742547 0.331207 0.010065
O O5 0.250000 0.958911 0.250000
O O6 0.500000 0.958736 0.089112
O O7 0.257179 0.917258 0.001172
O O8 0.257213 0.000000 0.000000
O O9 0.250000 0.714287 0.750000
O O10 0.243190 0.751665 0.494387
O O11 0.000000 0.711736 0.588570
O O12 0.750000 0.123166 0.250000
O O13 0.757169 0.165513 0.497193
O O14 0.000000 0.123753 0.410905
O O15 0.750000 0.795112 0.250000
O O16 0.500000 0.793817 0.089048
O O17 0.250000 0.537462 0.250000
O O18 0.000000 0.542051 0.087103
O O19 0.242008 0.500000 0.000000
#
# Coordination Sequence:
#
# PCOD9417311 Si02
#       6
#     8   8   8   8   8   8
#     4  10  20  35  55  78 104 136 174 214 258 309
#     4  10  21  36  54  79 109 141 181 225 269 321
#     4  10  22  37  54  79 108 138 174 216 261 311
#     4  10  21  36  55  80 109 141 179 222 267 318
#     4  10  21  37  56  80 108 139 178 219 262 315
#     4  10  21  36  55  79 106 138 175 214 259 309
#
# _framework density 19.076108000000001
#
# number of rings (size 3 to 8) (size 9 to 14) (size 15 to 20)
#    0.000    2.000    0.000    4.000    0.000    5.667 
#    0.000    3.333    0.000    0.000    0.000    0.000 
#    0.000    0.000    0.000    0.000    0.000    0.000 
#
# Total GULP energy -268152.671602 kJ/mol
# GULP energy per Si atom -5586.513992 kJ/mol
# Density = 1.903269 g / cm^3
# Si number density = 19.076108 Si / 1000 Ang^3
#
#
#
# Elastic Constant Matrix: (Units=GPa)
#
#
# Indices 1 2 3 4 5 6 
#
# 1 16.2416 32.9976 19.4614 0.0000 0.0000 0.0000
# 2 32.9976 235.2980 127.8156 0.0000 0.0000 0.0000
# 3 19.4614 127.8156 170.5695 0.0000 0.0000 0.0000
# 4 0.0000 0.0000 0.0000 44.2120 0.0000 0.0000
# 5 0.0000 0.0000 0.0000 0.0000 35.2622 0.0000
# 6 0.0000 0.0000 0.0000 0.0000 0.0000 -7.3067
#
#
#
# Elastic Compliance Matrix: (Units=1/GPa)
#
#
# Indices 1 2 3 4 5 6 
#
# 1 0.086275 -0.011387 -0.001311 0.000000 0.000000 0.000000
# 2 -0.011387 0.008670 -0.005198 0.000000 0.000000 0.000000
# 3 -0.001311 -0.005198 0.009907 0.000000 0.000000 0.000000
# 4 0.000000 0.000000 0.000000 0.022618 0.000000 0.000000
# 5 0.000000 0.000000 0.000000 0.000000 0.028359 0.000000
# 6 0.000000 0.000000 0.000000 0.000000 0.000000 -0.136861
#
#
# Mechanical properties :
#
#
# Convention : Reuss Voigt Hill
#
# Bulk Modulus (GPa) = 14.47984 86.96204 50.72094
# Shear Modulus (GPa) = 64.28239 30.55580 47.41909
#
# Velocity S-wave (km/s) = 5.81128 4.00657 4.99117
# Velocity P-wave (km/s) = 7.25500 8.19081 7.73707
#
# Compressibility (1/GPa) = 0.06906151
#
# Stress axis : x y z
#
# Youngs Moduli (GPa) = 11.59078 115.33607 100.93575
#
# Poissons Ratio (x) = 1.31332 0.13233
# Poissons Ratio (y) = 0.13198 0.52465
# Poissons Ratio (z) = 0.01520 0.59950
#
# Static dielectric constant tensor:
#      x y z
#    x 1.655790 0.000000 0.000000 
#    y 0.000000 1.675100 0.000000 
#    z 0.000000 0.000000 1.606990 
# 
# From -- ./inp_files/6764.got.cif
#   From: 2010.05.17/outbox.cif.g08.bks.cpg/sg53_4_cif.got.tgz:6764.got - 2010.06.03 12:45:16.
