data_PCOD9417250
_publ_section_title
;
Structure prediction by ZEFSAII (Michael W. Deem and Ramdas Pophale) SiO2 
 PCOD9417250
Probable space group: P M N A
;
_chemical_formula_sum "Si O2"
_cell_formula_units_Z 64
_cell_length_a 8.770222
_cell_length_b 17.119061
_cell_length_c 24.560742
_cell_angle_alpha 90.000000
_cell_angle_beta 90.000000
_cell_angle_gamma 90.000000
_cell_volume 3687.499833
_symmetry_space_group_name_H-M "P M N A"
_symmetry_group_IT_number 53
_symmetry_cell_setting 'orthorhombic'
loop_
_space_group_symop_operation_xyz
x,y,z
1/2-x,-y,1/2+z
x,-y,-z
1/2-x,y,1/2-z
-x,-y,-z
1/2+x,y,1/2-z
-x,y,z
1/2+x,-y,1/2+z
loop_
_atom_site_type_symbol
_atom_site_label
_atom_site_fract_x
_atom_site_fract_y
_atom_site_fract_z
Si Si1 0.184238 0.781487 0.377304
Si Si2 0.682144 0.538851 0.085595
Si Si3 0.316662 0.369080 0.412481
Si Si4 0.681871 0.689208 0.473806
Si Si5 0.182936 0.105604 0.310997
Si Si6 0.816943 0.732637 0.810799
Si Si7 0.181986 0.630284 0.308831
Si Si8 0.683784 0.067563 0.811018
O O1 0.247234 0.756382 0.435986
O O2 0.232349 0.712137 0.335969
O O3 0.233583 0.863484 0.351347
O O4 0.000000 0.780573 0.380240
O O5 0.500000 0.543100 0.078137
O O6 0.741465 0.452371 0.075786
O O7 0.758179 0.606207 0.049330
O O8 0.719642 0.563321 0.147714
O O9 0.500000 0.378966 0.412523
O O10 0.278435 0.311036 0.462340
O O11 0.271941 0.333570 0.354159
O O12 0.500000 0.691712 0.468235
O O13 0.250000 0.102866 0.250000
O O14 0.257089 0.184201 0.333847
O O15 0.000000 0.114144 0.309722
O O16 0.221032 0.019352 0.333150
O O17 0.750000 0.721088 0.750000
O O18 0.000000 0.735263 0.806770
O O19 0.250000 0.618019 0.250000
O O20 0.000000 0.633738 0.304179
O O21 0.750000 0.077395 0.750000
O O22 0.500000 0.071571 0.806031
#
# Coordination Sequence:
#
# PCOD9417250 Si02
#       8
#     8   8   8   8   8   8   8   8
#     4   9  18  32  47  69 100 130 162 201 240 278
#     4  10  21  35  51  73  98 125 160 202 244 285
#     4  10  22  37  53  73  96 123 158 201 244 286
#     4  10  20  35  53  72  95 125 162 201 241 285
#     4   9  16  28  47  72 100 130 162 196 237 284
#     4  10  20  35  53  74 101 129 157 195 243 291
#     4   9  18  30  44  65  95 128 159 190 229 279
#     4   9  17  28  46  73 104 133 163 200 239 283
#
# _framework density 17.355933
#
# number of rings (size 3 to 8) (size 9 to 14) (size 15 to 20)
#    0.000    2.500    0.000    3.750    0.000    7.500 
#    0.000    2.500    0.000    0.750    0.000    5.250 
#    0.000    0.000    0.000    0.000    0.000    0.000 
#
# Total GULP energy -356702.370265 kJ/mol
# GULP energy per Si atom -5573.474535 kJ/mol
# Density = 1.731643 g / cm^3
# Si number density = 17.355933 Si / 1000 Ang^3
#
#
#
# Elastic Constant Matrix: (Units=GPa)
#
#
# Indices 1 2 3 4 5 6 
#
# 1 23.5070 11.4061 19.4925 0.0000 0.0000 0.0000
# 2 11.4061 55.6381 10.6207 0.0000 0.0000 0.0000
# 3 19.4925 10.6207 75.7272 0.0000 0.0000 0.0000
# 4 0.0000 0.0000 0.0000 17.7134 0.0000 0.0000
# 5 0.0000 0.0000 0.0000 0.0000 22.2550 0.0000
# 6 0.0000 0.0000 0.0000 0.0000 0.0000 38.4641
#
#
#
# Elastic Compliance Matrix: (Units=1/GPa)
#
#
# Indices 1 2 3 4 5 6 
#
# 1 0.058477 -0.009366 -0.013739 0.000000 0.000000 0.000000
# 2 -0.009366 0.019968 -0.000390 0.000000 0.000000 0.000000
# 3 -0.013739 -0.000390 0.016796 0.000000 0.000000 0.000000
# 4 0.000000 0.000000 0.000000 0.056455 0.000000 0.000000
# 5 0.000000 0.000000 0.000000 0.000000 0.044934 0.000000
# 6 0.000000 0.000000 0.000000 0.000000 0.000000 0.025998
#
#
# Mechanical properties :
#
#
# Convention : Reuss Voigt Hill
#
# Bulk Modulus (GPa) = 20.72400 26.43454 23.57927
# Shear Modulus (GPa) = 17.50084 23.24337 20.37210
#
# Velocity S-wave (km/s) = 3.17890 3.66350 3.42977
# Velocity P-wave (km/s) = 5.04384 5.75838 5.41291
#
# Compressibility (1/GPa) = 0.04825323
#
# Stress axis : x y z
#
# Youngs Moduli (GPa) = 17.10063 50.08087 59.53674
#
# Poissons Ratio (x) = 0.46904 0.81796
# Poissons Ratio (y) = 0.16016 0.02320
# Poissons Ratio (z) = 0.23494 0.01952
#
# Static dielectric constant tensor:
#      x y z
#    x 1.584270 0.000000 0.000000 
#    y 0.000000 1.608700 0.000000 
#    z 0.000000 0.000000 1.568400 
# 
# From -- ./inp_files/31252.got.cif
#   From: 2010.05.17/outbox.cif.g08.bks.cpg/sg53_16_cif.got.tgz:31252.got - 2010.06.03 12:45:16.
