data_PCOD9417781
_publ_section_title
;
Structure prediction by ZEFSAII (Michael W. Deem and Ramdas Pophale) SiO2 
 PCOD9417781
Probable space group: P M N A
;
_chemical_formula_sum "Si O2"
_cell_formula_units_Z 24
_cell_length_a 11.146499
_cell_length_b 6.996939
_cell_length_c 11.972245
_cell_angle_alpha 90.000000
_cell_angle_beta 90.000000
_cell_angle_gamma 90.000000
_cell_volume 933.731832
_symmetry_space_group_name_H-M "P M N A"
_symmetry_group_IT_number 53
_symmetry_cell_setting 'orthorhombic'
loop_
_space_group_symop_operation_xyz
x,y,z
1/2-x,-y,1/2+z
x,-y,-z
1/2-x,y,1/2-z
-x,-y,-z
1/2+x,y,1/2-z
-x,y,z
1/2+x,-y,1/2+z
loop_
_atom_site_type_symbol
_atom_site_label
_atom_site_fract_x
_atom_site_fract_y
_atom_site_fract_z
Si Si1 0.869880 0.228993 0.289205
Si Si2 0.867477 0.279986 0.539919
Si Si3 0.128506 0.882413 0.116228
O O1 0.750000 0.337533 0.250000
O O2 0.860133 0.175003 0.419305
O O3 0.000000 0.325781 0.274899
O O4 0.870887 0.041419 0.212511
O O5 0.864533 0.500000 0.500000
O O6 0.750277 0.237700 0.611518
O O7 0.000000 0.242251 0.588987
O O8 0.000000 0.775719 0.122383
O O9 0.126198 0.000000 0.000000
#
# Coordination Sequence:
#
# PCOD9417781 Si02
#       3
#     8   8   8
#     4  10  20  36  61  90 123 165 212 258 310 378
#     4  10  22  40  63  93 129 168 211 264 322 376
#     4  10  20  36  62  93 123 162 209 257 313 379
#
# _framework density 25.703312
#
# number of rings (size 3 to 8) (size 9 to 14) (size 15 to 20)
#    0.000    2.000    3.333    0.000    0.000    2.667 
#    0.000    1.667    0.000    8.000    0.000    0.000 
#    0.000    0.000    0.000    0.000    0.000    0.000 
#
# Total GULP energy -134244.553616 kJ/mol
# GULP energy per Si atom -5593.523067 kJ/mol
# Density = 2.564481 g / cm^3
# Si number density = 25.703312 Si / 1000 Ang^3
#
#
#
# Elastic Constant Matrix: (Units=GPa)
#
#
# Indices 1 2 3 4 5 6 
#
# 1 323.1454 44.8044 40.8466 0.0000 0.0000 0.0000
# 2 44.8044 62.0499 37.9172 0.0000 0.0000 0.0000
# 3 40.8466 37.9172 125.2515 0.0000 0.0000 0.0000
# 4 0.0000 0.0000 0.0000 28.9755 0.0000 0.0000
# 5 0.0000 0.0000 0.0000 0.0000 14.0323 0.0000
# 6 0.0000 0.0000 0.0000 0.0000 0.0000 16.4844
#
#
#
# Elastic Compliance Matrix: (Units=1/GPa)
#
#
# Indices 1 2 3 4 5 6 
#
# 1 0.003460 -0.002219 -0.000456 0.000000 0.000000 0.000000
# 2 -0.002219 0.021198 -0.005693 0.000000 0.000000 0.000000
# 3 -0.000456 -0.005693 0.009856 0.000000 0.000000 0.000000
# 4 0.000000 0.000000 0.000000 0.034512 0.000000 0.000000
# 5 0.000000 0.000000 0.000000 0.000000 0.071264 0.000000
# 6 0.000000 0.000000 0.000000 0.000000 0.000000 0.060663
#
#
# Mechanical properties :
#
#
# Convention : Reuss Voigt Hill
#
# Bulk Modulus (GPa) = 56.25712 84.17593 70.21652
# Shear Modulus (GPa) = 22.35963 37.69035 30.02499
#
# Velocity S-wave (km/s) = 2.95263 3.83346 3.42151
# Velocity P-wave (km/s) = 5.79298 7.23976 6.55640
#
# Compressibility (1/GPa) = 0.01777553
#
# Stress axis : x y z
#
# Youngs Moduli (GPa) = 289.01664 47.17488 101.45747
#
# Poissons Ratio (x) = 0.10470 0.04631
# Poissons Ratio (y) = 0.64145 0.57763
# Poissons Ratio (z) = 0.13193 0.26858
#
# Static dielectric constant tensor:
#      x y z
#    x 2.140200 0.000000 0.000000 
#    y 0.000000 2.068070 0.000000 
#    z 0.000000 0.000000 2.003490 
# 
# From -- ./inp_files/14415.got.cif
#   From: 2010.05.17/outbox.cif.g08.bks.cpg/sg53_8_cif.got.tgz:14415.got - 2010.06.03 12:45:16.
