data_PCOD9417694
_publ_section_title
;
Structure prediction by ZEFSAII (Michael W. Deem and Ramdas Pophale) SiO2 
 PCOD9417694
Probable space group: P M N A
;
_chemical_formula_sum "Si O2"
_cell_formula_units_Z 48
_cell_length_a 15.480460
_cell_length_b 12.165214
_cell_length_c 14.101115
_cell_angle_alpha 90.000000
_cell_angle_beta 90.000000
_cell_angle_gamma 90.000000
_cell_volume 2655.565813
_symmetry_space_group_name_H-M "P M N A"
_symmetry_group_IT_number 53
_symmetry_cell_setting 'orthorhombic'
loop_
_space_group_symop_operation_xyz
x,y,z
1/2-x,-y,1/2+z
x,-y,-z
1/2-x,y,1/2-z
-x,-y,-z
1/2+x,y,1/2-z
-x,y,z
1/2+x,-y,1/2+z
loop_
_atom_site_type_symbol
_atom_site_label
_atom_site_fract_x
_atom_site_fract_y
_atom_site_fract_z
Si Si1 0.903728 0.349593 0.670200
Si Si2 0.160276 0.843214 0.199276
Si Si3 0.769189 0.666187 0.053866
Si Si4 0.306848 0.723198 0.654371
Si Si5 0.901614 0.499603 0.852204
Si Si6 0.100073 0.947641 0.900465
O O1 0.891009 0.237930 0.730990
O O2 0.824014 0.356032 0.599184
O O3 0.894419 0.445108 0.748290
O O4 0.000000 0.353371 0.628784
O O5 0.250000 0.873561 0.250000
O O6 0.187307 0.770757 0.107399
O O7 0.109083 0.951323 0.171807
O O8 0.833950 0.567532 0.083012
O O9 0.758557 0.690495 0.943217
O O10 0.250000 0.720805 0.750000
O O11 0.378536 0.627095 0.657848
O O12 0.347466 0.842738 0.635689
O O13 0.000000 0.483053 0.885306
O O14 0.000000 0.915849 0.913683
O O15 0.131674 0.000000 0.000000
#
# Coordination Sequence:
#
# PCOD9417694 Si02
#       6
#     8   8   8   8   8   8
#     4   9  18  35  61  87 111 144 189 237 280 331
#     4   9  17  34  58  82 109 141 186 238 287 338
#     4  10  20  36  58  85 114 150 191 231 283 334
#     4  12  24  38  55  80 117 159 190 231 284 345
#     4  10  21  37  60  89 118 146 185 235 289 343
#     4  11  22  36  55  80 112 146 188 239 292 347
#
# _framework density 18.075244999999999
#
# number of rings (size 3 to 8) (size 9 to 14) (size 15 to 20)
#    0.000    1.833    1.667    4.500    0.000    2.667 
#    0.000    1.667    0.000    4.000    0.000    5.833 
#    0.000    0.000    0.000    0.000    0.000    0.000 
#
# Total GULP energy -267831.136603 kJ/mol
# GULP energy per Si atom -5579.815346 kJ/mol
# Density = 1.803410 g / cm^3
# Si number density = 18.075245 Si / 1000 Ang^3
#
#
#
# Elastic Constant Matrix: (Units=GPa)
#
#
# Indices 1 2 3 4 5 6 
#
# 1 119.3064 47.9111 64.2031 0.0000 0.0000 0.0000
# 2 47.9111 112.6014 41.2336 0.0000 0.0000 0.0000
# 3 64.2031 41.2336 105.8512 0.0000 0.0000 0.0000
# 4 0.0000 0.0000 0.0000 12.6148 0.0000 0.0000
# 5 0.0000 0.0000 0.0000 0.0000 -6.3738 0.0000
# 6 0.0000 0.0000 0.0000 0.0000 0.0000 29.5750
#
#
#
# Elastic Compliance Matrix: (Units=1/GPa)
#
#
# Indices 1 2 3 4 5 6 
#
# 1 0.013345 -0.003166 -0.006861 0.000000 0.000000 0.000000
# 2 -0.003166 0.011109 -0.002407 0.000000 0.000000 0.000000
# 3 -0.006861 -0.002407 0.014547 0.000000 0.000000 0.000000
# 4 0.000000 0.000000 0.000000 0.079272 0.000000 0.000000
# 5 0.000000 0.000000 0.000000 0.000000 -0.156893 0.000000
# 6 0.000000 0.000000 0.000000 0.000000 0.000000 0.033812
#
#
# Mechanical properties :
#
#
# Convention : Reuss Voigt Hill
#
# Bulk Modulus (GPa) = 70.75905 71.60608 71.18256
# Shear Modulus (GPa) = 201.83260 19.45728 110.64494
#
# Velocity S-wave (km/s) = 10.57851 3.28450 7.83239
# Velocity P-wave (km/s) = 13.72729 7.35429 11.01190
#
# Compressibility (1/GPa) = 0.01413247
#
# Stress axis : x y z
#
# Youngs Moduli (GPa) = 74.93186 90.01305 68.74416
#
# Poissons Ratio (x) = 0.28497 0.47168
# Poissons Ratio (y) = 0.23722 0.16550
# Poissons Ratio (z) = 0.51413 0.21670
#
# Static dielectric constant tensor:
#      x y z
#    x 1.605620 0.000000 0.000000 
#    y 0.000000 1.618260 0.000000 
#    z 0.000000 0.000000 1.626570 
# 
# From -- ./inp_files/22700.got.cif
#   From: 2010.05.17/outbox.cif.g08.bks.cpg/sg53_12_cif.got.tgz:22700.got - 2010.06.03 12:45:16.
