data_PCOD9417487
_publ_section_title
;
Structure prediction by ZEFSAII (Michael W. Deem and Ramdas Pophale) SiO2 
 PCOD9417487
Probable space group: P M N A
;
_chemical_formula_sum "Si O2"
_cell_formula_units_Z 64
_cell_length_a 11.270581
_cell_length_b 7.062312
_cell_length_c 31.112141
_cell_angle_alpha 90.000000
_cell_angle_beta 90.000000
_cell_angle_gamma 90.000000
_cell_volume 2476.413158
_symmetry_space_group_name_H-M "P M N A"
_symmetry_group_IT_number 53
_symmetry_cell_setting 'orthorhombic'
loop_
_space_group_symop_operation_xyz
x,y,z
1/2-x,-y,1/2+z
x,-y,-z
1/2-x,y,1/2-z
-x,-y,-z
1/2+x,y,1/2-z
-x,y,z
1/2+x,-y,1/2+z
loop_
_atom_site_type_symbol
_atom_site_label
_atom_site_fract_x
_atom_site_fract_y
_atom_site_fract_z
Si Si1 0.376128 0.858061 0.149158
Si Si2 0.630735 0.578557 0.275636
Si Si3 0.873202 0.150433 0.961754
Si Si4 0.871598 0.895881 0.135904
Si Si5 0.125624 0.001448 0.252591
Si Si6 0.628777 0.722685 0.007128
Si Si7 0.632981 0.675934 0.639756
Si Si8 0.633009 0.235596 0.091418
O O1 0.500000 0.752226 0.140944
O O2 0.246541 0.773577 0.142050
O O3 0.379025 0.925262 0.198457
O O4 0.374271 0.042931 0.118863
O O5 0.750000 0.533219 0.250000
O O6 0.500000 0.539933 0.255418
O O7 0.632579 0.810571 0.276467
O O8 0.636131 0.459855 0.319243
O O9 0.873931 0.057542 0.915011
O O10 0.000000 0.259780 0.964777
O O11 0.747046 0.250725 0.965750
O O12 0.875204 0.000000 0.000000
O O13 0.000000 0.807339 0.144857
O O14 0.862867 0.104684 0.156365
O O15 0.250000 0.107635 0.250000
O O16 0.000000 0.099080 0.244337
O O17 0.500000 0.788670 0.024473
O O18 0.646772 0.807281 0.959269
O O19 0.619711 0.500000 0.000000
O O20 0.500000 0.653109 0.619544
O O21 0.749722 0.658127 0.609465
O O22 0.500000 0.325797 0.095634
#
# Coordination Sequence:
#
# PCOD9417487 Si02
#       8
#     8   8   8   8   8   8   8   8
#     4   9  17  31  53  79 106 140 184 233 285 341
#     4   9  18  33  53  77 106 143 184 226 279 341
#     4  10  20  35  59  91 124 159 201 249 300 355
#     4   9  18  32  51  79 112 144 183 232 282 334
#     4   9  18  33  52  76 107 141 179 226 281 342
#     4  10  22  40  61  88 123 162 204 251 304 363
#     4   9  17  32  55  80 107 142 184 230 280 337
#     4   9  18  34  56  81 109 144 188 235 284 341
#
# _framework density 25.843828999999999
#
# number of rings (size 3 to 8) (size 9 to 14) (size 15 to 20)
#    0.000    2.750    0.000    1.500    0.000    3.500 
#    0.000    5.000    0.000   27.000    0.000    0.000 
#    0.000    0.000    0.000    0.000    0.000    0.000 
#
# Total GULP energy -357435.897667 kJ/mol
# GULP energy per Si atom -5584.935901 kJ/mol
# Density = 2.578501 g / cm^3
# Si number density = 25.843829 Si / 1000 Ang^3
#
#
#
# Elastic Constant Matrix: (Units=GPa)
#
#
# Indices 1 2 3 4 5 6 
#
# 1 336.6121 21.4902 48.2955 0.0000 0.0000 0.0000
# 2 21.4902 88.9451 13.1928 0.0000 0.0000 0.0000
# 3 48.2955 13.1928 75.8186 0.0000 0.0000 0.0000
# 4 0.0000 0.0000 0.0000 28.6551 0.0000 0.0000
# 5 0.0000 0.0000 0.0000 0.0000 80.1610 0.0000
# 6 0.0000 0.0000 0.0000 0.0000 0.0000 1.8891
#
#
#
# Elastic Compliance Matrix: (Units=1/GPa)
#
#
# Indices 1 2 3 4 5 6 
#
# 1 0.003291 -0.000497 -0.002010 0.000000 0.000000 0.000000
# 2 -0.000497 0.011616 -0.001705 0.000000 0.000000 0.000000
# 3 -0.002010 -0.001705 0.014766 0.000000 0.000000 0.000000
# 4 0.000000 0.000000 0.000000 0.034898 0.000000 0.000000
# 5 0.000000 0.000000 0.000000 0.000000 0.012475 0.000000
# 6 0.000000 0.000000 0.000000 0.000000 0.000000 0.529353
#
#
# Mechanical properties :
#
#
# Convention : Reuss Voigt Hill
#
# Bulk Modulus (GPa) = 47.05867 74.14810 60.60338
# Shear Modulus (GPa) = 8.03981 50.03418 29.03700
#
# Velocity S-wave (km/s) = 1.76569 4.40480 3.35559
# Velocity P-wave (km/s) = 4.73342 7.39072 6.20597
#
# Compressibility (1/GPa) = 0.02125007
#
# Stress axis : x y z
#
# Youngs Moduli (GPa) = 303.87198 86.08953 67.72234
#
# Poissons Ratio (x) = 0.04279 0.13611
# Poissons Ratio (y) = 0.15103 0.11544
# Poissons Ratio (z) = 0.61071 0.14675
#
# Static dielectric constant tensor:
#      x y z
#    x 2.133940 0.000000 0.000000 
#    y 0.000000 1.986740 0.000000 
#    z 0.000000 0.000000 2.124500 
# 
# From -- ./inp_files/38720.got.cif
#   From: 2010.05.17/outbox.cif.g08.bks.cpg/sg53_20_cif.got.tgz:38720.got - 2010.06.03 12:45:16.
