data_PCOD9417936
_publ_section_title
;
Structure prediction by ZEFSAII (Michael W. Deem and Ramdas Pophale) SiO2 
 PCOD9417936
Probable space group: P M N A
;
_chemical_formula_sum "Si O2"
_cell_formula_units_Z 48
_cell_length_a 7.901994
_cell_length_b 17.430510
_cell_length_c 16.069038
_cell_angle_alpha 90.000000
_cell_angle_beta 90.000000
_cell_angle_gamma 90.000000
_cell_volume 2213.281570
_symmetry_space_group_name_H-M "P M N A"
_symmetry_group_IT_number 53
_symmetry_cell_setting 'orthorhombic'
loop_
_space_group_symop_operation_xyz
x,y,z
1/2-x,-y,1/2+z
x,-y,-z
1/2-x,y,1/2-z
-x,-y,-z
1/2+x,y,1/2-z
-x,y,z
1/2+x,-y,1/2+z
loop_
_atom_site_type_symbol
_atom_site_label
_atom_site_fract_x
_atom_site_fract_y
_atom_site_fract_z
Si Si1 0.704095 0.823597 0.338793
Si Si2 0.297659 0.196742 0.344922
Si Si3 0.206919 0.088129 0.004315
Si Si4 0.806549 0.659022 0.123546
Si Si5 0.692351 0.656327 0.943298
Si Si6 0.203023 0.510624 0.843188
O O1 0.750000 0.859244 0.250000
O O2 0.500000 0.819682 0.344555
O O3 0.762803 0.868267 0.420634
O O4 0.773704 0.736498 0.341518
O O5 0.250000 0.179324 0.250000
O O6 0.500000 0.200800 0.349936
O O7 0.238794 0.134026 0.413023
O O8 0.228341 0.279188 0.374401
O O9 0.000000 0.088340 0.004928
O O10 0.261886 0.000000 0.000000
O O11 0.730339 0.576009 0.143461
O O12 0.000000 0.655433 0.154359
O O13 0.806390 0.668867 0.024047
O O14 0.500000 0.663737 0.971751
O O15 0.723006 0.572347 0.906309
O O16 0.250000 0.534457 0.750000
O O17 0.000000 0.510832 0.854113
#
# Coordination Sequence:
#
# PCOD9417936 Si02
#       6
#     8   8   8   8   8   8
#     4  10  20  37  61  90 122 158 200 242 296 356
#     4  11  22  40  64  90 124 161 205 250 301 363
#     4   9  19  38  64  90 121 161 199 242 301 368
#     4  10  21  39  60  84 116 159 201 246 302 360
#     4  12  24  38  59  86 118 156 205 253 302 354
#     4  11  23  38  57  82 118 157 202 249 301 357
#
# _framework density 21.687253999999999
#
# number of rings (size 3 to 8) (size 9 to 14) (size 15 to 20)
#    0.000    1.500    1.667    4.000    0.000    4.667 
#    0.000    0.000    0.000    3.500    0.000    0.000 
#    0.000    0.000    0.000    0.000    0.000    0.000 
#
# Total GULP energy -268330.595108 kJ/mol
# GULP energy per Si atom -5590.220731 kJ/mol
# Density = 2.163789 g / cm^3
# Si number density = 21.687254 Si / 1000 Ang^3
#
#
#
# Elastic Constant Matrix: (Units=GPa)
#
#
# Indices 1 2 3 4 5 6 
#
# 1 47.9770 8.7469 -11.6084 0.0000 0.0000 0.0000
# 2 8.7469 127.6223 44.5075 0.0000 0.0000 0.0000
# 3 -11.6084 44.5075 134.8791 0.0000 0.0000 0.0000
# 4 0.0000 0.0000 0.0000 11.5629 0.0000 0.0000
# 5 0.0000 0.0000 0.0000 0.0000 25.4281 0.0000
# 6 0.0000 0.0000 0.0000 0.0000 0.0000 -1.2498
#
#
#
# Elastic Compliance Matrix: (Units=1/GPa)
#
#
# Indices 1 2 3 4 5 6 
#
# 1 0.021941 -0.002444 0.002695 0.000000 0.000000 0.000000
# 2 -0.002444 0.009127 -0.003222 0.000000 0.000000 0.000000
# 3 0.002695 -0.003222 0.008709 0.000000 0.000000 0.000000
# 4 0.000000 0.000000 0.000000 0.086483 0.000000 0.000000
# 5 0.000000 0.000000 0.000000 0.000000 0.039326 0.000000
# 6 0.000000 0.000000 0.000000 0.000000 0.000000 -0.800149
#
#
# Mechanical properties :
#
#
# Convention : Reuss Voigt Hill
#
# Bulk Modulus (GPa) = 29.55513 43.75226 36.65370
# Shear Modulus (GPa) = -8.09924 25.07042 8.48559
#
# Velocity S-wave (km/s) = -1.93460 3.40369 1.98020
# Velocity P-wave (km/s) = 2.94402 5.97200 4.70808
#
# Compressibility (1/GPa) = 0.03383508
#
# Stress axis : x y z
#
# Youngs Moduli (GPa) = 45.57717 109.56833 114.82191
#
# Poissons Ratio (x) = 0.26773 -0.30941
# Poissons Ratio (y) = 0.11137 0.36995
# Poissons Ratio (z) = -0.12281 0.35302
#
# Static dielectric constant tensor:
#      x y z
#    x 1.850550 0.000000 0.000000 
#    y 0.000000 1.782160 0.000000 
#    z 0.000000 0.000000 1.771010 
# 
# From -- ./inp_files/20126.got.cif
#   From: 2010.05.17/outbox.cif.g08.bks.cpg/sg53_11_cif.got.tgz:20126.got - 2010.06.03 12:45:16.
