data_PCOD9417325
_publ_section_title
;
Structure prediction by ZEFSAII (Michael W. Deem and Ramdas Pophale) SiO2 
 PCOD9417325
Probable space group: P M N A
;
_chemical_formula_sum "Si O2"
_cell_formula_units_Z 64
_cell_length_a 7.759702
_cell_length_b 14.983667
_cell_length_c 25.984237
_cell_angle_alpha 90.000000
_cell_angle_beta 90.000000
_cell_angle_gamma 90.000000
_cell_volume 3021.155816
_symmetry_space_group_name_H-M "P M N A"
_symmetry_group_IT_number 53
_symmetry_cell_setting 'orthorhombic'
loop_
_space_group_symop_operation_xyz
x,y,z
1/2-x,-y,1/2+z
x,-y,-z
1/2-x,y,1/2-z
-x,-y,-z
1/2+x,y,1/2-z
-x,y,z
1/2+x,-y,1/2+z
loop_
_atom_site_type_symbol
_atom_site_label
_atom_site_fract_x
_atom_site_fract_y
_atom_site_fract_z
Si Si1 0.288956 0.407599 0.400409
Si Si2 0.806322 0.087544 0.624908
Si Si3 0.210548 0.612365 0.102647
Si Si4 0.292930 0.717775 0.691525
Si Si5 0.206029 0.079579 0.190939
Si Si6 0.294523 0.255252 0.690631
Si Si7 0.196054 0.095557 0.986983
Si Si8 0.288720 0.709738 0.502032
O O1 0.500000 0.408824 0.400265
O O2 0.231737 0.510043 0.399921
O O3 0.230681 0.352418 0.350512
O O4 0.236572 0.353948 0.451346
O O5 0.776568 0.163265 0.667484
O O6 0.691120 0.102998 0.574840
O O7 0.000000 0.094337 0.605388
O O8 0.777729 0.992389 0.651476
O O9 0.266235 0.664475 0.153819
O O10 0.264979 0.667636 0.052343
O O11 0.000000 0.611179 0.102344
O O12 0.250000 0.692753 0.750000
O O13 0.500000 0.721328 0.687304
O O14 0.229646 0.819177 0.682405
O O15 0.250000 0.055407 0.250000
O O16 0.000000 0.078825 0.185759
O O17 0.250000 0.267519 0.750000
O O18 0.500000 0.250075 0.686093
O O19 0.272495 0.188214 0.007389
O O20 0.000000 0.091739 0.007943
O O21 0.278354 0.000000 0.000000
O O22 0.500000 0.712693 0.501546
#
# Coordination Sequence:
#
# PCOD9417325 Si02
#       8
#     8   8   8   8   8   8   8   8
#     4   9  17  29  52  85 113 142 186 233 279 331
#     4  12  24  38  57  81 113 150 188 233 284 340
#     4   9  17  31  52  81 115 145 181 235 285 331
#     4   9  19  34  54  80 112 146 181 225 276 330
#     4  10  20  35  55  79 109 144 184 228 276 333
#     4  11  22  38  58  84 116 152 195 237 289 345
#     4  10  21  36  58  86 116 148 187 233 283 338
#     4   9  16  30  53  82 112 143 181 229 281 330
#
# _framework density 21.183944
#
# number of rings (size 3 to 8) (size 9 to 14) (size 15 to 20)
#    0.000    2.125    1.250    2.625    1.750    2.750 
#    0.000    0.000    0.000    0.750    0.000    0.875 
#    0.000    0.000    0.000    0.000    0.000    0.000 
#
# Total GULP energy -357553.940044 kJ/mol
# GULP energy per Si atom -5586.780313 kJ/mol
# Density = 2.113573 g / cm^3
# Si number density = 21.183944 Si / 1000 Ang^3
#
#
#
# Elastic Constant Matrix: (Units=GPa)
#
#
# Indices 1 2 3 4 5 6 
#
# 1 44.8163 4.1434 -5.2441 0.0000 0.0000 0.0000
# 2 4.1434 167.8231 81.4630 0.0000 0.0000 0.0000
# 3 -5.2441 81.4630 113.6160 0.0000 0.0000 0.0000
# 4 0.0000 0.0000 0.0000 63.5896 0.0000 0.0000
# 5 0.0000 0.0000 0.0000 0.0000 18.2011 0.0000
# 6 0.0000 0.0000 0.0000 0.0000 0.0000 -5.6426
#
#
#
# Elastic Compliance Matrix: (Units=1/GPa)
#
#
# Indices 1 2 3 4 5 6 
#
# 1 0.022726 -0.001642 0.002226 0.000000 0.000000 0.000000
# 2 -0.001642 0.009258 -0.006714 0.000000 0.000000 0.000000
# 3 0.002226 -0.006714 0.013718 0.000000 0.000000 0.000000
# 4 0.000000 0.000000 0.000000 0.015726 0.000000 0.000000
# 5 0.000000 0.000000 0.000000 0.000000 0.054942 0.000000
# 6 0.000000 0.000000 0.000000 0.000000 0.000000 -0.177222
#
#
# Mechanical properties :
#
#
# Convention : Reuss Voigt Hill
#
# Bulk Modulus (GPa) = 29.90175 54.10888 42.00532
# Shear Modulus (GPa) = -133.52734 31.62248 -50.95243
#
# Velocity S-wave (km/s) = -7.94790 3.86781 -4.90964
# Velocity P-wave (km/s) = 8.37136 6.74867 3.50251
#
# Compressibility (1/GPa) = 0.03344286
#
# Stress axis : x y z
#
# Youngs Moduli (GPa) = 44.00334 108.01250 72.89577
#
# Poissons Ratio (x) = 0.17731 -0.16226
# Poissons Ratio (y) = 0.07223 0.48942
# Poissons Ratio (z) = -0.09795 0.72519
#
# Static dielectric constant tensor:
#      x y z
#    x 1.792010 0.000000 0.000000 
#    y 0.000000 1.749980 0.000000 
#    z 0.000000 0.000000 1.727370 
# 
# From -- ./inp_files/34187.got.cif
#   From: 2010.05.17/outbox.cif.g08.bks.cpg/sg53_18_cif.got.tgz:34187.got - 2010.06.03 12:45:16.
