data_PCOD9417902
_publ_section_title
;
Structure prediction by ZEFSAII (Michael W. Deem and Ramdas Pophale) SiO2 
 PCOD9417902
Probable space group: P M N A
;
_chemical_formula_sum "Si O2"
_cell_formula_units_Z 40
_cell_length_a 8.720148
_cell_length_b 9.307772
_cell_length_c 26.153035
_cell_angle_alpha 90.000000
_cell_angle_beta 90.000000
_cell_angle_gamma 90.000000
_cell_volume 2122.714993
_symmetry_space_group_name_H-M "P M N A"
_symmetry_group_IT_number 53
_symmetry_cell_setting 'orthorhombic'
loop_
_space_group_symop_operation_xyz
x,y,z
1/2-x,-y,1/2+z
x,-y,-z
1/2-x,y,1/2-z
-x,-y,-z
1/2+x,y,1/2-z
-x,y,z
1/2+x,-y,1/2+z
loop_
_atom_site_type_symbol
_atom_site_label
_atom_site_fract_x
_atom_site_fract_y
_atom_site_fract_z
Si Si1 0.316781 0.167864 0.497204
Si Si2 0.183511 0.332492 0.399930
Si Si3 0.316975 0.162576 0.304956
Si Si4 0.184269 0.332290 0.594166
Si Si5 0.816190 0.155961 0.695466
O O1 0.500000 0.177048 0.490974
O O2 0.237119 0.244154 0.449302
O O3 0.266067 0.247285 0.548826
O O4 0.273893 0.000000 0.500000
O O5 0.260923 0.265245 0.349966
O O6 0.224770 0.499814 0.406435
O O7 0.000000 0.322665 0.394682
O O8 0.250000 0.207996 0.250000
O O9 0.500000 0.157751 0.302568
O O10 0.253230 0.001798 0.314715
O O11 0.221567 0.260928 0.648742
O O12 0.000000 0.320586 0.586883
O O13 0.750000 0.205433 0.750000
O O14 0.000000 0.143353 0.699305
#
# Coordination Sequence:
#
# PCOD9417902 Si02
#       5
#     8   8   8   8   8
#     4  11  24  40  60  87 116 149 192 239 286 340
#     4  11  23  40  60  85 118 153 191 236 288 343
#     4  11  22  38  60  87 117 152 195 238 284 337
#     4  10  23  40  59  85 117 153 191 235 288 344
#     4  10  20  37  60  86 116 151 192 236 284 336
#
# _framework density 18.843792000000001
#
# number of rings (size 3 to 8) (size 9 to 14) (size 15 to 20)
#    0.000    1.400    0.000    6.600    0.000   11.200 
#    0.000    2.000    0.000    0.000    0.000    0.000 
#    0.000    0.000    0.000    0.000    0.000    0.000 
#
# Total GULP energy -223721.105487 kJ/mol
# GULP energy per Si atom -5593.027637 kJ/mol
# Density = 1.880090 g / cm^3
# Si number density = 18.843792 Si / 1000 Ang^3
#
#
#
# Elastic Constant Matrix: (Units=GPa)
#
#
# Indices 1 2 3 4 5 6 
#
# 1 92.3982 68.6719 72.0950 0.0000 0.0000 0.0000
# 2 68.6719 136.3389 104.2628 0.0000 0.0000 0.0000
# 3 72.0950 104.2628 150.0660 0.0000 0.0000 0.0000
# 4 0.0000 0.0000 0.0000 233.3102 0.0000 0.0000
# 5 0.0000 0.0000 0.0000 0.0000 38.6911 0.0000
# 6 0.0000 0.0000 0.0000 0.0000 0.0000 32.5891
#
#
#
# Elastic Compliance Matrix: (Units=1/GPa)
#
#
# Indices 1 2 3 4 5 6 
#
# 1 0.019099 -0.005554 -0.005317 0.000000 0.000000 0.000000
# 2 -0.005554 0.017265 -0.009327 0.000000 0.000000 0.000000
# 3 -0.005317 -0.009327 0.015698 0.000000 0.000000 0.000000
# 4 0.000000 0.000000 0.000000 0.004286 0.000000 0.000000
# 5 0.000000 0.000000 0.000000 0.000000 0.025846 0.000000
# 6 0.000000 0.000000 0.000000 0.000000 0.000000 0.030685
#
#
# Mechanical properties :
#
#
# Convention : Reuss Voigt Hill
#
# Bulk Modulus (GPa) = 85.71514 96.54027 91.12770
# Shear Modulus (GPa) = 31.81407 69.83630 50.82518
#
# Velocity S-wave (km/s) = 4.11336 6.09435 5.19908
# Velocity P-wave (km/s) = 8.25503 10.04313 9.19266
#
# Compressibility (1/GPa) = 0.01166655
#
# Stress axis : x y z
#
# Youngs Moduli (GPa) = 52.35872 57.92158 63.70156
#
# Poissons Ratio (x) = 0.32169 0.33869
# Poissons Ratio (y) = 0.29080 0.59414
# Poissons Ratio (z) = 0.27838 0.54023
#
# Static dielectric constant tensor:
#      x y z
#    x 1.635620 0.000000 0.000000 
#    y 0.000000 1.625500 0.000000 
#    z 0.000000 0.000000 1.623060 
# 
# From -- ./inp_files/33618.got.cif
#   From: 2010.05.17/outbox.cif.g08.bks.cpg/sg53_17_cif.got.tgz:33618.got - 2010.06.03 12:45:16.
