data_PCOD9417347
_publ_section_title
;
Structure prediction by ZEFSAII (Michael W. Deem and Ramdas Pophale) SiO2 
 PCOD9417347
Probable space group: P M N A
;
_chemical_formula_sum "Si O2"
_cell_formula_units_Z 56
_cell_length_a 16.019280
_cell_length_b 11.080431
_cell_length_c 15.222218
_cell_angle_alpha 90.000000
_cell_angle_beta 90.000000
_cell_angle_gamma 90.000000
_cell_volume 2701.951713
_symmetry_space_group_name_H-M "P M N A"
_symmetry_group_IT_number 53
_symmetry_cell_setting 'orthorhombic'
loop_
_space_group_symop_operation_xyz
x,y,z
1/2-x,-y,1/2+z
x,-y,-z
1/2-x,y,1/2-z
-x,-y,-z
1/2+x,y,1/2-z
-x,y,z
1/2+x,-y,1/2+z
loop_
_atom_site_type_symbol
_atom_site_label
_atom_site_fract_x
_atom_site_fract_y
_atom_site_fract_z
Si Si1 0.593242 0.150680 0.899120
Si Si2 0.222941 0.841233 0.057215
Si Si3 0.905961 0.169270 0.095388
Si Si4 0.905286 0.058476 0.800252
Si Si5 0.910859 0.444139 0.597396
Si Si6 0.907320 0.455727 0.100905
Si Si7 0.241427 0.396489 0.843694
O O1 0.500000 0.112110 0.930573
O O2 0.680773 0.116383 0.945243
O O3 0.602674 0.101449 0.799677
O O4 0.590420 0.297433 0.901038
O O5 0.166883 0.888344 0.138254
O O6 0.230302 0.698298 0.077823
O O7 0.167869 0.864958 0.971295
O O8 0.900186 0.312056 0.108890
O O9 0.000000 0.146940 0.057898
O O10 0.900499 0.085296 0.181380
O O11 0.000000 0.096318 0.828159
O O12 0.909078 0.500000 0.500000
O O13 0.823734 0.475976 0.641526
O O14 0.000000 0.481950 0.637543
O O15 0.838835 0.521290 0.157511
O O16 0.000000 0.493267 0.127634
O O17 0.896807 0.500000 0.000000
O O18 0.250000 0.331305 0.750000
#
# Coordination Sequence:
#
# PCOD9417347 Si02
#       7
#     8   8   8   8   8   8   8
#     4   9  19  34  53  83 119 158 202 251 305 357
#     4  11  19  32  56  85 118 156 199 248 306 370
#     4  10  21  36  58  88 118 156 202 251 311 370
#     4  10  20  35  55  84 122 154 197 258 310 363
#     4   9  18  33  55  82 116 159 205 248 292 357
#     4  10  20  37  58  83 117 160 204 250 310 373
#     4  11  22  33  52  84 123 161 200 250 309 365
#
# _framework density 20.725757999999999
#
# number of rings (size 3 to 8) (size 9 to 14) (size 15 to 20)
#    0.000    2.000    1.429    3.429    2.000    2.286 
#    0.000    1.429    0.000    1.714    0.000    0.000 
#    0.000    0.000    0.000    0.000    0.000    0.000 
#
# Total GULP energy -312102.665413 kJ/mol
# GULP energy per Si atom -5573.261882 kJ/mol
# Density = 2.067859 g / cm^3
# Si number density = 20.725758 Si / 1000 Ang^3
#
#
#
# Elastic Constant Matrix: (Units=GPa)
#
#
# Indices 1 2 3 4 5 6 
#
# 1 173.0626 48.3650 34.5114 0.0000 0.0000 0.0000
# 2 48.3650 78.5398 38.7108 0.0000 0.0000 0.0000
# 3 34.5114 38.7108 67.3148 0.0000 0.0000 0.0000
# 4 0.0000 0.0000 0.0000 33.4678 0.0000 0.0000
# 5 0.0000 0.0000 0.0000 0.0000 -29.9828 0.0000
# 6 0.0000 0.0000 0.0000 0.0000 0.0000 97.5484
#
#
#
# Elastic Compliance Matrix: (Units=1/GPa)
#
#
# Indices 1 2 3 4 5 6 
#
# 1 0.007096 -0.003596 -0.001570 0.000000 0.000000 0.000000
# 2 -0.003596 0.019591 -0.009423 0.000000 0.000000 0.000000
# 3 -0.001570 -0.009423 0.021079 0.000000 0.000000 0.000000
# 4 0.000000 0.000000 0.000000 0.029879 0.000000 0.000000
# 5 0.000000 0.000000 0.000000 0.000000 -0.033352 0.000000
# 6 0.000000 0.000000 0.000000 0.000000 0.000000 0.010251
#
#
# Mechanical properties :
#
#
# Convention : Reuss Voigt Hill
#
# Bulk Modulus (GPa) = 53.79539 62.45461 58.12500
# Shear Modulus (GPa) = 55.60552 33.36203 44.48377
#
# Velocity S-wave (km/s) = 5.18531 4.01645 4.63785
# Velocity P-wave (km/s) = 7.86524 7.19085 7.53560
#
# Compressibility (1/GPa) = 0.01858895
#
# Stress axis : x y z
#
# Youngs Moduli (GPa) = 140.91761 51.04365 47.43984
#
# Poissons Ratio (x) = 0.18355 0.07449
# Poissons Ratio (y) = 0.50674 0.44701
# Poissons Ratio (z) = 0.22127 0.48097
#
# Static dielectric constant tensor:
#      x y z
#    x 1.799180 0.000000 0.000000 
#    y 0.000000 1.755450 0.000000 
#    z 0.000000 0.000000 1.740670 
# 
# From -- ./inp_files/22832.got.cif
#   From: 2010.05.17/outbox.cif.g08.bks.cpg/sg53_12_cif.got.tgz:22832.got - 2010.06.03 12:45:16.
