data_PCOD9417003
_publ_section_title
;
Structure prediction by ZEFSAII (Michael W. Deem and Ramdas Pophale) SiO2 
 PCOD9417003
Probable space group: P M N A
;
_chemical_formula_sum "Si O2"
_cell_formula_units_Z 56
_cell_length_a 8.519303
_cell_length_b 18.341345
_cell_length_c 19.915736
_cell_angle_alpha 90.000000
_cell_angle_beta 90.000000
_cell_angle_gamma 90.000000
_cell_volume 3111.942798
_symmetry_space_group_name_H-M "P M N A"
_symmetry_group_IT_number 53
_symmetry_cell_setting 'orthorhombic'
loop_
_space_group_symop_operation_xyz
x,y,z
1/2-x,-y,1/2+z
x,-y,-z
1/2-x,y,1/2-z
-x,-y,-z
1/2+x,y,1/2-z
-x,y,z
1/2+x,-y,1/2+z
loop_
_atom_site_type_symbol
_atom_site_label
_atom_site_fract_x
_atom_site_fract_y
_atom_site_fract_z
Si Si1 0.309787 0.500427 0.173975
Si Si2 0.690831 0.628321 0.924171
Si Si3 0.310242 0.367764 0.921779
Si Si4 0.310541 0.080369 0.674909
Si Si5 0.188347 0.793266 0.074723
Si Si6 0.811932 0.205873 0.425451
Si Si7 0.311873 0.084156 0.325253
O O1 0.250000 0.499470 0.250000
O O2 0.500000 0.499706 0.175451
O O3 0.255907 0.430834 0.129943
O O4 0.260221 0.572246 0.132309
O O5 0.500000 0.625937 0.924109
O O6 0.738362 0.711239 0.907557
O O7 0.739063 0.612959 0.001491
O O8 0.500000 0.365768 0.922123
O O9 0.249046 0.287021 0.906178
O O10 0.250000 0.092940 0.750000
O O11 0.500000 0.081602 0.676018
O O12 0.256310 0.143627 0.625053
O O13 0.262635 0.998204 0.654332
O O14 0.000000 0.792384 0.074607
O O15 0.248374 0.808829 0.999882
O O16 0.751974 0.145748 0.374210
O O17 0.000000 0.205223 0.427116
O O18 0.250000 0.095956 0.250000
O O19 0.500000 0.086757 0.324946
#
# Coordination Sequence:
#
# PCOD9417003 Si02
#       7
#     8   8   8   8   8   8   8
#     4  10  20  34  52  75 103 133 166 207 253 301
#     4   8  16  33  55  74  95 130 174 211 245 294
#     4   9  18  34  55  75  97 131 173 211 250 300
#     4   9  20  36  54  75 102 138 176 213 256 309
#     4  10  20  35  54  78 106 135 170 214 262 307
#     4  10  20  35  55  80 106 135 174 215 258 309
#     4  10  20  36  55  76 104 138 175 214 258 307
#
# _framework density 17.995189
#
# number of rings (size 3 to 8) (size 9 to 14) (size 15 to 20)
#    0.000    2.571    0.000    2.571    0.000    5.714 
#    0.000   10.714    0.000    4.286    0.000    0.000 
#    0.000    0.000    0.000    0.000    0.000    0.000 
#
# Total GULP energy -312384.791760 kJ/mol
# GULP energy per Si atom -5578.299853 kJ/mol
# Density = 1.795423 g / cm^3
# Si number density = 17.995189 Si / 1000 Ang^3
#
#
#
# Elastic Constant Matrix: (Units=GPa)
#
#
# Indices 1 2 3 4 5 6 
#
# 1 18.5515 31.0773 27.8906 0.0000 0.0000 0.0000
# 2 31.0773 179.2681 141.9903 0.0000 0.0000 0.0000
# 3 27.8906 141.9903 143.3941 0.0000 0.0000 0.0000
# 4 0.0000 0.0000 0.0000 -25.3767 0.0000 0.0000
# 5 0.0000 0.0000 0.0000 0.0000 30.8741 0.0000
# 6 0.0000 0.0000 0.0000 0.0000 0.0000 26.2543
#
#
#
# Elastic Compliance Matrix: (Units=1/GPa)
#
#
# Indices 1 2 3 4 5 6 
#
# 1 0.078020 -0.006981 -0.008263 0.000000 0.000000 0.000000
# 2 -0.006981 0.026486 -0.024869 0.000000 0.000000 0.000000
# 3 -0.008263 -0.024869 0.033206 0.000000 0.000000 0.000000
# 4 0.000000 0.000000 0.000000 -0.039406 0.000000 0.000000
# 5 0.000000 0.000000 0.000000 0.000000 0.032390 0.000000
# 6 0.000000 0.000000 0.000000 0.000000 0.000000 0.038089
#
#
# Mechanical properties :
#
#
# Convention : Reuss Voigt Hill
#
# Bulk Modulus (GPa) = 17.39498 82.57002 49.98250
# Shear Modulus (GPa) = 18.64472 15.70071 17.17271
#
# Velocity S-wave (km/s) = 3.22233 2.95701 3.09252
# Velocity P-wave (km/s) = 4.85098 7.59227 6.37082
#
# Compressibility (1/GPa) = 0.05748786
#
# Stress axis : x y z
#
# Youngs Moduli (GPa) = 12.81715 37.75595 30.11473
#
# Poissons Ratio (x) = 0.26356 0.24884
# Poissons Ratio (y) = 0.08947 0.74892
# Poissons Ratio (z) = 0.10591 0.93895
#
# Static dielectric constant tensor:
#      x y z
#    x 1.621170 0.000000 0.000000 
#    y 0.000000 1.620910 0.000000 
#    z 0.000000 0.000000 1.580550 
# 
# From -- ./inp_files/30831.got.cif
#   From: 2010.05.17/outbox.cif.g08.bks.cpg/sg53_16_cif.got.tgz:30831.got - 2010.06.03 12:45:16.
