data_PCOD9417022
_publ_section_title
;
Structure prediction by ZEFSAII (Michael W. Deem and Ramdas Pophale) SiO2 
 PCOD9417022
Probable space group: P M N A
;
_chemical_formula_sum "Si O2"
_cell_formula_units_Z 56
_cell_length_a 8.014229
_cell_length_b 22.593378
_cell_length_c 14.826075
_cell_angle_alpha 90.000000
_cell_angle_beta 90.000000
_cell_angle_gamma 90.000000
_cell_volume 2684.535238
_symmetry_space_group_name_H-M "P M N A"
_symmetry_group_IT_number 53
_symmetry_cell_setting 'orthorhombic'
loop_
_space_group_symop_operation_xyz
x,y,z
1/2-x,-y,1/2+z
x,-y,-z
1/2-x,y,1/2-z
-x,-y,-z
1/2+x,y,1/2-z
-x,y,z
1/2+x,-y,1/2+z
loop_
_atom_site_type_symbol
_atom_site_label
_atom_site_fract_x
_atom_site_fract_y
_atom_site_fract_z
Si Si1 0.799860 0.152332 0.145712
Si Si2 0.704756 0.654273 0.024454
Si Si3 0.801517 0.105286 0.644927
Si Si4 0.698937 0.785248 0.028908
Si Si5 0.700730 0.413042 0.147285
Si Si6 0.298893 0.454608 0.853675
Si Si7 0.801469 0.977938 0.855316
O O1 0.750000 0.161142 0.250000
O O2 0.730085 0.199327 0.075493
O O3 0.000000 0.153101 0.141056
O O4 0.737986 0.086567 0.114920
O O5 0.500000 0.655291 0.026815
O O6 0.761368 0.600640 0.088083
O O7 0.763865 0.719663 0.050279
O O8 0.757254 0.635750 0.923777
O O9 0.750000 0.108923 0.750000
O O10 0.731391 0.160740 0.588816
O O11 0.753592 0.040831 0.605479
O O12 0.000000 0.107637 0.642770
O O13 0.500000 0.784086 0.043730
O O14 0.750000 0.401816 0.250000
O O15 0.500000 0.414519 0.143475
O O16 0.760042 0.479285 0.120203
O O17 0.250000 0.446352 0.750000
O O18 0.500000 0.455348 0.861537
O O19 0.750000 0.980620 0.750000
O O20 0.000000 0.976645 0.861837
#
# Coordination Sequence:
#
# PCOD9417022 Si02
#       7
#     8   8   8   8   8   8   8
#     4  10  21  37  57  79 104 134 169 213 261 309
#     4   9  18  34  53  72 100 138 175 207 244 298
#     4  10  20  34  53  76 103 135 171 214 261 308
#     4  10  22  37  52  74 104 140 179 213 251 304
#     4   9  17  31  53  78 102 130 166 209 254 299
#     4   9  17  31  53  79 103 130 167 209 254 300
#     4   9  17  31  53  78 101 128 165 210 261 310
#
# _framework density 20.860223999999999
#
# number of rings (size 3 to 8) (size 9 to 14) (size 15 to 20)
#    0.000    2.571    0.000    2.571    0.000    6.286 
#    0.000    6.429    0.000    3.429    0.000    0.000 
#    0.000    0.000    0.000    0.000    0.000    0.000 
#
# Total GULP energy -312422.972692 kJ/mol
# GULP energy per Si atom -5578.981655 kJ/mol
# Density = 2.081274 g / cm^3
# Si number density = 20.860224 Si / 1000 Ang^3
#
#
#
# Elastic Constant Matrix: (Units=GPa)
#
#
# Indices 1 2 3 4 5 6 
#
# 1 18.3322 4.3709 -11.7349 0.0000 0.0000 0.0000
# 2 4.3709 66.4083 2.3774 0.0000 0.0000 0.0000
# 3 -11.7349 2.3774 24.0134 0.0000 0.0000 0.0000
# 4 0.0000 0.0000 0.0000 25.3699 0.0000 0.0000
# 5 0.0000 0.0000 0.0000 0.0000 19.4123 0.0000
# 6 0.0000 0.0000 0.0000 0.0000 0.0000 3.2504
#
#
#
# Elastic Compliance Matrix: (Units=1/GPa)
#
#
# Indices 1 2 3 4 5 6 
#
# 1 0.082406 -0.006890 0.040953 0.000000 0.000000 0.000000
# 2 -0.006890 0.015688 -0.004920 0.000000 0.000000 0.000000
# 3 0.040953 -0.004920 0.062144 0.000000 0.000000 0.000000
# 4 0.000000 0.000000 0.000000 0.039417 0.000000 0.000000
# 5 0.000000 0.000000 0.000000 0.000000 0.051514 0.000000
# 6 0.000000 0.000000 0.000000 0.000000 0.000000 0.307656
#
#
# Mechanical properties :
#
#
# Convention : Reuss Voigt Hill
#
# Bulk Modulus (GPa) = 4.57618 10.97564 7.77591
# Shear Modulus (GPa) = 8.72021 17.18922 12.95471
#
# Velocity S-wave (km/s) = 2.04680 2.87369 2.49474
# Velocity P-wave (km/s) = 2.79004 4.03531 3.46901
#
# Compressibility (1/GPa) = 0.21852289
#
# Stress axis : x y z
#
# Youngs Moduli (GPa) = 12.13498 63.74297 16.09178
#
# Poissons Ratio (x) = 0.43919 -0.65900
# Poissons Ratio (y) = 0.08361 0.07918
# Poissons Ratio (z) = -0.49696 0.31363
#
# Static dielectric constant tensor:
#      x y z
#    x 1.724210 0.000000 0.000000 
#    y 0.000000 1.787480 0.000000 
#    z 0.000000 0.000000 1.737440 
# 
# From -- ./inp_files/20473.got.cif
#   From: 2010.05.17/outbox.cif.g08.bks.cpg/sg53_11_cif.got.tgz:20473.got - 2010.06.03 12:45:16.
