data_PCOD9417261
_publ_section_title
;
Structure prediction by ZEFSAII (Michael W. Deem and Ramdas Pophale) SiO2 
 PCOD9417261
Probable space group: P M N A
;
_chemical_formula_sum "Si O2"
_cell_formula_units_Z 40
_cell_length_a 25.407552
_cell_length_b 10.424035
_cell_length_c 7.368216
_cell_angle_alpha 90.000000
_cell_angle_beta 90.000000
_cell_angle_gamma 90.000000
_cell_volume 1951.466196
_symmetry_space_group_name_H-M "P M N A"
_symmetry_group_IT_number 53
_symmetry_cell_setting 'orthorhombic'
loop_
_space_group_symop_operation_xyz
x,y,z
1/2-x,-y,1/2+z
x,-y,-z
1/2-x,y,1/2-z
-x,-y,-z
1/2+x,y,1/2-z
-x,y,z
1/2+x,-y,1/2+z
loop_
_atom_site_type_symbol
_atom_site_label
_atom_site_fract_x
_atom_site_fract_y
_atom_site_fract_z
Si Si1 0.693288 0.799572 0.300783
Si Si2 0.391762 0.863116 0.025049
Si Si3 0.688759 0.236330 0.271264
Si Si4 0.942084 0.396011 0.660182
Si Si5 0.667910 0.477214 0.705428
O O1 0.750000 0.855864 0.250000
O O2 0.647838 0.872353 0.195710
O O3 0.680007 0.786331 0.513449
O O4 0.693418 0.653147 0.222445
O O5 0.427918 0.741293 0.071418
O O6 0.353715 0.834533 0.853581
O O7 0.419132 0.000000 0.000000
O O8 0.750000 0.200842 0.250000
O O9 0.681491 0.385929 0.210212
O O10 0.942926 0.500000 0.500000
O O11 0.894032 0.442812 0.785435
O O12 0.000000 0.391379 0.746232
O O13 0.685347 0.500000 0.500000
#
# Coordination Sequence:
#
# PCOD9417261 Si02
#       5
#     8   8   8   8   8
#     4  10  20  35  53  85 114 154 198 229 276 347
#     4  11  24  39  57  83 118 156 193 237 287 342
#     4  11  20  35  56  83 119 159 187 234 281 337
#     4  10  20  38  64  86 110 146 194 246 293 345
#     4   9  19  33  56  87 116 144 188 238 293 339
#
# _framework density 20.497409000000001
#
# number of rings (size 3 to 8) (size 9 to 14) (size 15 to 20)
#    0.000    1.800    4.000    0.600    0.000    2.400 
#    0.000    0.000    0.000    0.000    0.000    5.600 
#    0.000    0.000    0.000    0.000    0.000    0.000 
#
# Total GULP energy -223076.711446 kJ/mol
# GULP energy per Si atom -5576.917786 kJ/mol
# Density = 2.045076 g / cm^3
# Si number density = 20.497409 Si / 1000 Ang^3
#
#
#
# Elastic Constant Matrix: (Units=GPa)
#
#
# Indices 1 2 3 4 5 6 
#
# 1 76.2981 -8.4280 -10.4917 0.0000 0.0000 0.0000
# 2 -8.4280 98.0425 3.3024 0.0000 0.0000 0.0000
# 3 -10.4917 3.3024 81.6926 0.0000 0.0000 0.0000
# 4 0.0000 0.0000 0.0000 -74.4102 0.0000 0.0000
# 5 0.0000 0.0000 0.0000 0.0000 5.6974 0.0000
# 6 0.0000 0.0000 0.0000 0.0000 0.0000 -0.8258
#
#
#
# Elastic Compliance Matrix: (Units=1/GPa)
#
#
# Indices 1 2 3 4 5 6 
#
# 1 0.013460 0.001100 0.001684 0.000000 0.000000 0.000000
# 2 0.001100 0.010304 -0.000275 0.000000 0.000000 0.000000
# 3 0.001684 -0.000275 0.012468 0.000000 0.000000 0.000000
# 4 0.000000 0.000000 0.000000 -0.013439 0.000000 0.000000
# 5 0.000000 0.000000 0.000000 0.000000 0.175519 0.000000
# 6 0.000000 0.000000 0.000000 0.000000 0.000000 -1.210915
#
#
# Mechanical properties :
#
#
# Convention : Reuss Voigt Hill
#
# Bulk Modulus (GPa) = 24.24242 24.97761 24.61002
# Shear Modulus (GPa) = -4.98071 4.20231 -0.38920
#
# Velocity S-wave (km/s) = -1.56051 1.43339 -0.43622
# Velocity P-wave (km/s) = 2.93357 3.86674 3.43202
#
# Compressibility (1/GPa) = 0.04125000
#
# Stress axis : x y z
#
# Youngs Moduli (GPa) = 74.29631 97.05426 80.20256
#
# Poissons Ratio (x) = -0.10679 -0.13507
# Poissons Ratio (y) = -0.08175 0.02207
# Poissons Ratio (z) = -0.12512 0.02671
#
# Static dielectric constant tensor:
#      x y z
#    x 1.745990 0.000000 0.000000 
#    y 0.000000 1.802280 0.000000 
#    z 0.000000 0.000000 1.726010 
# 
# From -- ./inp_files/12252.got.cif
#   From: 2010.05.17/outbox.cif.g08.bks.cpg/sg53_7_cif.got.tgz:12252.got - 2010.06.03 12:45:16.
