data_PCOD9417427
_publ_section_title
;
Structure prediction by ZEFSAII (Michael W. Deem and Ramdas Pophale) SiO2 
 PCOD9417427
Probable space group: P M N A
;
_chemical_formula_sum "Si O2"
_cell_formula_units_Z 48
_cell_length_a 18.541816
_cell_length_b 7.890676
_cell_length_c 13.644724
_cell_angle_alpha 90.000000
_cell_angle_beta 90.000000
_cell_angle_gamma 90.000000
_cell_volume 1996.324945
_symmetry_space_group_name_H-M "P M N A"
_symmetry_group_IT_number 53
_symmetry_cell_setting 'orthorhombic'
loop_
_space_group_symop_operation_xyz
x,y,z
1/2-x,-y,1/2+z
x,-y,-z
1/2-x,y,1/2-z
-x,-y,-z
1/2+x,y,1/2-z
-x,y,z
1/2+x,-y,1/2+z
loop_
_atom_site_type_symbol
_atom_site_label
_atom_site_fract_x
_atom_site_fract_y
_atom_site_fract_z
Si Si1 0.916760 0.978094 0.782223
Si Si2 0.919411 0.351040 0.876944
Si Si3 0.148195 0.179533 0.042773
Si Si4 0.915260 0.781185 0.596834
Si Si5 0.674283 0.479952 0.225625
Si Si6 0.703345 0.311196 0.954743
O O1 0.863290 0.856210 0.843232
O O2 0.905315 0.943338 0.667434
O O3 0.000000 0.925163 0.803116
O O4 0.911105 0.171257 0.818198
O O5 0.861012 0.469526 0.827641
O O6 0.000000 0.412398 0.860756
O O7 0.903388 0.313416 0.990092
O O8 0.226834 0.215196 0.997178
O O9 0.122686 0.000000 0.000000
O O10 0.882450 0.626927 0.661934
O O11 0.867068 0.776671 0.500046
O O12 0.000000 0.759193 0.576856
O O13 0.750000 0.391357 0.250000
O O14 0.695354 0.646102 0.159929
O O15 0.709520 0.500000 0.000000
#
# Coordination Sequence:
#
# PCOD9417427 Si02
#       6
#     8   8   8   8   8   8
#     4   9  20  37  58  85 116 150 192 236 282 343
#     4  10  20  37  60  85 115 151 188 235 291 343
#     4  10  20  35  57  86 117 151 189 232 289 345
#     4  10  23  41  60  85 114 155 199 237 284 343
#     4  11  22  38  58  85 117 149 192 243 285 342
#     4  10  23  38  57  81 116 151 188 240 285 340
#
# _framework density 24.044180999999998
#
# number of rings (size 3 to 8) (size 9 to 14) (size 15 to 20)
#    0.000    2.000    1.667    1.000    4.667    7.000 
#    0.000    0.000    0.000    7.500    0.000    0.000 
#    0.000    0.000    0.000    0.000    0.000    0.000 
#
# Total GULP energy -268343.119344 kJ/mol
# GULP energy per Si atom -5590.481653 kJ/mol
# Density = 2.398946 g / cm^3
# Si number density = 24.044181 Si / 1000 Ang^3
#
#
#
# Elastic Constant Matrix: (Units=GPa)
#
#
# Indices 1 2 3 4 5 6 
#
# 1 103.3917 9.2281 14.3411 0.0000 0.0000 0.0000
# 2 9.2281 52.9099 0.0791 0.0000 0.0000 0.0000
# 3 14.3411 0.0791 73.5147 0.0000 0.0000 0.0000
# 4 0.0000 0.0000 0.0000 35.1988 0.0000 0.0000
# 5 0.0000 0.0000 0.0000 0.0000 40.4193 0.0000
# 6 0.0000 0.0000 0.0000 0.0000 0.0000 25.9226
#
#
#
# Elastic Compliance Matrix: (Units=1/GPa)
#
#
# Indices 1 2 3 4 5 6 
#
# 1 0.010102 -0.001759 -0.001969 0.000000 0.000000 0.000000
# 2 -0.001759 0.019206 0.000322 0.000000 0.000000 0.000000
# 3 -0.001969 0.000322 0.013986 0.000000 0.000000 0.000000
# 4 0.000000 0.000000 0.000000 0.028410 0.000000 0.000000
# 5 0.000000 0.000000 0.000000 0.000000 0.024741 0.000000
# 6 0.000000 0.000000 0.000000 0.000000 0.000000 0.038576
#
#
# Mechanical properties :
#
#
# Convention : Reuss Voigt Hill
#
# Bulk Modulus (GPa) = 27.40908 30.79031 29.09969
# Shear Modulus (GPa) = 32.46882 34.05267 33.26075
#
# Velocity S-wave (km/s) = 3.67874 3.76740 3.72333
# Velocity P-wave (km/s) = 5.42848 5.63542 5.53291
#
# Compressibility (1/GPa) = 0.03648426
#
# Stress axis : x y z
#
# Youngs Moduli (GPa) = 98.98994 52.06610 71.49783
#
# Poissons Ratio (x) = 0.09158 0.14076
# Poissons Ratio (y) = 0.17412 -0.02306
# Poissons Ratio (z) = 0.19489 -0.01679
#
# Static dielectric constant tensor:
#      x y z
#    x 1.863450 0.000000 0.000000 
#    y 0.000000 1.937550 0.000000 
#    z 0.000000 0.000000 1.945300 
# 
# From -- ./inp_files/16892.got.cif
#   From: 2010.05.17/outbox.cif.g08.bks.cpg/sg53_9_cif.got.tgz:16892.got - 2010.06.03 12:45:16.
