data_PCOD9417890
_publ_section_title
;
Structure prediction by ZEFSAII (Michael W. Deem and Ramdas Pophale) SiO2 
 PCOD9417890
Probable space group: P M N A
;
_chemical_formula_sum "Si O2"
_cell_formula_units_Z 48
_cell_length_a 17.374442
_cell_length_b 16.023256
_cell_length_c 8.713109
_cell_angle_alpha 90.000000
_cell_angle_beta 90.000000
_cell_angle_gamma 90.000000
_cell_volume 2425.687130
_symmetry_space_group_name_H-M "P M N A"
_symmetry_group_IT_number 53
_symmetry_cell_setting 'orthorhombic'
loop_
_space_group_symop_operation_xyz
x,y,z
1/2-x,-y,1/2+z
x,-y,-z
1/2-x,y,1/2-z
-x,-y,-z
1/2+x,y,1/2-z
-x,y,z
1/2+x,-y,1/2+z
loop_
_atom_site_type_symbol
_atom_site_label
_atom_site_fract_x
_atom_site_fract_y
_atom_site_fract_z
Si Si1 0.834565 0.509466 0.685122
Si Si2 0.162535 0.154897 0.186843
Si Si3 0.408625 0.662689 0.192458
Si Si4 0.664214 0.016908 0.819799
Si Si5 0.408523 0.317433 0.159957
Si Si6 0.908649 0.163975 0.859742
O O1 0.834571 0.500000 0.500000
O O2 0.750000 0.520730 0.750000
O O3 0.868908 0.422465 0.745515
O O4 0.882131 0.592719 0.722806
O O5 0.250000 0.156066 0.250000
O O6 0.129037 0.067976 0.250004
O O7 0.124648 0.238837 0.250501
O O8 0.146674 0.151402 0.005692
O O9 0.500000 0.646572 0.185191
O O10 0.395568 0.742850 0.297005
O O11 0.383098 0.684744 0.018736
O O12 0.750000 0.028079 0.750000
O O13 0.614558 0.096429 0.768978
O O14 0.670445 0.000000 0.000000
O O15 0.500000 0.312792 0.164281
O O16 0.000000 0.155669 0.898312
#
# Coordination Sequence:
#
# PCOD9417890 Si02
#       6
#     8   8   8   8   8   8
#     4  10  21  36  57  84 114 150 193 242 293 351
#     4  11  23  39  59  87 122 159 200 246 299 358
#     4   9  20  38  58  83 114 151 195 242 296 352
#     4  11  23  41  64  90 122 161 204 250 303 361
#     4  10  20  37  60  84 115 155 198 245 297 355
#     4  11  24  41  63  92 125 160 202 253 304 359
#
# _framework density 19.788207
#
# number of rings (size 3 to 8) (size 9 to 14) (size 15 to 20)
#    0.000    1.667    0.000    5.000    0.000    9.000 
#    0.000    0.000    0.000    4.000    0.000    0.000 
#    0.000    0.000    0.000    0.000    0.000    0.000 
#
# Total GULP energy -268083.426730 kJ/mol
# GULP energy per Si atom -5585.071390 kJ/mol
# Density = 1.974317 g / cm^3
# Si number density = 19.788207 Si / 1000 Ang^3
#
#
#
# Elastic Constant Matrix: (Units=GPa)
#
#
# Indices 1 2 3 4 5 6 
#
# 1 52.3987 33.6266 25.1086 0.0000 0.0000 0.0000
# 2 33.6266 90.2850 1.2706 0.0000 0.0000 0.0000
# 3 25.1086 1.2706 58.6241 0.0000 0.0000 0.0000
# 4 0.0000 0.0000 0.0000 -97.3543 0.0000 0.0000
# 5 0.0000 0.0000 0.0000 0.0000 41.3214 0.0000
# 6 0.0000 0.0000 0.0000 0.0000 0.0000 38.1364
#
#
#
# Elastic Compliance Matrix: (Units=1/GPa)
#
#
# Indices 1 2 3 4 5 6 
#
# 1 0.033877 -0.012417 -0.014240 0.000000 0.000000 0.000000
# 2 -0.012417 0.015631 0.004979 0.000000 0.000000 0.000000
# 3 -0.014240 0.004979 0.023049 0.000000 0.000000 0.000000
# 4 0.000000 0.000000 0.000000 -0.010272 0.000000 0.000000
# 5 0.000000 0.000000 0.000000 0.000000 0.024201 0.000000
# 6 0.000000 0.000000 0.000000 0.000000 0.000000 0.026222
#
#
# Mechanical properties :
#
#
# Convention : Reuss Voigt Hill
#
# Bulk Modulus (GPa) = 34.24568 35.70215 34.97391
# Shear Modulus (GPa) = 30.15757 5.84084 17.99921
#
# Velocity S-wave (km/s) = 3.90810 1.71991 3.01922
# Velocity P-wave (km/s) = 6.14069 4.69312 5.46505
#
# Compressibility (1/GPa) = 0.02920077
#
# Stress axis : x y z
#
# Youngs Moduli (GPa) = 29.51885 63.97689 43.38583
#
# Poissons Ratio (x) = 0.79440 0.61782
# Poissons Ratio (y) = 0.36653 -0.21604
# Poissons Ratio (z) = 0.42036 -0.31857
#
# Static dielectric constant tensor:
#      x y z
#    x 1.676790 0.000000 0.000000 
#    y 0.000000 1.680680 0.000000 
#    z 0.000000 0.000000 1.709700 
# 
# From -- ./inp_files/9953.got.cif
#   From: 2010.05.17/outbox.cif.g08.bks.cpg/sg53_5_cif.got.tgz:9953.got - 2010.06.03 12:45:16.
