data_PCOD9417153
_publ_section_title
;
Structure prediction by ZEFSAII (Michael W. Deem and Ramdas Pophale) SiO2 
 PCOD9417153
Probable space group: P M N A
;
_chemical_formula_sum "Si O2"
_cell_formula_units_Z 60
_cell_length_a 27.084252
_cell_length_b 20.735379
_cell_length_c 5.461175
_cell_angle_alpha 90.000000
_cell_angle_beta 90.000000
_cell_angle_gamma 90.000000
_cell_volume 3067.008059
_symmetry_space_group_name_H-M "P M N A"
_symmetry_group_IT_number 53
_symmetry_cell_setting 'orthorhombic'
loop_
_space_group_symop_operation_xyz
x,y,z
1/2-x,-y,1/2+z
x,-y,-z
1/2-x,y,1/2-z
-x,-y,-z
1/2+x,y,1/2-z
-x,y,z
1/2+x,-y,1/2+z
loop_
_atom_site_type_symbol
_atom_site_label
_atom_site_fract_x
_atom_site_fract_y
_atom_site_fract_z
Si Si1 0.193608 0.748579 0.782321
Si Si2 0.750000 0.960780 0.250000
Si Si3 0.144742 0.064259 0.664457
Si Si4 0.341775 0.683583 0.236985
Si Si5 0.445709 0.103573 0.554891
Si Si6 0.606289 0.169954 0.175618
Si Si7 0.943838 0.752864 0.297982
Si Si8 0.309088 0.539315 0.248744
O O1 0.250000 0.771963 0.750000
O O2 0.177466 0.714169 0.523253
O O3 0.150730 0.801279 0.834663
O O4 0.190314 0.704838 0.025844
O O5 0.802317 0.927261 0.209981
O O6 0.756262 0.000000 0.500000
O O7 0.097626 0.061378 0.837037
O O8 0.136847 0.130770 0.523572
O O9 0.144434 0.000000 0.500000
O O10 0.398287 0.707854 0.280562
O O11 0.337412 0.606780 0.230326
O O12 0.500000 0.078183 0.596983
O O13 0.431115 0.116790 0.277431
O O14 0.443287 0.177410 0.660717
O O15 0.572019 0.226636 0.072764
O O16 0.000000 0.728036 0.281566
O O17 0.320079 0.500000 0.500000
O O18 0.250000 0.552728 0.250000
O O19 0.319387 0.500000 0.000000
#
# Coordination Sequence:
#
# PCOD9417153 Si02
#       8
#     8   4   8   8   8   8   8   8
#     4  11  22  36  56  88 121 154 191 248 306 351
#     4  10  24  44  66  86 112 156 200 244 288 358
#     4  10  24  41  59  84 116 155 201 248 300 369
#     4  11  21  38  59  88 121 156 201 243 289 350
#     4  10  20  37  62  86 117 150 195 252 305 362
#     4  10  21  37  57  85 116 151 196 246 301 367
#     4   9  19  37  58  84 115 152 197 244 301 353
#     4  10  20  34  55  83 118 162 198 232 282 340
#
# _framework density 19.563040000000001
#
# number of rings (size 3 to 8) (size 9 to 14) (size 15 to 20)
#    0.000    1.867    1.333    2.400    3.733    2.933 
#    1.200    0.667    0.000    0.800    0.000    0.000 
#    0.000    0.000    0.000    0.000    0.000    0.000 
#
# Total GULP energy -334207.810659 kJ/mol
# GULP energy per Si atom -5570.130178 kJ/mol
# Density = 1.951851 g / cm^3
# Si number density = 19.563040 Si / 1000 Ang^3
#
#
#
# Elastic Constant Matrix: (Units=GPa)
#
#
# Indices 1 2 3 4 5 6 
#
# 1 162.6802 25.4071 24.3121 0.0000 0.0000 0.0000
# 2 25.4071 47.9372 9.2082 0.0000 0.0000 0.0000
# 3 24.3121 9.2082 73.6400 0.0000 0.0000 0.0000
# 4 0.0000 0.0000 0.0000 27.1229 0.0000 0.0000
# 5 0.0000 0.0000 0.0000 0.0000 -0.6092 0.0000
# 6 0.0000 0.0000 0.0000 0.0000 0.0000 28.8999
#
#
#
# Elastic Compliance Matrix: (Units=1/GPa)
#
#
# Indices 1 2 3 4 5 6 
#
# 1 0.006946 -0.003321 -0.001878 0.000000 0.000000 0.000000
# 2 -0.003321 0.022962 -0.001775 0.000000 0.000000 0.000000
# 3 -0.001878 -0.001775 0.014422 0.000000 0.000000 0.000000
# 4 0.000000 0.000000 0.000000 0.036869 0.000000 0.000000
# 5 0.000000 0.000000 0.000000 0.000000 -1.641373 0.000000
# 6 0.000000 0.000000 0.000000 0.000000 0.000000 0.034602
#
#
# Mechanical properties :
#
#
# Convention : Reuss Voigt Hill
#
# Bulk Modulus (GPa) = 32.91423 44.67915 38.79669
# Shear Modulus (GPa) = -3.33001 26.10470 11.38734
#
# Velocity S-wave (km/s) = -1.30610 3.65689 2.41526
# Velocity P-wave (km/s) = 3.81925 6.38111 5.25858
#
# Compressibility (1/GPa) = 0.03038200
#
# Stress axis : x y z
#
# Youngs Moduli (GPa) = 143.96055 43.55092 69.34064
#
# Poissons Ratio (x) = 0.14463 0.13023
# Poissons Ratio (y) = 0.47807 0.12307
# Poissons Ratio (z) = 0.27037 0.07730
#
# Static dielectric constant tensor:
#      x y z
#    x 1.714210 0.000000 0.000000 
#    y 0.000000 1.709350 0.000000 
#    z 0.000000 0.000000 1.812470 
# 
# From -- ./inp_files/3831.got.cif
#   From: 2010.05.17/outbox.cif.g08.bks.cpg/sg53_2_cif.got.tgz:3831.got - 2010.06.03 12:45:16.
