data_PCOD9417616
_publ_section_title
;
Structure prediction by ZEFSAII (Michael W. Deem and Ramdas Pophale) SiO2 
 PCOD9417616
Probable space group: P M N A
;
_chemical_formula_sum "Si O2"
_cell_formula_units_Z 48
_cell_length_a 8.612651
_cell_length_b 31.672424
_cell_length_c 9.305058
_cell_angle_alpha 90.000000
_cell_angle_beta 90.000000
_cell_angle_gamma 90.000000
_cell_volume 2538.266608
_symmetry_space_group_name_H-M "P M N A"
_symmetry_group_IT_number 53
_symmetry_cell_setting 'orthorhombic'
loop_
_space_group_symop_operation_xyz
x,y,z
1/2-x,-y,1/2+z
x,-y,-z
1/2-x,y,1/2-z
-x,-y,-z
1/2+x,y,1/2-z
-x,y,z
1/2+x,-y,1/2+z
loop_
_atom_site_type_symbol
_atom_site_label
_atom_site_fract_x
_atom_site_fract_y
_atom_site_fract_z
Si Si1 0.314592 0.879947 0.411069
Si Si2 0.686826 0.211178 0.910796
Si Si3 0.187609 0.541459 0.588398
Si Si4 0.812325 0.624360 0.411380
Si Si5 0.313706 0.041813 0.089551
Si Si6 0.812641 0.706693 0.589348
O O1 0.250000 0.886928 0.250000
O O2 0.500000 0.879339 0.406252
O O3 0.252498 0.834087 0.458699
O O4 0.255088 0.917093 0.512400
O O5 0.750000 0.218865 0.750000
O O6 0.500000 0.209008 0.905302
O O7 0.734392 0.249556 0.013519
O O8 0.237397 0.500000 0.500000
O O9 0.250000 0.541032 0.750000
O O10 0.237049 0.583449 0.502846
O O11 0.000000 0.541377 0.594260
O O12 0.750000 0.622748 0.250000
O O13 0.761626 0.666908 0.493020
O O14 0.000000 0.624373 0.405826
O O15 0.250000 0.038279 0.250000
O O16 0.500000 0.044946 0.091896
O O17 0.270528 0.000000 0.000000
O O18 0.750000 0.703426 0.750000
O O19 0.000000 0.705987 0.594165
#
# Coordination Sequence:
#
# PCOD9417616 Si02
#       6
#     8   8   8   8   8   8
#     4  11  22  38  61  87 117 152 190 233 282 334
#     4  10  20  36  57  82 111 144 186 230 276 332
#     4  10  21  36  55  81 112 145 184 228 274 329
#     4  10  21  37  56  81 110 142 184 229 276 331
#     4  11  24  41  62  88 118 152 191 234 281 334
#     4  10  22  37  55  80 110 144 183 229 277 331
#
# _framework density 18.910544000000002
#
# number of rings (size 3 to 8) (size 9 to 14) (size 15 to 20)
#    0.000    1.667    0.000    5.500    0.000    6.333 
#    0.000    1.667    0.000    0.000    0.000    0.000 
#    0.000    0.000    0.000    0.000    0.000    0.000 
#
# Total GULP energy -268339.123363 kJ/mol
# GULP energy per Si atom -5590.398403 kJ/mol
# Density = 1.886750 g / cm^3
# Si number density = 18.910544 Si / 1000 Ang^3
#
#
#
# Elastic Constant Matrix: (Units=GPa)
#
#
# Indices 1 2 3 4 5 6 
#
# 1 53.3893 56.3001 44.7916 0.0000 0.0000 0.0000
# 2 56.3001 205.1215 139.9475 0.0000 0.0000 0.0000
# 3 44.7916 139.9475 181.4921 0.0000 0.0000 0.0000
# 4 0.0000 0.0000 0.0000 45.2244 0.0000 0.0000
# 5 0.0000 0.0000 0.0000 0.0000 39.0648 0.0000
# 6 0.0000 0.0000 0.0000 0.0000 0.0000 -14.8097
#
#
#
# Elastic Compliance Matrix: (Units=1/GPa)
#
#
# Indices 1 2 3 4 5 6 
#
# 1 0.026693 -0.005976 -0.001980 0.000000 0.000000 0.000000
# 2 -0.005976 0.011625 -0.007489 0.000000 0.000000 0.000000
# 3 -0.001980 -0.007489 0.011773 0.000000 0.000000 0.000000
# 4 0.000000 0.000000 0.000000 0.022112 0.000000 0.000000
# 5 0.000000 0.000000 0.000000 0.000000 0.025598 0.000000
# 6 0.000000 0.000000 0.000000 0.000000 0.000000 -0.067523
#
#
# Mechanical properties :
#
#
# Convention : Reuss Voigt Hill
#
# Bulk Modulus (GPa) = 52.07862 102.45347 77.26605
# Shear Modulus (GPa) = 73.99965 27.16017 50.57991
#
# Velocity S-wave (km/s) = 6.26230 3.79389 5.17735
# Velocity P-wave (km/s) = 8.93799 8.57246 8.75713
#
# Compressibility (1/GPa) = 0.01920174
#
# Stress axis : x y z
#
# Youngs Moduli (GPa) = 37.46324 86.02256 84.93767
#
# Poissons Ratio (x) = 0.51403 0.16817
# Poissons Ratio (y) = 0.22386 0.63611
# Poissons Ratio (z) = 0.07418 0.64423
#
# Static dielectric constant tensor:
#      x y z
#    x 1.639700 0.000000 0.000000 
#    y 0.000000 1.650250 0.000000 
#    z 0.000000 0.000000 1.602860 
# 
# From -- ./inp_files/6612.got.cif
#   From: 2010.05.17/outbox.cif.g08.bks.cpg/sg53_4_cif.got.tgz:6612.got - 2010.06.03 12:45:16.
