data_PCOD9417657
_publ_section_title
;
Structure prediction by ZEFSAII (Michael W. Deem and Ramdas Pophale) SiO2 
 PCOD9417657
Probable space group: P M N A
;
_chemical_formula_sum "Si O2"
_cell_formula_units_Z 64
_cell_length_a 8.631552
_cell_length_b 20.971608
_cell_length_c 18.978361
_cell_angle_alpha 90.000000
_cell_angle_beta 90.000000
_cell_angle_gamma 90.000000
_cell_volume 3435.415936
_symmetry_space_group_name_H-M "P M N A"
_symmetry_group_IT_number 53
_symmetry_cell_setting 'orthorhombic'
loop_
_space_group_symop_operation_xyz
x,y,z
1/2-x,-y,1/2+z
x,-y,-z
1/2-x,y,1/2-z
-x,-y,-z
1/2+x,y,1/2-z
-x,y,z
1/2+x,-y,1/2+z
loop_
_atom_site_type_symbol
_atom_site_label
_atom_site_fract_x
_atom_site_fract_y
_atom_site_fract_z
Si Si1 0.184707 0.071049 0.171670
Si Si2 0.814568 0.689335 0.671403
Si Si3 0.311783 0.571915 0.419873
Si Si4 0.187364 0.186843 0.418444
Si Si5 0.185973 0.067774 0.672040
Si Si6 0.687371 0.426973 0.417713
Si Si7 0.814135 0.691650 0.171345
Si Si8 0.186943 0.809122 0.418348
O O1 0.250000 0.084717 0.250000
O O2 0.243021 0.124851 0.118634
O O3 0.000000 0.070039 0.174931
O O4 0.246593 0.000984 0.151452
O O5 0.750000 0.694514 0.750000
O O6 0.765236 0.750278 0.624853
O O7 0.756489 0.625275 0.633756
O O8 0.000000 0.688826 0.674035
O O9 0.500000 0.571897 0.419566
O O10 0.266083 0.585542 0.500854
O O11 0.264285 0.499794 0.401117
O O12 0.258988 0.626741 0.367087
O O13 0.234140 0.192143 0.500002
O O14 0.000000 0.182283 0.416017
O O15 0.250000 0.082869 0.750000
O O16 0.228511 0.124011 0.618576
O O17 0.000000 0.063119 0.675653
O O18 0.500000 0.424102 0.414312
O O19 0.750000 0.696303 0.250000
O O20 0.759516 0.751353 0.125103
O O21 0.000000 0.690852 0.173854
O O22 0.000000 0.803201 0.415316
#
# Coordination Sequence:
#
# PCOD9417657 Si02
#       8
#     8   8   8   8   8   8   8   8
#     4  11  22  37  59  85 113 145 184 226 270 322
#     4  11  23  37  55  80 110 144 183 227 274 325
#     4   8  17  34  57  83 110 145 182 221 273 330
#     4  10  22  40  59  81 112 146 182 226 277 331
#     4  10  20  36  58  82 111 146 182 221 270 325
#     4   9  17  35  60  82 109 143 182 225 272 327
#     4  11  22  36  55  80 111 146 186 229 275 327
#     4  10  22  39  59  83 111 145 183 227 278 329
#
# _framework density 18.629476
#
# number of rings (size 3 to 8) (size 9 to 14) (size 15 to 20)
#    0.000    2.000    0.000    5.250    0.000    5.500 
#    0.000    6.875    0.000    0.000    0.000    0.000 
#    0.000    0.000    0.000    0.000    0.000    0.000 
#
# Total GULP energy -357544.490554 kJ/mol
# GULP energy per Si atom -5586.632665 kJ/mol
# Density = 1.858707 g / cm^3
# Si number density = 18.629476 Si / 1000 Ang^3
#
#
#
# Elastic Constant Matrix: (Units=GPa)
#
#
# Indices 1 2 3 4 5 6 
#
# 1 40.3881 50.1427 50.6735 0.0000 0.0000 0.0000
# 2 50.1427 170.2806 143.6774 0.0000 0.0000 0.0000
# 3 50.6735 143.6774 179.0782 0.0000 0.0000 0.0000
# 4 0.0000 0.0000 0.0000 42.7196 0.0000 0.0000
# 5 0.0000 0.0000 0.0000 0.0000 14.4333 0.0000
# 6 0.0000 0.0000 0.0000 0.0000 0.0000 -11.2438
#
#
#
# Elastic Compliance Matrix: (Units=1/GPa)
#
#
# Indices 1 2 3 4 5 6 
#
# 1 0.040962 -0.007064 -0.005923 0.000000 0.000000 0.000000
# 2 -0.007064 0.019398 -0.013565 0.000000 0.000000 0.000000
# 3 -0.005923 -0.013565 0.018143 0.000000 0.000000 0.000000
# 4 0.000000 0.000000 0.000000 0.023408 0.000000 0.000000
# 5 0.000000 0.000000 0.000000 0.000000 0.069284 0.000000
# 6 0.000000 0.000000 0.000000 0.000000 0.000000 -0.088938
#
#
# Mechanical properties :
#
#
# Convention : Reuss Voigt Hill
#
# Bulk Modulus (GPa) = 39.37113 97.63713 68.50413
# Shear Modulus (GPa) = 34.76364 18.86537 26.81450
#
# Velocity S-wave (km/s) = 4.32447 3.18569 3.79800
# Velocity P-wave (km/s) = 6.79076 8.12744 7.48898
#
# Compressibility (1/GPa) = 0.02539932
#
# Stress axis : x y z
#
# Youngs Moduli (GPa) = 24.41306 51.55105 55.11700
#
# Poissons Ratio (x) = 0.36418 0.32646
# Poissons Ratio (y) = 0.17246 0.74764
# Poissons Ratio (z) = 0.14460 0.69927
#
# Static dielectric constant tensor:
#      x y z
#    x 1.636780 0.000000 0.000000 
#    y 0.000000 1.626690 0.000000 
#    z 0.000000 0.000000 1.618710 
# 
# From -- ./inp_files/26959.got.cif
#   From: 2010.05.17/outbox.cif.g08.bks.cpg/sg53_14_cif.got.tgz:26959.got - 2010.06.03 12:45:16.
