data_PCOD9417229
_publ_section_title
;
Structure prediction by ZEFSAII (Michael W. Deem and Ramdas Pophale) SiO2 
 PCOD9417229
Probable space group: P M N A
;
_chemical_formula_sum "Si O2"
_cell_formula_units_Z 36
_cell_length_a 13.172407
_cell_length_b 6.194989
_cell_length_c 22.629152
_cell_angle_alpha 90.000000
_cell_angle_beta 90.000000
_cell_angle_gamma 90.000000
_cell_volume 1846.604800
_symmetry_space_group_name_H-M "P M N A"
_symmetry_group_IT_number 53
_symmetry_cell_setting 'orthorhombic'
loop_
_space_group_symop_operation_xyz
x,y,z
1/2-x,-y,1/2+z
x,-y,-z
1/2-x,y,1/2-z
-x,-y,-z
1/2+x,y,1/2-z
-x,y,z
1/2+x,-y,1/2+z
loop_
_atom_site_type_symbol
_atom_site_label
_atom_site_fract_x
_atom_site_fract_y
_atom_site_fract_z
Si Si1 0.383987 0.641853 0.440300
Si Si2 0.303541 0.032690 0.934943
Si Si3 0.750000 0.963108 0.750000
Si Si4 0.230181 0.344895 0.146329
Si Si5 0.383862 0.281837 0.826040
O O1 0.373616 0.500000 0.500000
O O2 0.500000 0.718835 0.436598
O O3 0.355428 0.489808 0.384657
O O4 0.301940 0.833282 0.441041
O O5 0.278576 0.805577 0.904362
O O6 0.372283 0.169635 0.890290
O O7 0.346821 0.000000 0.000000
O O8 0.799405 0.814566 0.800748
O O9 0.833144 0.114638 0.719323
O O10 0.315447 0.505145 0.171617
O O11 0.500000 0.326968 0.812172
#
# Coordination Sequence:
#
# PCOD9417229 Si02
#       5
#     8   8   4   8   8
#     4  10  20  34  58  92 126 162 201 243 297 358
#     4  10  20  37  59  87 125 160 195 244 298 353
#     4  10  22  42  64  86 116 158 202 250 298 346
#     4  10  21  39  61  86 124 162 193 248 298 350
#     4  10  23  41  62  88 116 153 202 248 295 353
#
# _framework density 19.495239000000002
#
# number of rings (size 3 to 8) (size 9 to 14) (size 15 to 20)
#    0.000    2.000    2.222    0.667    0.000    6.222 
#    0.000   16.667    0.000    0.000    0.000    0.000 
#    0.000    0.000    0.000    0.000    0.000    0.000 
#
# Total GULP energy -201062.582272 kJ/mol
# GULP energy per Si atom -5585.071730 kJ/mol
# Density = 1.945087 g / cm^3
# Si number density = 19.495239 Si / 1000 Ang^3
#
#
#
# Elastic Constant Matrix: (Units=GPa)
#
#
# Indices 1 2 3 4 5 6 
#
# 1 95.6461 23.7414 23.9986 0.0000 0.0000 0.0000
# 2 23.7414 88.7228 36.4847 0.0000 0.0000 0.0000
# 3 23.9986 36.4847 120.5108 0.0000 0.0000 0.0000
# 4 0.0000 0.0000 0.0000 33.5729 0.0000 0.0000
# 5 0.0000 0.0000 0.0000 0.0000 9.1614 0.0000
# 6 0.0000 0.0000 0.0000 0.0000 0.0000 2.0870
#
#
#
# Elastic Compliance Matrix: (Units=1/GPa)
#
#
# Indices 1 2 3 4 5 6 
#
# 1 0.011445 -0.002428 -0.001544 0.000000 0.000000 0.000000
# 2 -0.002428 0.013389 -0.003570 0.000000 0.000000 0.000000
# 3 -0.001544 -0.003570 0.009686 0.000000 0.000000 0.000000
# 4 0.000000 0.000000 0.000000 0.029786 0.000000 0.000000
# 5 0.000000 0.000000 0.000000 0.000000 0.109153 0.000000
# 6 0.000000 0.000000 0.000000 0.000000 0.000000 0.479146
#
#
# Mechanical properties :
#
#
# Convention : Reuss Voigt Hill
#
# Bulk Modulus (GPa) = 51.44934 52.59213 52.02074
# Shear Modulus (GPa) = 7.41655 23.67460 15.54557
#
# Velocity S-wave (km/s) = 1.95257 3.48857 2.82690
# Velocity P-wave (km/s) = 5.61528 6.57741 6.11530
#
# Compressibility (1/GPa) = 0.01943659
#
# Stress axis : x y z
#
# Youngs Moduli (GPa) = 87.37233 74.68972 103.23797
#
# Poissons Ratio (x) = 0.18132 0.15943
# Poissons Ratio (y) = 0.21211 0.36856
# Poissons Ratio (z) = 0.13493 0.26664
#
# Static dielectric constant tensor:
#      x y z
#    x 1.618650 0.000000 0.000000 
#    y 0.000000 1.671770 0.000000 
#    z 0.000000 0.000000 1.703710 
# 
# From -- ./inp_files/34714.got.cif
#   From: 2010.05.17/outbox.cif.g08.bks.cpg/sg53_18_cif.got.tgz:34714.got - 2010.06.03 12:45:16.
