data_PCOD9417785
_publ_section_title
;
Structure prediction by ZEFSAII (Michael W. Deem and Ramdas Pophale) SiO2 
 PCOD9417785
Probable space group: P M N A
;
_chemical_formula_sum "Si O2"
_cell_formula_units_Z 64
_cell_length_a 13.709145
_cell_length_b 12.761517
_cell_length_c 18.555454
_cell_angle_alpha 90.000000
_cell_angle_beta 90.000000
_cell_angle_gamma 90.000000
_cell_volume 3246.267158
_symmetry_space_group_name_H-M "P M N A"
_symmetry_group_IT_number 53
_symmetry_cell_setting 'orthorhombic'
loop_
_space_group_symop_operation_xyz
x,y,z
1/2-x,-y,1/2+z
x,-y,-z
1/2-x,y,1/2-z
-x,-y,-z
1/2+x,y,1/2-z
-x,y,z
1/2+x,-y,1/2+z
loop_
_atom_site_type_symbol
_atom_site_label
_atom_site_fract_x
_atom_site_fract_y
_atom_site_fract_z
Si Si1 0.384635 0.602528 0.296401
Si Si2 0.806024 0.546947 0.361604
Si Si3 0.113355 0.738329 0.447675
Si Si4 0.116866 0.064193 0.643258
Si Si5 0.617265 0.979310 0.583232
Si Si6 0.112347 0.678755 0.612147
Si Si7 0.382105 0.153982 0.700500
Si Si8 0.233649 0.139090 0.333917
O O1 0.500000 0.589350 0.310117
O O2 0.359748 0.573824 0.213936
O O3 0.309037 0.537478 0.344808
O O4 0.355492 0.724623 0.307796
O O5 0.825881 0.644205 0.413644
O O6 0.851705 0.440373 0.391088
O O7 0.143693 0.850902 0.417117
O O8 0.116954 0.729587 0.533077
O O9 0.000000 0.722728 0.424671
O O10 0.147221 0.112004 0.720814
O O11 0.000000 0.054125 0.643193
O O12 0.161571 0.949972 0.635300
O O13 0.500000 0.968976 0.586076
O O14 0.646628 0.076103 0.635962
O O15 0.644387 0.000000 0.500000
O O16 0.669364 0.878967 0.618897
O O17 0.183835 0.748400 0.660095
O O18 0.000000 0.682093 0.637268
O O19 0.500000 0.152906 0.700945
O O20 0.250000 0.116012 0.250000
#
# Coordination Sequence:
#
# PCOD9417785 Si02
#       8
#     8   8   8   8   8   8   8   8
#     4  10  21  35  59  95 127 159 210 272 321 364
#     4  11  22  37  65  90 124 166 213 259 324 380
#     4  10  21  39  66  95 122 155 200 264 333 382
#     4  10  20  36  61  93 125 154 196 255 320 377
#     4  10  23  41  61  88 126 171 214 254 304 376
#     4  11  26  44  61  89 127 166 210 259 316 389
#     4   9  17  34  58  89 125 157 196 256 312 361
#     4  12  26  39  62  88 124 169 211 250 316 371
#
# _framework density 19.714952
#
# number of rings (size 3 to 8) (size 9 to 14) (size 15 to 20)
#    0.000    1.625    2.500    1.875    5.250    1.500 
#    0.000    2.500    0.000    1.500    0.000    0.000 
#    0.000    0.000    0.000    0.000    0.000    0.000 
#
# Total GULP energy -357631.285403 kJ/mol
# GULP energy per Si atom -5587.988834 kJ/mol
# Density = 1.967008 g / cm^3
# Si number density = 19.714952 Si / 1000 Ang^3
#
#
#
# Elastic Constant Matrix: (Units=GPa)
#
#
# Indices 1 2 3 4 5 6 
#
# 1 86.9113 5.1670 8.8561 0.0000 0.0000 0.0000
# 2 5.1670 40.5286 -9.2028 0.0000 0.0000 0.0000
# 3 8.8561 -9.2028 43.6557 0.0000 0.0000 0.0000
# 4 0.0000 0.0000 0.0000 23.4020 0.0000 0.0000
# 5 0.0000 0.0000 0.0000 0.0000 24.2394 0.0000
# 6 0.0000 0.0000 0.0000 0.0000 0.0000 32.8253
#
#
#
# Elastic Compliance Matrix: (Units=1/GPa)
#
#
# Indices 1 2 3 4 5 6 
#
# 1 0.011929 -0.002174 -0.002878 0.000000 0.000000 0.000000
# 2 -0.002174 0.026311 0.005988 0.000000 0.000000 0.000000
# 3 -0.002878 0.005988 0.024753 0.000000 0.000000 0.000000
# 4 0.000000 0.000000 0.000000 0.042731 0.000000 0.000000
# 5 0.000000 0.000000 0.000000 0.000000 0.041255 0.000000
# 6 0.000000 0.000000 0.000000 0.000000 0.000000 0.030464
#
#
# Mechanical properties :
#
#
# Convention : Reuss Voigt Hill
#
# Bulk Modulus (GPa) = 15.41740 20.08179 17.74959
# Shear Modulus (GPa) = 25.35583 27.17836 26.26710
#
# Velocity S-wave (km/s) = 3.59014 3.71693 3.65409
# Velocity P-wave (km/s) = 5.00226 5.35060 5.17936
#
# Compressibility (1/GPa) = 0.06486180
#
# Stress axis : x y z
#
# Youngs Moduli (GPa) = 83.83265 38.00736 40.39978
#
# Poissons Ratio (x) = 0.08264 0.11628
# Poissons Ratio (y) = 0.18228 -0.24189
# Poissons Ratio (z) = 0.24129 -0.22757
#
# Static dielectric constant tensor:
#      x y z
#    x 1.733030 0.000000 0.000000 
#    y 0.000000 1.671590 0.000000 
#    z 0.000000 0.000000 1.682610 
# 
# From -- ./inp_files/28573.got.cif
#   From: 2010.05.17/outbox.cif.g08.bks.cpg/sg53_15_cif.got.tgz:28573.got - 2010.06.03 12:45:16.
