data_PCOD9417127
_publ_section_title
;
Structure prediction by ZEFSAII (Michael W. Deem and Ramdas Pophale) SiO2 
 PCOD9417127
Probable space group: P M N A
;
_chemical_formula_sum "Si O2"
_cell_formula_units_Z 64
_cell_length_a 15.508467
_cell_length_b 10.451789
_cell_length_c 21.920067
_cell_angle_alpha 90.000000
_cell_angle_beta 90.000000
_cell_angle_gamma 90.000000
_cell_volume 3553.050508
_symmetry_space_group_name_H-M "P M N A"
_symmetry_group_IT_number 53
_symmetry_cell_setting 'orthorhombic'
loop_
_space_group_symop_operation_xyz
x,y,z
1/2-x,-y,1/2+z
x,-y,-z
1/2-x,y,1/2-z
-x,-y,-z
1/2+x,y,1/2-z
-x,y,z
1/2+x,-y,1/2+z
loop_
_atom_site_type_symbol
_atom_site_label
_atom_site_fract_x
_atom_site_fract_y
_atom_site_fract_z
Si Si1 0.602095 0.639777 0.394364
Si Si2 0.773011 0.858635 0.071110
Si Si3 0.755709 0.850902 0.935604
Si Si4 0.403064 0.867242 0.842265
Si Si5 0.600676 0.652436 0.606991
Si Si6 0.849343 0.342553 0.249215
Si Si7 0.398374 0.618610 0.252439
Si Si8 0.176745 0.128740 0.698127
O O1 0.500000 0.660655 0.398988
O O2 0.652073 0.753596 0.426723
O O3 0.618639 0.493509 0.414271
O O4 0.626971 0.642228 0.322779
O O5 0.717191 0.843305 0.131924
O O6 0.798492 0.008432 0.072618
O O7 0.727216 0.840158 0.006016
O O8 0.672766 0.844412 0.891631
O O9 0.828356 0.747162 0.920057
O O10 0.500000 0.875245 0.867890
O O11 0.398625 0.752636 0.793629
O O12 0.379103 0.000272 0.808716
O O13 0.500000 0.681672 0.593064
O O14 0.613026 0.657415 0.680664
O O15 0.750000 0.299985 0.250000
O O16 0.853215 0.489948 0.270946
O O17 0.500000 0.592587 0.251615
O O18 0.376148 0.746523 0.217006
O O19 0.250000 0.109043 0.750000
#
# Coordination Sequence:
#
# PCOD9417127 Si02
#       8
#     8   8   8   8   8   8   8   8
#     4   9  19  35  56  84 116 150 184 228 285 342
#     4  10  22  39  57  80 113 150 193 237 283 341
#     4  10  23  41  57  81 113 156 197 232 283 343
#     4  11  23  39  59  85 116 151 194 245 290 333
#     4  10  21  37  58  87 120 151 189 232 281 347
#     4  11  20  35  59  88 118 151 188 235 292 338
#     4  10  20  34  54  88 122 148 183 232 290 349
#     4  11  21  36  59  87 112 147 191 239 293 342
#
# _framework density 18.012691
#
# number of rings (size 3 to 8) (size 9 to 14) (size 15 to 20)
#    0.000    1.750    2.500    3.000    3.500    1.500 
#    0.000    8.125    0.000    0.000    0.000    2.625 
#    0.000    0.000    0.000    0.000    0.000    0.000 
#
# Total GULP energy -357037.367634 kJ/mol
# GULP energy per Si atom -5578.708869 kJ/mol
# Density = 1.797169 g / cm^3
# Si number density = 18.012691 Si / 1000 Ang^3
#
#
#
# Elastic Constant Matrix: (Units=GPa)
#
#
# Indices 1 2 3 4 5 6 
#
# 1 86.0164 49.2676 22.8159 0.0000 0.0000 0.0000
# 2 49.2676 98.2144 38.7853 0.0000 0.0000 0.0000
# 3 22.8159 38.7853 75.8051 0.0000 0.0000 0.0000
# 4 0.0000 0.0000 0.0000 7.3455 0.0000 0.0000
# 5 0.0000 0.0000 0.0000 0.0000 8.8513 0.0000
# 6 0.0000 0.0000 0.0000 0.0000 0.0000 -6.9560
#
#
#
# Elastic Compliance Matrix: (Units=1/GPa)
#
#
# Indices 1 2 3 4 5 6 
#
# 1 0.016362 -0.007849 -0.000909 0.000000 0.000000 0.000000
# 2 -0.007849 0.016525 -0.006093 0.000000 0.000000 0.000000
# 3 -0.000909 -0.006093 0.016583 0.000000 0.000000 0.000000
# 4 0.000000 0.000000 0.000000 0.136137 0.000000 0.000000
# 5 0.000000 0.000000 0.000000 0.000000 0.112978 0.000000
# 6 0.000000 0.000000 0.000000 0.000000 0.000000 -0.143761
#
#
# Mechanical properties :
#
#
# Convention : Reuss Voigt Hill
#
# Bulk Modulus (GPa) = 50.58396 53.53041 52.05718
# Shear Modulus (GPa) = 26.16222 11.79264 18.97743
#
# Velocity S-wave (km/s) = 3.81521 2.56146 3.24938
# Velocity P-wave (km/s) = 6.89574 6.20732 6.56056
#
# Compressibility (1/GPa) = 0.01976911
#
# Stress axis : x y z
#
# Youngs Moduli (GPa) = 61.11545 60.51387 60.30450
#
# Poissons Ratio (x) = 0.47498 0.05481
# Poissons Ratio (y) = 0.47970 0.36741
# Poissons Ratio (z) = 0.05555 0.36869
#
# Static dielectric constant tensor:
#      x y z
#    x 1.610620 0.000000 0.000000 
#    y 0.000000 1.627220 0.000000 
#    z 0.000000 0.000000 1.627810 
# 
# From -- ./inp_files/35316.got.cif
#   From: 2010.05.17/outbox.cif.g08.bks.cpg/sg53_18_cif.got.tgz:35316.got - 2010.06.03 12:45:16.
