data_PCOD9417609
_publ_section_title
;
Structure prediction by ZEFSAII (Michael W. Deem and Ramdas Pophale) SiO2 
 PCOD9417609
Probable space group: P M N A
;
_chemical_formula_sum "Si O2"
_cell_formula_units_Z 48
_cell_length_a 8.553994
_cell_length_b 31.557420
_cell_length_c 9.381833
_cell_angle_alpha 90.000000
_cell_angle_beta 90.000000
_cell_angle_gamma 90.000000
_cell_volume 2532.550589
_symmetry_space_group_name_H-M "P M N A"
_symmetry_group_IT_number 53
_symmetry_cell_setting 'orthorhombic'
loop_
_space_group_symop_operation_xyz
x,y,z
1/2-x,-y,1/2+z
x,-y,-z
1/2-x,y,1/2-z
-x,-y,-z
1/2+x,y,1/2-z
-x,y,z
1/2+x,-y,1/2+z
loop_
_atom_site_type_symbol
_atom_site_label
_atom_site_fract_x
_atom_site_fract_y
_atom_site_fract_z
Si Si1 0.688959 0.123194 0.909464
Si Si2 0.687466 0.623323 0.409571
Si Si3 0.188860 0.958817 0.589515
Si Si4 0.311417 0.202933 0.091925
Si Si5 0.688852 0.458800 0.410598
Si Si6 0.812301 0.700430 0.591110
O O1 0.750000 0.118653 0.750000
O O2 0.500000 0.123148 0.906092
O O3 0.739357 0.083739 0.007492
O O4 0.741560 0.167254 0.981366
O O5 0.750000 0.618616 0.250000
O O6 0.500000 0.623605 0.406412
O O7 0.739329 0.583687 0.507052
O O8 0.747097 0.666460 0.481068
O O9 0.250000 0.960019 0.750000
O O10 0.000000 0.958947 0.593842
O O11 0.239745 0.000000 0.500000
O O12 0.250000 0.193095 0.250000
O O13 0.500000 0.202163 0.096184
O O14 0.263603 0.251146 0.056314
O O15 0.739881 0.500000 0.500000
O O16 0.750000 0.459855 0.250000
O O17 0.500000 0.458985 0.406229
O O18 0.750000 0.690922 0.750000
O O19 0.000000 0.698497 0.592512
#
# Coordination Sequence:
#
# PCOD9417609 Si02
#       6
#     8   8   8   8   8   8
#     4  10  21  36  53  77 108 140 178 220 264 316
#     4  11  23  38  57  82 112 146 184 225 272 323
#     4  10  21  36  55  80 108 138 175 218 263 315
#     4   9  19  35  55  79 106 139 179 222 267 318
#     4  10  22  39  59  84 112 143 180 221 267 319
#     4  10  20  36  57  81 110 143 182 226 272 323
#
# _framework density 18.953223999999999
#
# number of rings (size 3 to 8) (size 9 to 14) (size 15 to 20)
#    0.000    2.000    0.000    3.000    0.000    6.000 
#    0.000    1.667    0.000    0.000    0.000    0.000 
#    0.000    0.000    0.000    0.000    0.000    0.000 
#
# Total GULP energy -268173.286363 kJ/mol
# GULP energy per Si atom -5586.943466 kJ/mol
# Density = 1.891009 g / cm^3
# Si number density = 18.953224 Si / 1000 Ang^3
#
#
#
# Elastic Constant Matrix: (Units=GPa)
#
#
# Indices 1 2 3 4 5 6 
#
# 1 18.0912 29.7413 29.0678 0.0000 0.0000 0.0000
# 2 29.7413 146.8583 122.1923 0.0000 0.0000 0.0000
# 3 29.0678 122.1923 197.3884 0.0000 0.0000 0.0000
# 4 0.0000 0.0000 0.0000 42.3448 0.0000 0.0000
# 5 0.0000 0.0000 0.0000 0.0000 40.2365 0.0000
# 6 0.0000 0.0000 0.0000 0.0000 0.0000 21.6147
#
#
#
# Elastic Compliance Matrix: (Units=1/GPa)
#
#
# Indices 1 2 3 4 5 6 
#
# 1 0.084225 -0.013893 -0.003803 0.000000 0.000000 0.000000
# 2 -0.013893 0.016333 -0.008065 0.000000 0.000000 0.000000
# 3 -0.003803 -0.008065 0.010619 0.000000 0.000000 0.000000
# 4 0.000000 0.000000 0.000000 0.023616 0.000000 0.000000
# 5 0.000000 0.000000 0.000000 0.000000 0.024853 0.000000
# 6 0.000000 0.000000 0.000000 0.000000 0.000000 0.046265
#
#
# Mechanical properties :
#
#
# Convention : Reuss Voigt Hill
#
# Bulk Modulus (GPa) = 16.76290 80.48231 48.62260
# Shear Modulus (GPa) = 18.02983 32.92830 25.47907
#
# Velocity S-wave (km/s) = 3.08763 4.17267 3.67047
# Velocity P-wave (km/s) = 4.64487 8.10992 6.60854
#
# Compressibility (1/GPa) = 0.05965554
#
# Stress axis : x y z
#
# Youngs Moduli (GPa) = 11.87294 61.22397 94.17147
#
# Poissons Ratio (x) = 0.85058 0.35812
# Poissons Ratio (y) = 0.16495 0.75952
# Poissons Ratio (z) = 0.04515 0.49379
#
# Static dielectric constant tensor:
#      x y z
#    x 1.649610 0.000000 0.000000 
#    y 0.000000 1.665270 0.000000 
#    z 0.000000 0.000000 1.594970 
# 
# From -- ./inp_files/6625.got.cif
#   From: 2010.05.17/outbox.cif.g08.bks.cpg/sg53_4_cif.got.tgz:6625.got - 2010.06.03 12:45:16.
