data_PCOD9417462
_publ_section_title
;
Structure prediction by ZEFSAII (Michael W. Deem and Ramdas Pophale) SiO2 
 PCOD9417462
Probable space group: P M N A
;
_chemical_formula_sum "Si O2"
_cell_formula_units_Z 52
_cell_length_a 26.756223
_cell_length_b 5.080347
_cell_length_c 21.248365
_cell_angle_alpha 90.000000
_cell_angle_beta 90.000000
_cell_angle_gamma 90.000000
_cell_volume 2888.309320
_symmetry_space_group_name_H-M "P M N A"
_symmetry_group_IT_number 53
_symmetry_cell_setting 'orthorhombic'
loop_
_space_group_symop_operation_xyz
x,y,z
1/2-x,-y,1/2+z
x,-y,-z
1/2-x,y,1/2-z
-x,-y,-z
1/2+x,y,1/2-z
-x,y,z
1/2+x,-y,1/2+z
loop_
_atom_site_type_symbol
_atom_site_label
_atom_site_fract_x
_atom_site_fract_y
_atom_site_fract_z
Si Si1 0.599703 0.880282 0.879125
Si Si2 0.942195 0.575079 0.157454
Si Si3 0.941880 0.087133 0.241237
Si Si4 0.845597 0.604017 0.427437
Si Si5 0.500000 0.751307 0.954770
Si Si6 0.759627 0.753845 0.044430
Si Si7 0.371520 0.247236 0.544859
O O1 0.587940 0.919532 0.805974
O O2 0.639982 0.650054 0.887428
O O3 0.549544 0.772105 0.912541
O O4 0.618241 0.149545 0.912454
O O5 0.924497 0.304671 0.190281
O O6 0.909419 0.682531 0.100174
O O7 0.000000 0.536793 0.137107
O O8 0.941115 0.801587 0.209957
O O9 0.000000 0.155648 0.255391
O O10 0.849294 0.500000 0.500000
O O11 0.789084 0.700003 0.414188
O O12 0.500000 0.500000 0.000000
O O13 0.500000 0.000000 0.000000
O O14 0.815108 0.799681 0.071296
O O15 0.763840 0.500000 0.000000
O O16 0.747355 0.000000 0.000000
O O17 0.370377 0.500000 0.500000
O O18 0.384618 0.000000 0.500000
#
# Coordination Sequence:
#
# PCOD9417462 Si02
#       7
#     8   8   8   8   4   8   8
#     4  12  22  36  54  74 106 144 184 231 265 325
#     4  10  21  36  59  82 109 144 179 220 256 322
#     4  10  21  39  55  74 104 148 196 215 256 317
#     4  11  21  34  54  78 106 139 183 226 278 322
#     4  12  24  34  48  76 108 134 166 228 292 312
#     4   9  18  33  53  77 108 142 174 211 261 334
#     4  10  20  35  58  88 115 138 167 213 278 325
#
# _framework density 18.003612
#
# number of rings (size 3 to 8) (size 9 to 14) (size 15 to 20)
#    0.000    1.538    0.769    6.462    0.000    0.615 
#    0.000    0.000    0.000    5.538    0.000    0.000 
#    0.000    0.000    0.000    0.000    0.000    0.000 
#
# Total GULP energy -290171.244469 kJ/mol
# GULP energy per Si atom -5580.216240 kJ/mol
# Density = 1.796263 g / cm^3
# Si number density = 18.003612 Si / 1000 Ang^3
#
#
#
# Elastic Constant Matrix: (Units=GPa)
#
#
# Indices 1 2 3 4 5 6 
#
# 1 75.8955 2.6232 36.9573 0.0000 0.0000 0.0000
# 2 2.6232 97.5197 1.5254 0.0000 0.0000 0.0000
# 3 36.9573 1.5254 53.4305 0.0000 0.0000 0.0000
# 4 0.0000 0.0000 0.0000 21.4989 0.0000 0.0000
# 5 0.0000 0.0000 0.0000 0.0000 9.9492 0.0000
# 6 0.0000 0.0000 0.0000 0.0000 0.0000 35.2015
#
#
#
# Elastic Compliance Matrix: (Units=1/GPa)
#
#
# Indices 1 2 3 4 5 6 
#
# 1 0.019878 -0.000320 -0.013740 0.000000 0.000000 0.000000
# 2 -0.000320 0.010264 -0.000072 0.000000 0.000000 0.000000
# 3 -0.013740 -0.000072 0.028222 0.000000 0.000000 0.000000
# 4 0.000000 0.000000 0.000000 0.046514 0.000000 0.000000
# 5 0.000000 0.000000 0.000000 0.000000 0.100511 0.000000
# 6 0.000000 0.000000 0.000000 0.000000 0.000000 0.028408
#
#
# Mechanical properties :
#
#
# Convention : Reuss Voigt Hill
#
# Bulk Modulus (GPa) = 33.22235 34.33972 33.78104
# Shear Modulus (GPa) = 18.37606 25.71257 22.04431
#
# Velocity S-wave (km/s) = 3.19829 3.78324 3.50299
# Velocity P-wave (km/s) = 5.66850 6.18054 5.93005
#
# Compressibility (1/GPa) = 0.03010022
#
# Stress axis : x y z
#
# Youngs Moduli (GPa) = 50.30735 97.42729 35.43356
#
# Poissons Ratio (x) = 0.03116 0.48686
# Poissons Ratio (y) = 0.01609 0.00255
# Poissons Ratio (z) = 0.69123 0.00700
#
# Static dielectric constant tensor:
#      x y z
#    x 1.676380 0.000000 0.000000 
#    y 0.000000 1.601810 0.000000 
#    z 0.000000 0.000000 1.568840 
# 
# From -- ./inp_files/29676.got.cif
#   From: 2010.05.17/outbox.cif.g08.bks.cpg/sg53_15_cif.got.tgz:29676.got - 2010.06.03 12:45:16.
