data_PCOD9417492
_publ_section_title
;
Structure prediction by ZEFSAII (Michael W. Deem and Ramdas Pophale) SiO2 
 PCOD9417492
Probable space group: P M N A
;
_chemical_formula_sum "Si O2"
_cell_formula_units_Z 48
_cell_length_a 17.896608
_cell_length_b 15.318096
_cell_length_c 9.770575
_cell_angle_alpha 90.000000
_cell_angle_beta 90.000000
_cell_angle_gamma 90.000000
_cell_volume 2678.524575
_symmetry_space_group_name_H-M "P M N A"
_symmetry_group_IT_number 53
_symmetry_cell_setting 'orthorhombic'
loop_
_space_group_symop_operation_xyz
x,y,z
1/2-x,-y,1/2+z
x,-y,-z
1/2-x,y,1/2-z
-x,-y,-z
1/2+x,y,1/2-z
-x,y,z
1/2+x,-y,1/2+z
loop_
_atom_site_type_symbol
_atom_site_label
_atom_site_fract_x
_atom_site_fract_y
_atom_site_fract_z
Si Si1 0.414922 0.846797 0.509452
Si Si2 0.738915 0.080608 0.589253
Si Si3 0.161590 0.267826 0.235964
Si Si4 0.321149 0.264866 0.961721
Si Si5 0.187790 0.599961 0.996979
Si Si6 0.083454 0.684569 0.200328
O O1 0.500000 0.881467 0.523863
O O2 0.348438 0.906336 0.450263
O O3 0.383729 0.803783 0.649721
O O4 0.418490 0.766851 0.402414
O O5 0.750000 0.064101 0.750000
O O6 0.782252 0.170312 0.553896
O O7 0.768074 0.000000 0.500000
O O8 0.250000 0.243781 0.250000
O O9 0.136976 0.273385 0.392969
O O10 0.160229 0.357886 0.147619
O O11 0.255061 0.335891 0.962782
O O12 0.372363 0.285398 0.833305
O O13 0.125185 0.611243 0.112790
O O14 0.211669 0.500000 0.000000
O O15 0.000000 0.658039 0.235708
#
# Coordination Sequence:
#
# PCOD9417492 Si02
#       6
#     8   8   8   8   8   8
#     4  10  20  38  60  83 115 154 193 238 295 355
#     4  12  24  38  63  89 116 156 200 250 295 356
#     4   9  18  33  58  83 115 148 194 240 287 344
#     4  11  20  38  59  87 117 148 202 248 295 347
#     4  10  20  35  60  88 114 153 201 244 286 353
#     4  10  20  36  60  83 118 160 192 239 302 357
#
# _framework density 17.920313
#
# number of rings (size 3 to 8) (size 9 to 14) (size 15 to 20)
#    0.000    1.667    6.667    0.500    2.333    5.333 
#    0.000    0.000    0.000    4.500    0.000    0.000 
#    0.000    0.000    0.000    0.000    0.000    0.000 
#
# Total GULP energy -267621.768199 kJ/mol
# GULP energy per Si atom -5575.453504 kJ/mol
# Density = 1.787953 g / cm^3
# Si number density = 17.920313 Si / 1000 Ang^3
#
#
#
# Elastic Constant Matrix: (Units=GPa)
#
#
# Indices 1 2 3 4 5 6 
#
# 1 78.3102 38.3718 41.3695 0.0000 0.0000 0.0000
# 2 38.3718 107.3599 48.4747 0.0000 0.0000 0.0000
# 3 41.3695 48.4747 128.6459 0.0000 0.0000 0.0000
# 4 0.0000 0.0000 0.0000 11.5971 0.0000 0.0000
# 5 0.0000 0.0000 0.0000 0.0000 3.4183 0.0000
# 6 0.0000 0.0000 0.0000 0.0000 0.0000 -8.1667
#
#
#
# Elastic Compliance Matrix: (Units=1/GPa)
#
#
# Indices 1 2 3 4 5 6 
#
# 1 0.016897 -0.004321 -0.003806 0.000000 0.000000 0.000000
# 2 -0.004321 0.012329 -0.003256 0.000000 0.000000 0.000000
# 3 -0.003806 -0.003256 0.010224 0.000000 0.000000 0.000000
# 4 0.000000 0.000000 0.000000 0.086228 0.000000 0.000000
# 5 0.000000 0.000000 0.000000 0.000000 0.292546 0.000000
# 6 0.000000 0.000000 0.000000 0.000000 0.000000 -0.122449
#
#
# Mechanical properties :
#
#
# Convention : Reuss Voigt Hill
#
# Bulk Modulus (GPa) = 59.93442 63.41645 61.67543
# Shear Modulus (GPa) = 15.42718 13.77641 14.60180
#
# Velocity S-wave (km/s) = 2.93725 2.77566 2.85760
# Velocity P-wave (km/s) = 6.70976 6.76293 6.73640
#
# Compressibility (1/GPa) = 0.01668490
#
# Stress axis : x y z
#
# Youngs Moduli (GPa) = 59.18044 81.10921 97.80903
#
# Poissons Ratio (x) = 0.35048 0.37222
# Poissons Ratio (y) = 0.25572 0.31848
# Poissons Ratio (z) = 0.22522 0.26410
#
# Static dielectric constant tensor:
#      x y z
#    x 1.630460 0.000000 0.000000 
#    y 0.000000 1.613010 0.000000 
#    z 0.000000 0.000000 1.632390 
# 
# From -- ./inp_files/9898.got.cif
#   From: 2010.05.17/outbox.cif.g08.bks.cpg/sg53_5_cif.got.tgz:9898.got - 2010.06.03 12:45:16.
