data_PCOD9417226
_publ_section_title
;
Structure prediction by ZEFSAII (Michael W. Deem and Ramdas Pophale) SiO2 
 PCOD9417226
Probable space group: P M N A
;
_chemical_formula_sum "Si O2"
_cell_formula_units_Z 56
_cell_length_a 14.211415
_cell_length_b 10.209669
_cell_length_c 20.736135
_cell_angle_alpha 90.000000
_cell_angle_beta 90.000000
_cell_angle_gamma 90.000000
_cell_volume 3008.685520
_symmetry_space_group_name_H-M "P M N A"
_symmetry_group_IT_number 53
_symmetry_cell_setting 'orthorhombic'
loop_
_space_group_symop_operation_xyz
x,y,z
1/2-x,-y,1/2+z
x,-y,-z
1/2-x,y,1/2-z
-x,-y,-z
1/2+x,y,1/2-z
-x,y,z
1/2+x,-y,1/2+z
loop_
_atom_site_type_symbol
_atom_site_label
_atom_site_fract_x
_atom_site_fract_y
_atom_site_fract_z
Si Si1 0.889969 0.238484 0.529436
Si Si2 0.607205 0.794992 0.876044
Si Si3 0.219737 0.424120 0.935139
Si Si4 0.391981 0.194295 0.627402
Si Si5 0.795827 0.941357 0.370379
Si Si6 0.303537 0.451813 0.185851
Si Si7 0.891006 0.267698 0.722237
O O1 0.880242 0.227126 0.452634
O O2 0.821142 0.353788 0.553426
O O3 0.852468 0.109795 0.566493
O O4 0.000000 0.261104 0.544046
O O5 0.500000 0.837804 0.865026
O O6 0.627776 0.660632 0.839293
O O7 0.675638 0.911578 0.855225
O O8 0.145663 0.311520 0.917479
O O9 0.233252 0.516472 0.873262
O O10 0.195060 0.500000 0.000000
O O11 0.500000 0.159255 0.614423
O O12 0.314993 0.080193 0.619895
O O13 0.385274 0.244869 0.701259
O O14 0.830541 0.840929 0.315158
O O15 0.250000 0.407808 0.250000
O O16 0.353713 0.588854 0.203851
O O17 0.000000 0.254248 0.703030
#
# Coordination Sequence:
#
# PCOD9417226 Si02
#       7
#     8   8   8   8   8   8   8
#     4  10  20  34  58  90 122 157 198 240 295 371
#     4  11  24  38  57  91 131 164 190 236 307 377
#     4  11  21  37  61  88 121 158 204 247 305 354
#     4  10  22  39  63  87 111 153 215 264 296 341
#     4  11  21  37  60  87 122 160 200 248 303 357
#     4  12  22  38  58  90 126 163 195 243 298 357
#     4  11  20  35  62  90 116 152 200 249 300 361
#
# _framework density 18.612780000000001
#
# number of rings (size 3 to 8) (size 9 to 14) (size 15 to 20)
#    0.000    1.143    5.714    2.571    0.000    3.429 
#    0.000    0.000    0.000    8.571    0.000    0.000 
#    0.000    0.000    0.000    0.000    0.000    0.000 
#
# Total GULP energy -312896.415159 kJ/mol
# GULP energy per Si atom -5587.435985 kJ/mol
# Density = 1.857042 g / cm^3
# Si number density = 18.612780 Si / 1000 Ang^3
#
#
#
# Elastic Constant Matrix: (Units=GPa)
#
#
# Indices 1 2 3 4 5 6 
#
# 1 124.8191 23.5581 36.1383 0.0000 0.0000 0.0000
# 2 23.5581 64.7356 22.1469 0.0000 0.0000 0.0000
# 3 36.1383 22.1469 67.6219 0.0000 0.0000 0.0000
# 4 0.0000 0.0000 0.0000 7.5490 0.0000 0.0000
# 5 0.0000 0.0000 0.0000 0.0000 25.1288 0.0000
# 6 0.0000 0.0000 0.0000 0.0000 0.0000 14.2838
#
#
#
# Elastic Compliance Matrix: (Units=1/GPa)
#
#
# Indices 1 2 3 4 5 6 
#
# 1 0.009698 -0.001978 -0.004535 0.000000 0.000000 0.000000
# 2 -0.001978 0.017800 -0.004773 0.000000 0.000000 0.000000
# 3 -0.004535 -0.004773 0.018775 0.000000 0.000000 0.000000
# 4 0.000000 0.000000 0.000000 0.132468 0.000000 0.000000
# 5 0.000000 0.000000 0.000000 0.000000 0.039795 0.000000
# 6 0.000000 0.000000 0.000000 0.000000 0.000000 0.070009
#
#
# Mechanical properties :
#
#
# Convention : Reuss Voigt Hill
#
# Bulk Modulus (GPa) = 42.19095 46.76256 44.47675
# Shear Modulus (GPa) = 15.67316 21.08120 18.37718
#
# Velocity S-wave (km/s) = 2.90498 3.36909 3.14561
# Velocity P-wave (km/s) = 5.82828 6.34924 6.09433
#
# Compressibility (1/GPa) = 0.02370176
#
# Stress axis : x y z
#
# Youngs Moduli (GPa) = 103.11565 56.17984 53.26283
#
# Poissons Ratio (x) = 0.11111 0.24155
# Poissons Ratio (y) = 0.20393 0.25421
# Poissons Ratio (z) = 0.46763 0.26813
#
# Static dielectric constant tensor:
#      x y z
#    x 1.641980 0.000000 0.000000 
#    y 0.000000 1.632790 0.000000 
#    z 0.000000 0.000000 1.659100 
# 
# From -- ./inp_files/32477.got.cif
#   From: 2010.05.17/outbox.cif.g08.bks.cpg/sg53_17_cif.got.tgz:32477.got - 2010.06.03 12:45:16.
