data_PCOD9417815
_publ_section_title
;
Structure prediction by ZEFSAII (Michael W. Deem and Ramdas Pophale) SiO2 
 PCOD9417815
Probable space group: P M N A
;
_chemical_formula_sum "Si O2"
_cell_formula_units_Z 32
_cell_length_a 27.142402
_cell_length_b 11.170586
_cell_length_c 5.428790
_cell_angle_alpha 90.000000
_cell_angle_beta 90.000000
_cell_angle_gamma 90.000000
_cell_volume 1645.990322
_symmetry_space_group_name_H-M "P M N A"
_symmetry_group_IT_number 53
_symmetry_cell_setting 'orthorhombic'
loop_
_space_group_symop_operation_xyz
x,y,z
1/2-x,-y,1/2+z
x,-y,-z
1/2-x,y,1/2-z
-x,-y,-z
1/2+x,y,1/2-z
-x,y,z
1/2+x,-y,1/2+z
loop_
_atom_site_type_symbol
_atom_site_label
_atom_site_fract_x
_atom_site_fract_y
_atom_site_fract_z
Si Si1 0.717536 0.000000 0.000000
Si Si2 0.941912 0.625851 0.255892
Si Si3 0.901785 0.644212 0.757796
Si Si4 0.250000 0.575522 0.250000
Si Si5 0.801328 0.738652 0.596836
O O1 0.750000 0.983382 0.250000
O O2 0.688286 0.123176 0.038017
O O3 0.926138 0.690313 0.505592
O O4 0.913442 0.498155 0.249221
O O5 0.000000 0.600155 0.256817
O O6 0.926444 0.690830 0.006263
O O7 0.844629 0.675307 0.744897
O O8 0.261144 0.500000 0.500000
O O9 0.206998 0.662579 0.347475
O O10 0.750000 0.737729 0.750000
#
# Coordination Sequence:
#
# PCOD9417815 Si02
#       5
#     4   8   8   4   8
#     4  10  22  42  64  78 113 172 221 254 284 338
#     4  10  20  37  55  82 117 156 197 240 307 381
#     4  10  21  31  57  82 112 151 197 241 298 351
#     4  12  26  36  56  82 132 162 190 238 310 358
#     4  11  25  41  60  88 125 167 211 248 297 355
#
# _framework density 19.441184
#
# number of rings (size 3 to 8) (size 9 to 14) (size 15 to 20)
#    0.000    1.500    2.500    3.750    7.000    2.000 
#    0.000    0.000    0.000    0.000    0.000    9.625 
#    0.000    0.000    0.000    0.000    0.000    0.000 
#
# Total GULP energy -178469.045770 kJ/mol
# GULP energy per Si atom -5577.157680 kJ/mol
# Density = 1.939694 g / cm^3
# Si number density = 19.441184 Si / 1000 Ang^3
#
#
#
# Elastic Constant Matrix: (Units=GPa)
#
#
# Indices 1 2 3 4 5 6 
#
# 1 128.7759 41.2140 42.0995 0.0000 0.0000 0.0000
# 2 41.2140 79.8742 22.6255 0.0000 0.0000 0.0000
# 3 42.0995 22.6255 181.2200 0.0000 0.0000 0.0000
# 4 0.0000 0.0000 0.0000 10.8141 0.0000 0.0000
# 5 0.0000 0.0000 0.0000 0.0000 32.6873 0.0000
# 6 0.0000 0.0000 0.0000 0.0000 0.0000 72.7755
#
#
#
# Elastic Compliance Matrix: (Units=1/GPa)
#
#
# Indices 1 2 3 4 5 6 
#
# 1 0.009783 -0.004566 -0.001703 0.000000 0.000000 0.000000
# 2 -0.004566 0.015109 -0.000826 0.000000 0.000000 0.000000
# 3 -0.001703 -0.000826 0.006017 0.000000 0.000000 0.000000
# 4 0.000000 0.000000 0.000000 0.092472 0.000000 0.000000
# 5 0.000000 0.000000 0.000000 0.000000 0.030593 0.000000
# 6 0.000000 0.000000 0.000000 0.000000 0.000000 0.013741
#
#
# Mechanical properties :
#
#
# Convention : Reuss Voigt Hill
#
# Bulk Modulus (GPa) = 59.80458 66.86089 63.33274
# Shear Modulus (GPa) = 26.66987 42.18412 34.42700
#
# Velocity S-wave (km/s) = 3.70783 4.66320 4.21269
# Velocity P-wave (km/s) = 7.01137 7.96617 7.50397
#
# Compressibility (1/GPa) = 0.01672113
#
# Stress axis : x y z
#
# Youngs Moduli (GPa) = 102.21465 66.18371 166.20086
#
# Poissons Ratio (x) = 0.30218 0.28300
# Poissons Ratio (y) = 0.46669 0.13724
# Poissons Ratio (z) = 0.17405 0.05465
#
# Static dielectric constant tensor:
#      x y z
#    x 1.699310 0.000000 0.000000 
#    y 0.000000 1.685840 0.000000 
#    z 0.000000 0.000000 2.353870 
# 
# From -- ./inp_files/3420.got.cif
#   From: 2010.05.17/outbox.cif.g08.bks.cpg/sg53_2_cif.got.tgz:3420.got - 2010.06.03 12:45:16.
