data_PCOD9417998
_publ_section_title
;
Structure prediction by ZEFSAII (Michael W. Deem and Ramdas Pophale) SiO2 
 PCOD9417998
Probable space group: P M N A
;
_chemical_formula_sum "Si O2"
_cell_formula_units_Z 64
_cell_length_a 30.681070
_cell_length_b 8.912524
_cell_length_c 11.737613
_cell_angle_alpha 90.000000
_cell_angle_beta 90.000000
_cell_angle_gamma 90.000000
_cell_volume 3209.600657
_symmetry_space_group_name_H-M "P M N A"
_symmetry_group_IT_number 53
_symmetry_cell_setting 'orthorhombic'
loop_
_space_group_symop_operation_xyz
x,y,z
1/2-x,-y,1/2+z
x,-y,-z
1/2-x,y,1/2-z
-x,-y,-z
1/2+x,y,1/2-z
-x,y,z
1/2+x,-y,1/2+z
loop_
_atom_site_type_symbol
_atom_site_label
_atom_site_fract_x
_atom_site_fract_y
_atom_site_fract_z
Si Si1 0.667495 0.318211 0.415840
Si Si2 0.728726 0.335849 0.045393
Si Si3 0.949900 0.657880 0.519095
Si Si4 0.866424 0.360549 0.837623
Si Si5 0.450052 0.211308 0.763226
Si Si6 0.180061 0.878659 0.711236
Si Si7 0.087220 0.932811 0.623760
Si Si8 0.292507 0.209216 0.808736
O O1 0.719359 0.344654 0.434096
O O2 0.644791 0.463643 0.357430
O O3 0.647169 0.292469 0.540008
O O4 0.663321 0.178457 0.332482
O O5 0.706310 0.259584 0.154802
O O6 0.714308 0.500000 0.000000
O O7 0.715391 0.226503 0.942283
O O8 0.926589 0.500000 0.500000
O O9 0.950098 0.728614 0.393314
O O10 0.929603 0.763805 0.614053
O O11 0.000000 0.633577 0.554235
O O12 0.915343 0.311319 0.805699
O O13 0.835018 0.292154 0.739998
O O14 0.500000 0.216208 0.721664
O O15 0.432967 0.040370 0.780242
O O16 0.138663 0.923038 0.635818
O O17 0.205072 0.034556 0.722717
O O18 0.075468 0.000000 0.500000
O O19 0.250000 0.281065 0.750000
#
# Coordination Sequence:
#
# PCOD9417998 Si02
#       8
#     8   8   8   8   8   8   8   8
#     4  11  24  45  60  86 127 173 219 264 323 381
#     4  12  23  41  63  91 128 172 213 259 320 389
#     4   9  19  34  59  93 128 163 203 263 335 399
#     4  11  23  44  67  90 124 174 221 267 322 392
#     4  10  21  40  67  94 126 172 223 274 333 397
#     4  12  26  37  62  95 128 168 214 264 314 384
#     4  10  20  38  58  91 135 166 207 257 333 397
#     4  12  22  40  63  93 127 165 211 262 315 382
#
# _framework density 19.940176000000001
#
# number of rings (size 3 to 8) (size 9 to 14) (size 15 to 20)
#    0.000    1.125    3.750    3.375    3.500    2.500 
#    0.000    1.250    0.000    2.250    0.000    0.000 
#    0.000    0.000    0.000    0.000    0.000    0.000 
#
# Total GULP energy -357153.691557 kJ/mol
# GULP energy per Si atom -5580.526431 kJ/mol
# Density = 1.989479 g / cm^3
# Si number density = 19.940176 Si / 1000 Ang^3
#
#
#
# Elastic Constant Matrix: (Units=GPa)
#
#
# Indices 1 2 3 4 5 6 
#
# 1 128.7878 30.3616 17.5419 0.0000 0.0000 0.0000
# 2 30.3616 86.6744 12.0180 0.0000 0.0000 0.0000
# 3 17.5419 12.0180 52.0031 0.0000 0.0000 0.0000
# 4 0.0000 0.0000 0.0000 20.0479 0.0000 0.0000
# 5 0.0000 0.0000 0.0000 0.0000 -7.0289 0.0000
# 6 0.0000 0.0000 0.0000 0.0000 0.0000 21.3052
#
#
#
# Elastic Compliance Matrix: (Units=1/GPa)
#
#
# Indices 1 2 3 4 5 6 
#
# 1 0.008724 -0.002736 -0.002311 0.000000 0.000000 0.000000
# 2 -0.002736 0.012777 -0.002030 0.000000 0.000000 0.000000
# 3 -0.002311 -0.002030 0.020478 0.000000 0.000000 0.000000
# 4 0.000000 0.000000 0.000000 0.049880 0.000000 0.000000
# 5 0.000000 0.000000 0.000000 0.000000 -0.142269 0.000000
# 6 0.000000 0.000000 0.000000 0.000000 0.000000 0.046937
#
#
# Mechanical properties :
#
#
# Convention : Reuss Voigt Hill
#
# Bulk Modulus (GPa) = 35.93640 43.03426 39.48533
# Shear Modulus (GPa) = 250.54167 20.70108 135.62138
#
# Velocity S-wave (km/s) = 11.22138 3.22554 8.25602
# Velocity P-wave (km/s) = 13.63649 5.95825 10.52270
#
# Compressibility (1/GPa) = 0.02782694
#
# Stress axis : x y z
#
# Youngs Moduli (GPa) = 114.62125 78.26429 48.83232
#
# Poissons Ratio (x) = 0.21411 0.11284
# Poissons Ratio (y) = 0.31357 0.09913
# Poissons Ratio (z) = 0.26486 0.15888
#
# Static dielectric constant tensor:
#      x y z
#    x 1.739040 0.000000 0.000000 
#    y 0.000000 1.773390 0.000000 
#    z 0.000000 0.000000 1.718140 
# 
# From -- ./inp_files/19054.got.cif
#   From: 2010.05.17/outbox.cif.g08.bks.cpg/sg53_10_cif.got.tgz:19054.got - 2010.06.03 12:45:16.
