data_PCOD9417583
_publ_section_title
;
Structure prediction by ZEFSAII (Michael W. Deem and Ramdas Pophale) SiO2 
 PCOD9417583
Probable space group: P M N A
;
_chemical_formula_sum "Si O2"
_cell_formula_units_Z 48
_cell_length_a 8.491703
_cell_length_b 31.349472
_cell_length_c 9.738408
_cell_angle_alpha 90.000000
_cell_angle_beta 90.000000
_cell_angle_gamma 90.000000
_cell_volume 2592.465542
_symmetry_space_group_name_H-M "P M N A"
_symmetry_group_IT_number 53
_symmetry_cell_setting 'orthorhombic'
loop_
_space_group_symop_operation_xyz
x,y,z
1/2-x,-y,1/2+z
x,-y,-z
1/2-x,y,1/2-z
-x,-y,-z
1/2+x,y,1/2-z
-x,y,z
1/2+x,-y,1/2+z
loop_
_atom_site_type_symbol
_atom_site_label
_atom_site_fract_x
_atom_site_fract_y
_atom_site_fract_z
Si Si1 0.690210 0.116203 0.901485
Si Si2 0.809876 0.786195 0.401167
Si Si3 0.309696 0.960240 0.905141
Si Si4 0.188687 0.709943 0.595480
Si Si5 0.309945 0.538078 0.403389
Si Si6 0.810954 0.365438 0.904733
O O1 0.750000 0.103727 0.750000
O O2 0.500000 0.115687 0.898161
O O3 0.741913 0.165014 0.927878
O O4 0.742331 0.082949 0.017261
O O5 0.750000 0.773816 0.250000
O O6 0.756414 0.752381 0.514406
O O7 0.000000 0.785938 0.398516
O O8 0.250000 0.963296 0.750000
O O9 0.500000 0.960427 0.901278
O O10 0.259230 0.000000 0.000000
O O11 0.250000 0.708934 0.750000
O O12 0.245431 0.669295 0.508941
O O13 0.000000 0.710222 0.597498
O O14 0.252655 0.500000 0.500000
O O15 0.250000 0.531123 0.250000
O O16 0.500000 0.537326 0.403137
O O17 0.262218 0.586183 0.444509
O O18 0.750000 0.357538 0.750000
O O19 0.000000 0.363351 0.903419
#
# Coordination Sequence:
#
# PCOD9417583 Si02
#       6
#     8   8   8   8   8   8
#     4   9  18  34  54  77 104 133 170 212 254 304
#     4   9  19  35  55  77 102 135 172 211 255 306
#     4  10  21  35  52  76 105 136 171 212 256 304
#     4  11  23  37  53  76 106 138 174 217 264 310
#     4   9  19  35  54  78 106 136 171 210 253 303
#     4  10  20  36  57  79 105 138 176 215 257 308
#
# _framework density 18.515191999999999
#
# number of rings (size 3 to 8) (size 9 to 14) (size 15 to 20)
#    0.000    2.333    0.000    2.000    0.000    6.000 
#    0.000    1.667    0.000    0.000    0.000    0.000 
#    0.000    0.000    0.000    0.000    0.000    0.000 
#
# Total GULP energy -267926.489062 kJ/mol
# GULP energy per Si atom -5581.801855 kJ/mol
# Density = 1.847305 g / cm^3
# Si number density = 18.515192 Si / 1000 Ang^3
#
#
#
# Elastic Constant Matrix: (Units=GPa)
#
#
# Indices 1 2 3 4 5 6 
#
# 1 17.0255 29.6756 27.2695 0.0000 0.0000 0.0000
# 2 29.6756 148.1023 129.8217 0.0000 0.0000 0.0000
# 3 27.2695 129.8217 171.8832 0.0000 0.0000 0.0000
# 4 0.0000 0.0000 0.0000 36.7535 0.0000 0.0000
# 5 0.0000 0.0000 0.0000 0.0000 35.2737 0.0000
# 6 0.0000 0.0000 0.0000 0.0000 0.0000 26.3518
#
#
#
# Elastic Compliance Matrix: (Units=1/GPa)
#
#
# Indices 1 2 3 4 5 6 
#
# 1 0.090480 -0.016414 -0.001958 0.000000 0.000000 0.000000
# 2 -0.016414 0.022958 -0.014736 0.000000 0.000000 0.000000
# 3 -0.001958 -0.014736 0.017258 0.000000 0.000000 0.000000
# 4 0.000000 0.000000 0.000000 0.027208 0.000000 0.000000
# 5 0.000000 0.000000 0.000000 0.000000 0.028350 0.000000
# 6 0.000000 0.000000 0.000000 0.000000 0.000000 0.037948
#
#
# Mechanical properties :
#
#
# Convention : Reuss Voigt Hill
#
# Bulk Modulus (GPa) = 15.50819 78.94940 47.22880
# Shear Modulus (GPa) = 16.03021 29.69206 22.86113
#
# Velocity S-wave (km/s) = 2.94562 4.00892 3.51767
# Velocity P-wave (km/s) = 4.46800 8.01008 6.48554
#
# Compressibility (1/GPa) = 0.06448204
#
# Stress axis : x y z
#
# Youngs Moduli (GPa) = 11.05214 43.55800 57.94302
#
# Poissons Ratio (x) = 0.71495 0.11344
# Poissons Ratio (y) = 0.18141 0.85384
# Poissons Ratio (z) = 0.02164 0.64186
#
# Static dielectric constant tensor:
#      x y z
#    x 1.637320 0.000000 0.000000 
#    y 0.000000 1.661390 0.000000 
#    z 0.000000 0.000000 1.585990 
# 
# From -- ./inp_files/6619.got.cif
#   From: 2010.05.17/outbox.cif.g08.bks.cpg/sg53_4_cif.got.tgz:6619.got - 2010.06.03 12:45:16.
