data_PCOD9417913
_publ_section_title
;
Structure prediction by ZEFSAII (Michael W. Deem and Ramdas Pophale) SiO2 
 PCOD9417913
Probable space group: P M N A
;
_chemical_formula_sum "Si O2"
_cell_formula_units_Z 56
_cell_length_a 15.402155
_cell_length_b 11.464352
_cell_length_c 15.551239
_cell_angle_alpha 90.000000
_cell_angle_beta 90.000000
_cell_angle_gamma 90.000000
_cell_volume 2745.971324
_symmetry_space_group_name_H-M "P M N A"
_symmetry_group_IT_number 53
_symmetry_cell_setting 'orthorhombic'
loop_
_space_group_symop_operation_xyz
x,y,z
1/2-x,-y,1/2+z
x,-y,-z
1/2-x,y,1/2-z
-x,-y,-z
1/2+x,y,1/2-z
-x,y,z
1/2+x,-y,1/2+z
loop_
_atom_site_type_symbol
_atom_site_label
_atom_site_fract_x
_atom_site_fract_y
_atom_site_fract_z
Si Si1 0.330645 0.362936 0.994823
Si Si2 0.093920 0.803109 0.131149
Si Si3 0.599835 0.143894 0.428396
Si Si4 0.291665 0.668867 0.659238
Si Si5 0.698821 0.400044 0.663561
Si Si6 0.265632 0.975645 0.340338
Si Si7 0.903727 0.886996 0.436070
O O1 0.280710 0.333151 0.083537
O O2 0.366377 0.500000 0.000000
O O3 0.260136 0.372258 0.918058
O O4 0.386190 0.244403 0.974521
O O5 0.110653 0.669541 0.151034
O O6 0.169840 0.869888 0.178534
O O7 0.000000 0.843510 0.158675
O O8 0.103217 0.824888 0.029013
O O9 0.500000 0.105220 0.411173
O O10 0.627897 0.253840 0.371615
O O11 0.676815 0.054039 0.404722
O O12 0.250000 0.703972 0.750000
O O13 0.320021 0.535889 0.668216
O O14 0.750000 0.367969 0.750000
O O15 0.250000 0.038470 0.250000
O O16 0.177995 0.923017 0.378134
O O17 0.000000 0.882858 0.395414
O O18 0.905955 0.000000 0.500000
#
# Coordination Sequence:
#
# PCOD9417913 Si02
#       7
#     8   8   8   8   8   8   8
#     4  10  20  39  64  90 127 170 214 263 320 381
#     4  11  22  37  62  92 122 161 206 259 323 384
#     4  11  23  39  62  93 127 167 212 262 323 396
#     4  10  20  37  62  88 125 174 214 258 317 381
#     4  10  20  37  60  91 124 168 212 259 317 379
#     4  12  24  41  62  87 127 164 207 263 320 386
#     4  11  24  41  64  90 119 162 216 266 317 379
#
# _framework density 20.393512999999999
#
# number of rings (size 3 to 8) (size 9 to 14) (size 15 to 20)
#    0.000    1.286    2.857    3.429    0.000    3.143 
#    0.000    3.571    0.000    5.143    0.000    0.000 
#    0.000    0.000    0.000    0.000    0.000    0.000 
#
# Total GULP energy -312191.393867 kJ/mol
# GULP energy per Si atom -5574.846319 kJ/mol
# Density = 2.034710 g / cm^3
# Si number density = 20.393513 Si / 1000 Ang^3
#
#
#
# Elastic Constant Matrix: (Units=GPa)
#
#
# Indices 1 2 3 4 5 6 
#
# 1 140.6982 57.0615 41.0682 0.0000 0.0000 0.0000
# 2 57.0615 130.4217 27.3258 0.0000 0.0000 0.0000
# 3 41.0682 27.3258 104.2479 0.0000 0.0000 0.0000
# 4 0.0000 0.0000 0.0000 10.4594 0.0000 0.0000
# 5 0.0000 0.0000 0.0000 0.0000 13.4684 0.0000
# 6 0.0000 0.0000 0.0000 0.0000 0.0000 -4.8599
#
#
#
# Elastic Compliance Matrix: (Units=1/GPa)
#
#
# Indices 1 2 3 4 5 6 
#
# 1 0.009334 -0.003506 -0.002758 0.000000 0.000000 0.000000
# 2 -0.003506 0.009430 -0.001091 0.000000 0.000000 0.000000
# 3 -0.002758 -0.001091 0.010965 0.000000 0.000000 0.000000
# 4 0.000000 0.000000 0.000000 0.095608 0.000000 0.000000
# 5 0.000000 0.000000 0.000000 0.000000 0.074248 0.000000
# 6 0.000000 0.000000 0.000000 0.000000 0.000000 -0.205766
#
#
# Mechanical properties :
#
#
# Convention : Reuss Voigt Hill
#
# Bulk Modulus (GPa) = 66.58005 69.58652 68.08329
# Shear Modulus (GPa) = 369.40725 20.47442 194.94083
#
# Velocity S-wave (km/s) = 13.47341 3.17198 9.78760
# Velocity P-wave (km/s) = 16.57596 6.90009 12.69594
#
# Compressibility (1/GPa) = 0.01501951
#
# Stress axis : x y z
#
# Youngs Moduli (GPa) = 107.13036 106.04591 91.19932
#
# Poissons Ratio (x) = 0.37180 0.25155
# Poissons Ratio (y) = 0.37560 0.09946
# Poissons Ratio (z) = 0.29549 0.11565
#
# Static dielectric constant tensor:
#      x y z
#    x 1.723440 0.000000 0.000000 
#    y 0.000000 1.826850 0.000000 
#    z 0.000000 0.000000 1.735540 
# 
# From -- ./inp_files/22774.got.cif
#   From: 2010.05.17/outbox.cif.g08.bks.cpg/sg53_12_cif.got.tgz:22774.got - 2010.06.03 12:45:16.
