data_PCOD9417808
_publ_section_title
;
Structure prediction by ZEFSAII (Michael W. Deem and Ramdas Pophale) SiO2 
 PCOD9417808
Probable space group: P M N A
;
_chemical_formula_sum "Si O2"
_cell_formula_units_Z 40
_cell_length_a 24.041609
_cell_length_b 8.786360
_cell_length_c 8.723011
_cell_angle_alpha 90.000000
_cell_angle_beta 90.000000
_cell_angle_gamma 90.000000
_cell_volume 1842.633418
_symmetry_space_group_name_H-M "P M N A"
_symmetry_group_IT_number 53
_symmetry_cell_setting 'orthorhombic'
loop_
_space_group_symop_operation_xyz
x,y,z
1/2-x,-y,1/2+z
x,-y,-z
1/2-x,y,1/2-z
-x,-y,-z
1/2+x,y,1/2-z
-x,y,z
1/2+x,-y,1/2+z
loop_
_atom_site_type_symbol
_atom_site_label
_atom_site_fract_x
_atom_site_fract_y
_atom_site_fract_z
Si Si1 0.874288 0.500000 0.500000
Si Si2 0.667748 0.714628 0.265420
Si Si3 0.108217 0.696916 0.766448
Si Si4 0.816829 0.500000 0.000000
Si Si5 0.937677 0.829373 0.049524
Si Si6 0.804357 0.049188 0.324742
O O1 0.839580 0.381265 0.607916
O O2 0.908555 0.400484 0.379874
O O3 0.707264 0.628929 0.389171
O O4 0.606067 0.740908 0.342494
O O5 0.687289 0.886636 0.253645
O O6 0.143753 0.840331 0.705434
O O7 0.148503 0.593107 0.872205
O O8 0.062048 0.745758 0.885795
O O9 0.000000 0.837605 0.114793
O O10 0.919042 0.000000 0.000000
O O11 0.750000 0.124732 0.250000
O O12 0.797328 0.000000 0.500000
#
# Coordination Sequence:
#
# PCOD9417808 Si02
#       6
#     4   8   8   4   8   8
#     4  10  20  40  62  82 124 170 194 248 314 354
#     4  10  20  41  61  88 125 160 201 252 299 359
#     4  10  20  41  61  88 125 160 201 252 299 359
#     4   8  20  34  64  84 118 166 188 240 312 352
#     4  10  20  36  65  96 120 158 204 249 302 361
#     4  12  26  40  64  91 119 159 211 254 304 363
#
# _framework density 21.708062000000002
#
# number of rings (size 3 to 8) (size 9 to 14) (size 15 to 20)
#    0.000    1.800    4.000    0.000    5.600    0.000 
#    0.000   26.000    0.000    3.600    0.000    0.000 
#    0.000    0.000    0.000    0.000    0.000    0.000 
#
# Total GULP energy -222861.532592 kJ/mol
# GULP energy per Si atom -5571.538315 kJ/mol
# Density = 2.165865 g / cm^3
# Si number density = 21.708062 Si / 1000 Ang^3
#
#
#
# Elastic Constant Matrix: (Units=GPa)
#
#
# Indices 1 2 3 4 5 6 
#
# 1 67.5751 4.6884 20.0508 0.0000 0.0000 0.0000
# 2 4.6884 104.7031 28.3523 0.0000 0.0000 0.0000
# 3 20.0508 28.3523 110.7417 0.0000 0.0000 0.0000
# 4 0.0000 0.0000 0.0000 48.6612 0.0000 0.0000
# 5 0.0000 0.0000 0.0000 0.0000 13.9471 0.0000
# 6 0.0000 0.0000 0.0000 0.0000 0.0000 -0.7219
#
#
#
# Elastic Compliance Matrix: (Units=1/GPa)
#
#
# Indices 1 2 3 4 5 6 
#
# 1 0.015639 0.000071 -0.002850 0.000000 0.000000 0.000000
# 2 0.000071 0.010263 -0.002640 0.000000 0.000000 0.000000
# 3 -0.002850 -0.002640 0.010222 0.000000 0.000000 0.000000
# 4 0.000000 0.000000 0.000000 0.020550 0.000000 0.000000
# 5 0.000000 0.000000 0.000000 0.000000 0.071699 0.000000
# 6 0.000000 0.000000 0.000000 0.000000 0.000000 -1.385255
#
#
# Mechanical properties :
#
#
# Convention : Reuss Voigt Hill
#
# Bulk Modulus (GPa) = 39.54764 43.24477 41.39620
# Shear Modulus (GPa) = -4.04003 27.70583 11.83290
#
# Velocity S-wave (km/s) = -1.36569 3.57640 2.33725
# Velocity P-wave (km/s) = 3.97123 6.08428 5.13757
#
# Compressibility (1/GPa) = 0.02528596
#
# Stress axis : x y z
#
# Youngs Moduli (GPa) = 63.94265 97.44117 97.82801
#
# Poissons Ratio (x) = -0.00696 0.27880
# Poissons Ratio (y) = -0.00457 0.25830
# Poissons Ratio (z) = 0.18223 0.25728
#
# Static dielectric constant tensor:
#      x y z
#    x 1.776450 0.000000 0.000000 
#    y 0.000000 1.862180 0.000000 
#    z 0.000000 0.000000 1.713970 
# 
# From -- ./inp_files/12876.got.cif
#   From: 2010.05.17/outbox.cif.g08.bks.cpg/sg53_7_cif.got.tgz:12876.got - 2010.06.03 12:45:16.
