data_PCOD9417309
_publ_section_title
;
Structure prediction by ZEFSAII (Michael W. Deem and Ramdas Pophale) SiO2 
 PCOD9417309
Probable space group: P M N A
;
_chemical_formula_sum "Si O2"
_cell_formula_units_Z 64
_cell_length_a 8.715014
_cell_length_b 17.131907
_cell_length_c 24.533401
_cell_angle_alpha 90.000000
_cell_angle_beta 90.000000
_cell_angle_gamma 90.000000
_cell_volume 3662.954759
_symmetry_space_group_name_H-M "P M N A"
_symmetry_group_IT_number 53
_symmetry_cell_setting 'orthorhombic'
loop_
_space_group_symop_operation_xyz
x,y,z
1/2-x,-y,1/2+z
x,-y,-z
1/2-x,y,1/2-z
-x,-y,-z
1/2+x,y,1/2-z
-x,y,z
1/2+x,-y,1/2+z
loop_
_atom_site_type_symbol
_atom_site_label
_atom_site_fract_x
_atom_site_fract_y
_atom_site_fract_z
Si Si1 0.816761 0.871614 0.690765
Si Si2 0.316325 0.812587 0.525819
Si Si3 0.683149 0.133684 0.589190
Si Si4 0.315850 0.775071 0.188847
Si Si5 0.685650 0.720085 0.877524
Si Si6 0.183886 0.035715 0.414434
Si Si7 0.814268 0.568324 0.688518
Si Si8 0.684613 0.397316 0.810992
O O1 0.750000 0.883396 0.750000
O O2 0.766113 0.789812 0.663567
O O3 0.778565 0.939024 0.647655
O O4 0.000000 0.868217 0.694829
O O5 0.500000 0.815168 0.530811
O O6 0.275925 0.810682 0.461957
O O7 0.251718 0.743791 0.563807
O O8 0.247706 0.893417 0.549455
O O9 0.500000 0.132048 0.594393
O O10 0.755768 0.163096 0.645326
O O11 0.742568 0.047510 0.574449
O O12 0.250000 0.785353 0.250000
O O13 0.500000 0.778780 0.192035
O O14 0.268936 0.687917 0.167550
O O15 0.500000 0.721502 0.881096
O O16 0.734298 0.638296 0.851143
O O17 0.000000 0.032207 0.420736
O O18 0.750000 0.578198 0.750000
O O19 0.768957 0.482167 0.666332
O O20 0.000000 0.571096 0.692350
O O21 0.750000 0.398315 0.750000
O O22 0.500000 0.397105 0.809466
#
# Coordination Sequence:
#
# PCOD9417309 Si02
#       8
#     8   8   8   8   8   8   8   8
#     4   9  18  30  44  66  96 129 161 192 232 283
#     4  10  21  36  53  73  98 128 165 209 252 293
#     4  11  23  37  54  76  99 125 163 209 252 296
#     4  10  20  35  55  78 104 133 164 200 247 299
#     4   9  18  31  47  70 100 132 167 205 243 288
#     4  10  21  36  53  74  99 128 165 207 251 299
#     4   9  16  27  46  74 105 134 166 204 244 289
#     4   8  15  28  47  72 101 131 163 200 242 289
#
# _framework density 17.472232999999999
#
# number of rings (size 3 to 8) (size 9 to 14) (size 15 to 20)
#    0.000    2.500    0.000    3.000    0.000    7.500 
#    0.000    1.250    0.000    0.750    0.000    5.250 
#    0.000    0.000    0.000    0.000    0.000    0.000 
#
# Total GULP energy -356658.445489 kJ/mol
# GULP energy per Si atom -5572.788211 kJ/mol
# Density = 1.743247 g / cm^3
# Si number density = 17.472233 Si / 1000 Ang^3
#
#
#
# Elastic Constant Matrix: (Units=GPa)
#
#
# Indices 1 2 3 4 5 6 
#
# 1 24.9658 10.2170 22.7903 0.0000 0.0000 0.0000
# 2 10.2170 57.0012 12.0750 0.0000 0.0000 0.0000
# 3 22.7903 12.0750 79.4715 0.0000 0.0000 0.0000
# 4 0.0000 0.0000 0.0000 17.4868 0.0000 0.0000
# 5 0.0000 0.0000 0.0000 0.0000 24.5100 0.0000
# 6 0.0000 0.0000 0.0000 0.0000 0.0000 19.0005
#
#
#
# Elastic Compliance Matrix: (Units=1/GPa)
#
#
# Indices 1 2 3 4 5 6 
#
# 1 0.056808 -0.006955 -0.015234 0.000000 0.000000 0.000000
# 2 -0.006955 0.018978 -0.000889 0.000000 0.000000 0.000000
# 3 -0.015234 -0.000889 0.017087 0.000000 0.000000 0.000000
# 4 0.000000 0.000000 0.000000 0.057186 0.000000 0.000000
# 5 0.000000 0.000000 0.000000 0.000000 0.040800 0.000000
# 6 0.000000 0.000000 0.000000 0.000000 0.000000 0.052630
#
#
# Mechanical properties :
#
#
# Convention : Reuss Voigt Hill
#
# Bulk Modulus (GPa) = 21.40575 27.95589 24.68082
# Shear Modulus (GPa) = 16.38175 19.95655 18.16915
#
# Velocity S-wave (km/s) = 3.06533 3.38329 3.22823
# Velocity P-wave (km/s) = 4.98058 5.59438 5.29638
#
# Compressibility (1/GPa) = 0.04671642
#
# Stress axis : x y z
#
# Youngs Moduli (GPa) = 17.60325 52.69127 58.52414
#
# Poissons Ratio (x) = 0.36648 0.89157
# Poissons Ratio (y) = 0.12243 0.05203
# Poissons Ratio (z) = 0.26817 0.04685
#
# Static dielectric constant tensor:
#      x y z
#    x 1.585890 0.000000 0.000000 
#    y 0.000000 1.622450 0.000000 
#    z 0.000000 0.000000 1.577430 
# 
# From -- ./inp_files/34486.got.cif
#   From: 2010.05.17/outbox.cif.g08.bks.cpg/sg53_18_cif.got.tgz:34486.got - 2010.06.03 12:45:16.
