data_PCOD9417145
_publ_section_title
;
Structure prediction by ZEFSAII (Michael W. Deem and Ramdas Pophale) SiO2 
 PCOD9417145
Probable space group: P M N A
;
_chemical_formula_sum "Si O2"
_cell_formula_units_Z 48
_cell_length_a 8.795971
_cell_length_b 31.977194
_cell_length_c 9.198993
_cell_angle_alpha 90.000000
_cell_angle_beta 90.000000
_cell_angle_gamma 90.000000
_cell_volume 2587.405095
_symmetry_space_group_name_H-M "P M N A"
_symmetry_group_IT_number 53
_symmetry_cell_setting 'orthorhombic'
loop_
_space_group_symop_operation_xyz
x,y,z
1/2-x,-y,1/2+z
x,-y,-z
1/2-x,y,1/2-z
-x,-y,-z
1/2+x,y,1/2-z
-x,y,z
1/2+x,-y,1/2+z
loop_
_atom_site_type_symbol
_atom_site_label
_atom_site_fract_x
_atom_site_fract_y
_atom_site_fract_z
Si Si1 0.182356 0.119693 0.911210
Si Si2 0.681806 0.796557 0.587665
Si Si3 0.182039 0.957791 0.588946
Si Si4 0.181796 0.711479 0.587184
Si Si5 0.317875 0.541761 0.410214
Si Si6 0.682350 0.381298 0.087324
O O1 0.250000 0.118703 0.750000
O O2 0.000000 0.116059 0.904756
O O3 0.220472 0.163303 0.991048
O O4 0.249070 0.081648 0.004578
O O5 0.750000 0.801708 0.750000
O O6 0.500000 0.793306 0.600017
O O7 0.746730 0.753359 0.521330
O O8 0.250000 0.960276 0.750000
O O9 0.000000 0.953543 0.597347
O O10 0.217523 0.000000 0.500000
O O11 0.250000 0.710488 0.750000
O O12 0.217407 0.665368 0.526414
O O13 0.000000 0.715909 0.593807
O O14 0.278342 0.500000 0.500000
O O15 0.250000 0.538601 0.250000
O O16 0.500000 0.544931 0.403456
O O17 0.251250 0.582189 0.490637
O O18 0.750000 0.384313 0.250000
O O19 0.500000 0.385204 0.095774
#
# Coordination Sequence:
#
# PCOD9417145 Si02
#       6
#     8   8   8   8   8   8
#     4  11  24  40  59  84 115 152 193 237 286 338
#     4  10  20  34  55  83 112 146 188 233 280 331
#     4  11  24  41  63  90 119 152 190 233 281 335
#     4   9  17  30  52  81 111 145 184 227 275 328
#     4  11  24  40  59  83 111 145 184 228 278 332
#     4  10  20  35  57  85 115 148 187 230 278 332
#
# _framework density 18.551406
#
# number of rings (size 3 to 8) (size 9 to 14) (size 15 to 20)
#    0.000    1.667    0.000    5.500    0.000   11.333 
#    0.000    0.833    0.000    2.000    0.000    0.000 
#    0.000    0.000    0.000    0.000    0.000    0.000 
#
# Total GULP energy -268147.455618 kJ/mol
# GULP energy per Si atom -5586.405325 kJ/mol
# Density = 1.850918 g / cm^3
# Si number density = 18.551406 Si / 1000 Ang^3
#
#
#
# Elastic Constant Matrix: (Units=GPa)
#
#
# Indices 1 2 3 4 5 6 
#
# 1 77.9967 93.7793 57.6628 0.0000 0.0000 0.0000
# 2 93.7793 226.7790 105.6629 0.0000 0.0000 0.0000
# 3 57.6628 105.6629 134.3137 0.0000 0.0000 0.0000
# 4 0.0000 0.0000 0.0000 29.0160 0.0000 0.0000
# 5 0.0000 0.0000 0.0000 0.0000 28.9244 0.0000
# 6 0.0000 0.0000 0.0000 0.0000 0.0000 34.5323
#
#
#
# Elastic Compliance Matrix: (Units=1/GPa)
#
#
# Indices 1 2 3 4 5 6 
#
# 1 0.027083 -0.009128 -0.004446 0.000000 0.000000 0.000000
# 2 -0.009128 0.010038 -0.003978 0.000000 0.000000 0.000000
# 3 -0.004446 -0.003978 0.012483 0.000000 0.000000 0.000000
# 4 0.000000 0.000000 0.000000 0.034464 0.000000 0.000000
# 5 0.000000 0.000000 0.000000 0.000000 0.034573 0.000000
# 6 0.000000 0.000000 0.000000 0.000000 0.000000 0.028958
#
#
# Mechanical properties :
#
#
# Convention : Reuss Voigt Hill
#
# Bulk Modulus (GPa) = 68.96484 105.92217 87.44351
# Shear Modulus (GPa) = 26.66150 30.62685 28.64417
#
# Velocity S-wave (km/s) = 3.79511 4.06756 3.93369
# Velocity P-wave (km/s) = 7.51396 8.90396 8.23833
#
# Compressibility (1/GPa) = 0.01450014
#
# Stress axis : x y z
#
# Youngs Moduli (GPa) = 36.92321 99.62597 80.10705
#
# Poissons Ratio (x) = 0.90938 0.35618
# Poissons Ratio (y) = 0.33703 0.31864
# Poissons Ratio (z) = 0.16417 0.39628
#
# Static dielectric constant tensor:
#      x y z
#    x 1.619750 0.000000 0.000000 
#    y 0.000000 1.659260 0.000000 
#    z 0.000000 0.000000 1.597340 
# 
# From -- ./inp_files/6616.got.cif
#   From: 2010.05.17/outbox.cif.g08.bks.cpg/sg53_4_cif.got.tgz:6616.got - 2010.06.03 12:45:16.
