data_PCOD9417985
_publ_section_title
;
Structure prediction by ZEFSAII (Michael W. Deem and Ramdas Pophale) SiO2 
 PCOD9417985
Probable space group: P M N A
;
_chemical_formula_sum "Si O2"
_cell_formula_units_Z 56
_cell_length_a 7.897628
_cell_length_b 17.374642
_cell_length_c 22.143935
_cell_angle_alpha 90.000000
_cell_angle_beta 90.000000
_cell_angle_gamma 90.000000
_cell_volume 3038.556640
_symmetry_space_group_name_H-M "P M N A"
_symmetry_group_IT_number 53
_symmetry_cell_setting 'orthorhombic'
loop_
_space_group_symop_operation_xyz
x,y,z
1/2-x,-y,1/2+z
x,-y,-z
1/2-x,y,1/2-z
-x,-y,-z
1/2+x,y,1/2-z
-x,y,z
1/2+x,-y,1/2+z
loop_
_atom_site_type_symbol
_atom_site_label
_atom_site_fract_x
_atom_site_fract_y
_atom_site_fract_z
Si Si1 0.294151 0.473322 0.091202
Si Si2 0.801790 0.194869 0.115496
Si Si3 0.706804 0.377358 0.971980
Si Si4 0.800800 0.040837 0.939120
Si Si5 0.796555 0.957520 0.818836
Si Si6 0.702478 0.349526 0.180786
Si Si7 0.696619 0.795753 0.020756
O O1 0.500000 0.476196 0.090562
O O2 0.237563 0.560163 0.077791
O O3 0.239269 0.429752 0.151170
O O4 0.245526 0.417507 0.035430
O O5 0.742646 0.128898 0.161817
O O6 0.778121 0.277928 0.144684
O O7 0.000000 0.181063 0.102928
O O8 0.710601 0.191583 0.051258
O O9 0.500000 0.373846 0.972069
O O10 0.767418 0.289902 0.966553
O O11 0.781742 0.131961 0.947126
O O12 0.000000 0.021136 0.938686
O O13 0.732994 0.010247 0.874782
O O14 0.728450 0.000000 0.000000
O O15 0.750000 0.976618 0.750000
O O16 0.000000 0.959797 0.819520
O O17 0.750000 0.344423 0.250000
O O18 0.500000 0.344527 0.174008
O O19 0.500000 0.796567 0.038183
#
# Coordination Sequence:
#
# PCOD9417985 Si02
#       7
#     8   8   8   8   8   8   8
#     4   8  14  27  48  70  97 131 167 203 246 299
#     4  11  21  35  52  74 107 146 176 207 262 322
#     4   8  14  27  48  74  99 126 162 208 256 298
#     4  10  20  38  56  74 106 145 178 211 267 329
#     4  10  22  38  56  75 101 140 179 217 259 316
#     4  11  21  33  49  74 104 139 175 211 254 309
#     4  11  20  31  53  84 109 132 173 226 265 306
#
# _framework density 18.429801999999999
#
# number of rings (size 3 to 8) (size 9 to 14) (size 15 to 20)
#    0.000    2.143    2.857    2.571    0.000    3.143 
#    0.000    0.000    0.000    5.143    0.000    4.000 
#    0.000    0.000    0.000    0.000    0.000    0.000 
#
# Total GULP energy -312291.418006 kJ/mol
# GULP energy per Si atom -5576.632464 kJ/mol
# Density = 1.838785 g / cm^3
# Si number density = 18.429802 Si / 1000 Ang^3
#
#
#
# Elastic Constant Matrix: (Units=GPa)
#
#
# Indices 1 2 3 4 5 6 
#
# 1 20.9370 4.2797 2.6598 0.0000 0.0000 0.0000
# 2 4.2797 125.4816 63.3588 0.0000 0.0000 0.0000
# 3 2.6598 63.3588 104.6546 0.0000 0.0000 0.0000
# 4 0.0000 0.0000 0.0000 28.1275 0.0000 0.0000
# 5 0.0000 0.0000 0.0000 0.0000 -52.5348 0.0000
# 6 0.0000 0.0000 0.0000 0.0000 0.0000 28.2074
#
#
#
# Elastic Compliance Matrix: (Units=1/GPa)
#
#
# Indices 1 2 3 4 5 6 
#
# 1 0.048106 -0.001474 -0.000330 0.000000 0.000000 0.000000
# 2 -0.001474 0.011523 -0.006939 0.000000 0.000000 0.000000
# 3 -0.000330 -0.006939 0.013764 0.000000 0.000000 0.000000
# 4 0.000000 0.000000 0.000000 0.035552 0.000000 0.000000
# 5 0.000000 0.000000 0.000000 0.000000 -0.019035 0.000000
# 6 0.000000 0.000000 0.000000 0.000000 0.000000 0.035452
#
#
# Mechanical properties :
#
#
# Convention : Reuss Voigt Hill
#
# Bulk Modulus (GPa) = 17.88676 43.51888 30.70282
# Shear Modulus (GPa) = 30.96282 12.81166 21.88724
#
# Velocity S-wave (km/s) = 4.10328 2.63945 3.44990
# Velocity P-wave (km/s) = 5.67235 5.74051 5.70654
#
# Compressibility (1/GPa) = 0.05590726
#
# Stress axis : x y z
#
# Youngs Moduli (GPa) = 20.78757 86.78208 72.65113
#
# Poissons Ratio (x) = 0.12791 0.02399
# Poissons Ratio (y) = 0.03064 0.50411
# Poissons Ratio (z) = 0.00687 0.60216
#
# Static dielectric constant tensor:
#      x y z
#    x 1.680500 0.000000 0.000000 
#    y 0.000000 1.651050 0.000000 
#    z 0.000000 0.000000 1.622540 
# 
# From -- ./inp_files/31025.got.cif
#   From: 2010.05.17/outbox.cif.g08.bks.cpg/sg53_16_cif.got.tgz:31025.got - 2010.06.03 12:45:16.
