data_PCOD9417090
_publ_section_title
;
Structure prediction by ZEFSAII (Michael W. Deem and Ramdas Pophale) SiO2 
 PCOD9417090
Probable space group: P M N A
;
_chemical_formula_sum "Si O2"
_cell_formula_units_Z 58
_cell_length_a 7.850495
_cell_length_b 21.969072
_cell_length_c 14.913819
_cell_angle_alpha 90.000000
_cell_angle_beta 90.000000
_cell_angle_gamma 90.000000
_cell_volume 2572.157876
_symmetry_space_group_name_H-M "P M N A"
_symmetry_group_IT_number 53
_symmetry_cell_setting 'orthorhombic'
loop_
_space_group_symop_operation_xyz
x,y,z
1/2-x,-y,1/2+z
x,-y,-z
1/2-x,y,1/2-z
-x,-y,-z
1/2+x,y,1/2-z
-x,y,z
1/2+x,-y,1/2+z
loop_
_atom_site_type_symbol
_atom_site_label
_atom_site_fract_x
_atom_site_fract_y
_atom_site_fract_z
Si Si1 0.806621 0.272992 0.161835
Si Si2 0.190475 0.376307 0.846676
Si Si3 0.204540 0.135797 0.152779
Si Si4 0.300853 0.522304 0.646831
Si Si5 0.309730 0.286058 0.975976
Si Si6 0.294269 0.826463 0.145463
Si Si7 0.000000 0.500000 0.500000
Si Si8 0.801726 0.065785 0.522669
O O1 0.750000 0.307813 0.250000
O O2 0.727445 0.205416 0.154161
O O3 0.000000 0.259862 0.179362
O O4 0.785884 0.302231 0.066429
O O5 0.250000 0.354547 0.750000
O O6 0.192561 0.448533 0.847432
O O7 0.312646 0.346205 0.917325
O O8 0.000000 0.354705 0.865687
O O9 0.250000 0.109076 0.250000
O O10 0.000000 0.133919 0.139875
O O11 0.289057 0.102658 0.069671
O O12 0.250000 0.541760 0.750000
O O13 0.500000 0.542229 0.626995
O O14 0.153981 0.528847 0.569582
O O15 0.500000 0.268200 0.002171
O O16 0.235746 0.230714 0.916107
O O17 0.250000 0.820574 0.250000
O O18 0.500000 0.825912 0.139990
O O19 0.230784 0.889327 0.099773
O O20 0.000000 0.055331 0.547051
O O21 0.722968 0.000000 0.500000
#
# Coordination Sequence:
#
# PCOD9417090 Si02
#       8
#     8   8   8   8   8   8   2   8
#     4  10  20  34  54  80 106 138 182 232 282 338
#     4  10  21  36  58  89 129 165 205 259 310 366
#     4  10  20  34  55  78 101 129 168 222 270 328
#     4  10  21  39  63 100 138 178 232 285 337 394
#     4  11  21  34  57  85 114 153 196 240 292 361
#     4  10  22  37  53  77 108 142 180 225 282 350
#     4  12  22  36  72  96 136 188 226 284 338 392
#     4  10  21  38  56  74 102 137 176 225 282 340
#
# _framework density 22.549160000000001
#
# number of rings (size 3 to 8) (size 9 to 14) (size 15 to 20)
#    0.000    1.793    2.069    2.276    1.931    4.690 
#    0.000    1.379    0.000    0.828    0.000    0.000 
#    0.000    0.000    0.000    0.000    0.000    0.000 
#
# Total GULP energy -322908.626572 kJ/mol
# GULP energy per Si atom -5567.390113 kJ/mol
# Density = 2.249784 g / cm^3
# Si number density = 22.549160 Si / 1000 Ang^3
#
#
#
# Elastic Constant Matrix: (Units=GPa)
#
#
# Indices 1 2 3 4 5 6 
#
# 1 97.2105 7.1408 19.9294 0.0000 0.0000 0.0000
# 2 7.1408 38.0058 10.9009 0.0000 0.0000 0.0000
# 3 19.9294 10.9009 132.2278 0.0000 0.0000 0.0000
# 4 0.0000 0.0000 0.0000 16.7530 0.0000 0.0000
# 5 0.0000 0.0000 0.0000 0.0000 35.9938 0.0000
# 6 0.0000 0.0000 0.0000 0.0000 0.0000 14.8420
#
#
#
# Elastic Compliance Matrix: (Units=1/GPa)
#
#
# Indices 1 2 3 4 5 6 
#
# 1 0.010708 -0.001586 -0.001483 0.000000 0.000000 0.000000
# 2 -0.001586 0.027184 -0.002002 0.000000 0.000000 0.000000
# 3 -0.001483 -0.002002 0.007951 0.000000 0.000000 0.000000
# 4 0.000000 0.000000 0.000000 0.059691 0.000000 0.000000
# 5 0.000000 0.000000 0.000000 0.000000 0.027783 0.000000
# 6 0.000000 0.000000 0.000000 0.000000 0.000000 0.067377
#
#
# Mechanical properties :
#
#
# Convention : Reuss Voigt Hill
#
# Bulk Modulus (GPa) = 28.01122 38.15404 33.08263
# Shear Modulus (GPa) = 22.44813 28.81595 25.63204
#
# Velocity S-wave (km/s) = 3.15861 3.57867 3.37518
# Velocity P-wave (km/s) = 5.07461 5.83378 5.46739
#
# Compressibility (1/GPa) = 0.03569998
#
# Stress axis : x y z
#
# Youngs Moduli (GPa) = 93.39221 36.78625 125.76596
#
# Poissons Ratio (x) = 0.05836 0.18652
# Poissons Ratio (y) = 0.14816 0.25178
# Poissons Ratio (z) = 0.13851 0.07364
#
# Static dielectric constant tensor:
#      x y z
#    x 1.924470 0.000000 0.000000 
#    y 0.000000 1.876040 0.000000 
#    z 0.000000 0.000000 2.013660 
# 
# From -- ./inp_files/14169.got.cif
#   From: 2010.05.17/outbox.cif.g08.bks.cpg/sg53_8_cif.got.tgz:14169.got - 2010.06.03 12:45:16.
