data_PCOD9417383
_publ_section_title
;
Structure prediction by ZEFSAII (Michael W. Deem and Ramdas Pophale) SiO2 
 PCOD9417383
Probable space group: P M N A
;
_chemical_formula_sum "Si O2"
_cell_formula_units_Z 64
_cell_length_a 8.845051
_cell_length_b 15.155669
_cell_length_c 23.369000
_cell_angle_alpha 90.000000
_cell_angle_beta 90.000000
_cell_angle_gamma 90.000000
_cell_volume 3132.676734
_symmetry_space_group_name_H-M "P M N A"
_symmetry_group_IT_number 53
_symmetry_cell_setting 'orthorhombic'
loop_
_space_group_symop_operation_xyz
x,y,z
1/2-x,-y,1/2+z
x,-y,-z
1/2-x,y,1/2-z
-x,-y,-z
1/2+x,y,1/2-z
-x,y,z
1/2+x,-y,1/2+z
loop_
_atom_site_type_symbol
_atom_site_label
_atom_site_fract_x
_atom_site_fract_y
_atom_site_fract_z
Si Si1 0.820013 0.999090 0.809829
Si Si2 0.316172 0.438963 0.054638
Si Si3 0.824507 0.193359 0.305807
Si Si4 0.180753 0.694775 0.308751
Si Si5 0.821117 0.147048 0.613184
Si Si6 0.176781 0.755754 0.570873
Si Si7 0.183193 0.511328 0.686836
Si Si8 0.321805 0.896563 0.500769
O O1 0.750000 0.032142 0.750000
O O2 0.756840 0.900176 0.816705
O O3 0.000000 0.997801 0.807452
O O4 0.763660 0.064346 0.858763
O O5 0.500000 0.444938 0.055695
O O6 0.276338 0.336451 0.042793
O O7 0.270133 0.457729 0.121633
O O8 0.266989 0.500000 0.000000
O O9 0.750000 0.234130 0.250000
O O10 0.814131 0.254414 0.360754
O O11 0.000000 0.174032 0.294690
O O12 0.250000 0.728563 0.250000
O O13 0.227590 0.761694 0.357968
O O14 0.223218 0.593080 0.316069
O O15 0.000000 0.697027 0.305149
O O16 0.776928 0.149022 0.547708
O O17 0.000000 0.135180 0.621184
O O18 0.276522 0.840560 0.555854
O O19 0.000000 0.773750 0.557551
O O20 0.250000 0.541243 0.750000
O O21 0.000000 0.522675 0.690291
O O22 0.500000 0.889535 0.489715
O O23 0.283510 0.000000 0.500000
#
# Coordination Sequence:
#
# PCOD9417383 Si02
#       8
#     8   8   8   8   8   8   8   8
#     4  11  21  34  53  79 113 152 195 241 295 352
#     4   9  19  36  63  91 119 156 203 252 298 357
#     4  10  20  35  56  83 114 147 188 235 288 347
#     4   9  19  33  53  82 114 149 189 235 287 347
#     4  11  22  35  55  81 110 148 197 247 296 352
#     4  10  22  39  61  89 116 149 196 246 292 347
#     4   9  18  35  59  88 119 156 198 242 297 355
#     4  11  25  42  59  82 114 155 198 242 299 361
#
# _framework density 20.429812999999999
#
# number of rings (size 3 to 8) (size 9 to 14) (size 15 to 20)
#    0.000    2.000    0.000    4.125    1.750    6.500 
#    0.000    0.625    0.000    0.750    0.000    0.000 
#    0.000    0.000    0.000    0.000    0.000    0.000 
#
# Total GULP energy -356912.014549 kJ/mol
# GULP energy per Si atom -5576.750227 kJ/mol
# Density = 2.038331 g / cm^3
# Si number density = 20.429813 Si / 1000 Ang^3
#
#
#
# Elastic Constant Matrix: (Units=GPa)
#
#
# Indices 1 2 3 4 5 6 
#
# 1 54.5354 27.8896 22.6712 0.0000 0.0000 0.0000
# 2 27.8896 84.1030 28.7168 0.0000 0.0000 0.0000
# 3 22.6712 28.7168 95.9617 0.0000 0.0000 0.0000
# 4 0.0000 0.0000 0.0000 34.6463 0.0000 0.0000
# 5 0.0000 0.0000 0.0000 0.0000 31.1039 0.0000
# 6 0.0000 0.0000 0.0000 0.0000 0.0000 -22.8714
#
#
#
# Elastic Compliance Matrix: (Units=1/GPa)
#
#
# Indices 1 2 3 4 5 6 
#
# 1 0.023105 -0.006458 -0.003526 0.000000 0.000000 0.000000
# 2 -0.006458 0.015048 -0.002978 0.000000 0.000000 0.000000
# 3 -0.003526 -0.002978 0.012145 0.000000 0.000000 0.000000
# 4 0.000000 0.000000 0.000000 0.028863 0.000000 0.000000
# 5 0.000000 0.000000 0.000000 0.000000 0.032150 0.000000
# 6 0.000000 0.000000 0.000000 0.000000 0.000000 -0.043723
#
#
# Mechanical properties :
#
#
# Convention : Reuss Voigt Hill
#
# Bulk Modulus (GPa) = 41.02524 43.68393 42.35459
# Shear Modulus (GPa) = 49.19440 18.93059 34.06250
#
# Velocity S-wave (km/s) = 4.91243 3.04734 4.08768
# Velocity P-wave (km/s) = 7.23192 5.81469 6.56168
#
# Compressibility (1/GPa) = 0.02437524
#
# Stress axis : x y z
#
# Youngs Moduli (GPa) = 43.28029 66.45221 82.33903
#
# Poissons Ratio (x) = 0.42915 0.29033
# Poissons Ratio (y) = 0.27950 0.24517
# Poissons Ratio (z) = 0.15261 0.19787
#
# Static dielectric constant tensor:
#      x y z
#    x 1.689070 0.000000 0.000000 
#    y 0.000000 1.729560 0.000000 
#    z 0.000000 0.000000 1.841690 
# 
# From -- ./inp_files/34277.got.cif
#   From: 2010.05.17/outbox.cif.g08.bks.cpg/sg53_18_cif.got.tgz:34277.got - 2010.06.03 12:45:16.
