data_PCOD9417850
_publ_section_title
;
Structure prediction by ZEFSAII (Michael W. Deem and Ramdas Pophale) SiO2 
 PCOD9417850
Probable space group: P M N A
;
_chemical_formula_sum "Si O2"
_cell_formula_units_Z 56
_cell_length_a 8.674878
_cell_length_b 22.350017
_cell_length_c 14.861635
_cell_angle_alpha 90.000000
_cell_angle_beta 90.000000
_cell_angle_gamma 90.000000
_cell_volume 2881.428347
_symmetry_space_group_name_H-M "P M N A"
_symmetry_group_IT_number 53
_symmetry_cell_setting 'orthorhombic'
loop_
_space_group_symop_operation_xyz
x,y,z
1/2-x,-y,1/2+z
x,-y,-z
1/2-x,y,1/2-z
-x,-y,-z
1/2+x,y,1/2-z
-x,y,z
1/2+x,-y,1/2+z
loop_
_atom_site_type_symbol
_atom_site_label
_atom_site_fract_x
_atom_site_fract_y
_atom_site_fract_z
Si Si1 0.184877 0.785419 0.980774
Si Si2 0.185569 0.018434 0.648696
Si Si3 0.685348 0.350213 0.475332
Si Si4 0.816618 0.453217 0.349955
Si Si5 0.314220 0.887597 0.851842
Si Si6 0.816203 0.581188 0.151258
Si Si7 0.314430 0.150737 0.851106
O O1 0.232156 0.717825 0.956308
O O2 0.250564 0.834242 0.912030
O O3 0.000000 0.788022 0.980524
O O4 0.246061 0.802103 0.079599
O O5 0.250000 0.017648 0.750000
O O6 0.230915 0.083827 0.613313
O O7 0.000000 0.018525 0.650493
O O8 0.231111 0.953749 0.609834
O O9 0.500000 0.354785 0.464267
O O10 0.763231 0.399000 0.411995
O O11 0.721243 0.368617 0.578010
O O12 0.750000 0.444055 0.250000
O O13 0.750784 0.517411 0.380857
O O14 0.000000 0.456852 0.346473
O O15 0.250000 0.883292 0.750000
O O16 0.500000 0.884785 0.849697
O O17 0.750000 0.593619 0.250000
O O18 0.000000 0.575425 0.157963
O O19 0.250000 0.157282 0.750000
O O20 0.500000 0.154335 0.849209
#
# Coordination Sequence:
#
# PCOD9417850 Si02
#       7
#     8   8   8   8   8   8   8
#     4  11  24  40  56  80 113 152 195 232 274 332
#     4   8  16  31  54  81 108 139 179 228 283 338
#     4  10  23  41  58  79 113 153 190 230 274 322
#     4  11  22  37  61  90 117 145 181 226 275 328
#     4  10  20  37  59  83 111 145 185 233 287 339
#     4  10  20  37  61  87 115 146 181 225 275 325
#     4  10  20  37  59  83 112 146 185 233 285 337
#
# _framework density 19.434804
#
# number of rings (size 3 to 8) (size 9 to 14) (size 15 to 20)
#    0.000    2.000    0.000    4.286    0.000    6.857 
#    0.000    4.286    0.000    0.000    0.000    0.000 
#    0.000    0.000    0.000    0.000    0.000    0.000 
#
# Total GULP energy -312668.646084 kJ/mol
# GULP energy per Si atom -5583.368680 kJ/mol
# Density = 1.939057 g / cm^3
# Si number density = 19.434804 Si / 1000 Ang^3
#
#
#
# Elastic Constant Matrix: (Units=GPa)
#
#
# Indices 1 2 3 4 5 6 
#
# 1 47.2605 16.6983 7.5282 0.0000 0.0000 0.0000
# 2 16.6983 48.9928 -5.5133 0.0000 0.0000 0.0000
# 3 7.5282 -5.5133 30.3885 0.0000 0.0000 0.0000
# 4 0.0000 0.0000 0.0000 19.2913 0.0000 0.0000
# 5 0.0000 0.0000 0.0000 0.0000 31.0661 0.0000
# 6 0.0000 0.0000 0.0000 0.0000 0.0000 19.1368
#
#
#
# Elastic Compliance Matrix: (Units=1/GPa)
#
#
# Indices 1 2 3 4 5 6 
#
# 1 0.025909 -0.009752 -0.008188 0.000000 0.000000 0.000000
# 2 -0.009752 0.024507 0.006862 0.000000 0.000000 0.000000
# 3 -0.008188 0.006862 0.036180 0.000000 0.000000 0.000000
# 4 0.000000 0.000000 0.000000 0.051837 0.000000 0.000000
# 5 0.000000 0.000000 0.000000 0.000000 0.032189 0.000000
# 6 0.000000 0.000000 0.000000 0.000000 0.000000 0.052255
#
#
# Mechanical properties :
#
#
# Convention : Reuss Voigt Hill
#
# Bulk Modulus (GPa) = 15.51799 18.22982 16.87390
# Shear Modulus (GPa) = 18.76069 21.09406 19.92737
#
# Velocity S-wave (km/s) = 3.11032 3.29808 3.20557
# Velocity P-wave (km/s) = 4.57174 4.88911 4.73309
#
# Compressibility (1/GPa) = 0.06444136
#
# Stress axis : x y z
#
# Youngs Moduli (GPa) = 38.59624 40.80431 27.63920
#
# Poissons Ratio (x) = 0.39793 0.22631
# Poissons Ratio (y) = 0.37639 -0.18966
# Poissons Ratio (z) = 0.31602 -0.28000
#
# Static dielectric constant tensor:
#      x y z
#    x 1.654420 0.000000 0.000000 
#    y 0.000000 1.689980 0.000000 
#    z 0.000000 0.000000 1.663140 
# 
# From -- ./inp_files/20475.got.cif
#   From: 2010.05.17/outbox.cif.g08.bks.cpg/sg53_11_cif.got.tgz:20475.got - 2010.06.03 12:45:16.
