data_PCOD9417198
_publ_section_title
;
Structure prediction by ZEFSAII (Michael W. Deem and Ramdas Pophale) SiO2 
 PCOD9417198
Probable space group: P M N A
;
_chemical_formula_sum "Si O2"
_cell_formula_units_Z 60
_cell_length_a 9.252619
_cell_length_b 19.347061
_cell_length_c 16.946034
_cell_angle_alpha 90.000000
_cell_angle_beta 90.000000
_cell_angle_gamma 90.000000
_cell_volume 3033.526225
_symmetry_space_group_name_H-M "P M N A"
_symmetry_group_IT_number 53
_symmetry_cell_setting 'orthorhombic'
loop_
_space_group_symop_operation_xyz
x,y,z
1/2-x,-y,1/2+z
x,-y,-z
1/2-x,y,1/2-z
-x,-y,-z
1/2+x,y,1/2-z
-x,y,z
1/2+x,-y,1/2+z
loop_
_atom_site_type_symbol
_atom_site_label
_atom_site_fract_x
_atom_site_fract_y
_atom_site_fract_z
Si Si1 0.338853 0.391727 0.137906
Si Si2 0.750000 0.730271 0.750000
Si Si3 0.668923 0.622715 0.050904
Si Si4 0.828359 0.525783 0.170526
Si Si5 0.176243 0.017785 0.090398
Si Si6 0.833368 0.171880 0.112527
Si Si7 0.828938 0.239705 0.954255
Si Si8 0.169684 0.119563 0.827192
O O1 0.500000 0.422325 0.150246
O O2 0.329313 0.322222 0.189855
O O3 0.216076 0.445334 0.163638
O O4 0.320211 0.380403 0.044340
O O5 0.669815 0.782957 0.691255
O O6 0.500000 0.616699 0.071300
O O7 0.759045 0.563685 0.095071
O O8 0.737621 0.695692 0.075357
O O9 0.750000 0.552395 0.250000
O O10 0.000000 0.534697 0.173835
O O11 0.227502 0.094077 0.116138
O O12 0.000000 0.016024 0.093488
O O13 0.227109 0.955234 0.145356
O O14 0.215467 0.000000 0.000000
O O15 0.000000 0.161480 0.089062
O O16 0.771757 0.216025 0.040037
O O17 0.815892 0.173800 0.897941
O O18 0.000000 0.259165 0.958953
O O19 0.250000 0.144572 0.750000
O O20 0.000000 0.113005 0.810003
#
# Coordination Sequence:
#
# PCOD9417198 Si02
#       8
#     8   4   8   8   8   8   8   8
#     4  11  24  42  63  93 132 170 206 255 320 382
#     4  12  22  36  62  94 128 164 208 260 320 382
#     4  11  24  43  65  93 131 169 207 259 318 380
#     4  12  26  44  69  98 127 164 212 262 315 376
#     4   9  16  32  57  84 116 161 213 262 309 363
#     4  10  20  34  56  87 122 161 211 261 311 374
#     4  10  20  38  61  87 116 160 214 262 310 372
#     4  10  21  36  59  87 120 159 209 264 315 372
#
# _framework density 19.778960000000001
#
# number of rings (size 3 to 8) (size 9 to 14) (size 15 to 20)
#    0.000    1.467    3.333    2.400    0.933    4.267 
#    0.000    1.333    0.000    1.200    0.000    0.000 
#    0.000    0.000    0.000    0.000    0.000    0.000 
#
# Total GULP energy -334790.966810 kJ/mol
# GULP energy per Si atom -5579.849447 kJ/mol
# Density = 1.973394 g / cm^3
# Si number density = 19.778960 Si / 1000 Ang^3
#
#
#
# Elastic Constant Matrix: (Units=GPa)
#
#
# Indices 1 2 3 4 5 6 
#
# 1 86.0559 35.5557 36.7590 0.0000 0.0000 0.0000
# 2 35.5557 99.1622 24.2925 0.0000 0.0000 0.0000
# 3 36.7590 24.2925 93.9791 0.0000 0.0000 0.0000
# 4 0.0000 0.0000 0.0000 29.8766 0.0000 0.0000
# 5 0.0000 0.0000 0.0000 0.0000 15.0026 0.0000
# 6 0.0000 0.0000 0.0000 0.0000 0.0000 18.0478
#
#
#
# Elastic Compliance Matrix: (Units=1/GPa)
#
#
# Indices 1 2 3 4 5 6 
#
# 1 0.015535 -0.004358 -0.004950 0.000000 0.000000 0.000000
# 2 -0.004358 0.011989 -0.001394 0.000000 0.000000 0.000000
# 3 -0.004950 -0.001394 0.012937 0.000000 0.000000 0.000000
# 4 0.000000 0.000000 0.000000 0.033471 0.000000 0.000000
# 5 0.000000 0.000000 0.000000 0.000000 0.066655 0.000000
# 6 0.000000 0.000000 0.000000 0.000000 0.000000 0.055408
#
#
# Mechanical properties :
#
#
# Convention : Reuss Voigt Hill
#
# Bulk Modulus (GPa) = 52.47481 52.49016 52.48248
# Shear Modulus (GPa) = 22.34616 24.75808 23.55212
#
# Velocity S-wave (km/s) = 3.36489 3.54183 3.45449
# Velocity P-wave (km/s) = 6.45638 6.58195 6.51947
#
# Compressibility (1/GPa) = 0.01905676
#
# Stress axis : x y z
#
# Youngs Moduli (GPa) = 64.36984 83.41264 77.29609
#
# Poissons Ratio (x) = 0.36349 0.38262
# Poissons Ratio (y) = 0.28050 0.10779
# Poissons Ratio (z) = 0.31863 0.11631
#
# Static dielectric constant tensor:
#      x y z
#    x 1.686540 0.000000 0.000000 
#    y 0.000000 1.729240 0.000000 
#    z 0.000000 0.000000 1.708270 
# 
# From -- ./inp_files/26569.got.cif
#   From: 2010.05.17/outbox.cif.g08.bks.cpg/sg53_14_cif.got.tgz:26569.got - 2010.06.03 12:45:16.
