data_PCOD9417667
_publ_section_title
;
Structure prediction by ZEFSAII (Michael W. Deem and Ramdas Pophale) SiO2 
 PCOD9417667
Probable space group: P M N A
;
_chemical_formula_sum "Si O2"
_cell_formula_units_Z 48
_cell_length_a 8.847152
_cell_length_b 15.277512
_cell_length_c 19.727006
_cell_angle_alpha 90.000000
_cell_angle_beta 90.000000
_cell_angle_gamma 90.000000
_cell_volume 2666.350873
_symmetry_space_group_name_H-M "P M N A"
_symmetry_group_IT_number 53
_symmetry_cell_setting 'orthorhombic'
loop_
_space_group_symop_operation_xyz
x,y,z
1/2-x,-y,1/2+z
x,-y,-z
1/2-x,y,1/2-z
-x,-y,-z
1/2+x,y,1/2-z
-x,y,z
1/2+x,-y,1/2+z
loop_
_atom_site_type_symbol
_atom_site_label
_atom_site_fract_x
_atom_site_fract_y
_atom_site_fract_z
Si Si1 0.181600 0.369341 0.177239
Si Si2 0.181309 0.572353 0.176501
Si Si3 0.318428 0.034949 0.425072
Si Si4 0.180777 0.105331 0.675260
Si Si5 0.681134 0.723287 0.087535
Si Si6 0.817461 0.762885 0.941016
O O1 0.250000 0.345469 0.250000
O O2 0.221544 0.470733 0.162799
O O3 0.229748 0.304564 0.117520
O O4 0.000000 0.364882 0.182167
O O5 0.250000 0.595270 0.250000
O O6 0.247833 0.637173 0.120875
O O7 0.000000 0.579809 0.178979
O O8 0.500000 0.025929 0.418303
O O9 0.279604 0.137357 0.421371
O O10 0.276730 0.000000 0.500000
O O11 0.240212 0.976406 0.368289
O O12 0.250000 0.106263 0.750000
O O13 0.223314 0.193403 0.634292
O O14 0.000000 0.102078 0.679924
O O15 0.500000 0.716493 0.086550
O O16 0.743201 0.739438 0.012453
O O17 0.000000 0.758141 0.948414
#
# Coordination Sequence:
#
# PCOD9417667 Si02
#       6
#     8   8   8   8   8   8
#     4   9  20  38  59  83 112 148 189 233 284 338
#     4  10  20  36  58  82 112 150 189 233 284 338
#     4  10  20  37  61  85 112 150 190 231 284 339
#     4  11  24  39  58  84 116 150 190 237 284 338
#     4  11  23  37  56  85 116 151 191 234 285 338
#     4  10  21  38  60  85 115 151 189 232 284 342
#
# _framework density 18.002130999999999
#
# number of rings (size 3 to 8) (size 9 to 14) (size 15 to 20)
#    0.000    1.833    1.667    2.000    0.000    7.000 
#    0.000    5.000    0.000    0.000    0.000    0.000 
#    0.000    0.000    0.000    0.000    0.000    0.000 
#
# Total GULP energy -268169.746942 kJ/mol
# GULP energy per Si atom -5586.869728 kJ/mol
# Density = 1.796116 g / cm^3
# Si number density = 18.002131 Si / 1000 Ang^3
#
#
#
# Elastic Constant Matrix: (Units=GPa)
#
#
# Indices 1 2 3 4 5 6 
#
# 1 35.4337 50.3879 57.8639 0.0000 0.0000 0.0000
# 2 50.3879 132.6751 113.6050 0.0000 0.0000 0.0000
# 3 57.8639 113.6050 187.1013 0.0000 0.0000 0.0000
# 4 0.0000 0.0000 0.0000 36.2695 0.0000 0.0000
# 5 0.0000 0.0000 0.0000 0.0000 37.0324 0.0000
# 6 0.0000 0.0000 0.0000 0.0000 0.0000 27.1362
#
#
#
# Elastic Compliance Matrix: (Units=1/GPa)
#
#
# Indices 1 2 3 4 5 6 
#
# 1 0.072018 -0.017247 -0.011801 0.000000 0.000000 0.000000
# 2 -0.017247 0.019830 -0.006707 0.000000 0.000000 0.000000
# 3 -0.011801 -0.006707 0.013066 0.000000 0.000000 0.000000
# 4 0.000000 0.000000 0.000000 0.027571 0.000000 0.000000
# 5 0.000000 0.000000 0.000000 0.000000 0.027003 0.000000
# 6 0.000000 0.000000 0.000000 0.000000 0.000000 0.036851
#
#
# Mechanical properties :
#
#
# Convention : Reuss Voigt Hill
#
# Bulk Modulus (GPa) = 29.93468 88.76931 59.35199
# Shear Modulus (GPa) = 17.92223 28.97783 23.45003
#
# Velocity S-wave (km/s) = 3.15867 4.01645 3.61311
# Velocity P-wave (km/s) = 5.47426 8.42179 7.10261
#
# Compressibility (1/GPa) = 0.03340607
#
# Stress axis : x y z
#
# Youngs Moduli (GPa) = 13.88546 50.42897 76.53257
#
# Poissons Ratio (x) = 0.86974 0.90313
# Poissons Ratio (y) = 0.23948 0.51327
# Poissons Ratio (z) = 0.16386 0.33820
#
# Static dielectric constant tensor:
#      x y z
#    x 1.604170 0.000000 0.000000 
#    y 0.000000 1.608080 0.000000 
#    z 0.000000 0.000000 1.574300 
# 
# From -- ./inp_files/26204.got.cif
#   From: 2010.05.17/outbox.cif.g08.bks.cpg/sg53_14_cif.got.tgz:26204.got - 2010.06.03 12:45:16.
