data_PCOD9417709
_publ_section_title
;
Structure prediction by ZEFSAII (Michael W. Deem and Ramdas Pophale) SiO2 
 PCOD9417709
Probable space group: P M N A
;
_chemical_formula_sum "Si O2"
_cell_formula_units_Z 64
_cell_length_a 19.786103
_cell_length_b 17.273886
_cell_length_c 8.182323
_cell_angle_alpha 90.000000
_cell_angle_beta 90.000000
_cell_angle_gamma 90.000000
_cell_volume 2796.577982
_symmetry_space_group_name_H-M "P M N A"
_symmetry_group_IT_number 53
_symmetry_cell_setting 'orthorhombic'
loop_
_space_group_symop_operation_xyz
x,y,z
1/2-x,-y,1/2+z
x,-y,-z
1/2-x,y,1/2-z
-x,-y,-z
1/2+x,y,1/2-z
-x,y,z
1/2+x,-y,1/2+z
loop_
_atom_site_type_symbol
_atom_site_label
_atom_site_fract_x
_atom_site_fract_y
_atom_site_fract_z
Si Si1 0.918216 0.168150 0.736551
Si Si2 0.829434 0.829853 0.966604
Si Si3 0.393762 0.422903 0.418826
Si Si4 0.280881 0.333132 0.575402
Si Si5 0.074438 0.668095 0.399416
Si Si6 0.428109 0.260888 0.260652
Si Si7 0.322083 0.573046 0.923210
Si Si8 0.207172 0.918963 0.421350
O O1 0.890240 0.142104 0.914196
O O2 0.909729 0.261869 0.722914
O O3 0.861487 0.130220 0.615813
O O4 0.000000 0.153636 0.711786
O O5 0.797769 0.755694 0.057037
O O6 0.765284 0.885425 0.957063
O O7 0.866100 0.793283 0.809843
O O8 0.425120 0.500000 0.500000
O O9 0.343273 0.389535 0.553041
O O10 0.428516 0.342370 0.360734
O O11 0.352811 0.442583 0.252783
O O12 0.250000 0.347463 0.750000
O O13 0.228075 0.355061 0.433118
O O14 0.074133 0.713631 0.573075
O O15 0.120806 0.596007 0.444528
O O16 0.000000 0.638936 0.358345
O O17 0.500000 0.221388 0.293014
O O18 0.284602 0.500000 0.000000
O O19 0.250000 0.924792 0.250000
O O20 0.186116 0.000000 0.500000
#
# Coordination Sequence:
#
# PCOD9417709 Si02
#       8
#     8   8   8   8   8   8   8   8
#     4  10  20  37  62  88 115 147 184 228 276 330
#     4  10  20  36  59  84 111 143 183 229 273 324
#     4  10  21  34  47  70 102 138 182 231 284 336
#     4  11  20  33  53  74  99 132 177 227 280 335
#     4   9  19  35  53  77 106 137 181 232 280 331
#     4   9  19  35  55  78 106 142 185 233 280 329
#     4  11  21  33  49  69 101 141 181 230 284 335
#     4  10  22  39  59  87 121 152 183 221 267 321
#
# _framework density 22.885111999999999
#
# number of rings (size 3 to 8) (size 9 to 14) (size 15 to 20)
#    0.000    2.000    0.000    4.500    0.000    2.750 
#    0.000    2.500    0.000    9.375    0.000    0.000 
#    0.000    0.000    0.000    0.000    0.000    0.000 
#
# Total GULP energy -356869.469631 kJ/mol
# GULP energy per Si atom -5576.085463 kJ/mol
# Density = 2.283302 g / cm^3
# Si number density = 22.885112 Si / 1000 Ang^3
#
#
#
# Elastic Constant Matrix: (Units=GPa)
#
#
# Indices 1 2 3 4 5 6 
#
# 1 77.7417 22.3173 15.2183 0.0000 0.0000 0.0000
# 2 22.3173 54.7120 0.9894 0.0000 0.0000 0.0000
# 3 15.2183 0.9894 57.4034 0.0000 0.0000 0.0000
# 4 0.0000 0.0000 0.0000 24.2577 0.0000 0.0000
# 5 0.0000 0.0000 0.0000 0.0000 -28.7731 0.0000
# 6 0.0000 0.0000 0.0000 0.0000 0.0000 21.8796
#
#
#
# Elastic Compliance Matrix: (Units=1/GPa)
#
#
# Indices 1 2 3 4 5 6 
#
# 1 0.015429 -0.006221 -0.003983 0.000000 0.000000 0.000000
# 2 -0.006221 0.020792 0.001291 0.000000 0.000000 0.000000
# 3 -0.003983 0.001291 0.018454 0.000000 0.000000 0.000000
# 4 0.000000 0.000000 0.000000 0.041224 0.000000 0.000000
# 5 0.000000 0.000000 0.000000 0.000000 -0.034755 0.000000
# 6 0.000000 0.000000 0.000000 0.000000 0.000000 0.045705
#
#
# Mechanical properties :
#
#
# Convention : Reuss Voigt Hill
#
# Bulk Modulus (GPa) = 27.13858 29.65633 28.39746
# Shear Modulus (GPa) = 36.50734 13.56166 25.03450
#
# Velocity S-wave (km/s) = 3.99838 2.43697 3.31104
# Velocity P-wave (km/s) = 5.76198 4.57224 5.20124
#
# Compressibility (1/GPa) = 0.03684792
#
# Stress axis : x y z
#
# Youngs Moduli (GPa) = 64.81376 48.09552 54.18796
#
# Poissons Ratio (x) = 0.29922 0.21584
# Poissons Ratio (y) = 0.40324 -0.06996
# Poissons Ratio (z) = 0.25816 -0.06209
#
# Static dielectric constant tensor:
#      x y z
#    x 1.943360 0.000000 0.000000 
#    y 0.000000 1.820490 0.000000 
#    z 0.000000 0.000000 1.894500 
# 
# From -- ./inp_files/11198.got.cif
#   From: 2010.05.17/outbox.cif.g08.bks.cpg/sg53_6_cif.got.tgz:11198.got - 2010.06.03 12:45:16.
