data_PCOD9417590
_publ_section_title
;
Structure prediction by ZEFSAII (Michael W. Deem and Ramdas Pophale) SiO2 
 PCOD9417590
Probable space group: P M N A
;
_chemical_formula_sum "Si O2"
_cell_formula_units_Z 48
_cell_length_a 8.477948
_cell_length_b 31.288941
_cell_length_c 9.747656
_cell_angle_alpha 90.000000
_cell_angle_beta 90.000000
_cell_angle_gamma 90.000000
_cell_volume 2585.721860
_symmetry_space_group_name_H-M "P M N A"
_symmetry_group_IT_number 53
_symmetry_cell_setting 'orthorhombic'
loop_
_space_group_symop_operation_xyz
x,y,z
1/2-x,-y,1/2+z
x,-y,-z
1/2-x,y,1/2-z
-x,-y,-z
1/2+x,y,1/2-z
-x,y,z
1/2+x,-y,1/2+z
loop_
_atom_site_type_symbol
_atom_site_label
_atom_site_fract_x
_atom_site_fract_y
_atom_site_fract_z
Si Si1 0.689212 0.285861 0.099016
Si Si2 0.809495 0.865523 0.904318
Si Si3 0.809709 0.615823 0.599378
Si Si4 0.690608 0.539770 0.094980
Si Si5 0.309429 0.038254 0.403670
Si Si6 0.810953 0.787840 0.095460
O O1 0.750000 0.273050 0.250000
O O2 0.500000 0.284546 0.099027
O O3 0.740670 0.335098 0.075654
O O4 0.753763 0.254012 0.985173
O O5 0.750000 0.857328 0.750000
O O6 0.759637 0.913670 0.945238
O O7 0.000000 0.864691 0.901096
O O8 0.754989 0.829200 0.009043
O O9 0.750000 0.602563 0.750000
O O10 0.756991 0.583085 0.482178
O O11 0.000000 0.615226 0.602634
O O12 0.750000 0.536614 0.250000
O O13 0.500000 0.539606 0.098542
O O14 0.741250 0.500000 0.000000
O O15 0.250000 0.031445 0.250000
O O16 0.500000 0.037662 0.403966
O O17 0.252524 0.000000 0.500000
O O18 0.750000 0.788728 0.250000
O O19 0.000000 0.788208 0.096912
#
# Coordination Sequence:
#
# PCOD9417590 Si02
#       6
#     8   8   8   8   8   8
#     4  10  20  36  57  80 107 139 176 215 258 310
#     4   9  19  35  54  75 100 133 171 210 253 304
#     4   9  19  35  55  80 107 136 172 213 255 304
#     4  10  21  36  54  78 107 138 174 214 257 306
#     4   9  18  33  52  75 103 133 167 207 251 302
#     4  11  23  37  53  76 106 138 174 217 265 311
#
# _framework density 18.563480999999999
#
# number of rings (size 3 to 8) (size 9 to 14) (size 15 to 20)
#    0.000    2.333    0.000    2.000    0.000    6.000 
#    0.000    1.667    0.000    0.000    0.000    0.000 
#    0.000    0.000    0.000    0.000    0.000    0.000 
#
# Total GULP energy -267933.556748 kJ/mol
# GULP energy per Si atom -5581.949099 kJ/mol
# Density = 1.852123 g / cm^3
# Si number density = 18.563481 Si / 1000 Ang^3
#
#
#
# Elastic Constant Matrix: (Units=GPa)
#
#
# Indices 1 2 3 4 5 6 
#
# 1 16.1394 25.4335 23.5801 0.0000 0.0000 0.0000
# 2 25.4335 136.2360 120.6375 0.0000 0.0000 0.0000
# 3 23.5801 120.6375 169.0894 0.0000 0.0000 0.0000
# 4 0.0000 0.0000 0.0000 42.5041 0.0000 0.0000
# 5 0.0000 0.0000 0.0000 0.0000 35.7091 0.0000
# 6 0.0000 0.0000 0.0000 0.0000 0.0000 21.4104
#
#
#
# Elastic Compliance Matrix: (Units=1/GPa)
#
#
# Indices 1 2 3 4 5 6 
#
# 1 0.087926 -0.015091 -0.001495 0.000000 0.000000 0.000000
# 2 -0.015091 0.022524 -0.013965 0.000000 0.000000 0.000000
# 3 -0.001495 -0.013965 0.016086 0.000000 0.000000 0.000000
# 4 0.000000 0.000000 0.000000 0.023527 0.000000 0.000000
# 5 0.000000 0.000000 0.000000 0.000000 0.028004 0.000000
# 6 0.000000 0.000000 0.000000 0.000000 0.000000 0.046706
#
#
# Mechanical properties :
#
#
# Convention : Reuss Voigt Hill
#
# Bulk Modulus (GPa) = 15.28270 73.41856 44.35063
# Shear Modulus (GPa) = 16.25036 30.04563 23.14800
#
# Velocity S-wave (km/s) = 2.96192 4.02747 3.53507
# Velocity P-wave (km/s) = 4.46630 7.82708 6.37224
#
# Compressibility (1/GPa) = 0.06543344
#
# Stress axis : x y z
#
# Youngs Moduli (GPa) = 11.37326 44.39780 62.16596
#
# Poissons Ratio (x) = 0.67000 0.09293
# Poissons Ratio (y) = 0.17163 0.86815
# Poissons Ratio (z) = 0.01700 0.62002
#
# Static dielectric constant tensor:
#      x y z
#    x 1.640230 0.000000 0.000000 
#    y 0.000000 1.664290 0.000000 
#    z 0.000000 0.000000 1.591090 
# 
# From -- ./inp_files/6594.got.cif
#   From: 2010.05.17/outbox.cif.g08.bks.cpg/sg53_4_cif.got.tgz:6594.got - 2010.06.03 12:45:16.
