data_PCOD9417143
_publ_section_title
;
Structure prediction by ZEFSAII (Michael W. Deem and Ramdas Pophale) SiO2 
 PCOD9417143
Probable space group: P M N A
;
_chemical_formula_sum "Si O2"
_cell_formula_units_Z 32
_cell_length_a 9.039515
_cell_length_b 10.519538
_cell_length_c 18.187350
_cell_angle_alpha 90.000000
_cell_angle_beta 90.000000
_cell_angle_gamma 90.000000
_cell_volume 1729.462784
_symmetry_space_group_name_H-M "P M N A"
_symmetry_group_IT_number 53
_symmetry_cell_setting 'orthorhombic'
loop_
_space_group_symop_operation_xyz
x,y,z
1/2-x,-y,1/2+z
x,-y,-z
1/2-x,y,1/2-z
-x,-y,-z
1/2+x,y,1/2-z
-x,y,z
1/2+x,-y,1/2+z
loop_
_atom_site_type_symbol
_atom_site_label
_atom_site_fract_x
_atom_site_fract_y
_atom_site_fract_z
Si Si1 0.678133 0.712477 0.432389
Si Si2 0.329885 0.006874 0.589439
Si Si3 0.674614 0.752744 0.909559
Si Si4 0.823977 0.493773 0.671799
O O1 0.500000 0.702775 0.434426
O O2 0.715917 0.848515 0.394435
O O3 0.740150 0.718270 0.515165
O O4 0.750712 0.597873 0.388408
O O5 0.500000 0.987843 0.612229
O O6 0.326837 0.000000 0.500000
O O7 0.231418 0.890432 0.616433
O O8 0.500000 0.758993 0.925358
O O9 0.701266 0.639582 0.852462
O O10 0.750000 0.469053 0.750000
O O11 0.000000 0.472034 0.674438
#
# Coordination Sequence:
#
# PCOD9417143 Si02
#       4
#     8   8   8   8
#     4  10  20  35  57  83 109 140 177 217 264 317
#     4   8  16  31  52  80 109 136 171 215 263 315
#     4  10  20  34  55  83 110 138 176 221 266 314
#     4  11  24  39  54  76 107 142 181 222 265 315
#
# _framework density 18.502856000000001
#
# number of rings (size 3 to 8) (size 9 to 14) (size 15 to 20)
#    0.000    2.250    0.000    4.500    0.000   12.500 
#    0.000    1.250    0.000    3.000    0.000    0.000 
#    0.000    0.000    0.000    0.000    0.000    0.000 
#
# Total GULP energy -178570.226820 kJ/mol
# GULP energy per Si atom -5580.319588 kJ/mol
# Density = 1.846074 g / cm^3
# Si number density = 18.502856 Si / 1000 Ang^3
#
#
#
# Elastic Constant Matrix: (Units=GPa)
#
#
# Indices 1 2 3 4 5 6 
#
# 1 56.1123 31.9857 5.9011 0.0000 0.0000 0.0000
# 2 31.9857 66.6638 -12.5638 0.0000 0.0000 0.0000
# 3 5.9011 -12.5638 14.1475 0.0000 0.0000 0.0000
# 4 0.0000 0.0000 0.0000 -1.2733 0.0000 0.0000
# 5 0.0000 0.0000 0.0000 0.0000 -7.7734 0.0000
# 6 0.0000 0.0000 0.0000 0.0000 0.0000 38.3340
#
#
#
# Elastic Compliance Matrix: (Units=1/GPa)
#
#
# Indices 1 2 3 4 5 6 
#
# 1 0.034862 -0.023381 -0.035305 0.000000 0.000000 0.000000
# 2 -0.023381 0.033696 0.039677 0.000000 0.000000 0.000000
# 3 -0.035305 0.039677 0.120645 0.000000 0.000000 0.000000
# 4 0.000000 0.000000 0.000000 -0.785356 0.000000 0.000000
# 5 0.000000 0.000000 0.000000 0.000000 -0.128643 0.000000
# 6 0.000000 0.000000 0.000000 0.000000 0.000000 0.026087
#
#
# Mechanical properties :
#
#
# Convention : Reuss Voigt Hill
#
# Bulk Modulus (GPa) = 6.61436 20.84105 13.72771
# Shear Modulus (GPa) = -8.19273 13.29749 2.55238
#
# Velocity S-wave (km/s) = -2.10652 2.68371 1.17578
# Velocity P-wave (km/s) = 1.52775 4.57069 3.04608
#
# Compressibility (1/GPa) = 0.15118611
#
# Stress axis : x y z
#
# Youngs Moduli (GPa) = 28.68464 29.67671 8.28880
#
# Poissons Ratio (x) = 0.69386 0.29263
# Poissons Ratio (y) = 0.67066 -0.32887
# Poissons Ratio (z) = 1.01270 -1.17747
#
# Static dielectric constant tensor:
#      x y z
#    x 1.615810 0.000000 0.000000 
#    y 0.000000 1.665340 0.000000 
#    z 0.000000 0.000000 1.609160 
# 
# From -- ./inp_files/19613.got.cif
#   From: 2010.05.17/outbox.cif.g08.bks.cpg/sg53_10_cif.got.tgz:19613.got - 2010.06.03 12:45:16.
