data_PCOD9417751
_publ_section_title
;
Structure prediction by ZEFSAII (Michael W. Deem and Ramdas Pophale) SiO2 
 PCOD9417751
Probable space group: P M N A
;
_chemical_formula_sum "Si O2"
_cell_formula_units_Z 48
_cell_length_a 17.639463
_cell_length_b 10.353845
_cell_length_c 14.039143
_cell_angle_alpha 90.000000
_cell_angle_beta 90.000000
_cell_angle_gamma 90.000000
_cell_volume 2564.056652
_symmetry_space_group_name_H-M "P M N A"
_symmetry_group_IT_number 53
_symmetry_cell_setting 'orthorhombic'
loop_
_space_group_symop_operation_xyz
x,y,z
1/2-x,-y,1/2+z
x,-y,-z
1/2-x,y,1/2-z
-x,-y,-z
1/2+x,y,1/2-z
-x,y,z
1/2+x,-y,1/2+z
loop_
_atom_site_type_symbol
_atom_site_label
_atom_site_fract_x
_atom_site_fract_y
_atom_site_fract_z
Si Si1 0.690396 0.121248 0.570890
Si Si2 0.588653 0.287566 0.263517
Si Si3 0.914266 0.016923 0.765695
Si Si4 0.867970 0.877168 0.431214
Si Si5 0.682535 0.632879 0.553572
Si Si6 0.865597 0.631146 0.555624
O O1 0.642257 0.086656 0.662755
O O2 0.779020 0.139097 0.594400
O O3 0.662607 0.247202 0.514831
O O4 0.684961 0.000000 0.500000
O O5 0.500000 0.297464 0.289376
O O6 0.640419 0.348145 0.346172
O O7 0.601418 0.353694 0.161202
O O8 0.607515 0.134313 0.253576
O O9 0.910906 0.088732 0.664885
O O10 0.000000 0.019774 0.803512
O O11 0.891127 0.751192 0.490201
O O12 0.874905 0.000000 0.500000
O O13 0.663611 0.500000 0.500000
O O14 0.773830 0.637323 0.566705
O O15 0.884529 0.500000 0.500000
#
# Coordination Sequence:
#
# PCOD9417751 Si02
#       6
#     8   8   8   8   8   8
#     4  10  20  36  60  86 111 147 194 240 282 332
#     4  11  23  38  59  86 118 156 191 232 292 351
#     4  11  23  36  57  88 120 154 191 238 290 341
#     4  10  20  36  60  86 111 147 194 240 282 332
#     4  10  22  40  62  87 116 151 193 241 288 338
#     4  10  22  40  62  87 116 151 193 241 288 338
#
# _framework density 18.720334999999999
#
# number of rings (size 3 to 8) (size 9 to 14) (size 15 to 20)
#    0.000    1.667    3.333    1.000    0.000    5.333 
#    0.000    6.667    0.000    0.000    0.000    0.000 
#    0.000    0.000    0.000    0.000    0.000    0.000 
#
# Total GULP energy -268147.198679 kJ/mol
# GULP energy per Si atom -5586.399972 kJ/mol
# Density = 1.867773 g / cm^3
# Si number density = 18.720335 Si / 1000 Ang^3
#
#
#
# Elastic Constant Matrix: (Units=GPa)
#
#
# Indices 1 2 3 4 5 6 
#
# 1 27.0481 19.6017 23.6480 0.0000 0.0000 0.0000
# 2 19.6017 123.4086 32.4279 0.0000 0.0000 0.0000
# 3 23.6480 32.4279 77.3928 0.0000 0.0000 0.0000
# 4 0.0000 0.0000 0.0000 27.4225 0.0000 0.0000
# 5 0.0000 0.0000 0.0000 0.0000 -14.4383 0.0000
# 6 0.0000 0.0000 0.0000 0.0000 0.0000 -44.8989
#
#
#
# Elastic Compliance Matrix: (Units=1/GPa)
#
#
# Indices 1 2 3 4 5 6 
#
# 1 0.052724 -0.004654 -0.014160 0.000000 0.000000 0.000000
# 2 -0.004654 0.009516 -0.002566 0.000000 0.000000 0.000000
# 3 -0.014160 -0.002566 0.018323 0.000000 0.000000 0.000000
# 4 0.000000 0.000000 0.000000 0.036466 0.000000 0.000000
# 5 0.000000 0.000000 0.000000 0.000000 -0.069260 0.000000
# 6 0.000000 0.000000 0.000000 0.000000 0.000000 -0.022272
#
#
# Mechanical properties :
#
#
# Convention : Reuss Voigt Hill
#
# Bulk Modulus (GPa) = 26.45196 42.13385 34.29291
# Shear Modulus (GPa) = 61.83728 3.76185 32.79956
#
# Velocity S-wave (km/s) = 5.75359 1.41911 4.19033
# Velocity P-wave (km/s) = 7.63539 5.02404 6.46298
#
# Compressibility (1/GPa) = 0.03780438
#
# Stress axis : x y z
#
# Youngs Moduli (GPa) = 18.96673 105.08128 54.57653
#
# Poissons Ratio (x) = 0.48900 0.77283
# Poissons Ratio (y) = 0.08826 0.14002
# Poissons Ratio (z) = 0.26858 0.26959
#
# Static dielectric constant tensor:
#      x y z
#    x 1.653970 0.000000 0.000000 
#    y 0.000000 1.629940 0.000000 
#    z 0.000000 0.000000 1.648860 
# 
# From -- ./inp_files/16932.got.cif
#   From: 2010.05.17/outbox.cif.g08.bks.cpg/sg53_9_cif.got.tgz:16932.got - 2010.06.03 12:45:16.
