data_PCOD9417701
_publ_section_title
;
Structure prediction by ZEFSAII (Michael W. Deem and Ramdas Pophale) SiO2 
 PCOD9417701
Probable space group: P M N A
;
_chemical_formula_sum "Si O2"
_cell_formula_units_Z 32
_cell_length_a 22.599612
_cell_length_b 7.396346
_cell_length_c 8.029332
_cell_angle_alpha 90.000000
_cell_angle_beta 90.000000
_cell_angle_gamma 90.000000
_cell_volume 1342.139376
_symmetry_space_group_name_H-M "P M N A"
_symmetry_group_IT_number 53
_symmetry_cell_setting 'orthorhombic'
loop_
_space_group_symop_operation_xyz
x,y,z
1/2-x,-y,1/2+z
x,-y,-z
1/2-x,y,1/2-z
-x,-y,-z
1/2+x,y,1/2-z
-x,y,z
1/2+x,-y,1/2+z
loop_
_atom_site_type_symbol
_atom_site_label
_atom_site_fract_x
_atom_site_fract_y
_atom_site_fract_z
Si Si1 0.615494 0.799009 0.117574
Si Si2 0.260118 0.289482 0.049777
Si Si3 0.630296 0.207704 0.524076
Si Si4 0.067960 0.797409 0.707164
O O1 0.611783 0.710886 0.299690
O O2 0.594742 0.003037 0.164390
O O3 0.681051 0.791554 0.035363
O O4 0.575055 0.712509 0.975371
O O5 0.250000 0.268610 0.250000
O O6 0.200979 0.207866 0.971555
O O7 0.261519 0.500000 0.000000
O O8 0.605747 0.292397 0.354143
O O9 0.609608 0.000000 0.500000
O O10 0.000000 0.811890 0.757017
#
# Coordination Sequence:
#
# PCOD9417701 Si02
#       4
#     8   8   8   8
#     4  10  20  36  58  90 122 159 201 251 307 358
#     4  12  24  40  61  90 127 162 203 258 320 379
#     4  10  22  36  61  94 125 160 203 250 309 367
#     4  10  21  38  62  94 127 164 207 252 299 361
#
# _framework density 23.84253
#
# number of rings (size 3 to 8) (size 9 to 14) (size 15 to 20)
#    0.000    1.500    2.500    3.750    3.500    5.500 
#    0.000    0.000    0.000    3.750    0.000    0.000 
#    0.000    0.000    0.000    0.000    0.000    0.000 
#
# Total GULP energy -178492.107795 kJ/mol
# GULP energy per Si atom -5577.878369 kJ/mol
# Density = 2.378826 g / cm^3
# Si number density = 23.842530 Si / 1000 Ang^3
#
#
#
# Elastic Constant Matrix: (Units=GPa)
#
#
# Indices 1 2 3 4 5 6 
#
# 1 121.8701 3.4843 36.3516 0.0000 0.0000 0.0000
# 2 3.4843 82.5390 -0.5663 0.0000 0.0000 0.0000
# 3 36.3516 -0.5663 93.1645 0.0000 0.0000 0.0000
# 4 0.0000 0.0000 0.0000 5.6333 0.0000 0.0000
# 5 0.0000 0.0000 0.0000 0.0000 13.6756 0.0000
# 6 0.0000 0.0000 0.0000 0.0000 0.0000 47.1317
#
#
#
# Elastic Compliance Matrix: (Units=1/GPa)
#
#
# Indices 1 2 3 4 5 6 
#
# 1 0.009301 -0.000418 -0.003632 0.000000 0.000000 0.000000
# 2 -0.000418 0.012135 0.000237 0.000000 0.000000 0.000000
# 3 -0.003632 0.000237 0.012152 0.000000 0.000000 0.000000
# 4 0.000000 0.000000 0.000000 0.177516 0.000000 0.000000
# 5 0.000000 0.000000 0.000000 0.000000 0.073123 0.000000
# 6 0.000000 0.000000 0.000000 0.000000 0.000000 0.021217
#
#
# Mechanical properties :
#
#
# Convention : Reuss Voigt Hill
#
# Bulk Modulus (GPa) = 38.51677 41.79031 40.15354
# Shear Modulus (GPa) = 15.54134 30.50838 23.02486
#
# Velocity S-wave (km/s) = 2.55587 3.58100 3.11095
# Velocity P-wave (km/s) = 4.98996 5.88759 5.45726
#
# Compressibility (1/GPa) = 0.02596272
#
# Stress axis : x y z
#
# Youngs Moduli (GPa) = 107.51986 82.40806 82.29026
#
# Poissons Ratio (x) = 0.03441 0.29884
# Poissons Ratio (y) = 0.04489 -0.01948
# Poissons Ratio (z) = 0.39046 -0.01950
#
# Static dielectric constant tensor:
#      x y z
#    x 1.846170 0.000000 0.000000 
#    y 0.000000 2.008290 0.000000 
#    z 0.000000 0.000000 2.068180 
# 
# From -- ./inp_files/10430.got.cif
#   From: 2010.05.17/outbox.cif.g08.bks.cpg/sg53_6_cif.got.tgz:10430.got - 2010.06.03 12:45:16.
