data_PCOD9417225
_publ_section_title
;
Structure prediction by ZEFSAII (Michael W. Deem and Ramdas Pophale) SiO2 
 PCOD9417225
Probable space group: P M N A
;
_chemical_formula_sum "Si O2"
_cell_formula_units_Z 52
_cell_length_a 19.894567
_cell_length_b 11.398537
_cell_length_c 11.901643
_cell_angle_alpha 90.000000
_cell_angle_beta 90.000000
_cell_angle_gamma 90.000000
_cell_volume 2698.923182
_symmetry_space_group_name_H-M "P M N A"
_symmetry_group_IT_number 53
_symmetry_cell_setting 'orthorhombic'
loop_
_space_group_symop_operation_xyz
x,y,z
1/2-x,-y,1/2+z
x,-y,-z
1/2-x,y,1/2-z
-x,-y,-z
1/2+x,y,1/2-z
-x,y,z
1/2+x,-y,1/2+z
loop_
_atom_site_type_symbol
_atom_site_label
_atom_site_fract_x
_atom_site_fract_y
_atom_site_fract_z
Si Si1 0.773587 0.000000 0.000000
Si Si2 0.324888 0.190106 0.069354
Si Si3 0.422552 0.527031 0.128701
Si Si4 0.329705 0.356156 0.265198
Si Si5 0.423159 0.191951 0.869935
Si Si6 0.180555 0.820705 0.180325
Si Si7 0.708593 0.639152 0.493755
O O1 0.724628 0.919876 0.924056
O O2 0.814563 0.085867 0.920093
O O3 0.344424 0.242533 0.189000
O O4 0.279041 0.291941 0.010611
O O5 0.385984 0.163144 0.986646
O O6 0.500000 0.486095 0.142700
O O7 0.374268 0.459607 0.213990
O O8 0.421687 0.666485 0.141006
O O9 0.402643 0.500000 0.000000
O O10 0.250000 0.383358 0.250000
O O11 0.336911 0.333200 0.397099
O O12 0.500000 0.152308 0.868399
O O13 0.378648 0.149972 0.765763
O O14 0.250000 0.822995 0.250000
O O15 0.177228 0.693504 0.119029
O O16 0.718795 0.500000 0.500000
#
# Coordination Sequence:
#
# PCOD9417225 Si02
#       7
#     4   8   8   8   8   8   8
#     4  10  22  40  62  90 110 160 214 266 320 368
#     4  10  21  37  58  88 122 159 201 265 315 369
#     4  10  20  34  58  88 131 177 209 249 310 381
#     4  10  21  32  54  91 126 163 206 262 310 368
#     4  11  22  38  62  96 128 161 210 260 315 375
#     4  11  22  41  66  90 121 168 214 262 312 377
#     4  10  21  34  55  92 127 164 203 258 316 369
#
# _framework density 19.266943000000001
#
# number of rings (size 3 to 8) (size 9 to 14) (size 15 to 20)
#    0.000    1.692    4.615    0.923    4.308    5.538 
#    0.000    1.538    0.000    2.769    0.000    0.000 
#    0.000    0.000    0.000    0.000    0.000    0.000 
#
# Total GULP energy -290415.981153 kJ/mol
# GULP energy per Si atom -5584.922714 kJ/mol
# Density = 1.922309 g / cm^3
# Si number density = 19.266943 Si / 1000 Ang^3
#
#
#
# Elastic Constant Matrix: (Units=GPa)
#
#
# Indices 1 2 3 4 5 6 
#
# 1 92.6318 7.9851 39.8820 0.0000 0.0000 0.0000
# 2 7.9851 62.5158 4.7061 0.0000 0.0000 0.0000
# 3 39.8820 4.7061 92.3513 0.0000 0.0000 0.0000
# 4 0.0000 0.0000 0.0000 25.1166 0.0000 0.0000
# 5 0.0000 0.0000 0.0000 0.0000 26.7981 0.0000
# 6 0.0000 0.0000 0.0000 0.0000 0.0000 8.7452
#
#
#
# Elastic Compliance Matrix: (Units=1/GPa)
#
#
# Indices 1 2 3 4 5 6 
#
# 1 0.013362 -0.001277 -0.005705 0.000000 0.000000 0.000000
# 2 -0.001277 0.016180 -0.000273 0.000000 0.000000 0.000000
# 3 -0.005705 -0.000273 0.013306 0.000000 0.000000 0.000000
# 4 0.000000 0.000000 0.000000 0.039814 0.000000 0.000000
# 5 0.000000 0.000000 0.000000 0.000000 0.037316 0.000000
# 6 0.000000 0.000000 0.000000 0.000000 0.000000 0.114349
#
#
# Mechanical properties :
#
#
# Convention : Reuss Voigt Hill
#
# Bulk Modulus (GPa) = 35.28998 39.18282 37.23640
# Shear Modulus (GPa) = 19.35862 25.12703 22.24283
#
# Velocity S-wave (km/s) = 3.17323 3.61522 3.40141
# Velocity P-wave (km/s) = 5.63755 6.14877 5.89870
#
# Compressibility (1/GPa) = 0.02833665
#
# Stress axis : x y z
#
# Youngs Moduli (GPa) = 74.83970 61.80612 75.15441
#
# Poissons Ratio (x) = 0.07894 0.42878
# Poissons Ratio (y) = 0.09559 0.02051
# Poissons Ratio (z) = 0.42698 0.01687
#
# Static dielectric constant tensor:
#      x y z
#    x 1.661630 0.000000 0.000000 
#    y 0.000000 1.714340 0.000000 
#    z 0.000000 0.000000 1.701840 
# 
# From -- ./inp_files/17857.got.cif
#   From: 2010.05.17/outbox.cif.g08.bks.cpg/sg53_9_cif.got.tgz:17857.got - 2010.06.03 12:45:16.
