data_PCOD9417753
_publ_section_title
;
Structure prediction by ZEFSAII (Michael W. Deem and Ramdas Pophale) SiO2 
 PCOD9417753
Probable space group: P M N A
;
_chemical_formula_sum "Si O2"
_cell_formula_units_Z 48
_cell_length_a 8.806421
_cell_length_b 15.342510
_cell_length_c 19.506618
_cell_angle_alpha 90.000000
_cell_angle_beta 90.000000
_cell_angle_gamma 90.000000
_cell_volume 2635.589919
_symmetry_space_group_name_H-M "P M N A"
_symmetry_group_IT_number 53
_symmetry_cell_setting 'orthorhombic'
loop_
_space_group_symop_operation_xyz
x,y,z
1/2-x,-y,1/2+z
x,-y,-z
1/2-x,y,1/2-z
-x,-y,-z
1/2+x,y,1/2-z
-x,y,z
1/2+x,-y,1/2+z
loop_
_atom_site_type_symbol
_atom_site_label
_atom_site_fract_x
_atom_site_fract_y
_atom_site_fract_z
Si Si1 0.819546 0.107589 0.825710
Si Si2 0.181130 0.625837 0.825245
Si Si3 0.817934 0.560936 0.324920
Si Si4 0.182440 0.761244 0.568641
Si Si5 0.682155 0.267480 0.910317
Si Si6 0.182285 0.034831 0.424157
O O1 0.750000 0.109085 0.750000
O O2 0.762415 0.191546 0.867831
O O3 0.000000 0.108320 0.821160
O O4 0.763114 0.023167 0.867302
O O5 0.250000 0.644016 0.750000
O O6 0.246733 0.531297 0.846347
O O7 0.234388 0.698732 0.878336
O O8 0.000000 0.621665 0.820612
O O9 0.750000 0.582054 0.250000
O O10 0.783519 0.639095 0.376905
O O11 0.000000 0.551905 0.319388
O O12 0.222915 0.738125 0.490245
O O13 0.217835 0.862939 0.580715
O O14 0.000000 0.750358 0.575952
O O15 0.500000 0.253334 0.905471
O O16 0.000000 0.024120 0.417120
O O17 0.223179 0.000000 0.500000
#
# Coordination Sequence:
#
# PCOD9417753 Si02
#       6
#     8   8   8   8   8   8
#     4  12  25  39  60  89 124 159 201 249 295 353
#     4  11  23  40  61  85 118 155 199 248 297 353
#     4  10  20  36  60  86 117 156 199 244 295 353
#     4  10  21  39  64  89 118 156 196 241 296 357
#     4  10  21  39  62  89 121 158 198 241 297 359
#     4  10  20  40  66  87 116 157 198 242 296 356
#
# _framework density 18.212242
#
# number of rings (size 3 to 8) (size 9 to 14) (size 15 to 20)
#    0.000    1.500    1.667    5.000    0.000    5.667 
#    0.000    3.333    0.000    0.000    0.000    0.000 
#    0.000    0.000    0.000    0.000    0.000    0.000 
#
# Total GULP energy -268328.597923 kJ/mol
# GULP energy per Si atom -5590.179123 kJ/mol
# Density = 1.817079 g / cm^3
# Si number density = 18.212242 Si / 1000 Ang^3
#
#
#
# Elastic Constant Matrix: (Units=GPa)
#
#
# Indices 1 2 3 4 5 6 
#
# 1 94.1916 93.1710 80.5740 0.0000 0.0000 0.0000
# 2 93.1710 170.2447 117.4361 0.0000 0.0000 0.0000
# 3 80.5740 117.4361 142.4481 0.0000 0.0000 0.0000
# 4 0.0000 0.0000 0.0000 34.6268 0.0000 0.0000
# 5 0.0000 0.0000 0.0000 0.0000 29.2572 0.0000
# 6 0.0000 0.0000 0.0000 0.0000 0.0000 34.9667
#
#
#
# Elastic Compliance Matrix: (Units=1/GPa)
#
#
# Indices 1 2 3 4 5 6 
#
# 1 0.025724 -0.009369 -0.006826 0.000000 0.000000 0.000000
# 2 -0.009369 0.017031 -0.008741 0.000000 0.000000 0.000000
# 3 -0.006826 -0.008741 0.018088 0.000000 0.000000 0.000000
# 4 0.000000 0.000000 0.000000 0.028879 0.000000 0.000000
# 5 0.000000 0.000000 0.000000 0.000000 0.034180 0.000000
# 6 0.000000 0.000000 0.000000 0.000000 0.000000 0.028599
#
#
# Mechanical properties :
#
#
# Convention : Reuss Voigt Hill
#
# Bulk Modulus (GPa) = 91.16331 109.91629 100.53980
# Shear Modulus (GPa) = 24.26839 27.48370 25.87605
#
# Velocity S-wave (km/s) = 3.65435 3.88890 3.77345
# Velocity P-wave (km/s) = 8.24442 8.98046 8.62030
#
# Compressibility (1/GPa) = 0.01096932
#
# Stress axis : x y z
#
# Youngs Moduli (GPa) = 38.87476 58.71599 55.28672
#
# Poissons Ratio (x) = 0.55012 0.37740
# Poissons Ratio (y) = 0.36423 0.48327
# Poissons Ratio (z) = 0.26537 0.51324
#
# Static dielectric constant tensor:
#      x y z
#    x 1.611410 0.000000 0.000000 
#    y 0.000000 1.605060 0.000000 
#    z 0.000000 0.000000 1.594230 
# 
# From -- ./inp_files/26272.got.cif
#   From: 2010.05.17/outbox.cif.g08.bks.cpg/sg53_14_cif.got.tgz:26272.got - 2010.06.03 12:45:16.
