data_PCOD9417585
_publ_section_title
;
Structure prediction by ZEFSAII (Michael W. Deem and Ramdas Pophale) SiO2 
 PCOD9417585
Probable space group: P M N A
;
_chemical_formula_sum "Si O2"
_cell_formula_units_Z 64
_cell_length_a 7.663930
_cell_length_b 12.812557
_cell_length_c 29.788359
_cell_angle_alpha 90.000000
_cell_angle_beta 90.000000
_cell_angle_gamma 90.000000
_cell_volume 2925.054208
_symmetry_space_group_name_H-M "P M N A"
_symmetry_group_IT_number 53
_symmetry_cell_setting 'orthorhombic'
loop_
_space_group_symop_operation_xyz
x,y,z
1/2-x,-y,1/2+z
x,-y,-z
1/2-x,y,1/2-z
-x,-y,-z
1/2+x,y,1/2-z
-x,y,z
1/2+x,-y,1/2+z
loop_
_atom_site_type_symbol
_atom_site_label
_atom_site_fract_x
_atom_site_fract_y
_atom_site_fract_z
Si Si1 0.209566 0.033874 0.302964
Si Si2 0.785998 0.896327 0.026199
Si Si3 0.708818 0.734113 0.802409
Si Si4 0.788272 0.493791 0.929303
Si Si5 0.202138 0.143767 0.872642
Si Si6 0.699132 0.292078 0.700463
Si Si7 0.800146 0.488328 0.328724
Si Si8 0.788201 0.671530 0.995332
O O1 0.250000 0.015901 0.250000
O O2 0.272994 0.150885 0.315486
O O3 0.000000 0.028851 0.307218
O O4 0.288196 0.951711 0.337603
O O5 0.726358 0.886030 0.078239
O O6 0.730939 0.790150 0.000823
O O7 0.000000 0.899405 0.026049
O O8 0.727643 0.000000 0.000000
O O9 0.750000 0.724475 0.750000
O O10 0.500000 0.736620 0.809456
O O11 0.777772 0.627537 0.823879
O O12 0.710171 0.483603 0.880679
O O13 0.738444 0.398428 0.961670
O O14 0.000000 0.492706 0.925800
O O15 0.733714 0.602598 0.952670
O O16 0.285342 0.237470 0.842978
O O17 0.000000 0.171356 0.882847
O O18 0.750000 0.256014 0.750000
O O19 0.500000 0.261869 0.696778
O O20 0.714367 0.416452 0.697367
O O21 0.000000 0.484464 0.312971
O O22 0.000000 0.672287 0.994479
#
# Coordination Sequence:
#
# PCOD9417585 Si02
#       8
#     8   8   8   8   8   8   8   8
#     4  10  20  36  57  79 106 140 179 222 270 325
#     4   9  17  30  50  77 108 139 174 221 272 321
#     4   9  20  36  52  72 100 135 170 210 257 305
#     4   9  17  31  53  76  99 133 175 218 263 310
#     4  10  21  36  56  83 112 142 180 227 275 325
#     4  11  23  38  56  80 112 147 183 224 272 324
#     4  11  22  35  52  78 111 142 177 218 264 318
#     4   8  15  30  50  72  99 132 172 215 261 313
#
# _framework density 21.879935
#
# number of rings (size 3 to 8) (size 9 to 14) (size 15 to 20)
#    0.000    2.375    0.000    3.375    0.000    7.500 
#    0.000    2.500    0.000    1.125    0.000    0.000 
#    0.000    0.000    0.000    0.000    0.000    0.000 
#
# Total GULP energy -357112.906385 kJ/mol
# GULP energy per Si atom -5579.889162 kJ/mol
# Density = 2.183013 g / cm^3
# Si number density = 21.879935 Si / 1000 Ang^3
#
#
#
# Elastic Constant Matrix: (Units=GPa)
#
#
# Indices 1 2 3 4 5 6 
#
# 1 36.6937 -1.9641 -2.3921 0.0000 0.0000 0.0000
# 2 -1.9641 146.8940 47.5374 0.0000 0.0000 0.0000
# 3 -2.3921 47.5374 85.7733 0.0000 0.0000 0.0000
# 4 0.0000 0.0000 0.0000 2.1219 0.0000 0.0000
# 5 0.0000 0.0000 0.0000 0.0000 12.2868 0.0000
# 6 0.0000 0.0000 0.0000 0.0000 0.0000 6.2336
#
#
#
# Elastic Compliance Matrix: (Units=1/GPa)
#
#
# Indices 1 2 3 4 5 6 
#
# 1 0.027305 0.000145 0.000681 0.000000 0.000000 0.000000
# 2 0.000145 0.008296 -0.004594 0.000000 0.000000 0.000000
# 3 0.000681 -0.004594 0.014224 0.000000 0.000000 0.000000
# 4 0.000000 0.000000 0.000000 0.471277 0.000000 0.000000
# 5 0.000000 0.000000 0.000000 0.000000 0.081388 0.000000
# 6 0.000000 0.000000 0.000000 0.000000 0.000000 0.160420
#
#
# Mechanical properties :
#
#
# Convention : Reuss Voigt Hill
#
# Bulk Modulus (GPa) = 23.64692 39.52482 31.58587
# Shear Modulus (GPa) = 6.37314 19.20711 12.79013
#
# Velocity S-wave (km/s) = 1.70854 2.96605 2.42039
# Velocity P-wave (km/s) = 3.83708 5.46201 4.72000
#
# Compressibility (1/GPa) = 0.04228881
#
# Stress axis : x y z
#
# Youngs Moduli (GPa) = 36.62359 120.53664 70.30521
#
# Poissons Ratio (x) = -0.01743 -0.04790
# Poissons Ratio (y) = -0.00530 0.32298
# Poissons Ratio (z) = -0.02495 0.55374
#
# Static dielectric constant tensor:
#      x y z
#    x 1.904900 0.000000 0.000000 
#    y 0.000000 1.835210 0.000000 
#    z 0.000000 0.000000 1.785640 
# 
# From -- ./inp_files/38283.got.cif
#   From: 2010.05.17/outbox.cif.g08.bks.cpg/sg53_20_cif.got.tgz:38283.got - 2010.06.03 12:45:16.
