data_PCOD9417106
_publ_section_title
;
Structure prediction by ZEFSAII (Michael W. Deem and Ramdas Pophale) SiO2 
 PCOD9417106
Probable space group: P M N A
;
_chemical_formula_sum "Si O2"
_cell_formula_units_Z 56
_cell_length_a 8.769155
_cell_length_b 15.784942
_cell_length_c 23.623451
_cell_angle_alpha 90.000000
_cell_angle_beta 90.000000
_cell_angle_gamma 90.000000
_cell_volume 3269.972334
_symmetry_space_group_name_H-M "P M N A"
_symmetry_group_IT_number 53
_symmetry_cell_setting 'orthorhombic'
loop_
_space_group_symop_operation_xyz
x,y,z
1/2-x,-y,1/2+z
x,-y,-z
1/2-x,y,1/2-z
-x,-y,-z
1/2+x,y,1/2-z
-x,y,z
1/2+x,-y,1/2+z
loop_
_atom_site_type_symbol
_atom_site_label
_atom_site_fract_x
_atom_site_fract_y
_atom_site_fract_z
Si Si1 0.182543 0.673476 0.313563
Si Si2 0.181949 0.689379 0.813624
Si Si3 0.683752 0.900712 0.497403
Si Si4 0.317462 0.515171 0.813339
Si Si5 0.817293 0.835809 0.127459
Si Si6 0.818027 0.840705 0.612837
Si Si7 0.318024 0.996845 0.189237
O O1 0.250000 0.681270 0.250000
O O2 0.216813 0.578590 0.336622
O O3 0.250250 0.746748 0.352402
O O4 0.000000 0.681618 0.309653
O O5 0.250000 0.699592 0.750000
O O6 0.242206 0.599563 0.838114
O O7 0.238613 0.765232 0.853037
O O8 0.000000 0.688090 0.809408
O O9 0.500000 0.897488 0.503415
O O10 0.724705 0.861457 0.436660
O O11 0.759356 0.851175 0.549125
O O12 0.728977 0.000000 0.500000
O O13 0.250000 0.512169 0.750000
O O14 0.500000 0.525793 0.811439
O O15 0.000000 0.834050 0.131539
O O16 0.753462 0.909396 0.167860
O O17 0.782014 0.928695 0.645024
O O18 0.000000 0.828626 0.614180
O O19 0.250000 0.019683 0.250000
O O20 0.500000 0.988356 0.193228
#
# Coordination Sequence:
#
# PCOD9417106 Si02
#       7
#     8   8   8   8   8   8   8
#     4  10  20  34  54  81 113 145 179 221 268 322
#     4  11  21  34  55  82 114 146 179 221 269 324
#     4  10  21  39  59  78 103 140 185 228 272 320
#     4   9  17  31  52  78 109 143 178 217 264 319
#     4  11  22  36  56  78 106 142 179 223 269 319
#     4  11  23  37  56  80 107 142 182 226 270 320
#     4  11  23  36  52  76 107 141 176 216 266 319
#
# _framework density 17.125526000000001
#
# number of rings (size 3 to 8) (size 9 to 14) (size 15 to 20)
#    0.000    1.571    1.429    5.143    0.000    6.000 
#    0.000    0.000    0.000    0.857    0.000    6.000 
#    0.000    0.000    0.000    0.000    0.000    0.000 
#
# Total GULP energy -312710.581264 kJ/mol
# GULP energy per Si atom -5584.117523 kJ/mol
# Density = 1.708655 g / cm^3
# Si number density = 17.125526 Si / 1000 Ang^3
#
#
#
# Elastic Constant Matrix: (Units=GPa)
#
#
# Indices 1 2 3 4 5 6 
#
# 1 57.8298 40.4347 18.3659 0.0000 0.0000 0.0000
# 2 40.4347 117.5118 18.8675 0.0000 0.0000 0.0000
# 3 18.3659 18.8675 58.9672 0.0000 0.0000 0.0000
# 4 0.0000 0.0000 0.0000 7.3952 0.0000 0.0000
# 5 0.0000 0.0000 0.0000 0.0000 26.8159 0.0000
# 6 0.0000 0.0000 0.0000 0.0000 0.0000 12.6173
#
#
#
# Elastic Compliance Matrix: (Units=1/GPa)
#
#
# Indices 1 2 3 4 5 6 
#
# 1 0.024157 -0.007489 -0.005128 0.000000 0.000000 0.000000
# 2 -0.007489 0.011292 -0.001281 0.000000 0.000000 0.000000
# 3 -0.005128 -0.001281 0.018965 0.000000 0.000000 0.000000
# 4 0.000000 0.000000 0.000000 0.135222 0.000000 0.000000
# 5 0.000000 0.000000 0.000000 0.000000 0.037291 0.000000
# 6 0.000000 0.000000 0.000000 0.000000 0.000000 0.079256
#
#
# Mechanical properties :
#
#
# Convention : Reuss Voigt Hill
#
# Bulk Modulus (GPa) = 37.56565 43.29390 40.42977
# Shear Modulus (GPa) = 14.58357 19.80841 17.19599
#
# Velocity S-wave (km/s) = 2.92133 3.40466 3.17221
# Velocity P-wave (km/s) = 5.77598 6.38677 6.08904
#
# Compressibility (1/GPa) = 0.02662007
#
# Stress axis : x y z
#
# Youngs Moduli (GPa) = 41.39626 88.55644 52.72758
#
# Poissons Ratio (x) = 0.66318 0.27037
# Poissons Ratio (y) = 0.31001 0.06753
# Poissons Ratio (z) = 0.21227 0.11341
#
# Static dielectric constant tensor:
#      x y z
#    x 1.571850 0.000000 0.000000 
#    y 0.000000 1.594190 0.000000 
#    z 0.000000 0.000000 1.542270 
# 
# From -- ./inp_files/30752.got.cif
#   From: 2010.05.17/outbox.cif.g08.bks.cpg/sg53_16_cif.got.tgz:30752.got - 2010.06.03 12:45:16.
