data_PCOD9417130
_publ_section_title
;
Structure prediction by ZEFSAII (Michael W. Deem and Ramdas Pophale) SiO2 
 PCOD9417130
Probable space group: P M N A
;
_chemical_formula_sum "Si O2"
_cell_formula_units_Z 64
_cell_length_a 18.857312
_cell_length_b 9.061484
_cell_length_c 19.298770
_cell_angle_alpha 90.000000
_cell_angle_beta 90.000000
_cell_angle_gamma 90.000000
_cell_volume 3297.681781
_symmetry_space_group_name_H-M "P M N A"
_symmetry_group_IT_number 53
_symmetry_cell_setting 'orthorhombic'
loop_
_space_group_symop_operation_xyz
x,y,z
1/2-x,-y,1/2+z
x,-y,-z
1/2-x,y,1/2-z
-x,-y,-z
1/2+x,y,1/2-z
-x,y,z
1/2+x,-y,1/2+z
loop_
_atom_site_type_symbol
_atom_site_label
_atom_site_fract_x
_atom_site_fract_y
_atom_site_fract_z
Si Si1 0.306939 0.422300 0.074926
Si Si2 0.419091 0.688487 0.359942
Si Si3 0.163510 0.165758 0.511095
Si Si4 0.692373 0.450019 0.310749
Si Si5 0.421656 0.887797 0.225220
Si Si6 0.916449 0.350402 0.616910
Si Si7 0.677653 0.107466 0.291225
Si Si8 0.815791 0.907518 0.069645
O O1 0.238238 0.451608 0.119463
O O2 0.372801 0.498523 0.113847
O O3 0.300271 0.500000 0.000000
O O4 0.316565 0.249730 0.059591
O O5 0.500000 0.648352 0.381772
O O6 0.373681 0.557391 0.324702
O O7 0.426640 0.807635 0.298866
O O8 0.370575 0.773309 0.416644
O O9 0.103489 0.264364 0.546713
O O10 0.235944 0.154946 0.556813
O O11 0.139298 0.000000 0.500000
O O12 0.750000 0.489064 0.250000
O O13 0.667388 0.281925 0.299850
O O14 0.500000 0.919427 0.197403
O O15 0.389235 0.764222 0.174899
O O16 0.380100 0.035160 0.240809
O O17 0.000000 0.375099 0.625512
O O18 0.750000 0.085140 0.250000
O O19 0.681198 0.017619 0.363995
O O20 0.832642 0.000000 0.000000
#
# Coordination Sequence:
#
# PCOD9417130 Si02
#       8
#     8   8   8   8   8   8   8   8
#     4  10  21  36  56  80 111 148 188 233 282 337
#     4  10  21  36  56  82 112 145 185 234 285 340
#     4  10  20  34  55  79 109 144 184 234 285 334
#     4  11  22  36  56  84 115 147 187 234 285 340
#     4   9  19  36  55  77 106 142 183 226 277 334
#     4  10  20  35  55  78 109 149 189 228 276 338
#     4  10  21  35  57  84 111 142 187 235 280 336
#     4  10  20  37  60  82 109 148 191 236 286 342
#
# _framework density 19.407574
#
# number of rings (size 3 to 8) (size 9 to 14) (size 15 to 20)
#    0.000    2.000    0.000    4.500    0.000    7.250 
#    0.000    0.000    0.000   12.375    0.000    0.000 
#    0.000    0.000    0.000    0.000    0.000    0.000 
#
# Total GULP energy -356827.904591 kJ/mol
# GULP energy per Si atom -5575.436009 kJ/mol
# Density = 1.936340 g / cm^3
# Si number density = 19.407574 Si / 1000 Ang^3
#
#
#
# Elastic Constant Matrix: (Units=GPa)
#
#
# Indices 1 2 3 4 5 6 
#
# 1 62.2201 56.2420 8.0497 0.0000 0.0000 0.0000
# 2 56.2420 106.0433 18.6505 0.0000 0.0000 0.0000
# 3 8.0497 18.6505 56.0853 0.0000 0.0000 0.0000
# 4 0.0000 0.0000 0.0000 13.0216 0.0000 0.0000
# 5 0.0000 0.0000 0.0000 0.0000 17.0573 0.0000
# 6 0.0000 0.0000 0.0000 0.0000 0.0000 61.1853
#
#
#
# Elastic Compliance Matrix: (Units=1/GPa)
#
#
# Indices 1 2 3 4 5 6 
#
# 1 0.030934 -0.016596 0.001079 0.000000 0.000000 0.000000
# 2 -0.016596 0.018920 -0.003910 0.000000 0.000000 0.000000
# 3 0.001079 -0.003910 0.018975 0.000000 0.000000 0.000000
# 4 0.000000 0.000000 0.000000 0.076795 0.000000 0.000000
# 5 0.000000 0.000000 0.000000 0.000000 0.058626 0.000000
# 6 0.000000 0.000000 0.000000 0.000000 0.000000 0.016344
#
#
# Mechanical properties :
#
#
# Convention : Reuss Voigt Hill
#
# Bulk Modulus (GPa) = 33.36053 43.35922 38.35988
# Shear Modulus (GPa) = 18.55704 27.67995 23.11850
#
# Velocity S-wave (km/s) = 3.09556 3.78066 3.45514
# Velocity P-wave (km/s) = 5.47754 6.43799 5.97709
#
# Compressibility (1/GPa) = 0.02997554
#
# Stress axis : x y z
#
# Youngs Moduli (GPa) = 32.32692 52.85473 52.70043
#
# Poissons Ratio (x) = 0.87719 -0.05687
# Poissons Ratio (y) = 0.53650 0.20604
# Poissons Ratio (z) = -0.03488 0.20664
#
# Static dielectric constant tensor:
#      x y z
#    x 1.651370 0.000000 0.000000 
#    y 0.000000 1.729040 0.000000 
#    z 0.000000 0.000000 1.721910 
# 
# From -- ./inp_files/32816.got.cif
#   From: 2010.05.17/outbox.cif.g08.bks.cpg/sg53_17_cif.got.tgz:32816.got - 2010.06.03 12:45:16.
