data_PCOD9417504
_publ_section_title
;
Structure prediction by ZEFSAII (Michael W. Deem and Ramdas Pophale) SiO2 
 PCOD9417504
Probable space group: P M N A
;
_chemical_formula_sum "Si O2"
_cell_formula_units_Z 48
_cell_length_a 14.711359
_cell_length_b 5.918112
_cell_length_c 27.447830
_cell_angle_alpha 90.000000
_cell_angle_beta 90.000000
_cell_angle_gamma 90.000000
_cell_volume 2389.703330
_symmetry_space_group_name_H-M "P M N A"
_symmetry_group_IT_number 53
_symmetry_cell_setting 'orthorhombic'
loop_
_space_group_symop_operation_xyz
x,y,z
1/2-x,-y,1/2+z
x,-y,-z
1/2-x,y,1/2-z
-x,-y,-z
1/2+x,y,1/2-z
-x,y,z
1/2+x,-y,1/2+z
loop_
_atom_site_type_symbol
_atom_site_label
_atom_site_fract_x
_atom_site_fract_y
_atom_site_fract_z
Si Si1 0.604057 0.570512 0.375530
Si Si2 0.828221 0.138095 0.542811
Si Si3 0.755815 0.175684 0.807543
Si Si4 0.749876 0.794695 0.878036
Si Si5 0.604340 0.589683 0.130522
Si Si6 0.632146 0.747388 0.479061
O O1 0.500000 0.521117 0.362746
O O2 0.663636 0.676002 0.331784
O O3 0.662859 0.353493 0.392009
O O4 0.605904 0.736791 0.422007
O O5 0.886842 0.299237 0.576854
O O6 0.741983 0.260042 0.518462
O O7 0.876722 0.000000 0.500000
O O8 0.778803 0.969109 0.580579
O O9 0.750000 0.191769 0.750000
O O10 0.661022 0.256201 0.831860
O O11 0.771123 0.925117 0.828198
O O12 0.662547 0.637466 0.870972
O O13 0.500000 0.560934 0.143746
O O14 0.600210 0.500000 0.500000
O O15 0.606444 0.000000 0.500000
#
# Coordination Sequence:
#
# PCOD9417504 Si02
#       6
#     8   8   8   8   8   8
#     4  11  23  40  63  95 129 166 215 268 323 393
#     4  10  20  35  62  87 126 171 212 251 313 379
#     4  10  23  44  65  86 120 164 209 266 335 394
#     4  10  20  41  59  91 122 169 205 263 322 388
#     4  10  22  39  63  90 120 156 206 265 323 383
#     4  11  22  38  66  97 135 183 223 269 327 392
#
# _framework density 20.086175000000001
#
# number of rings (size 3 to 8) (size 9 to 14) (size 15 to 20)
#    0.000    1.667    5.000    2.000    0.000    7.667 
#    0.000    0.833    0.000    0.500    0.000    0.000 
#    0.000    0.000    0.000    0.000    0.000    0.000 
#
# Total GULP energy -267715.109649 kJ/mol
# GULP energy per Si atom -5577.398118 kJ/mol
# Density = 2.004046 g / cm^3
# Si number density = 20.086175 Si / 1000 Ang^3
#
#
#
# Elastic Constant Matrix: (Units=GPa)
#
#
# Indices 1 2 3 4 5 6 
#
# 1 135.9212 29.1781 0.6223 0.0000 0.0000 0.0000
# 2 29.1781 109.0294 28.7928 0.0000 0.0000 0.0000
# 3 0.6223 28.7928 100.9464 0.0000 0.0000 0.0000
# 4 0.0000 0.0000 0.0000 18.6314 0.0000 0.0000
# 5 0.0000 0.0000 0.0000 0.0000 5.5089 0.0000
# 6 0.0000 0.0000 0.0000 0.0000 0.0000 -58.2242
#
#
#
# Elastic Compliance Matrix: (Units=1/GPa)
#
#
# Indices 1 2 3 4 5 6 
#
# 1 0.007839 -0.002255 0.000595 0.000000 0.000000 0.000000
# 2 -0.002255 0.010568 -0.003000 0.000000 0.000000 0.000000
# 3 0.000595 -0.003000 0.010758 0.000000 0.000000 0.000000
# 4 0.000000 0.000000 0.000000 0.053673 0.000000 0.000000
# 5 0.000000 0.000000 0.000000 0.000000 0.181525 0.000000
# 6 0.000000 0.000000 0.000000 0.000000 0.000000 -0.017175
#
#
# Mechanical properties :
#
#
# Convention : Reuss Voigt Hill
#
# Bulk Modulus (GPa) = 50.39327 51.45370 50.92348
# Shear Modulus (GPa) = 19.00254 12.33682 15.66968
#
# Velocity S-wave (km/s) = 3.07913 2.48098 2.79610
# Velocity P-wave (km/s) = 6.14690 5.82058 5.98596
#
# Compressibility (1/GPa) = 0.01984392
#
# Stress axis : x y z
#
# Youngs Moduli (GPa) = 127.57520 94.62910 92.95109
#
# Poissons Ratio (x) = 0.21337 -0.05529
# Poissons Ratio (y) = 0.28766 0.27888
# Poissons Ratio (z) = -0.07588 0.28391
#
# Static dielectric constant tensor:
#      x y z
#    x 1.689790 0.000000 0.000000 
#    y 0.000000 1.793700 0.000000 
#    z 0.000000 0.000000 1.722330 
# 
# From -- ./inp_files/38825.got.cif
#   From: 2010.05.17/outbox.cif.g08.bks.cpg/sg53_20_cif.got.tgz:38825.got - 2010.06.03 12:45:16.
