data_PCOD9417268
_publ_section_title
;
Structure prediction by ZEFSAII (Michael W. Deem and Ramdas Pophale) SiO2 
 PCOD9417268
Probable space group: P M N A
;
_chemical_formula_sum "Si O2"
_cell_formula_units_Z 64
_cell_length_a 9.476805
_cell_length_b 17.725125
_cell_length_c 22.971760
_cell_angle_alpha 90.000000
_cell_angle_beta 90.000000
_cell_angle_gamma 90.000000
_cell_volume 3858.740038
_symmetry_space_group_name_H-M "P M N A"
_symmetry_group_IT_number 53
_symmetry_cell_setting 'orthorhombic'
loop_
_space_group_symop_operation_xyz
x,y,z
1/2-x,-y,1/2+z
x,-y,-z
1/2-x,y,1/2-z
-x,-y,-z
1/2+x,y,1/2-z
-x,y,z
1/2+x,-y,1/2+z
loop_
_atom_site_type_symbol
_atom_site_label
_atom_site_fract_x
_atom_site_fract_y
_atom_site_fract_z
Si Si1 0.831463 0.409916 0.141574
Si Si2 0.832691 0.328152 0.921788
Si Si3 0.668522 0.863976 0.586134
Si Si4 0.838236 0.987617 0.429982
Si Si5 0.333694 0.842208 0.450169
Si Si6 0.168026 0.574183 0.191909
Si Si7 0.335710 0.586508 0.978652
Si Si8 0.668264 0.752772 0.692106
O O1 0.796795 0.488080 0.173807
O O2 0.745561 0.406488 0.081960
O O3 0.800484 0.334871 0.178240
O O4 0.000000 0.410497 0.129137
O O5 0.809588 0.238612 0.920994
O O6 0.798181 0.371057 0.862044
O O7 0.000000 0.340737 0.933608
O O8 0.741456 0.363223 0.973328
O O9 0.500000 0.877747 0.589165
O O10 0.698003 0.836749 0.519772
O O11 0.704683 0.802428 0.635135
O O12 0.753135 0.941448 0.595306
O O13 0.757956 0.908709 0.422436
O O14 0.000000 0.985519 0.409999
O O15 0.838879 0.000000 0.500000
O O16 0.500000 0.861223 0.445714
O O17 0.250000 0.594910 0.250000
O O18 0.000000 0.577728 0.201696
O O19 0.500000 0.606940 0.972541
O O20 0.327517 0.500000 0.000000
O O21 0.750000 0.776649 0.750000
O O22 0.500000 0.759642 0.701058
#
# Coordination Sequence:
#
# PCOD9417268 Si02
#       8
#     8   8   8   8   8   8   8   8
#     4  10  20  36  55  74 100 137 177 214 256 311
#     4  10  20  35  54  76 102 138 175 208 254 311
#     4   9  17  31  50  73 102 135 168 204 250 306
#     4   9  17  29  48  76 106 131 158 196 247 303
#     4   9  17  31  53  78 103 131 168 210 253 308
#     4  10  21  35  53  73  96 132 175 216 255 297
#     4  11  22  33  49  77 107 134 167 214 266 308
#     4  10  21  35  52  75 103 138 180 221 260 305
#
# _framework density 16.585723999999999
#
# number of rings (size 3 to 8) (size 9 to 14) (size 15 to 20)
#    0.000    2.250    1.250    1.875    0.000    6.500 
#    0.000    2.500    0.000    0.750    0.000    1.750 
#    0.000    0.000    0.000    0.000    0.000    0.000 
#
# Total GULP energy -357052.742561 kJ/mol
# GULP energy per Si atom -5578.949103 kJ/mol
# Density = 1.654797 g / cm^3
# Si number density = 16.585724 Si / 1000 Ang^3
#
#
#
# Elastic Constant Matrix: (Units=GPa)
#
#
# Indices 1 2 3 4 5 6 
#
# 1 39.1753 44.7624 31.9977 0.0000 0.0000 0.0000
# 2 44.7624 108.3354 34.2428 0.0000 0.0000 0.0000
# 3 31.9977 34.2428 69.5111 0.0000 0.0000 0.0000
# 4 0.0000 0.0000 0.0000 10.7590 0.0000 0.0000
# 5 0.0000 0.0000 0.0000 0.0000 29.3803 0.0000
# 6 0.0000 0.0000 0.0000 0.0000 0.0000 2.6987
#
#
#
# Elastic Compliance Matrix: (Units=1/GPa)
#
#
# Indices 1 2 3 4 5 6 
#
# 1 0.065567 -0.020788 -0.019941 0.000000 0.000000 0.000000
# 2 -0.020788 0.017524 0.000937 0.000000 0.000000 0.000000
# 3 -0.019941 0.000937 0.023104 0.000000 0.000000 0.000000
# 4 0.000000 0.000000 0.000000 0.092946 0.000000 0.000000
# 5 0.000000 0.000000 0.000000 0.000000 0.034036 0.000000
# 6 0.000000 0.000000 0.000000 0.000000 0.000000 0.370548
#
#
# Mechanical properties :
#
#
# Convention : Reuss Voigt Hill
#
# Bulk Modulus (GPa) = 37.58077 48.78084 43.18080
# Shear Modulus (GPa) = 7.22356 15.63552 11.42954
#
# Velocity S-wave (km/s) = 2.08920 3.07369 2.62796
# Velocity P-wave (km/s) = 5.34110 6.48629 5.94135
#
# Compressibility (1/GPa) = 0.02660936
#
# Stress axis : x y z
#
# Youngs Moduli (GPa) = 15.25166 57.06527 43.28202
#
# Poissons Ratio (x) = 1.18627 0.86310
# Poissons Ratio (y) = 0.31705 -0.04054
# Poissons Ratio (z) = 0.30414 -0.05345
#
# Static dielectric constant tensor:
#      x y z
#    x 1.553380 0.000000 0.000000 
#    y 0.000000 1.554450 0.000000 
#    z 0.000000 0.000000 1.521480 
# 
# From -- ./inp_files/31125.got.cif
#   From: 2010.05.17/outbox.cif.g08.bks.cpg/sg53_16_cif.got.tgz:31125.got - 2010.06.03 12:45:16.
