data_PCOD9417254
_publ_section_title
;
Structure prediction by ZEFSAII (Michael W. Deem and Ramdas Pophale) SiO2 
 PCOD9417254
Probable space group: P M N A
;
_chemical_formula_sum "Si O2"
_cell_formula_units_Z 48
_cell_length_a 8.655638
_cell_length_b 29.866908
_cell_length_c 10.562686
_cell_angle_alpha 90.000000
_cell_angle_beta 90.000000
_cell_angle_gamma 90.000000
_cell_volume 2730.635416
_symmetry_space_group_name_H-M "P M N A"
_symmetry_group_IT_number 53
_symmetry_cell_setting 'orthorhombic'
loop_
_space_group_symop_operation_xyz
x,y,z
1/2-x,-y,1/2+z
x,-y,-z
1/2-x,y,1/2-z
-x,-y,-z
1/2+x,y,1/2-z
-x,y,z
1/2+x,-y,1/2+z
loop_
_atom_site_type_symbol
_atom_site_label
_atom_site_fract_x
_atom_site_fract_y
_atom_site_fract_z
Si Si1 0.313510 0.967716 0.387083
Si Si2 0.685326 0.303874 0.387424
Si Si3 0.313499 0.864221 0.387026
Si Si4 0.313779 0.199867 0.386436
Si Si5 0.186225 0.468201 0.613614
Si Si6 0.314678 0.364188 0.887438
O O1 0.250000 0.981379 0.250000
O O2 0.500000 0.969062 0.382727
O O3 0.266929 0.915966 0.409435
O O4 0.261223 0.000000 0.500000
O O5 0.750000 0.317658 0.250000
O O6 0.500000 0.306330 0.385449
O O7 0.731235 0.251757 0.407079
O O8 0.749979 0.334032 0.500003
O O9 0.250000 0.850552 0.250000
O O10 0.500000 0.862864 0.382784
O O11 0.260809 0.831898 0.499686
O O12 0.250000 0.185654 0.250000
O O13 0.500000 0.198232 0.381979
O O14 0.239640 0.500000 0.500000
O O15 0.250000 0.482407 0.750000
O O16 0.231149 0.416311 0.592910
O O17 0.000000 0.469859 0.617964
O O18 0.250000 0.350418 0.750000
O O19 0.500000 0.361717 0.885458
#
# Coordination Sequence:
#
# PCOD9417254 Si02
#       6
#     8   8   8   8   8   8
#     4   9  18  32  49  70  97 127 159 198 241 286
#     4  10  20  35  53  74 101 132 167 206 249 296
#     4   9  18  33  50  70  97 127 161 199 240 287
#     4   9  19  34  51  72  98 128 162 201 243 289
#     4   9  19  35  53  75 102 131 165 203 243 290
#     4  10  20  35  54  76 103 134 168 206 248 294
#
# _framework density 17.578326000000001
#
# number of rings (size 3 to 8) (size 9 to 14) (size 15 to 20)
#    0.000    2.667    0.000    1.000    0.000    4.667 
#    0.000    3.333    0.000    0.000    0.000    0.000 
#    0.000    0.000    0.000    0.000    0.000    0.000 
#
# Total GULP energy -267743.401986 kJ/mol
# GULP energy per Si atom -5577.987541 kJ/mol
# Density = 1.753832 g / cm^3
# Si number density = 17.578326 Si / 1000 Ang^3
#
#
#
# Elastic Constant Matrix: (Units=GPa)
#
#
# Indices 1 2 3 4 5 6 
#
# 1 17.8767 25.2906 38.0354 0.0000 0.0000 0.0000
# 2 25.2906 82.9658 117.3550 0.0000 0.0000 0.0000
# 3 38.0354 117.3550 215.8283 0.0000 0.0000 0.0000
# 4 0.0000 0.0000 0.0000 44.1988 0.0000 0.0000
# 5 0.0000 0.0000 0.0000 0.0000 36.1632 0.0000
# 6 0.0000 0.0000 0.0000 0.0000 0.0000 23.3843
#
#
#
# Elastic Compliance Matrix: (Units=1/GPa)
#
#
# Indices 1 2 3 4 5 6 
#
# 1 0.099357 -0.023908 -0.004510 0.000000 0.000000 0.000000
# 2 -0.023908 0.057959 -0.027302 0.000000 0.000000 0.000000
# 3 -0.004510 -0.027302 0.020273 0.000000 0.000000 0.000000
# 4 0.000000 0.000000 0.000000 0.022625 0.000000 0.000000
# 5 0.000000 0.000000 0.000000 0.000000 0.027652 0.000000
# 6 0.000000 0.000000 0.000000 0.000000 0.000000 0.042764
#
#
# Mechanical properties :
#
#
# Convention : Reuss Voigt Hill
#
# Bulk Modulus (GPa) = 15.11702 75.33699 45.22700
# Shear Modulus (GPa) = 12.37256 29.81524 21.09390
#
# Velocity S-wave (km/s) = 2.65590 4.12289 3.46785
# Velocity P-wave (km/s) = 4.24542 8.10032 6.46679
#
# Compressibility (1/GPa) = 0.06615061
#
# Stress axis : x y z
#
# Youngs Moduli (GPa) = 10.06467 17.25354 49.32646
#
# Poissons Ratio (x) = 0.41250 0.22246
# Poissons Ratio (y) = 0.24063 1.34669
# Poissons Ratio (z) = 0.04539 0.47105
#
# Static dielectric constant tensor:
#      x y z
#    x 1.597540 0.000000 0.000000 
#    y 0.000000 1.599870 0.000000 
#    z 0.000000 0.000000 1.563430 
# 
# From -- ./inp_files/6615.got.cif
#   From: 2010.05.17/outbox.cif.g08.bks.cpg/sg53_4_cif.got.tgz:6615.got - 2010.06.03 12:45:16.
