data_PCOD9417057
_publ_section_title
;
Structure prediction by ZEFSAII (Michael W. Deem and Ramdas Pophale) SiO2 
 PCOD9417057
Probable space group: P M N A
;
_chemical_formula_sum "Si O2"
_cell_formula_units_Z 32
_cell_length_a 18.062459
_cell_length_b 7.161948
_cell_length_c 12.253071
_cell_angle_alpha 90.000000
_cell_angle_beta 90.000000
_cell_angle_gamma 90.000000
_cell_volume 1585.086575
_symmetry_space_group_name_H-M "P M N A"
_symmetry_group_IT_number 53
_symmetry_cell_setting 'orthorhombic'
loop_
_space_group_symop_operation_xyz
x,y,z
1/2-x,-y,1/2+z
x,-y,-z
1/2-x,y,1/2-z
-x,-y,-z
1/2+x,y,1/2-z
-x,y,z
1/2+x,-y,1/2+z
loop_
_atom_site_type_symbol
_atom_site_label
_atom_site_fract_x
_atom_site_fract_y
_atom_site_fract_z
Si Si1 0.185250 0.088009 0.659862
Si Si2 0.168586 0.709999 0.769540
Si Si3 0.413546 0.335419 0.703352
Si Si4 0.798109 0.279702 0.988980
O O1 0.250000 0.113931 0.750000
O O2 0.226554 0.170906 0.554807
O O3 0.116595 0.213856 0.696248
O O4 0.161389 0.873402 0.680780
O O5 0.250000 0.619829 0.750000
O O6 0.107993 0.549922 0.771691
O O7 0.174970 0.791399 0.892718
O O8 0.279813 0.500000 0.500000
O O9 0.500000 0.313152 0.684235
O O10 0.365336 0.275217 0.597572
#
# Coordination Sequence:
#
# PCOD9417057 Si02
#       4
#     8   8   8   8
#     4   9  19  34  53  80 108 140 184 227 268 320
#     4  10  20  34  56  81 107 143 187 231 273 321
#     4  10  20  34  53  82 118 147 175 220 278 335
#     4   9  18  35  58  82 110 146 186 228 277 329
#
# _framework density 20.188172999999999
#
# number of rings (size 3 to 8) (size 9 to 14) (size 15 to 20)
#    0.000    2.500    0.000    3.750    0.000   14.500 
#    0.000    1.250    0.000    6.750    0.000   22.750 
#    0.000    0.000    0.000    0.000    0.000    0.000 
#
# Total GULP energy -178507.071388 kJ/mol
# GULP energy per Si atom -5578.345981 kJ/mol
# Density = 2.014222 g / cm^3
# Si number density = 20.188173 Si / 1000 Ang^3
#
#
#
# Elastic Constant Matrix: (Units=GPa)
#
#
# Indices 1 2 3 4 5 6 
#
# 1 116.9524 45.5618 50.8519 0.0000 0.0000 0.0000
# 2 45.5618 99.7342 48.4232 0.0000 0.0000 0.0000
# 3 50.8519 48.4232 63.8212 0.0000 0.0000 0.0000
# 4 0.0000 0.0000 0.0000 21.7777 0.0000 0.0000
# 5 0.0000 0.0000 0.0000 0.0000 13.0145 0.0000
# 6 0.0000 0.0000 0.0000 0.0000 0.0000 7.1062
#
#
#
# Elastic Compliance Matrix: (Units=1/GPa)
#
#
# Indices 1 2 3 4 5 6 
#
# 1 0.013217 -0.001464 -0.009420 0.000000 0.000000 0.000000
# 2 -0.001464 0.016037 -0.011001 0.000000 0.000000 0.000000
# 3 -0.009420 -0.011001 0.031521 0.000000 0.000000 0.000000
# 4 0.000000 0.000000 0.000000 0.045919 0.000000 0.000000
# 5 0.000000 0.000000 0.000000 0.000000 0.076838 0.000000
# 6 0.000000 0.000000 0.000000 0.000000 0.000000 0.140722
#
#
# Mechanical properties :
#
#
# Convention : Reuss Voigt Hill
#
# Bulk Modulus (GPa) = 58.80801 63.35353 61.08077
# Shear Modulus (GPa) = 13.38002 17.42439 15.40220
#
# Velocity S-wave (km/s) = 2.57722 2.94104 2.76512
# Velocity P-wave (km/s) = 6.16841 6.55611 6.36521
#
# Compressibility (1/GPa) = 0.01700449
#
# Stress axis : x y z
#
# Youngs Moduli (GPa) = 75.66113 62.35675 31.72463
#
# Poissons Ratio (x) = 0.09131 0.29885
# Poissons Ratio (y) = 0.11079 0.34900
# Poissons Ratio (z) = 0.71273 0.68598
#
# Static dielectric constant tensor:
#      x y z
#    x 1.656830 0.000000 0.000000 
#    y 0.000000 1.782130 0.000000 
#    z 0.000000 0.000000 1.823070 
# 
# From -- ./inp_files/16550.got.cif
#   From: 2010.05.17/outbox.cif.g08.bks.cpg/sg53_9_cif.got.tgz:16550.got - 2010.06.03 12:45:16.
