data_PCOD9417713
_publ_section_title
;
Structure prediction by ZEFSAII (Michael W. Deem and Ramdas Pophale) SiO2 
 PCOD9417713
Probable space group: P M N A
;
_chemical_formula_sum "Si O2"
_cell_formula_units_Z 64
_cell_length_a 7.700594
_cell_length_b 13.156312
_cell_length_c 28.990473
_cell_angle_alpha 90.000000
_cell_angle_beta 90.000000
_cell_angle_gamma 90.000000
_cell_volume 2937.065906
_symmetry_space_group_name_H-M "P M N A"
_symmetry_group_IT_number 53
_symmetry_cell_setting 'orthorhombic'
loop_
_space_group_symop_operation_xyz
x,y,z
1/2-x,-y,1/2+z
x,-y,-z
1/2-x,y,1/2-z
-x,-y,-z
1/2+x,y,1/2-z
-x,y,z
1/2+x,-y,1/2+z
loop_
_atom_site_type_symbol
_atom_site_label
_atom_site_fract_x
_atom_site_fract_y
_atom_site_fract_z
Si Si1 0.209324 0.350618 0.111477
Si Si2 0.789338 0.974699 0.100532
Si Si3 0.291225 0.908071 0.303725
Si Si4 0.194432 0.826764 0.544042
Si Si5 0.211581 0.456924 0.950697
Si Si6 0.292134 0.317430 0.695757
Si Si7 0.302153 0.769365 0.445486
Si Si8 0.791015 0.538420 0.803632
O O1 0.286582 0.257805 0.083501
O O2 0.251298 0.455879 0.085684
O O3 0.268377 0.370475 0.163692
O O4 0.000000 0.336848 0.110147
O O5 0.734895 0.981020 0.154402
O O6 0.726056 0.867108 0.080077
O O7 0.000000 0.975277 0.099163
O O8 0.732910 0.066011 0.067749
O O9 0.250000 0.930077 0.250000
O O10 0.500000 0.904547 0.305191
O O11 0.226378 0.794223 0.317378
O O12 0.306967 0.796099 0.499845
O O13 0.000000 0.827195 0.525620
O O14 0.276372 0.343160 0.940436
O O15 0.000000 0.449273 0.953049
O O16 0.271074 0.500000 0.000000
O O17 0.250000 0.321293 0.750000
O O18 0.500000 0.316598 0.688311
O O19 0.226347 0.427111 0.679098
O O20 0.500000 0.761080 0.427583
O O21 0.750000 0.551279 0.750000
O O22 0.000000 0.534541 0.807755
#
# Coordination Sequence:
#
# PCOD9417713 Si02
#       8
#     8   8   8   8   8   8   8   8
#     4  10  20  36  59  84 112 149 191 231 275 331
#     4  10  22  38  60  86 111 145 194 239 275 327
#     4   9  18  33  54  82 114 146 181 226 276 330
#     4  12  25  40  57  79 112 151 189 235 289 340
#     4   9  16  30  57  89 113 139 179 226 272 325
#     4   8  14  26  45  73 107 140 172 210 264 321
#     4  10  20  37  62  88 114 146 186 233 280 331
#     4   9  18  31  52  80 113 149 185 227 272 328
#
# _framework density 21.790455999999999
#
# number of rings (size 3 to 8) (size 9 to 14) (size 15 to 20)
#    0.000    2.375    1.250    1.500    1.750    3.000 
#    0.000    1.875    0.000    0.000    0.000    0.000 
#    0.000    0.000    0.000    0.000    0.000    0.000 
#
# Total GULP energy -357000.187168 kJ/mol
# GULP energy per Si atom -5578.127925 kJ/mol
# Density = 2.174086 g / cm^3
# Si number density = 21.790456 Si / 1000 Ang^3
#
#
#
# Elastic Constant Matrix: (Units=GPa)
#
#
# Indices 1 2 3 4 5 6 
#
# 1 45.9915 3.9709 -1.0111 0.0000 0.0000 0.0000
# 2 3.9709 105.2141 22.1664 0.0000 0.0000 0.0000
# 3 -1.0111 22.1664 64.7957 0.0000 0.0000 0.0000
# 4 0.0000 0.0000 0.0000 11.9976 0.0000 0.0000
# 5 0.0000 0.0000 0.0000 0.0000 10.2780 0.0000
# 6 0.0000 0.0000 0.0000 0.0000 0.0000 -27.6049
#
#
#
# Elastic Compliance Matrix: (Units=1/GPa)
#
#
# Indices 1 2 3 4 5 6 
#
# 1 0.021841 -0.000966 0.000671 0.000000 0.000000 0.000000
# 2 -0.000966 0.010285 -0.003534 0.000000 0.000000 0.000000
# 3 0.000671 -0.003534 0.016652 0.000000 0.000000 0.000000
# 4 0.000000 0.000000 0.000000 0.083350 0.000000 0.000000
# 5 0.000000 0.000000 0.000000 0.000000 0.097295 0.000000
# 6 0.000000 0.000000 0.000000 0.000000 0.000000 -0.036225
#
#
# Mechanical properties :
#
#
# Convention : Reuss Voigt Hill
#
# Bulk Modulus (GPa) = 24.31746 29.58375 26.95060
# Shear Modulus (GPa) = 23.30316 11.65913 17.48114
#
# Velocity S-wave (km/s) = 3.27375 2.31564 2.83545
# Velocity P-wave (km/s) = 5.04716 4.55582 4.80777
#
# Compressibility (1/GPa) = 0.04112272
#
# Stress axis : x y z
#
# Youngs Moduli (GPa) = 45.78481 97.22577 60.05124
#
# Poissons Ratio (x) = 0.09389 -0.04031
# Poissons Ratio (y) = 0.04422 0.21220
# Poissons Ratio (z) = -0.03073 0.34356
#
# Static dielectric constant tensor:
#      x y z
#    x 1.852500 0.000000 0.000000 
#    y 0.000000 1.788340 0.000000 
#    z 0.000000 0.000000 1.794720 
# 
# From -- ./inp_files/38263.got.cif
#   From: 2010.05.17/outbox.cif.g08.bks.cpg/sg53_20_cif.got.tgz:38263.got - 2010.06.03 12:45:16.
