data_PCOD9417966
_publ_section_title
;
Structure prediction by ZEFSAII (Michael W. Deem and Ramdas Pophale) SiO2 
 PCOD9417966
Probable space group: P M N A
;
_chemical_formula_sum "Si O2"
_cell_formula_units_Z 64
_cell_length_a 8.811436
_cell_length_b 24.007133
_cell_length_c 15.713033
_cell_angle_alpha 90.000000
_cell_angle_beta 90.000000
_cell_angle_gamma 90.000000
_cell_volume 3323.892827
_symmetry_space_group_name_H-M "P M N A"
_symmetry_group_IT_number 53
_symmetry_cell_setting 'orthorhombic'
loop_
_space_group_symop_operation_xyz
x,y,z
1/2-x,-y,1/2+z
x,-y,-z
1/2-x,y,1/2-z
-x,-y,-z
1/2+x,y,1/2-z
-x,y,z
1/2+x,-y,1/2+z
loop_
_atom_site_type_symbol
_atom_site_label
_atom_site_fract_x
_atom_site_fract_y
_atom_site_fract_z
Si Si1 0.817585 0.365790 0.339771
Si Si2 0.179907 0.246507 0.601172
Si Si3 0.319864 0.127472 0.340207
Si Si4 0.181033 0.363904 0.840884
Si Si5 0.679780 0.242065 0.103313
Si Si6 0.180999 0.869622 0.160368
Si Si7 0.817790 0.565598 0.493278
Si Si8 0.177696 0.933455 0.498015
O O1 0.750000 0.383811 0.250000
O O2 0.773943 0.301849 0.359542
O O3 0.771308 0.403643 0.419557
O O4 0.000000 0.367522 0.335107
O O5 0.253725 0.303013 0.635319
O O6 0.198361 0.243641 0.498849
O O7 0.257102 0.192415 0.641473
O O8 0.000000 0.246527 0.619746
O O9 0.250000 0.110289 0.250000
O O10 0.500000 0.121693 0.339062
O O11 0.273482 0.191507 0.357836
O O12 0.249037 0.092398 0.417165
O O13 0.250000 0.380461 0.750000
O O14 0.235206 0.405869 0.914234
O O15 0.000000 0.361735 0.836279
O O16 0.500000 0.233257 0.120622
O O17 0.250000 0.888715 0.250000
O O18 0.000000 0.869105 0.164094
O O19 0.238333 0.908000 0.083407
O O20 0.788628 0.500000 0.500000
O O21 0.000000 0.573935 0.482891
O O22 0.000000 0.917517 0.493550
O O23 0.189396 0.000000 0.500000
#
# Coordination Sequence:
#
# PCOD9417966 Si02
#       8
#     8   8   8   8   8   8   8   8
#     4  10  21  38  60  90 122 159 200 248 307 366
#     4  11  21  39  66  94 130 166 206 256 315 379
#     4  12  25  41  65  95 130 167 210 257 312 377
#     4  12  25  41  64  93 128 165 211 261 315 380
#     4  10  20  37  63  91 126 163 203 253 312 376
#     4  12  25  42  66  97 131 168 210 256 315 378
#     4  10  22  43  66  88 121 165 212 262 317 373
#     4  11  25  46  69  93 125 166 213 265 318 371
#
# _framework density 19.254531
#
# number of rings (size 3 to 8) (size 9 to 14) (size 15 to 20)
#    0.000    1.000    2.500    4.875    0.000    4.750 
#    0.000    1.250    0.000    0.000    0.000    0.000 
#    0.000    0.000    0.000    0.000    0.000    0.000 
#
# Total GULP energy -358187.678218 kJ/mol
# GULP energy per Si atom -5596.682472 kJ/mol
# Density = 1.921071 g / cm^3
# Si number density = 19.254531 Si / 1000 Ang^3
#
#
#
# Elastic Constant Matrix: (Units=GPa)
#
#
# Indices 1 2 3 4 5 6 
#
# 1 141.9926 61.5558 87.9238 0.0000 0.0000 0.0000
# 2 61.5558 85.5412 62.8901 0.0000 0.0000 0.0000
# 3 87.9238 62.8901 181.9712 0.0000 0.0000 0.0000
# 4 0.0000 0.0000 0.0000 -10.9524 0.0000 0.0000
# 5 0.0000 0.0000 0.0000 0.0000 36.9532 0.0000
# 6 0.0000 0.0000 0.0000 0.0000 0.0000 -9.5481
#
#
#
# Elastic Compliance Matrix: (Units=1/GPa)
#
#
# Indices 1 2 3 4 5 6 
#
# 1 0.011865 -0.005796 -0.003730 0.000000 0.000000 0.000000
# 2 -0.005796 0.018504 -0.003595 0.000000 0.000000 0.000000
# 3 -0.003730 -0.003595 0.008540 0.000000 0.000000 0.000000
# 4 0.000000 0.000000 0.000000 -0.091304 0.000000 0.000000
# 5 0.000000 0.000000 0.000000 0.000000 0.027061 0.000000
# 6 0.000000 0.000000 0.000000 0.000000 0.000000 -0.104733
#
#
# Mechanical properties :
#
#
# Convention : Reuss Voigt Hill
#
# Bulk Modulus (GPa) = 78.93881 92.69383 85.81632
# Shear Modulus (GPa) = -50.19835 16.43289 -16.88273
#
# Velocity S-wave (km/s) = -5.11151 2.92457 -2.96432
# Velocity P-wave (km/s) = 2.49996 7.72334 5.74020
#
# Compressibility (1/GPa) = 0.01266804
#
# Stress axis : x y z
#
# Youngs Moduli (GPa) = 84.28427 54.04324 117.09967
#
# Poissons Ratio (x) = 0.31322 0.43674
# Poissons Ratio (y) = 0.48850 0.42092
# Poissons Ratio (z) = 0.31435 0.19426
#
# Static dielectric constant tensor:
#      x y z
#    x 1.647400 0.000000 0.000000 
#    y 0.000000 1.645150 0.000000 
#    z 0.000000 0.000000 1.659040 
# 
# From -- ./inp_files/21032.got.cif
#   From: 2010.05.17/outbox.cif.g08.bks.cpg/sg53_11_cif.got.tgz:21032.got - 2010.06.03 12:45:16.
