data_PCOD9417074
_publ_section_title
;
Structure prediction by ZEFSAII (Michael W. Deem and Ramdas Pophale) SiO2 
 PCOD9417074
Probable space group: P M N A
;
_chemical_formula_sum "Si O2"
_cell_formula_units_Z 64
_cell_length_a 8.882207
_cell_length_b 19.765388
_cell_length_c 19.674377
_cell_angle_alpha 90.000000
_cell_angle_beta 90.000000
_cell_angle_gamma 90.000000
_cell_volume 3454.038892
_symmetry_space_group_name_H-M "P M N A"
_symmetry_group_IT_number 53
_symmetry_cell_setting 'orthorhombic'
loop_
_space_group_symop_operation_xyz
x,y,z
1/2-x,-y,1/2+z
x,-y,-z
1/2-x,y,1/2-z
-x,-y,-z
1/2+x,y,1/2-z
-x,y,z
1/2+x,-y,1/2+z
loop_
_atom_site_type_symbol
_atom_site_label
_atom_site_fract_x
_atom_site_fract_y
_atom_site_fract_z
Si Si1 0.680581 0.783192 0.081340
Si Si2 0.822639 0.518162 0.177049
Si Si3 0.678270 0.564030 0.544840
Si Si4 0.318802 0.289921 0.054018
Si Si5 0.319447 0.342525 0.824596
Si Si6 0.681288 0.805979 0.825151
Si Si7 0.318173 0.071460 0.410957
Si Si8 0.819761 0.921161 0.071535
O O1 0.500000 0.789035 0.081451
O O2 0.722816 0.720980 0.129541
O O3 0.749615 0.854229 0.102908
O O4 0.729356 0.761598 0.005516
O O5 0.750000 0.503494 0.250000
O O6 0.802583 0.459226 0.122788
O O7 0.746789 0.586663 0.149020
O O8 0.000000 0.530710 0.185861
O O9 0.732789 0.500000 0.500000
O O10 0.500000 0.571595 0.530141
O O11 0.756282 0.636117 0.537017
O O12 0.500000 0.293654 0.052543
O O13 0.274195 0.257368 0.126242
O O14 0.250000 0.334270 0.750000
O O15 0.500000 0.347110 0.821295
O O16 0.750000 0.801305 0.750000
O O17 0.500000 0.807755 0.821243
O O18 0.739412 0.873315 0.863828
O O19 0.500000 0.077684 0.404344
O O20 0.280443 0.080236 0.491000
O O21 0.274357 0.993285 0.396844
O O22 0.000000 0.918181 0.075154
#
# Coordination Sequence:
#
# PCOD9417074 Si02
#       8
#     8   8   8   8   8   8   8   8
#     4  10  20  35  54  81 113 144 183 228 272 327
#     4  10  20  35  55  77 103 136 178 222 267 329
#     4  10  22  38  56  81 110 141 180 229 280 331
#     4  10  22  38  56  81 111 144 186 230 278 334
#     4  10  20  34  54  78 107 141 177 221 271 329
#     4  11  23  39  59  83 115 154 195 239 286 337
#     4   9  18  35  56  83 113 143 184 227 274 329
#     4   9  18  32  56  85 112 142 179 226 273 325
#
# _framework density 18.529033999999999
#
# number of rings (size 3 to 8) (size 9 to 14) (size 15 to 20)
#    0.000    2.125    1.250    3.375    0.000    4.750 
#    0.000    4.375    0.000    1.500    0.000    0.000 
#    0.000    0.000    0.000    0.000    0.000    0.000 
#
# Total GULP energy -357124.498507 kJ/mol
# GULP energy per Si atom -5580.070289 kJ/mol
# Density = 1.848686 g / cm^3
# Si number density = 18.529034 Si / 1000 Ang^3
#
#
#
# Elastic Constant Matrix: (Units=GPa)
#
#
# Indices 1 2 3 4 5 6 
#
# 1 29.7059 27.1242 16.0683 0.0000 0.0000 0.0000
# 2 27.1242 118.6814 27.3564 0.0000 0.0000 0.0000
# 3 16.0683 27.3564 47.2595 0.0000 0.0000 0.0000
# 4 0.0000 0.0000 0.0000 24.2147 0.0000 0.0000
# 5 0.0000 0.0000 0.0000 0.0000 34.7205 0.0000
# 6 0.0000 0.0000 0.0000 0.0000 0.0000 32.0739
#
#
#
# Elastic Compliance Matrix: (Units=1/GPa)
#
#
# Indices 1 2 3 4 5 6 
#
# 1 0.047273 -0.008192 -0.011331 0.000000 0.000000 0.000000
# 2 -0.008192 0.011143 -0.003665 0.000000 0.000000 0.000000
# 3 -0.011331 -0.003665 0.027134 0.000000 0.000000 0.000000
# 4 0.000000 0.000000 0.000000 0.041297 0.000000 0.000000
# 5 0.000000 0.000000 0.000000 0.000000 0.028801 0.000000
# 6 0.000000 0.000000 0.000000 0.000000 0.000000 0.031178
#
#
# Mechanical properties :
#
#
# Convention : Reuss Voigt Hill
#
# Bulk Modulus (GPa) = 25.52729 37.41608 31.47169
# Shear Modulus (GPa) = 20.30382 26.54167 23.42275
#
# Velocity S-wave (km/s) = 3.31385 3.78886 3.55929
# Velocity P-wave (km/s) = 5.33376 6.27516 5.82352
#
# Compressibility (1/GPa) = 0.03917376
#
# Stress axis : x y z
#
# Youngs Moduli (GPa) = 21.15391 89.74269 36.85471
#
# Poissons Ratio (x) = 0.73519 0.41759
# Poissons Ratio (y) = 0.17330 0.13506
# Poissons Ratio (z) = 0.23969 0.32889
#
# Static dielectric constant tensor:
#      x y z
#    x 1.625180 0.000000 0.000000 
#    y 0.000000 1.634650 0.000000 
#    z 0.000000 0.000000 1.646440 
# 
# From -- ./inp_files/31234.got.cif
#   From: 2010.05.17/outbox.cif.g08.bks.cpg/sg53_16_cif.got.tgz:31234.got - 2010.06.03 12:45:16.
