data_PCOD9417042
_publ_section_title
;
Structure prediction by ZEFSAII (Michael W. Deem and Ramdas Pophale) SiO2 
 PCOD9417042
Probable space group: P M N A
;
_chemical_formula_sum "Si O2"
_cell_formula_units_Z 48
_cell_length_a 8.692799
_cell_length_b 32.645759
_cell_length_c 9.241998
_cell_angle_alpha 90.000000
_cell_angle_beta 90.000000
_cell_angle_gamma 90.000000
_cell_volume 2622.722114
_symmetry_space_group_name_H-M "P M N A"
_symmetry_group_IT_number 53
_symmetry_cell_setting 'orthorhombic'
loop_
_space_group_symop_operation_xyz
x,y,z
1/2-x,-y,1/2+z
x,-y,-z
1/2-x,y,1/2-z
-x,-y,-z
1/2+x,y,1/2-z
-x,y,z
1/2+x,-y,1/2+z
loop_
_atom_site_type_symbol
_atom_site_label
_atom_site_fract_x
_atom_site_fract_y
_atom_site_fract_z
Si Si1 0.185652 0.959800 0.411420
Si Si2 0.815874 0.629030 0.414016
Si Si3 0.814296 0.460560 0.588252
Si Si4 0.316326 0.288163 0.586660
Si Si5 0.184725 0.802655 0.086812
Si Si6 0.815233 0.121129 0.411111
O O1 0.250000 0.960136 0.250000
O O2 0.232248 0.918705 0.496131
O O3 0.000000 0.960322 0.404308
O O4 0.235777 0.000000 0.500000
O O5 0.750000 0.628120 0.250000
O O6 0.772947 0.584307 0.476006
O O7 0.750604 0.670573 0.483755
O O8 0.000000 0.632117 0.407777
O O9 0.759802 0.500000 0.500000
O O10 0.750000 0.462739 0.750000
O O11 0.000000 0.461799 0.594822
O O12 0.250000 0.287323 0.750000
O O13 0.500000 0.291800 0.593274
O O14 0.277043 0.243051 0.527634
O O15 0.250000 0.806167 0.250000
O O16 0.000000 0.806033 0.093195
O O17 0.253368 0.838310 0.989241
O O18 0.750000 0.118063 0.250000
O O19 0.000000 0.122321 0.406172
#
# Coordination Sequence:
#
# PCOD9417042 Si02
#       6
#     8   8   8   8   8   8
#     4  10  22  39  59  85 114 144 179 218 262 310
#     4   9  15  24  41  64  91 122 156 198 246 294
#     4   9  18  31  46  67  95 125 160 201 245 295
#     4   9  16  26  43  68  97 126 159 202 249 297
#     4  10  20  34  53  78 107 137 171 213 260 309
#     4  11  23  38  57  80 108 143 181 220 262 309
#
# _framework density 18.301597000000001
#
# number of rings (size 3 to 8) (size 9 to 14) (size 15 to 20)
#    0.000    2.333    0.000    4.000    0.000    6.000 
#    0.000    0.000    0.000    1.000    0.000    4.667 
#    0.000    0.000    0.000    0.000    0.000    0.000 
#
# Total GULP energy -267604.951661 kJ/mol
# GULP energy per Si atom -5575.103160 kJ/mol
# Density = 1.825994 g / cm^3
# Si number density = 18.301597 Si / 1000 Ang^3
#
#
#
# Elastic Constant Matrix: (Units=GPa)
#
#
# Indices 1 2 3 4 5 6 
#
# 1 45.7082 58.0985 23.7509 0.0000 0.0000 0.0000
# 2 58.0985 236.6864 81.5964 0.0000 0.0000 0.0000
# 3 23.7509 81.5964 84.5127 0.0000 0.0000 0.0000
# 4 0.0000 0.0000 0.0000 24.7766 0.0000 0.0000
# 5 0.0000 0.0000 0.0000 0.0000 22.8919 0.0000
# 6 0.0000 0.0000 0.0000 0.0000 0.0000 36.1956
#
#
#
# Elastic Compliance Matrix: (Units=1/GPa)
#
#
# Indices 1 2 3 4 5 6 
#
# 1 0.032050 -0.007138 -0.002116 0.000000 0.000000 0.000000
# 2 -0.007138 0.007923 -0.005643 0.000000 0.000000 0.000000
# 3 -0.002116 -0.005643 0.017876 0.000000 0.000000 0.000000
# 4 0.000000 0.000000 0.000000 0.040361 0.000000 0.000000
# 5 0.000000 0.000000 0.000000 0.000000 0.043684 0.000000
# 6 0.000000 0.000000 0.000000 0.000000 0.000000 0.027628
#
#
# Mechanical properties :
#
#
# Convention : Reuss Voigt Hill
#
# Bulk Modulus (GPa) = 35.64450 77.08876 56.36663
# Shear Modulus (GPa) = 23.96189 30.33693 27.14941
#
# Velocity S-wave (km/s) = 3.62232 4.07579 3.85573
# Velocity P-wave (km/s) = 6.08386 8.02261 7.11954
#
# Compressibility (1/GPa) = 0.02805482
#
# Stress axis : x y z
#
# Youngs Moduli (GPa) = 31.20135 126.22177 55.94232
#
# Poissons Ratio (x) = 0.90095 0.11835
# Poissons Ratio (y) = 0.22271 0.31569
# Poissons Ratio (z) = 0.06601 0.71230
#
# Static dielectric constant tensor:
#      x y z
#    x 1.618620 0.000000 0.000000 
#    y 0.000000 1.696290 0.000000 
#    z 0.000000 0.000000 1.583890 
# 
# From -- ./inp_files/6668.got.cif
#   From: 2010.05.17/outbox.cif.g08.bks.cpg/sg53_4_cif.got.tgz:6668.got - 2010.06.03 12:45:16.
