data_PCOD9417763
_publ_section_title
;
Structure prediction by ZEFSAII (Michael W. Deem and Ramdas Pophale) SiO2 
 PCOD9417763
Probable space group: P M N A
;
_chemical_formula_sum "Si O2"
_cell_formula_units_Z 48
_cell_length_a 29.862239
_cell_length_b 9.496918
_cell_length_c 8.309490
_cell_angle_alpha 90.000000
_cell_angle_beta 90.000000
_cell_angle_gamma 90.000000
_cell_volume 2356.565008
_symmetry_space_group_name_H-M "P M N A"
_symmetry_group_IT_number 53
_symmetry_cell_setting 'orthorhombic'
loop_
_space_group_symop_operation_xyz
x,y,z
1/2-x,-y,1/2+z
x,-y,-z
1/2-x,y,1/2-z
-x,-y,-z
1/2+x,y,1/2-z
-x,y,z
1/2+x,-y,1/2+z
loop_
_atom_site_type_symbol
_atom_site_label
_atom_site_fract_x
_atom_site_fract_y
_atom_site_fract_z
Si Si1 0.322920 0.714877 0.869294
Si Si2 0.707224 0.161840 0.827921
Si Si3 0.551182 0.076191 0.826668
Si Si4 0.674924 0.448971 0.681614
Si Si5 0.861886 0.038243 0.181675
Si Si6 0.595658 0.626699 0.105262
O O1 0.305547 0.569966 0.797426
O O2 0.344178 0.808617 0.728831
O O3 0.288666 0.795889 0.985610
O O4 0.364041 0.679825 0.989467
O O5 0.750000 0.088934 0.750000
O O6 0.698751 0.302412 0.722323
O O7 0.664298 0.064759 0.802965
O O8 0.500000 0.068258 0.770833
O O9 0.565806 0.239396 0.849383
O O10 0.586183 0.994171 0.713811
O O11 0.554302 0.000000 0.000000
O O12 0.678272 0.500000 0.500000
O O13 0.622991 0.430052 0.739373
O O14 0.850293 0.000000 0.000000
O O15 0.574033 0.500000 0.000000
#
# Coordination Sequence:
#
# PCOD9417763 Si02
#       6
#     8   8   8   8   8   8
#     4  10  20  38  62  84 117 162 195 245 294 356
#     4  11  23  40  61  88 119 157 203 252 302 355
#     4  11  21  38  64  90 118 157 204 251 304 367
#     4  10  20  36  60  90 117 157 200 241 301 360
#     4  12  23  39  61  87 123 161 200 251 305 357
#     4   9  18  35  60  86 115 154 198 245 297 351
#
# _framework density 20.36863
#
# number of rings (size 3 to 8) (size 9 to 14) (size 15 to 20)
#    0.000    1.500    5.000    3.000    0.000    3.333 
#    0.000    2.500    0.000    0.500    0.000    0.000 
#    0.000    0.000    0.000    0.000    0.000    0.000 
#
# Total GULP energy -268091.763690 kJ/mol
# GULP energy per Si atom -5585.245077 kJ/mol
# Density = 2.032227 g / cm^3
# Si number density = 20.368630 Si / 1000 Ang^3
#
#
#
# Elastic Constant Matrix: (Units=GPa)
#
#
# Indices 1 2 3 4 5 6 
#
# 1 63.4747 -2.9246 -3.6052 0.0000 0.0000 0.0000
# 2 -2.9246 49.5990 -6.8316 0.0000 0.0000 0.0000
# 3 -3.6052 -6.8316 71.5310 0.0000 0.0000 0.0000
# 4 0.0000 0.0000 0.0000 31.0323 0.0000 0.0000
# 5 0.0000 0.0000 0.0000 0.0000 18.8503 0.0000
# 6 0.0000 0.0000 0.0000 0.0000 0.0000 5.3175
#
#
#
# Elastic Compliance Matrix: (Units=1/GPa)
#
#
# Indices 1 2 3 4 5 6 
#
# 1 0.015854 0.001059 0.000900 0.000000 0.000000 0.000000
# 2 0.001059 0.020501 0.002011 0.000000 0.000000 0.000000
# 3 0.000900 0.002011 0.014217 0.000000 0.000000 0.000000
# 4 0.000000 0.000000 0.000000 0.032225 0.000000 0.000000
# 5 0.000000 0.000000 0.000000 0.000000 0.053050 0.000000
# 6 0.000000 0.000000 0.000000 0.000000 0.000000 0.188059
#
#
# Mechanical properties :
#
#
# Convention : Reuss Voigt Hill
#
# Bulk Modulus (GPa) = 17.09007 17.54243 17.31625
# Shear Modulus (GPa) = 14.90449 24.23775 19.57112
#
# Velocity S-wave (km/s) = 2.70800 3.45331 3.10311
# Velocity P-wave (km/s) = 4.26454 4.95295 4.62158
#
# Compressibility (1/GPa) = 0.05851353
#
# Stress axis : x y z
#
# Youngs Moduli (GPa) = 63.07463 48.77774 70.33629
#
# Poissons Ratio (x) = -0.05165 -0.06332
# Poissons Ratio (y) = -0.06679 -0.14147
# Poissons Ratio (z) = -0.05678 -0.09811
#
# Static dielectric constant tensor:
#      x y z
#    x 1.729660 0.000000 0.000000 
#    y 0.000000 1.769210 0.000000 
#    z 0.000000 0.000000 1.723170 
# 
# From -- ./inp_files/12961.got.cif
#   From: 2010.05.17/outbox.cif.g08.bks.cpg/sg53_7_cif.got.tgz:12961.got - 2010.06.03 12:45:16.
