data_PCOD9417928
_publ_section_title
;
Structure prediction by ZEFSAII (Michael W. Deem and Ramdas Pophale) SiO2 
 PCOD9417928
Probable space group: P M N A
;
_chemical_formula_sum "Si O2"
_cell_formula_units_Z 48
_cell_length_a 8.704221
_cell_length_b 10.507537
_cell_length_c 28.796784
_cell_angle_alpha 90.000000
_cell_angle_beta 90.000000
_cell_angle_gamma 90.000000
_cell_volume 2633.751682
_symmetry_space_group_name_H-M "P M N A"
_symmetry_group_IT_number 53
_symmetry_cell_setting 'orthorhombic'
loop_
_space_group_symop_operation_xyz
x,y,z
1/2-x,-y,1/2+z
x,-y,-z
1/2-x,y,1/2-z
-x,-y,-z
1/2+x,y,1/2-z
-x,y,z
1/2+x,-y,1/2+z
loop_
_atom_site_type_symbol
_atom_site_label
_atom_site_fract_x
_atom_site_fract_y
_atom_site_fract_z
Si Si1 0.315173 0.506016 0.891821
Si Si2 0.317727 0.997333 0.607967
Si Si3 0.685151 0.243270 0.942463
Si Si4 0.684997 0.760611 0.948735
Si Si5 0.183090 0.608835 0.799516
Si Si6 0.316630 0.892877 0.799672
O O1 0.500000 0.507515 0.885334
O O2 0.274049 0.376515 0.918197
O O3 0.275543 0.628784 0.923142
O O4 0.235250 0.522186 0.842230
O O5 0.500000 0.995251 0.613609
O O6 0.264865 0.878179 0.576567
O O7 0.238543 0.979038 0.657929
O O8 0.263535 0.125766 0.583155
O O9 0.500000 0.228561 0.939444
O O10 0.724937 0.244967 0.996968
O O11 0.500000 0.777351 0.944998
O O12 0.250000 0.565389 0.750000
O O13 0.252123 0.750104 0.807964
O O14 0.000000 0.618176 0.796831
O O15 0.250000 0.934783 0.750000
O O16 0.500000 0.886896 0.797791
#
# Coordination Sequence:
#
# PCOD9417928 Si02
#       6
#     8   8   8   8   8   8
#     4  10  20  37  61  88 118 153 195 243 292 346
#     4  12  24  38  57  86 121 158 196 240 292 346
#     4  10  22  39  59  85 118 158 200 242 293 348
#     4  10  20  37  62  87 114 153 201 247 290 345
#     4  11  21  35  58  88 119 151 190 237 287 343
#     4  11  21  37  61  88 116 148 190 241 290 344
#
# _framework density 18.224952999999999
#
# number of rings (size 3 to 8) (size 9 to 14) (size 15 to 20)
#    0.000    1.333    1.667    6.500    0.000    5.333 
#    0.000    0.833    0.000    7.000    0.000    0.000 
#    0.000    0.000    0.000    0.000    0.000    0.000 
#
# Total GULP energy -268366.623603 kJ/mol
# GULP energy per Si atom -5590.971325 kJ/mol
# Density = 1.818347 g / cm^3
# Si number density = 18.224953 Si / 1000 Ang^3
#
#
#
# Elastic Constant Matrix: (Units=GPa)
#
#
# Indices 1 2 3 4 5 6 
#
# 1 102.7968 62.1813 77.5183 0.0000 0.0000 0.0000
# 2 62.1813 119.3617 72.6078 0.0000 0.0000 0.0000
# 3 77.5183 72.6078 168.9574 0.0000 0.0000 0.0000
# 4 0.0000 0.0000 0.0000 -2.0070 0.0000 0.0000
# 5 0.0000 0.0000 0.0000 0.0000 31.2921 0.0000
# 6 0.0000 0.0000 0.0000 0.0000 0.0000 24.1440
#
#
#
# Elastic Compliance Matrix: (Units=1/GPa)
#
#
# Indices 1 2 3 4 5 6 
#
# 1 0.017308 -0.005668 -0.005505 0.000000 0.000000 0.000000
# 2 -0.005668 0.013199 -0.003072 0.000000 0.000000 0.000000
# 3 -0.005505 -0.003072 0.009765 0.000000 0.000000 0.000000
# 4 0.000000 0.000000 0.000000 -0.498262 0.000000 0.000000
# 5 0.000000 0.000000 0.000000 0.000000 0.031957 0.000000
# 6 0.000000 0.000000 0.000000 0.000000 0.000000 0.041418
#
#
# Mechanical properties :
#
#
# Convention : Reuss Voigt Hill
#
# Bulk Modulus (GPa) = 84.87560 90.63675 87.75618
# Shear Modulus (GPa) = -14.19651 22.60638 4.20494
#
# Velocity S-wave (km/s) = -2.79401 3.52576 1.52061
# Velocity P-wave (km/s) = 6.02192 8.14953 7.16514
#
# Compressibility (1/GPa) = 0.01178195
#
# Stress axis : x y z
#
# Youngs Moduli (GPa) = 57.77780 75.76320 102.41098
#
# Poissons Ratio (x) = 0.42939 0.56380
# Poissons Ratio (y) = 0.32746 0.31459
# Poissons Ratio (z) = 0.31808 0.23273
#
# Static dielectric constant tensor:
#      x y z
#    x 1.611870 0.000000 0.000000 
#    y 0.000000 1.592890 0.000000 
#    z 0.000000 0.000000 1.617740 
# 
# From -- ./inp_files/37706.got.cif
#   From: 2010.05.17/outbox.cif.g08.bks.cpg/sg53_19_cif.got.tgz:37706.got - 2010.06.03 12:45:16.
