data_PCOD9417603
_publ_section_title
;
Structure prediction by ZEFSAII (Michael W. Deem and Ramdas Pophale) SiO2 
 PCOD9417603
Probable space group: P M N A
;
_chemical_formula_sum "Si O2"
_cell_formula_units_Z 48
_cell_length_a 7.956993
_cell_length_b 15.515294
_cell_length_c 19.857739
_cell_angle_alpha 90.000000
_cell_angle_beta 90.000000
_cell_angle_gamma 90.000000
_cell_volume 2451.538871
_symmetry_space_group_name_H-M "P M N A"
_symmetry_group_IT_number 53
_symmetry_cell_setting 'orthorhombic'
loop_
_space_group_symop_operation_xyz
x,y,z
1/2-x,-y,1/2+z
x,-y,-z
1/2-x,y,1/2-z
-x,-y,-z
1/2+x,y,1/2-z
-x,y,z
1/2+x,-y,1/2+z
loop_
_atom_site_type_symbol
_atom_site_label
_atom_site_fract_x
_atom_site_fract_y
_atom_site_fract_z
Si Si1 0.801196 0.543705 0.431119
Si Si2 0.700087 0.738407 0.437830
Si Si3 0.203062 0.871411 0.173516
Si Si4 0.200902 0.601714 0.827924
Si Si5 0.297539 0.933213 0.673423
Si Si6 0.293841 0.769961 0.589491
O O1 0.733069 0.500000 0.500000
O O2 0.728548 0.638606 0.421142
O O3 0.767384 0.479805 0.369502
O O4 0.000000 0.554253 0.439589
O O5 0.500000 0.752597 0.440685
O O6 0.767310 0.802993 0.380927
O O7 0.765113 0.757479 0.512992
O O8 0.250000 0.848706 0.250000
O O9 0.000000 0.872823 0.170285
O O10 0.263464 0.969355 0.160028
O O11 0.250000 0.600650 0.750000
O O12 0.260375 0.689006 0.865006
O O13 0.000000 0.600045 0.832478
O O14 0.250000 0.910646 0.750000
O O15 0.500000 0.934949 0.669382
O O16 0.237755 0.859514 0.622742
O O17 0.500000 0.769776 0.589340
#
# Coordination Sequence:
#
# PCOD9417603 Si02
#       6
#     8   8   8   8   8   8
#     4  11  23  39  58  81 109 144 185 230 279 331
#     4  10  20  36  57  81 107 144 185 225 276 330
#     4   9  19  34  55  79 108 143 182 225 270 321
#     4  11  22  37  58  84 113 146 183 228 275 330
#     4   9  17  32  52  78 109 144 180 221 269 320
#     4   9  18  32  54  81 110 142 181 222 270 326
#
# _framework density 19.579539
#
# number of rings (size 3 to 8) (size 9 to 14) (size 15 to 20)
#    0.000    2.167    1.667    1.500    0.000    2.667 
#    0.000    6.667    0.000    0.000    0.000    5.833 
#    0.000    0.000    0.000    0.000    0.000    0.000 
#
# Total GULP energy -268005.445833 kJ/mol
# GULP energy per Si atom -5583.446788 kJ/mol
# Density = 1.953498 g / cm^3
# Si number density = 19.579539 Si / 1000 Ang^3
#
#
#
# Elastic Constant Matrix: (Units=GPa)
#
#
# Indices 1 2 3 4 5 6 
#
# 1 9.1769 -7.4539 -6.7401 0.0000 0.0000 0.0000
# 2 -7.4539 157.5843 118.0280 0.0000 0.0000 0.0000
# 3 -6.7401 118.0280 169.2071 0.0000 0.0000 0.0000
# 4 0.0000 0.0000 0.0000 44.2239 0.0000 0.0000
# 5 0.0000 0.0000 0.0000 0.0000 18.7729 0.0000
# 6 0.0000 0.0000 0.0000 0.0000 0.0000 -6.4243
#
#
#
# Elastic Compliance Matrix: (Units=1/GPa)
#
#
# Indices 1 2 3 4 5 6 
#
# 1 0.113536 0.004153 0.001626 0.000000 0.000000 0.000000
# 2 0.004153 0.013440 -0.009209 0.000000 0.000000 0.000000
# 3 0.001626 -0.009209 0.012399 0.000000 0.000000 0.000000
# 4 0.000000 0.000000 0.000000 0.022612 0.000000 0.000000
# 5 0.000000 0.000000 0.000000 0.000000 0.053268 0.000000
# 6 0.000000 0.000000 0.000000 0.000000 0.000000 -0.155658
#
#
# Mechanical properties :
#
#
# Convention : Reuss Voigt Hill
#
# Bulk Modulus (GPa) = 7.54643 60.40404 33.97523
# Shear Modulus (GPa) = 45.19572 26.79011 35.99291
#
# Velocity S-wave (km/s) = 4.80970 3.70303 4.29218
# Velocity P-wave (km/s) = 5.89126 7.01433 6.47718
#
# Compressibility (1/GPa) = 0.13251296
#
# Stress axis : x y z
#
# Youngs Moduli (GPa) = 8.80776 74.40508 80.65426
#
# Poissons Ratio (x) = -0.30897 -0.13114
# Poissons Ratio (y) = -0.03657 0.74278
# Poissons Ratio (z) = -0.01432 0.68523
#
# Static dielectric constant tensor:
#      x y z
#    x 1.711960 0.000000 0.000000 
#    y 0.000000 1.670660 0.000000 
#    z 0.000000 0.000000 1.655700 
# 
# From -- ./inp_files/26164.got.cif
#   From: 2010.05.17/outbox.cif.g08.bks.cpg/sg53_14_cif.got.tgz:26164.got - 2010.06.03 12:45:16.
