data_PCOD9417489
_publ_section_title
;
Structure prediction by ZEFSAII (Michael W. Deem and Ramdas Pophale) SiO2 
 PCOD9417489
Probable space group: P M N A
;
_chemical_formula_sum "Si O2"
_cell_formula_units_Z 56
_cell_length_a 18.874529
_cell_length_b 5.259743
_cell_length_c 25.382434
_cell_angle_alpha 90.000000
_cell_angle_beta 90.000000
_cell_angle_gamma 90.000000
_cell_volume 2519.845496
_symmetry_space_group_name_H-M "P M N A"
_symmetry_group_IT_number 53
_symmetry_cell_setting 'orthorhombic'
loop_
_space_group_symop_operation_xyz
x,y,z
1/2-x,-y,1/2+z
x,-y,-z
1/2-x,y,1/2-z
-x,-y,-z
1/2+x,y,1/2-z
-x,y,z
1/2+x,-y,1/2+z
loop_
_atom_site_type_symbol
_atom_site_label
_atom_site_fract_x
_atom_site_fract_y
_atom_site_fract_z
Si Si1 0.707902 0.047032 0.362755
Si Si2 0.625212 0.662832 0.953077
Si Si3 0.711068 0.743212 0.528873
Si Si4 0.580345 0.764591 0.321187
Si Si5 0.319194 0.613961 0.733837
Si Si6 0.136049 0.159389 0.612253
Si Si7 0.077244 0.078705 0.287851
O O1 0.697648 0.250838 0.409030
O O2 0.712424 0.171762 0.305056
O O3 0.636569 0.881853 0.361436
O O4 0.780413 0.902146 0.377876
O O5 0.703362 0.727959 0.975478
O O6 0.629840 0.444828 0.908694
O O7 0.605286 0.936065 0.927155
O O8 0.587724 0.500000 0.000000
O O9 0.680557 0.500000 0.500000
O O10 0.688157 0.000000 0.500000
O O11 0.500000 0.725135 0.339499
O O12 0.619645 0.517191 0.299598
O O13 0.577060 0.944368 0.269213
O O14 0.250000 0.451711 0.750000
O O15 0.360048 0.719194 0.784330
O O16 0.095412 0.119265 0.666817
O O17 0.000000 0.194073 0.296863
#
# Coordination Sequence:
#
# PCOD9417489 Si02
#       7
#     8   8   8   8   8   8   8
#     4  10  22  35  60  88 122 155 208 259 308 371
#     4  10  20  36  58  89 127 157 201 260 320 366
#     4  10  20  35  59  93 127 158 200 262 323 371
#     4  10  24  39  58  83 123 168 202 250 312 381
#     4  11  22  36  61  91 123 160 206 262 309 366
#     4  11  22  35  63  94 120 161 206 261 310 360
#     4  10  23  41  56  86 125 167 208 248 309 377
#
# _framework density 22.223583999999999
#
# number of rings (size 3 to 8) (size 9 to 14) (size 15 to 20)
#    0.000    1.714    1.429    4.286   10.000    0.571 
#    0.000    0.000    0.000    3.429    0.000    0.000 
#    0.000    0.000    0.000    0.000    0.000    0.000 
#
# Total GULP energy -312474.603894 kJ/mol
# GULP energy per Si atom -5579.903641 kJ/mol
# Density = 2.217300 g / cm^3
# Si number density = 22.223584 Si / 1000 Ang^3
#
#
#
# Elastic Constant Matrix: (Units=GPa)
#
#
# Indices 1 2 3 4 5 6 
#
# 1 111.6978 10.4613 13.4410 0.0000 0.0000 0.0000
# 2 10.4613 91.2909 13.7319 0.0000 0.0000 0.0000
# 3 13.4410 13.7319 66.3027 0.0000 0.0000 0.0000
# 4 0.0000 0.0000 0.0000 27.1564 0.0000 0.0000
# 5 0.0000 0.0000 0.0000 0.0000 -11.0228 0.0000
# 6 0.0000 0.0000 0.0000 0.0000 0.0000 2.9759
#
#
#
# Elastic Compliance Matrix: (Units=1/GPa)
#
#
# Indices 1 2 3 4 5 6 
#
# 1 0.009233 -0.000801 -0.001706 0.000000 0.000000 0.000000
# 2 -0.000801 0.011376 -0.002194 0.000000 0.000000 0.000000
# 3 -0.001706 -0.002194 0.015882 0.000000 0.000000 0.000000
# 4 0.000000 0.000000 0.000000 0.036824 0.000000 0.000000
# 5 0.000000 0.000000 0.000000 0.000000 -0.090721 0.000000
# 6 0.000000 0.000000 0.000000 0.000000 0.000000 0.336030
#
#
# Mechanical properties :
#
#
# Convention : Reuss Voigt Hill
#
# Bulk Modulus (GPa) = 36.91435 38.28442 37.59938
# Shear Modulus (GPa) = 14.83436 19.26572 17.05004
#
# Velocity S-wave (km/s) = 2.58642 2.94752 2.77285
# Velocity P-wave (km/s) = 5.05627 5.37105 5.21603
#
# Compressibility (1/GPa) = 0.02708974
#
# Stress axis : x y z
#
# Youngs Moduli (GPa) = 108.30662 87.90601 62.96259
#
# Poissons Ratio (x) = 0.07045 0.10740
# Poissons Ratio (y) = 0.08680 0.13811
# Poissons Ratio (z) = 0.18474 0.19283
#
# Static dielectric constant tensor:
#      x y z
#    x 1.821760 0.000000 0.000000 
#    y 0.000000 1.905650 0.000000 
#    z 0.000000 0.000000 1.752340 
# 
# From -- ./inp_files/35607.got.cif
#   From: 2010.05.17/outbox.cif.g08.bks.cpg/sg53_18_cif.got.tgz:35607.got - 2010.06.03 12:45:16.
