data_PCOD9417260
_publ_section_title
;
Structure prediction by ZEFSAII (Michael W. Deem and Ramdas Pophale) SiO2 
 PCOD9417260
Probable space group: P M N A
;
_chemical_formula_sum "Si O2"
_cell_formula_units_Z 64
_cell_length_a 14.722950
_cell_length_b 9.038941
_cell_length_c 21.904611
_cell_angle_alpha 90.000000
_cell_angle_beta 90.000000
_cell_angle_gamma 90.000000
_cell_volume 2915.062924
_symmetry_space_group_name_H-M "P M N A"
_symmetry_group_IT_number 53
_symmetry_cell_setting 'orthorhombic'
loop_
_space_group_symop_operation_xyz
x,y,z
1/2-x,-y,1/2+z
x,-y,-z
1/2-x,y,1/2-z
-x,-y,-z
1/2+x,y,1/2-z
-x,y,z
1/2+x,-y,1/2+z
loop_
_atom_site_type_symbol
_atom_site_label
_atom_site_fract_x
_atom_site_fract_y
_atom_site_fract_z
Si Si1 0.392281 0.427485 0.937742
Si Si2 0.146500 0.943504 0.191995
Si Si3 0.633423 0.086433 0.559573
Si Si4 0.649587 0.070825 0.184554
Si Si5 0.895427 0.435115 0.938317
Si Si6 0.146870 0.080896 0.561299
Si Si7 0.610989 0.599317 0.304827
Si Si8 0.389508 0.413622 0.185494
O O1 0.500000 0.455137 0.937453
O O2 0.377671 0.252606 0.937816
O O3 0.358215 0.499962 0.875092
O O4 0.355844 0.500000 0.000000
O O5 0.102669 0.971877 0.125821
O O6 0.148730 0.765930 0.199726
O O7 0.104737 0.011964 0.253091
O O8 0.247153 0.011525 0.187367
O O9 0.607352 0.257955 0.555862
O O10 0.743152 0.076211 0.560562
O O11 0.601789 0.000000 0.500000
O O12 0.645836 0.246888 0.183860
O O13 0.612369 0.001651 0.121921
O O14 0.859151 0.467047 0.870331
O O15 0.000000 0.487451 0.937126
O O16 0.852826 0.500000 0.000000
O O17 0.114500 0.000000 0.500000
O O18 0.500000 0.612319 0.306068
O O19 0.636682 0.501109 0.246864
O O20 0.500000 0.407066 0.185495
#
# Coordination Sequence:
#
# PCOD9417260 Si02
#       8
#     8   8   8   8   8   8   8   8
#     4  10  21  36  53  76 106 139 178 221 265 317
#     4   9  19  36  53  75 105 140 180 218 262 314
#     4   9  19  34  51  74 104 134 169 211 253 305
#     4  10  20  35  53  78 109 137 175 222 269 322
#     4   9  18  33  53  77 103 131 167 210 256 308
#     4  10  20  35  55  77 105 141 178 220 265 315
#     4   9  18  35  57  78 104 140 179 219 266 321
#     4  10  21  36  55  81 110 139 175 222 274 327
#
# _framework density 21.954927999999999
#
# number of rings (size 3 to 8) (size 9 to 14) (size 15 to 20)
#    0.000    2.500    0.000    1.500    0.000    3.000 
#    0.000   10.000    0.000    0.000    0.000    0.000 
#    0.000    0.000    0.000    0.000    0.000    0.000 
#
# Total GULP energy -357434.017443 kJ/mol
# GULP energy per Si atom -5584.906523 kJ/mol
# Density = 2.190496 g / cm^3
# Si number density = 21.954928 Si / 1000 Ang^3
#
#
#
# Elastic Constant Matrix: (Units=GPa)
#
#
# Indices 1 2 3 4 5 6 
#
# 1 80.1998 4.0473 16.6752 0.0000 0.0000 0.0000
# 2 4.0473 141.4149 126.7758 0.0000 0.0000 0.0000
# 3 16.6752 126.7758 290.9379 0.0000 0.0000 0.0000
# 4 0.0000 0.0000 0.0000 47.8079 0.0000 0.0000
# 5 0.0000 0.0000 0.0000 0.0000 -103.4072 0.0000
# 6 0.0000 0.0000 0.0000 0.0000 0.0000 29.8559
#
#
#
# Elastic Compliance Matrix: (Units=1/GPa)
#
#
# Indices 1 2 3 4 5 6 
#
# 1 0.012638 0.000472 -0.000930 0.000000 0.000000 0.000000
# 2 0.000472 0.011622 -0.005091 0.000000 0.000000 0.000000
# 3 -0.000930 -0.005091 0.005709 0.000000 0.000000 0.000000
# 4 0.000000 0.000000 0.000000 0.020917 0.000000 0.000000
# 5 0.000000 0.000000 0.000000 0.000000 -0.009671 0.000000
# 6 0.000000 0.000000 0.000000 0.000000 0.000000 0.033494
#
#
# Mechanical properties :
#
#
# Convention : Reuss Voigt Hill
#
# Bulk Modulus (GPa) = 52.99173 89.72769 71.35971
# Shear Modulus (GPa) = 54.28901 19.18827 36.73864
#
# Velocity S-wave (km/s) = 4.97807 2.95953 4.09512
# Velocity P-wave (km/s) = 7.56509 7.25508 7.41171
#
# Compressibility (1/GPa) = 0.01887087
#
# Stress axis : x y z
#
# Youngs Moduli (GPa) = 79.12384 86.04172 175.16017
#
# Poissons Ratio (x) = -0.04062 0.16292
# Poissons Ratio (y) = -0.03735 0.89182
# Poissons Ratio (z) = 0.07359 0.43808
#
# Static dielectric constant tensor:
#      x y z
#    x 1.857350 0.000000 0.000000 
#    y 0.000000 1.710910 0.000000 
#    z 0.000000 0.000000 1.847080 
# 
# From -- ./inp_files/35558.got.cif
#   From: 2010.05.17/outbox.cif.g08.bks.cpg/sg53_18_cif.got.tgz:35558.got - 2010.06.03 12:45:16.
