data_PCOD9417999
_publ_section_title
;
Structure prediction by ZEFSAII (Michael W. Deem and Ramdas Pophale) SiO2 
 PCOD9417999
Probable space group: P M N A
;
_chemical_formula_sum "Si O2"
_cell_formula_units_Z 32
_cell_length_a 34.406191
_cell_length_b 5.406809
_cell_length_c 8.092313
_cell_angle_alpha 90.000000
_cell_angle_beta 90.000000
_cell_angle_gamma 90.000000
_cell_volume 1505.394401
_symmetry_space_group_name_H-M "P M N A"
_symmetry_group_IT_number 53
_symmetry_cell_setting 'orthorhombic'
loop_
_space_group_symop_operation_xyz
x,y,z
1/2-x,-y,1/2+z
x,-y,-z
1/2-x,y,1/2-z
-x,-y,-z
1/2+x,y,1/2-z
-x,y,z
1/2+x,-y,1/2+z
loop_
_atom_site_type_symbol
_atom_site_label
_atom_site_fract_x
_atom_site_fract_y
_atom_site_fract_z
Si Si1 0.455208 0.058241 0.305443
Si Si2 0.713868 0.000000 0.000000
Si Si3 0.326650 0.621642 0.184503
Si Si4 0.413621 0.441582 0.805124
Si Si5 0.750000 0.358922 0.250000
O O1 0.500000 0.075425 0.249041
O O2 0.434624 0.821509 0.221867
O O3 0.454909 0.000000 0.500000
O O4 0.434600 0.321839 0.275546
O O5 0.741006 0.801961 0.911829
O O6 0.685482 0.098880 0.856782
O O7 0.369101 0.584463 0.256748
O O8 0.289393 0.511956 0.275676
O O9 0.327434 0.500000 0.000000
O O10 0.412729 0.500000 0.000000
#
# Coordination Sequence:
#
# PCOD9417999 Si02
#       5
#     8   4   8   8   4
#     4  11  25  46  67  95 137 176 209 266 343 401
#     4  10  20  38  64  82 125 172 203 264 318 374
#     4   9  21  37  60  89 124 166 210 263 321 366
#     4  11  24  41  71 101 129 170 225 276 319 388
#     4  10  20  38  58  92 120 168 210 252 314 380
#
# _framework density 21.256886999999999
#
# number of rings (size 3 to 8) (size 9 to 14) (size 15 to 20)
#    0.000    1.750    0.000    3.000   10.500    5.000 
#    2.250    7.500    0.000    0.000    0.000    0.000 
#    0.000    0.000    0.000    0.000    0.000    0.000 
#
# Total GULP energy -178674.534946 kJ/mol
# GULP energy per Si atom -5583.579217 kJ/mol
# Density = 2.120851 g / cm^3
# Si number density = 21.256887 Si / 1000 Ang^3
#
#
#
# Elastic Constant Matrix: (Units=GPa)
#
#
# Indices 1 2 3 4 5 6 
#
# 1 236.3181 97.8266 25.6376 0.0000 0.0000 0.0000
# 2 97.8266 127.4784 6.4282 0.0000 0.0000 0.0000
# 3 25.6376 6.4282 25.3691 0.0000 0.0000 0.0000
# 4 0.0000 0.0000 0.0000 40.7452 0.0000 0.0000
# 5 0.0000 0.0000 0.0000 0.0000 26.1762 0.0000
# 6 0.0000 0.0000 0.0000 0.0000 0.0000 13.4994
#
#
#
# Elastic Compliance Matrix: (Units=1/GPa)
#
#
# Indices 1 2 3 4 5 6 
#
# 1 0.006938 -0.005035 -0.005736 0.000000 0.000000 0.000000
# 2 -0.005035 0.011600 0.002149 0.000000 0.000000 0.000000
# 3 -0.005736 0.002149 0.044670 0.000000 0.000000 0.000000
# 4 0.000000 0.000000 0.000000 0.024543 0.000000 0.000000
# 5 0.000000 0.000000 0.000000 0.000000 0.038203 0.000000
# 6 0.000000 0.000000 0.000000 0.000000 0.000000 0.074078
#
#
# Mechanical properties :
#
#
# Convention : Reuss Voigt Hill
#
# Bulk Modulus (GPa) = 21.75585 72.10558 46.93071
# Shear Modulus (GPa) = 21.49647 33.36904 27.43275
#
# Velocity S-wave (km/s) = 3.18350 3.96637 3.59630
# Velocity P-wave (km/s) = 4.87543 7.41423 6.27458
#
# Compressibility (1/GPa) = 0.04596466
#
# Stress axis : x y z
#
# Youngs Moduli (GPa) = 144.12970 86.20664 22.38638
#
# Poissons Ratio (x) = 0.43406 0.12840
# Poissons Ratio (y) = 0.72571 -0.04811
# Poissons Ratio (z) = 0.82670 -0.18527
#
# Static dielectric constant tensor:
#      x y z
#    x 1.765700 0.000000 0.000000 
#    y 0.000000 1.865140 0.000000 
#    z 0.000000 0.000000 1.778690 
# 
# From -- ./inp_files/12707.got.cif
#   From: 2010.05.17/outbox.cif.g08.bks.cpg/sg53_7_cif.got.tgz:12707.got - 2010.06.03 12:45:16.
