data_PCOD9417604
_publ_section_title
;
Structure prediction by ZEFSAII (Michael W. Deem and Ramdas Pophale) SiO2 
 PCOD9417604
Probable space group: P M N A
;
_chemical_formula_sum "Si O2"
_cell_formula_units_Z 48
_cell_length_a 8.635321
_cell_length_b 31.771853
_cell_length_c 9.516968
_cell_angle_alpha 90.000000
_cell_angle_beta 90.000000
_cell_angle_gamma 90.000000
_cell_volume 2611.076763
_symmetry_space_group_name_H-M "P M N A"
_symmetry_group_IT_number 53
_symmetry_cell_setting 'orthorhombic'
loop_
_space_group_symop_operation_xyz
x,y,z
1/2-x,-y,1/2+z
x,-y,-z
1/2-x,y,1/2-z
-x,-y,-z
1/2+x,y,1/2-z
-x,y,z
1/2+x,-y,1/2+z
loop_
_atom_site_type_symbol
_atom_site_label
_atom_site_fract_x
_atom_site_fract_y
_atom_site_fract_z
Si Si1 0.813941 0.370145 0.407857
Si Si2 0.313811 0.133675 0.591812
Si Si3 0.686660 0.961309 0.405963
Si Si4 0.185828 0.539976 0.906678
Si Si5 0.186819 0.709874 0.407528
Si Si6 0.186036 0.209454 0.407590
O O1 0.750000 0.363340 0.250000
O O2 0.752646 0.415450 0.458263
O O3 0.765305 0.332476 0.510512
O O4 0.000000 0.371179 0.400551
O O5 0.250000 0.140292 0.750000
O O6 0.500000 0.136760 0.595473
O O7 0.269927 0.085974 0.547035
O O8 0.246360 0.168052 0.486781
O O9 0.750000 0.966520 0.250000
O O10 0.500000 0.962599 0.402709
O O11 0.742733 0.000000 0.500000
O O12 0.250000 0.534172 0.750000
O O13 0.000000 0.542796 0.902581
O O14 0.230694 0.500000 0.000000
O O15 0.250000 0.711797 0.250000
O O16 0.235299 0.750159 0.499844
O O17 0.000000 0.710080 0.401025
O O18 0.250000 0.212217 0.250000
O O19 0.000000 0.208759 0.402519
#
# Coordination Sequence:
#
# PCOD9417604 Si02
#       6
#     8   8   8   8   8   8
#     4  10  20  36  57  81 108 140 179 221 267 316
#     4  10  20  36  57  81 110 144 183 226 272 323
#     4   9  19  35  54  78 108 142 180 222 269 320
#     4  10  21  36  55  80 109 143 181 220 266 317
#     4  10  23  39  57  82 110 142 179 220 267 320
#     4  11  23  39  58  82 111 144 182 223 272 325
#
# _framework density 18.383219
#
# number of rings (size 3 to 8) (size 9 to 14) (size 15 to 20)
#    0.000    2.000    0.000    4.000    0.000    7.667 
#    0.000    5.000    0.000    0.000    0.000    0.000 
#    0.000    0.000    0.000    0.000    0.000    0.000 
#
# Total GULP energy -268057.667023 kJ/mol
# GULP energy per Si atom -5584.534730 kJ/mol
# Density = 1.834138 g / cm^3
# Si number density = 18.383219 Si / 1000 Ang^3
#
#
#
# Elastic Constant Matrix: (Units=GPa)
#
#
# Indices 1 2 3 4 5 6 
#
# 1 43.7221 52.3314 37.5249 0.0000 0.0000 0.0000
# 2 52.3314 216.1701 128.9112 0.0000 0.0000 0.0000
# 3 37.5249 128.9112 130.0982 0.0000 0.0000 0.0000
# 4 0.0000 0.0000 0.0000 41.6811 0.0000 0.0000
# 5 0.0000 0.0000 0.0000 0.0000 32.1350 0.0000
# 6 0.0000 0.0000 0.0000 0.0000 0.0000 28.8379
#
#
#
# Elastic Compliance Matrix: (Units=1/GPa)
#
#
# Indices 1 2 3 4 5 6 
#
# 1 0.032999 -0.005653 -0.003917 0.000000 0.000000 0.000000
# 2 -0.005653 0.012276 -0.010534 0.000000 0.000000 0.000000
# 3 -0.003917 -0.010534 0.019254 0.000000 0.000000 0.000000
# 4 0.000000 0.000000 0.000000 0.023992 0.000000 0.000000
# 5 0.000000 0.000000 0.000000 0.000000 0.031119 0.000000
# 6 0.000000 0.000000 0.000000 0.000000 0.000000 0.034677
#
#
# Mechanical properties :
#
#
# Convention : Reuss Voigt Hill
#
# Bulk Modulus (GPa) = 41.11418 91.94727 66.53073
# Shear Modulus (GPa) = 24.67546 31.94566 28.31056
#
# Velocity S-wave (km/s) = 3.66769 4.17317 3.92857
# Velocity P-wave (km/s) = 6.35213 8.56423 7.53975
#
# Compressibility (1/GPa) = 0.02432251
#
# Stress axis : x y z
#
# Youngs Moduli (GPa) = 30.30361 81.45934 51.93777
#
# Poissons Ratio (x) = 0.46047 0.20344
# Poissons Ratio (y) = 0.17130 0.54709
# Poissons Ratio (z) = 0.11870 0.85806
#
# Static dielectric constant tensor:
#      x y z
#    x 1.623310 0.000000 0.000000 
#    y 0.000000 1.644960 0.000000 
#    z 0.000000 0.000000 1.586590 
# 
# From -- ./inp_files/6744.got.cif
#   From: 2010.05.17/outbox.cif.g08.bks.cpg/sg53_4_cif.got.tgz:6744.got - 2010.06.03 12:45:16.
