data_PCOD9417043
_publ_section_title
;
Structure prediction by ZEFSAII (Michael W. Deem and Ramdas Pophale) SiO2 
 PCOD9417043
Probable space group: P M N A
;
_chemical_formula_sum "Si O2"
_cell_formula_units_Z 48
_cell_length_a 8.763279
_cell_length_b 16.857129
_cell_length_c 18.372660
_cell_angle_alpha 90.000000
_cell_angle_beta 90.000000
_cell_angle_gamma 90.000000
_cell_volume 2714.077765
_symmetry_space_group_name_H-M "P M N A"
_symmetry_group_IT_number 53
_symmetry_cell_setting 'orthorhombic'
loop_
_space_group_symop_operation_xyz
x,y,z
1/2-x,-y,1/2+z
x,-y,-z
1/2-x,y,1/2-z
-x,-y,-z
1/2+x,y,1/2-z
-x,y,z
1/2+x,-y,1/2+z
loop_
_atom_site_type_symbol
_atom_site_label
_atom_site_fract_x
_atom_site_fract_y
_atom_site_fract_z
Si Si1 0.183428 0.839704 0.327872
Si Si2 0.182871 0.088275 0.973255
Si Si3 0.683410 0.349150 0.330531
Si Si4 0.183645 0.492345 0.916072
Si Si5 0.682874 0.239554 0.048554
Si Si6 0.182444 0.325276 0.602412
O O1 0.250000 0.862695 0.250000
O O2 0.248111 0.891795 0.394121
O O3 0.227648 0.748172 0.346158
O O4 0.000000 0.844046 0.328215
O O5 0.000000 0.096586 0.970212
O O6 0.250852 0.154017 0.027717
O O7 0.220301 0.000000 0.000000
O O8 0.750000 0.345607 0.250000
O O9 0.500000 0.346885 0.328671
O O10 0.731942 0.431342 0.369743
O O11 0.745570 0.277960 0.380151
O O12 0.241611 0.409530 0.883821
O O13 0.000000 0.491026 0.917288
O O14 0.237447 0.500000 0.000000
O O15 0.500000 0.235489 0.053806
O O16 0.721267 0.296103 0.979455
O O17 0.000000 0.333812 0.606691
#
# Coordination Sequence:
#
# PCOD9417043 Si02
#       6
#     8   8   8   8   8   8
#     4  10  21  37  57  85 118 152 188 231 286 336
#     4  10  21  38  62  90 117 148 186 227 276 337
#     4  11  23  38  55  78 111 148 190 238 287 335
#     4  10  20  34  53  78 107 146 192 235 280 329
#     4  10  20  36  58  83 110 144 185 227 276 332
#     4   9  19  33  53  80 108 143 185 227 274 330
#
# _framework density 17.685566999999999
#
# number of rings (size 3 to 8) (size 9 to 14) (size 15 to 20)
#    0.000    2.000    1.667    3.000    0.000    7.000 
#    0.000    4.167    0.000    4.000    0.000    0.000 
#    0.000    0.000    0.000    0.000    0.000    0.000 
#
# Total GULP energy -268017.439822 kJ/mol
# GULP energy per Si atom -5583.696663 kJ/mol
# Density = 1.764531 g / cm^3
# Si number density = 17.685567 Si / 1000 Ang^3
#
#
#
# Elastic Constant Matrix: (Units=GPa)
#
#
# Indices 1 2 3 4 5 6 
#
# 1 52.9686 54.8444 53.2585 0.0000 0.0000 0.0000
# 2 54.8444 148.0758 84.6597 0.0000 0.0000 0.0000
# 3 53.2585 84.6597 144.7466 0.0000 0.0000 0.0000
# 4 0.0000 0.0000 0.0000 18.1251 0.0000 0.0000
# 5 0.0000 0.0000 0.0000 0.0000 13.2068 0.0000
# 6 0.0000 0.0000 0.0000 0.0000 0.0000 25.4098
#
#
#
# Elastic Compliance Matrix: (Units=1/GPa)
#
#
# Indices 1 2 3 4 5 6 
#
# 1 0.036132 -0.008686 -0.008214 0.000000 0.000000 0.000000
# 2 -0.008686 0.012234 -0.003960 0.000000 0.000000 0.000000
# 3 -0.008214 -0.003960 0.012247 0.000000 0.000000 0.000000
# 4 0.000000 0.000000 0.000000 0.055172 0.000000 0.000000
# 5 0.000000 0.000000 0.000000 0.000000 0.075719 0.000000
# 6 0.000000 0.000000 0.000000 0.000000 0.000000 0.039355
#
#
# Mechanical properties :
#
#
# Convention : Reuss Voigt Hill
#
# Bulk Modulus (GPa) = 52.92888 81.25736 67.09312
# Shear Modulus (GPa) = 17.92907 21.55022 19.73964
#
# Velocity S-wave (km/s) = 3.18743 3.49452 3.34450
# Velocity P-wave (km/s) = 6.59841 7.89478 7.27552
#
# Compressibility (1/GPa) = 0.01889328
#
# Stress axis : x y z
#
# Youngs Moduli (GPa) = 27.67623 81.73681 81.65389
#
# Poissons Ratio (x) = 0.71000 0.67071
# Poissons Ratio (y) = 0.24041 0.32332
# Poissons Ratio (z) = 0.22733 0.32364
#
# Static dielectric constant tensor:
#      x y z
#    x 1.590510 0.000000 0.000000 
#    y 0.000000 1.586420 0.000000 
#    z 0.000000 0.000000 1.589360 
# 
# From -- ./inp_files/26148.got.cif
#   From: 2010.05.17/outbox.cif.g08.bks.cpg/sg53_14_cif.got.tgz:26148.got - 2010.06.03 12:45:16.
