data_PCOD9417100
_publ_section_title
;
Structure prediction by ZEFSAII (Michael W. Deem and Ramdas Pophale) SiO2 
 PCOD9417100
Probable space group: P M N A
;
_chemical_formula_sum "Si O2"
_cell_formula_units_Z 64
_cell_length_a 8.617878
_cell_length_b 22.323404
_cell_length_c 16.667570
_cell_angle_alpha 90.000000
_cell_angle_beta 90.000000
_cell_angle_gamma 90.000000
_cell_volume 3206.513321
_symmetry_space_group_name_H-M "P M N A"
_symmetry_group_IT_number 53
_symmetry_cell_setting 'orthorhombic'
loop_
_space_group_symop_operation_xyz
x,y,z
1/2-x,-y,1/2+z
x,-y,-z
1/2-x,y,1/2-z
-x,-y,-z
1/2+x,y,1/2-z
-x,y,z
1/2+x,-y,1/2+z
loop_
_atom_site_type_symbol
_atom_site_label
_atom_site_fract_x
_atom_site_fract_y
_atom_site_fract_z
Si Si1 0.684229 0.254271 0.090304
Si Si2 0.810824 0.499422 0.092641
Si Si3 0.185831 0.867988 0.163763
Si Si4 0.312634 0.626294 0.337955
Si Si5 0.814607 0.627423 0.837823
Si Si6 0.686548 0.748344 0.419241
Si Si7 0.185766 0.132067 0.335738
Si Si8 0.815159 0.071167 0.003232
O O1 0.500000 0.260956 0.097046
O O2 0.762242 0.317929 0.106876
O O3 0.735579 0.201421 0.150097
O O4 0.731287 0.234230 0.001427
O O5 0.757862 0.560903 0.133542
O O6 0.757698 0.437847 0.133261
O O7 0.000000 0.499404 0.095310
O O8 0.764898 0.500000 0.000000
O O9 0.250000 0.887750 0.250000
O O10 0.222668 0.797904 0.147788
O O11 0.240201 0.901419 0.082224
O O12 0.000000 0.874688 0.166698
O O13 0.250000 0.638141 0.250000
O O14 0.500000 0.625494 0.337119
O O15 0.265802 0.681517 0.394202
O O16 0.750000 0.639524 0.750000
O O17 0.000000 0.625758 0.836448
O O18 0.500000 0.749176 0.431535
O O19 0.250000 0.110358 0.250000
O O20 0.240877 0.097192 0.415461
O O21 0.000000 0.130130 0.333139
O O22 0.000000 0.083928 0.008129
O O23 0.792495 0.000000 0.000000
#
# Coordination Sequence:
#
# PCOD9417100 Si02
#       8
#     8   8   8   8   8   8   8   8
#     4  11  23  38  59  88 118 152 197 249 304 356
#     4   9  18  34  54  76 104 143 189 236 288 353
#     4  10  21  37  60  90 124 162 203 249 301 358
#     4  10  20  34  54  80 110 146 190 236 292 353
#     4  11  22  36  56  80 111 150 191 239 294 353
#     4  10  20  36  59  85 114 154 197 243 299 357
#     4  11  24  41  64  93 125 164 206 255 309 363
#     4  10  22  42  66  93 128 167 207 251 301 358
#
# _framework density 19.959375000000001
#
# number of rings (size 3 to 8) (size 9 to 14) (size 15 to 20)
#    0.000    1.750    1.250    3.000    0.000    6.750 
#    0.000    1.875    0.000    2.625    0.000    0.000 
#    0.000    0.000    0.000    0.000    0.000    0.000 
#
# Total GULP energy -357399.501369 kJ/mol
# GULP energy per Si atom -5584.367209 kJ/mol
# Density = 1.991395 g / cm^3
# Si number density = 19.959375 Si / 1000 Ang^3
#
#
#
# Elastic Constant Matrix: (Units=GPa)
#
#
# Indices 1 2 3 4 5 6 
#
# 1 18.8127 30.3976 25.8464 0.0000 0.0000 0.0000
# 2 30.3976 75.4492 41.3229 0.0000 0.0000 0.0000
# 3 25.8464 41.3229 141.0735 0.0000 0.0000 0.0000
# 4 0.0000 0.0000 0.0000 20.7027 0.0000 0.0000
# 5 0.0000 0.0000 0.0000 0.0000 32.1528 0.0000
# 6 0.0000 0.0000 0.0000 0.0000 0.0000 20.7618
#
#
#
# Elastic Compliance Matrix: (Units=1/GPa)
#
#
# Indices 1 2 3 4 5 6 
#
# 1 0.170895 -0.061583 -0.013271 0.000000 0.000000 0.000000
# 2 -0.061583 0.037978 0.000158 0.000000 0.000000 0.000000
# 3 -0.013271 0.000158 0.009474 0.000000 0.000000 0.000000
# 4 0.000000 0.000000 0.000000 0.048303 0.000000 0.000000
# 5 0.000000 0.000000 0.000000 0.000000 0.031101 0.000000
# 6 0.000000 0.000000 0.000000 0.000000 0.000000 0.048165
#
#
# Mechanical properties :
#
#
# Convention : Reuss Voigt Hill
#
# Bulk Modulus (GPa) = 14.50227 47.82991 31.16609
# Shear Modulus (GPa) = 9.64705 23.90802 16.77753
#
# Velocity S-wave (km/s) = 2.20087 3.46473 2.90243
# Velocity P-wave (km/s) = 3.70677 6.32625 5.18467
#
# Compressibility (1/GPa) = 0.06895473
#
# Stress axis : x y z
#
# Youngs Moduli (GPa) = 5.85156 26.33085 105.55623
#
# Poissons Ratio (x) = 1.62153 1.40087
# Poissons Ratio (y) = 0.36036 -0.01670
# Poissons Ratio (z) = 0.07766 -0.00417
#
# Static dielectric constant tensor:
#      x y z
#    x 1.682580 0.000000 0.000000 
#    y 0.000000 1.730710 0.000000 
#    z 0.000000 0.000000 1.698310 
# 
# From -- ./inp_files/20858.got.cif
#   From: 2010.05.17/outbox.cif.g08.bks.cpg/sg53_11_cif.got.tgz:20858.got - 2010.06.03 12:45:16.
