data_PCOD9417791
_publ_section_title
;
Structure prediction by ZEFSAII (Michael W. Deem and Ramdas Pophale) SiO2 
 PCOD9417791
Probable space group: P M N A
;
_chemical_formula_sum "Si O2"
_cell_formula_units_Z 40
_cell_length_a 15.167056
_cell_length_b 12.296820
_cell_length_c 8.817487
_cell_angle_alpha 90.000000
_cell_angle_beta 90.000000
_cell_angle_gamma 90.000000
_cell_volume 1644.519147
_symmetry_space_group_name_H-M "P M N A"
_symmetry_group_IT_number 53
_symmetry_cell_setting 'orthorhombic'
loop_
_space_group_symop_operation_xyz
x,y,z
1/2-x,-y,1/2+z
x,-y,-z
1/2-x,y,1/2-z
-x,-y,-z
1/2+x,y,1/2-z
-x,y,z
1/2+x,-y,1/2+z
loop_
_atom_site_type_symbol
_atom_site_label
_atom_site_fract_x
_atom_site_fract_y
_atom_site_fract_z
Si Si1 0.607616 0.293075 0.287895
Si Si2 0.392562 0.526045 0.171205
Si Si3 0.893252 0.735636 0.136517
Si Si4 0.903696 0.107187 0.411939
Si Si5 0.658443 0.974101 0.325867
O O1 0.500000 0.284981 0.280162
O O2 0.630463 0.418643 0.265039
O O3 0.635359 0.264273 0.459423
O O4 0.639677 0.220620 0.142251
O O5 0.500000 0.534003 0.164314
O O6 0.363186 0.634182 0.260377
O O7 0.362322 0.500000 0.000000
O O8 0.861536 0.848900 0.206547
O O9 0.000000 0.734161 0.134291
O O10 0.000000 0.130093 0.482105
O O11 0.867242 0.000000 0.500000
O O12 0.911925 0.053250 0.247063
O O13 0.750000 0.005700 0.250000
O O14 0.661130 0.000000 0.500000
#
# Coordination Sequence:
#
# PCOD9417791 Si02
#       5
#     8   8   8   8   8
#     4   9  17  32  55  86 121 154 190 237 298 356
#     4   9  18  31  53  89 125 153 187 241 303 357
#     4  10  20  36  62  89 117 154 198 247 299 366
#     4  10  21  36  60  92 122 153 196 250 300 355
#     4  12  25  42  60  83 119 159 204 249 308 368
#
# _framework density 24.323219999999999
#
# number of rings (size 3 to 8) (size 9 to 14) (size 15 to 20)
#    0.000    2.000    2.000    1.800    2.800    3.200 
#    0.000    0.000    0.000    3.600    0.000    0.000 
#    0.000    0.000    0.000    0.000    0.000    0.000 
#
# Total GULP energy -223130.983330 kJ/mol
# GULP energy per Si atom -5578.274583 kJ/mol
# Density = 2.426786 g / cm^3
# Si number density = 24.323220 Si / 1000 Ang^3
#
#
#
# Elastic Constant Matrix: (Units=GPa)
#
#
# Indices 1 2 3 4 5 6 
#
# 1 52.7292 0.9327 9.9132 0.0000 0.0000 0.0000
# 2 0.9327 160.4301 -2.1005 0.0000 0.0000 0.0000
# 3 9.9132 -2.1005 57.6423 0.0000 0.0000 0.0000
# 4 0.0000 0.0000 0.0000 57.4844 0.0000 0.0000
# 5 0.0000 0.0000 0.0000 0.0000 -4.2639 0.0000
# 6 0.0000 0.0000 0.0000 0.0000 0.0000 4.0618
#
#
#
# Elastic Compliance Matrix: (Units=1/GPa)
#
#
# Indices 1 2 3 4 5 6 
#
# 1 0.019603 -0.000158 -0.003377 0.000000 0.000000 0.000000
# 2 -0.000158 0.006237 0.000254 0.000000 0.000000 0.000000
# 3 -0.003377 0.000254 0.017938 0.000000 0.000000 0.000000
# 4 0.000000 0.000000 0.000000 0.017396 0.000000 0.000000
# 5 0.000000 0.000000 0.000000 0.000000 -0.234529 0.000000
# 6 0.000000 0.000000 0.000000 0.000000 0.000000 0.246199
#
#
# Mechanical properties :
#
#
# Convention : Reuss Voigt Hill
#
# Bulk Modulus (GPa) = 26.86936 32.03249 29.45093
# Shear Modulus (GPa) = 54.45985 28.92687 41.69336
#
# Velocity S-wave (km/s) = 4.73695 3.45232 4.14471
# Velocity P-wave (km/s) = 6.40227 5.39346 5.91939
#
# Compressibility (1/GPa) = 0.03721711
#
# Stress axis : x y z
#
# Youngs Moduli (GPa) = 51.01387 160.32074 55.74632
#
# Poissons Ratio (x) = 0.02536 0.18825
# Poissons Ratio (y) = 0.00807 -0.01419
# Poissons Ratio (z) = 0.17227 -0.04080
#
# Static dielectric constant tensor:
#      x y z
#    x 1.983360 0.000000 0.000000 
#    y 0.000000 1.932280 0.000000 
#    z 0.000000 0.000000 2.000260 
# 
# From -- ./inp_files/9602.got.cif
#   From: 2010.05.17/outbox.cif.g08.bks.cpg/sg53_5_cif.got.tgz:9602.got - 2010.06.03 12:45:16.
