data_PCOD9417925
_publ_section_title
;
Structure prediction by ZEFSAII (Michael W. Deem and Ramdas Pophale) SiO2 
 PCOD9417925
Probable space group: P M N A
;
_chemical_formula_sum "Si O2"
_cell_formula_units_Z 40
_cell_length_a 15.346480
_cell_length_b 7.406200
_cell_length_c 14.940542
_cell_angle_alpha 90.000000
_cell_angle_beta 90.000000
_cell_angle_gamma 90.000000
_cell_volume 1698.128560
_symmetry_space_group_name_H-M "P M N A"
_symmetry_group_IT_number 53
_symmetry_cell_setting 'orthorhombic'
loop_
_space_group_symop_operation_xyz
x,y,z
1/2-x,-y,1/2+z
x,-y,-z
1/2-x,y,1/2-z
-x,-y,-z
1/2+x,y,1/2-z
-x,y,z
1/2+x,-y,1/2+z
loop_
_atom_site_type_symbol
_atom_site_label
_atom_site_fract_x
_atom_site_fract_y
_atom_site_fract_z
Si Si1 0.094126 0.165333 0.068512
Si Si2 0.245849 0.684981 0.035009
Si Si3 0.099919 0.236654 0.267411
Si Si4 0.343851 0.362634 0.718345
Si Si5 0.100112 0.891469 0.368100
O O1 0.099228 0.127222 0.173678
O O2 0.000000 0.265937 0.057816
O O3 0.185968 0.252080 0.045976
O O4 0.089898 0.000000 0.000000
O O5 0.170315 0.655861 0.111999
O O6 0.324729 0.807988 0.069320
O O7 0.286880 0.500000 0.000000
O O8 0.143447 0.429404 0.248266
O O9 0.000000 0.280434 0.289894
O O10 0.130357 0.093334 0.340519
O O11 0.250000 0.299785 0.750000
O O12 0.403846 0.234350 0.778286
O O13 0.000000 0.896951 0.402841
#
# Coordination Sequence:
#
# PCOD9417925 Si02
#       5
#     8   8   8   8   8
#     4  10  21  36  60  94 128 164 207 266 335 391
#     4  11  22  40  62  97 133 170 212 268 334 387
#     4  10  20  37  61  87 119 163 213 265 318 376
#     4  10  21  36  60  90 123 166 213 263 316 376
#     4  10  23  42  64  92 129 174 221 262 310 382
#
# _framework density 23.555343000000001
#
# number of rings (size 3 to 8) (size 9 to 14) (size 15 to 20)
#    0.000    1.800    2.000    1.800    0.000    8.000 
#    0.000    0.000    0.000    0.600    0.000    1.400 
#    0.000    0.000    0.000    0.000    0.000    0.000 
#
# Total GULP energy -222947.807386 kJ/mol
# GULP energy per Si atom -5573.695185 kJ/mol
# Density = 2.350173 g / cm^3
# Si number density = 23.555343 Si / 1000 Ang^3
#
#
#
# Elastic Constant Matrix: (Units=GPa)
#
#
# Indices 1 2 3 4 5 6 
#
# 1 138.0878 39.5960 36.6330 0.0000 0.0000 0.0000
# 2 39.5960 73.7144 17.9426 0.0000 0.0000 0.0000
# 3 36.6330 17.9426 49.6516 0.0000 0.0000 0.0000
# 4 0.0000 0.0000 0.0000 38.3972 0.0000 0.0000
# 5 0.0000 0.0000 0.0000 0.0000 -107.4410 0.0000
# 6 0.0000 0.0000 0.0000 0.0000 0.0000 65.3334
#
#
#
# Elastic Compliance Matrix: (Units=1/GPa)
#
#
# Indices 1 2 3 4 5 6 
#
# 1 0.009928 -0.003892 -0.005918 0.000000 0.000000 0.000000
# 2 -0.003892 0.016400 -0.003055 0.000000 0.000000 0.000000
# 3 -0.005918 -0.003055 0.025611 0.000000 0.000000 0.000000
# 4 0.000000 0.000000 0.000000 0.026044 0.000000 0.000000
# 5 0.000000 0.000000 0.000000 0.000000 -0.009307 0.000000
# 6 0.000000 0.000000 0.000000 0.000000 0.000000 0.015306
#
#
# Mechanical properties :
#
#
# Convention : Reuss Voigt Hill
#
# Bulk Modulus (GPa) = 38.15606 49.97745 44.06676
# Shear Modulus (GPa) = 42.21266 10.41007 26.31136
#
# Velocity S-wave (km/s) = 4.23787 2.10452 3.34578
# Velocity P-wave (km/s) = 6.33874 5.21233 5.80294
#
# Compressibility (1/GPa) = 0.02620815
#
# Stress axis : x y z
#
# Youngs Moduli (GPa) = 100.72621 60.97494 39.04604
#
# Poissons Ratio (x) = 0.23733 0.23109
# Poissons Ratio (y) = 0.39205 0.11928
# Poissons Ratio (z) = 0.59613 0.18627
#
# Static dielectric constant tensor:
#      x y z
#    x 1.888110 0.000000 0.000000 
#    y 0.000000 1.969160 0.000000 
#    z 0.000000 0.000000 1.996550 
# 
# From -- ./inp_files/22410.got.cif
#   From: 2010.05.17/outbox.cif.g08.bks.cpg/sg53_12_cif.got.tgz:22410.got - 2010.06.03 12:45:16.
