data_PCOD9417218
_publ_section_title
;
Structure prediction by ZEFSAII (Michael W. Deem and Ramdas Pophale) SiO2 
 PCOD9417218
Probable space group: P M N A
;
_chemical_formula_sum "Si O2"
_cell_formula_units_Z 48
_cell_length_a 15.808176
_cell_length_b 8.151445
_cell_length_c 19.444711
_cell_angle_alpha 90.000000
_cell_angle_beta 90.000000
_cell_angle_gamma 90.000000
_cell_volume 2505.635294
_symmetry_space_group_name_H-M "P M N A"
_symmetry_group_IT_number 53
_symmetry_cell_setting 'orthorhombic'
loop_
_space_group_symop_operation_xyz
x,y,z
1/2-x,-y,1/2+z
x,-y,-z
1/2-x,y,1/2-z
-x,-y,-z
1/2+x,y,1/2-z
-x,y,z
1/2+x,-y,1/2+z
loop_
_atom_site_type_symbol
_atom_site_label
_atom_site_fract_x
_atom_site_fract_y
_atom_site_fract_z
Si Si1 0.750457 0.133666 0.050817
Si Si2 0.670676 0.372553 0.551723
Si Si3 0.173811 0.749216 0.692986
Si Si4 0.903540 0.934002 0.116611
Si Si5 0.901881 0.089019 0.724615
Si Si6 0.701581 0.390003 0.821859
O O1 0.705103 0.191270 0.118806
O O2 0.838506 0.054348 0.078473
O O3 0.766339 0.285172 0.001506
O O4 0.709057 0.000000 0.000000
O O5 0.627699 0.500000 0.500000
O O6 0.605001 0.238659 0.578327
O O7 0.729863 0.417681 0.617104
O O8 0.250000 0.754338 0.750000
O O9 0.147205 0.558665 0.684964
O O10 0.109909 0.894972 0.711687
O O11 0.875912 0.898068 0.195030
O O12 0.000000 0.994409 0.116604
O O13 0.848570 0.216110 0.677273
O O14 0.000000 0.134249 0.718879
O O15 0.750000 0.381203 0.750000
#
# Coordination Sequence:
#
# PCOD9417218 Si02
#       6
#     8   8   8   8   8   8
#     4  10  20  34  58  84 114 150 196 239 292 350
#     4  11  21  36  59  88 114 151 201 242 297 351
#     4  11  21  37  62  88 113 153 202 249 288 346
#     4  10  21  37  55  82 125 164 191 234 294 358
#     4  11  22  38  62  89 121 159 198 242 300 354
#     4  11  22  39  64  87 118 155 203 253 291 340
#
# _framework density 19.156818999999999
#
# number of rings (size 3 to 8) (size 9 to 14) (size 15 to 20)
#    0.000    1.333    5.000    2.500    0.000    4.000 
#    0.000    0.000    0.000    5.000    0.000    0.000 
#    0.000    0.000    0.000    0.000    0.000    0.000 
#
# Total GULP energy -267225.596676 kJ/mol
# GULP energy per Si atom -5567.199931 kJ/mol
# Density = 1.911322 g / cm^3
# Si number density = 19.156819 Si / 1000 Ang^3
#
#
#
# Elastic Constant Matrix: (Units=GPa)
#
#
# Indices 1 2 3 4 5 6 
#
# 1 23.7686 12.5398 13.9841 0.0000 0.0000 0.0000
# 2 12.5398 75.6228 5.3272 0.0000 0.0000 0.0000
# 3 13.9841 5.3272 105.3666 0.0000 0.0000 0.0000
# 4 0.0000 0.0000 0.0000 28.9076 0.0000 0.0000
# 5 0.0000 0.0000 0.0000 0.0000 10.0642 0.0000
# 6 0.0000 0.0000 0.0000 0.0000 0.0000 3.5351
#
#
#
# Elastic Compliance Matrix: (Units=1/GPa)
#
#
# Indices 1 2 3 4 5 6 
#
# 1 0.049864 -0.007830 -0.006222 0.000000 0.000000 0.000000
# 2 -0.007830 0.014500 0.000306 0.000000 0.000000 0.000000
# 3 -0.006222 0.000306 0.010301 0.000000 0.000000 0.000000
# 4 0.000000 0.000000 0.000000 0.034593 0.000000 0.000000
# 5 0.000000 0.000000 0.000000 0.000000 0.099362 0.000000
# 6 0.000000 0.000000 0.000000 0.000000 0.000000 0.282880
#
#
# Mechanical properties :
#
#
# Convention : Reuss Voigt Hill
#
# Bulk Modulus (GPa) = 21.19846 29.82891 25.51369
# Shear Modulus (GPa) = 9.35074 20.02849 14.68962
#
# Velocity S-wave (km/s) = 2.21173 3.23693 2.77214
# Velocity P-wave (km/s) = 4.19668 5.43829 4.85732
#
# Compressibility (1/GPa) = 0.04717324
#
# Stress axis : x y z
#
# Youngs Moduli (GPa) = 20.05453 68.96379 97.07819
#
# Poissons Ratio (x) = 0.54000 0.60402
# Poissons Ratio (y) = 0.15703 -0.02971
# Poissons Ratio (z) = 0.12478 -0.02111
#
# Static dielectric constant tensor:
#      x y z
#    x 1.666720 0.000000 0.000000 
#    y 0.000000 1.843160 0.000000 
#    z 0.000000 0.000000 1.735450 
# 
# From -- ./inp_files/28239.got.cif
#   From: 2010.05.17/outbox.cif.g08.bks.cpg/sg53_15_cif.got.tgz:28239.got - 2010.06.03 12:45:16.
