data_PCOD9417454
_publ_section_title
;
Structure prediction by ZEFSAII (Michael W. Deem and Ramdas Pophale) SiO2 
 PCOD9417454
Probable space group: P M N A
;
_chemical_formula_sum "Si O2"
_cell_formula_units_Z 56
_cell_length_a 7.586396
_cell_length_b 15.014491
_cell_length_c 21.033231
_cell_angle_alpha 90.000000
_cell_angle_beta 90.000000
_cell_angle_gamma 90.000000
_cell_volume 2395.808570
_symmetry_space_group_name_H-M "P M N A"
_symmetry_group_IT_number 53
_symmetry_cell_setting 'orthorhombic'
loop_
_space_group_symop_operation_xyz
x,y,z
1/2-x,-y,1/2+z
x,-y,-z
1/2-x,y,1/2-z
-x,-y,-z
1/2+x,y,1/2-z
-x,y,z
1/2+x,-y,1/2+z
loop_
_atom_site_type_symbol
_atom_site_label
_atom_site_fract_x
_atom_site_fract_y
_atom_site_fract_z
Si Si1 0.295914 0.345543 0.340135
Si Si2 0.290237 0.536195 0.316913
Si Si3 0.708336 0.004280 0.073602
Si Si4 0.784548 0.398616 0.481619
Si Si5 0.211975 0.860634 0.324080
Si Si6 0.210250 0.147943 0.178608
Si Si7 0.200595 0.694176 0.399524
O O1 0.500000 0.342717 0.319227
O O2 0.214069 0.436676 0.314046
O O3 0.286021 0.366364 0.414582
O O4 0.218303 0.249477 0.324000
O O5 0.250000 0.580821 0.250000
O O6 0.500000 0.533526 0.328685
O O7 0.201729 0.596342 0.369353
O O8 0.500000 0.986775 0.067211
O O9 0.726917 0.093634 0.116485
O O10 0.780593 0.930613 0.123342
O O11 0.777218 0.000000 0.000000
O O12 0.731425 0.500000 0.500000
O O13 0.718574 0.325646 0.532402
O O14 0.000000 0.398080 0.480253
O O15 0.250000 0.876758 0.250000
O O16 0.276530 0.764683 0.349994
O O17 0.000000 0.863714 0.326340
O O18 0.250000 0.111106 0.250000
O O19 0.000000 0.150362 0.173089
O O20 0.000000 0.723440 0.411048
#
# Coordination Sequence:
#
# PCOD9417454 Si02
#       7
#     8   8   8   8   8   8   8
#     4  10  23  39  57  85 121 159 201 249 303 361
#     4  11  22  36  55  80 114 155 198 245 295 350
#     4  10  23  43  68  96 125 159 200 251 312 373
#     4  10  20  35  58  86 116 157 204 251 301 354
#     4  10  22  40  62  89 121 157 198 245 299 362
#     4  11  24  43  66  94 126 163 208 258 313 371
#     4  10  21  37  57  85 119 153 198 246 293 355
#
# _framework density 23.374154999999998
#
# number of rings (size 3 to 8) (size 9 to 14) (size 15 to 20)
#    0.000    1.714    1.429    2.143    2.000    6.286 
#    0.000    0.000    0.000    0.000    0.000    0.000 
#    0.000    0.000    0.000    0.000    0.000    0.000 
#
# Total GULP energy -312428.494387 kJ/mol
# GULP energy per Si atom -5579.080257 kJ/mol
# Density = 2.332095 g / cm^3
# Si number density = 23.374155 Si / 1000 Ang^3
#
#
#
# Elastic Constant Matrix: (Units=GPa)
#
#
# Indices 1 2 3 4 5 6 
#
# 1 66.5765 -0.6194 -4.2450 0.0000 0.0000 0.0000
# 2 -0.6194 112.0508 50.3237 0.0000 0.0000 0.0000
# 3 -4.2450 50.3237 194.2701 0.0000 0.0000 0.0000
# 4 0.0000 0.0000 0.0000 36.7984 0.0000 0.0000
# 5 0.0000 0.0000 0.0000 0.0000 24.0119 0.0000
# 6 0.0000 0.0000 0.0000 0.0000 0.0000 15.2013
#
#
#
# Elastic Compliance Matrix: (Units=1/GPa)
#
#
# Indices 1 2 3 4 5 6 
#
# 1 0.015042 -0.000073 0.000348 0.000000 0.000000 0.000000
# 2 -0.000073 0.010100 -0.002618 0.000000 0.000000 0.000000
# 3 0.000348 -0.002618 0.005833 0.000000 0.000000 0.000000
# 4 0.000000 0.000000 0.000000 0.027175 0.000000 0.000000
# 5 0.000000 0.000000 0.000000 0.000000 0.041646 0.000000
# 6 0.000000 0.000000 0.000000 0.000000 0.000000 0.065784
#
#
# Mechanical properties :
#
#
# Convention : Reuss Voigt Hill
#
# Bulk Modulus (GPa) = 38.03965 51.53512 44.78738
# Shear Modulus (GPa) = 27.92844 37.03152 32.47998
#
# Velocity S-wave (km/s) = 3.46040 3.98464 3.73174
# Velocity P-wave (km/s) = 5.68114 6.57765 6.14577
#
# Compressibility (1/GPa) = 0.02628836
#
# Stress axis : x y z
#
# Youngs Moduli (GPa) = 66.48145 99.01144 171.43260
#
# Poissons Ratio (x) = 0.00722 -0.05959
# Poissons Ratio (y) = 0.00485 0.44879
# Poissons Ratio (z) = -0.02311 0.25920
#
# Static dielectric constant tensor:
#      x y z
#    x 1.876300 0.000000 0.000000 
#    y 0.000000 1.931090 0.000000 
#    z 0.000000 0.000000 1.949130 
# 
# From -- ./inp_files/30759.got.cif
#   From: 2010.05.17/outbox.cif.g08.bks.cpg/sg53_16_cif.got.tgz:30759.got - 2010.06.03 12:45:16.
