data_PCOD9417235
_publ_section_title
;
Structure prediction by ZEFSAII (Michael W. Deem and Ramdas Pophale) SiO2 
 PCOD9417235
Probable space group: P M N A
;
_chemical_formula_sum "Si O2"
_cell_formula_units_Z 44
_cell_length_a 25.868602
_cell_length_b 13.828078
_cell_length_c 5.966102
_cell_angle_alpha 90.000000
_cell_angle_beta 90.000000
_cell_angle_gamma 90.000000
_cell_volume 2134.152520
_symmetry_space_group_name_H-M "P M N A"
_symmetry_group_IT_number 53
_symmetry_cell_setting 'orthorhombic'
loop_
_space_group_symop_operation_xyz
x,y,z
1/2-x,-y,1/2+z
x,-y,-z
1/2-x,y,1/2-z
-x,-y,-z
1/2+x,y,1/2-z
-x,y,z
1/2+x,-y,1/2+z
loop_
_atom_site_type_symbol
_atom_site_label
_atom_site_fract_x
_atom_site_fract_y
_atom_site_fract_z
Si Si1 0.381622 0.253829 0.826855
Si Si2 0.400397 0.887816 0.547686
Si Si3 0.655906 0.604366 0.549760
Si Si4 0.500000 0.944725 0.754699
Si Si5 0.192007 0.214949 0.293768
Si Si6 0.941214 0.400052 0.360761
O O1 0.411047 0.174910 0.674982
O O2 0.354935 0.334823 0.672303
O O3 0.420334 0.311633 0.988606
O O4 0.334160 0.206481 0.963266
O O5 0.447342 0.884340 0.725579
O O6 0.348312 0.842160 0.640700
O O7 0.391651 0.000000 0.500000
O O8 0.679176 0.500000 0.500000
O O9 0.687535 0.672854 0.717577
O O10 0.599713 0.590277 0.662153
O O11 0.500000 0.000000 0.500000
O O12 0.500000 0.000000 0.000000
O O13 0.250000 0.182119 0.250000
O O14 0.939697 0.500000 0.500000
O O15 0.000000 0.383673 0.286080
#
# Coordination Sequence:
#
# PCOD9417235 Si02
#       6
#     8   8   8   4   8   8
#     4  10  22  41  64  90 137 166 226 285 345 413
#     4  10  24  44  67 100 132 183 224 285 350 424
#     4  10  20  39  58  89 129 171 218 276 341 409
#     4  10  24  44  74 106 144 187 238 289 350 434
#     4  10  24  45  65  97 129 171 229 295 344 418
#     4  10  20  34  59  91 129 179 226 279 341 413
#
# _framework density 20.617083000000001
#
# number of rings (size 3 to 8) (size 9 to 14) (size 15 to 20)
#    0.000    2.000    1.818    0.000    6.364    4.000 
#   19.636    0.000    0.000    0.000    0.000    0.000 
#    0.000    0.000    0.000    0.000    0.000    0.000 
#
# Total GULP energy -245460.524862 kJ/mol
# GULP energy per Si atom -5578.648292 kJ/mol
# Density = 2.057016 g / cm^3
# Si number density = 20.617083 Si / 1000 Ang^3
#
#
#
# Elastic Constant Matrix: (Units=GPa)
#
#
# Indices 1 2 3 4 5 6 
#
# 1 142.0458 17.3100 24.2095 0.0000 0.0000 0.0000
# 2 17.3100 110.7195 28.0884 0.0000 0.0000 0.0000
# 3 24.2095 28.0884 77.1600 0.0000 0.0000 0.0000
# 4 0.0000 0.0000 0.0000 38.6369 0.0000 0.0000
# 5 0.0000 0.0000 0.0000 0.0000 3.3205 0.0000
# 6 0.0000 0.0000 0.0000 0.0000 0.0000 13.1150
#
#
#
# Elastic Compliance Matrix: (Units=1/GPa)
#
#
# Indices 1 2 3 4 5 6 
#
# 1 0.007478 -0.000632 -0.002116 0.000000 0.000000 0.000000
# 2 -0.000632 0.010004 -0.003443 0.000000 0.000000 0.000000
# 3 -0.002116 -0.003443 0.014878 0.000000 0.000000 0.000000
# 4 0.000000 0.000000 0.000000 0.025882 0.000000 0.000000
# 5 0.000000 0.000000 0.000000 0.000000 0.301158 0.000000
# 6 0.000000 0.000000 0.000000 0.000000 0.000000 0.076249
#
#
# Mechanical properties :
#
#
# Convention : Reuss Voigt Hill
#
# Bulk Modulus (GPa) = 50.06013 52.12681 51.09347
# Shear Modulus (GPa) = 10.99650 28.36898 19.68274
#
# Velocity S-wave (km/s) = 2.31198 3.71346 3.09314
# Velocity P-wave (km/s) = 5.60898 6.61246 6.13128
#
# Compressibility (1/GPa) = 0.01997598
#
# Stress axis : x y z
#
# Youngs Moduli (GPa) = 133.73144 99.95753 67.21553
#
# Poissons Ratio (x) = 0.06320 0.14223
# Poissons Ratio (y) = 0.08455 0.23145
# Poissons Ratio (z) = 0.28298 0.34420
#
# Static dielectric constant tensor:
#      x y z
#    x 1.721950 0.000000 0.000000 
#    y 0.000000 1.772920 0.000000 
#    z 0.000000 0.000000 1.817930 
# 
# From -- ./inp_files/4424.got.cif
#   From: 2010.05.17/outbox.cif.g08.bks.cpg/sg53_3_cif.got.tgz:4424.got - 2010.06.03 12:45:16.
