data_PCOD9417424
_publ_section_title
;
Structure prediction by ZEFSAII (Michael W. Deem and Ramdas Pophale) SiO2 
 PCOD9417424
Probable space group: P M N A
;
_chemical_formula_sum "Si O2"
_cell_formula_units_Z 48
_cell_length_a 8.876286
_cell_length_b 11.068410
_cell_length_c 23.781652
_cell_angle_alpha 90.000000
_cell_angle_beta 90.000000
_cell_angle_gamma 90.000000
_cell_volume 2336.461046
_symmetry_space_group_name_H-M "P M N A"
_symmetry_group_IT_number 53
_symmetry_cell_setting 'orthorhombic'
loop_
_space_group_symop_operation_xyz
x,y,z
1/2-x,-y,1/2+z
x,-y,-z
1/2-x,y,1/2-z
-x,-y,-z
1/2+x,y,1/2-z
-x,y,z
1/2+x,-y,1/2+z
loop_
_atom_site_type_symbol
_atom_site_label
_atom_site_fract_x
_atom_site_fract_y
_atom_site_fract_z
Si Si1 0.674743 0.550628 0.878112
Si Si2 0.675522 0.195734 0.189222
Si Si3 0.320901 0.187007 0.906502
Si Si4 0.820898 0.932644 0.912800
Si Si5 0.681039 0.707996 0.978697
Si Si6 0.821776 0.334155 0.811617
O O1 0.500000 0.508257 0.879750
O O2 0.679842 0.673948 0.841559
O O3 0.721705 0.592325 0.940804
O O4 0.774270 0.452844 0.846668
O O5 0.750000 0.204214 0.250000
O O6 0.500000 0.159800 0.192658
O O7 0.766964 0.104616 0.149625
O O8 0.500000 0.178988 0.899673
O O9 0.256620 0.059288 0.926913
O O10 0.243670 0.224941 0.848667
O O11 0.288610 0.286476 0.955053
O O12 0.000000 0.942469 0.916603
O O13 0.761371 0.823981 0.951592
O O14 0.500000 0.722416 0.971282
O O15 0.750000 0.339009 0.750000
O O16 0.000000 0.325610 0.806839
#
# Coordination Sequence:
#
# PCOD9417424 Si02
#       6
#     8   8   8   8   8   8
#     4   9  19  38  62  88 117 151 192 237 288 345
#     4  10  20  35  57  85 116 152 197 246 296 350
#     4  11  23  41  63  86 117 157 198 239 287 346
#     4  11  22  36  57  87 122 157 195 241 293 347
#     4   9  20  39  64  91 119 154 194 237 289 348
#     4  12  26  43  62  86 117 155 198 241 290 346
#
# _framework density 20.543890999999999
#
# number of rings (size 3 to 8) (size 9 to 14) (size 15 to 20)
#    0.000    1.667    0.000    6.000    0.000    9.333 
#    0.000    6.667    0.000    0.000    0.000    0.000 
#    0.000    0.000    0.000    0.000    0.000    0.000 
#
# Total GULP energy -268405.334265 kJ/mol
# GULP energy per Si atom -5591.777797 kJ/mol
# Density = 2.049713 g / cm^3
# Si number density = 20.543891 Si / 1000 Ang^3
#
#
#
# Elastic Constant Matrix: (Units=GPa)
#
#
# Indices 1 2 3 4 5 6 
#
# 1 100.5948 30.8402 53.7954 0.0000 0.0000 0.0000
# 2 30.8402 54.1031 23.4822 0.0000 0.0000 0.0000
# 3 53.7954 23.4822 112.3100 0.0000 0.0000 0.0000
# 4 0.0000 0.0000 0.0000 19.6944 0.0000 0.0000
# 5 0.0000 0.0000 0.0000 0.0000 86.1264 0.0000
# 6 0.0000 0.0000 0.0000 0.0000 0.0000 3.3198
#
#
#
# Elastic Compliance Matrix: (Units=1/GPa)
#
#
# Indices 1 2 3 4 5 6 
#
# 1 0.014920 -0.005942 -0.005904 0.000000 0.000000 0.000000
# 2 -0.005942 0.022695 -0.001899 0.000000 0.000000 0.000000
# 3 -0.005904 -0.001899 0.012129 0.000000 0.000000 0.000000
# 4 0.000000 0.000000 0.000000 0.050776 0.000000 0.000000
# 5 0.000000 0.000000 0.000000 0.000000 0.011611 0.000000
# 6 0.000000 0.000000 0.000000 0.000000 0.000000 0.301222
#
#
# Mechanical properties :
#
#
# Convention : Reuss Voigt Hill
#
# Bulk Modulus (GPa) = 44.93729 53.69374 49.31551
# Shear Modulus (GPa) = 11.15422 32.42079 21.78751
#
# Velocity S-wave (km/s) = 2.33265 3.97687 3.26012
# Velocity P-wave (km/s) = 5.40151 6.87606 6.18290
#
# Compressibility (1/GPa) = 0.02225323
#
# Stress axis : x y z
#
# Youngs Moduli (GPa) = 67.02407 44.06335 82.44736
#
# Poissons Ratio (x) = 0.26184 0.48678
# Poissons Ratio (y) = 0.39827 0.15655
# Poissons Ratio (z) = 0.39572 0.08367
#
# Static dielectric constant tensor:
#      x y z
#    x 1.676830 0.000000 0.000000 
#    y 0.000000 1.745230 0.000000 
#    z 0.000000 0.000000 1.736580 
# 
# From -- ./inp_files/33897.got.cif
#   From: 2010.05.17/outbox.cif.g08.bks.cpg/sg53_17_cif.got.tgz:33897.got - 2010.06.03 12:45:16.
