data_PCOD9417830
_publ_section_title
;
Structure prediction by ZEFSAII (Michael W. Deem and Ramdas Pophale) SiO2 
 PCOD9417830
Probable space group: P M N A
;
_chemical_formula_sum "Si O2"
_cell_formula_units_Z 48
_cell_length_a 8.656282
_cell_length_b 19.220404
_cell_length_c 13.850217
_cell_angle_alpha 90.000000
_cell_angle_beta 90.000000
_cell_angle_gamma 90.000000
_cell_volume 2304.360839
_symmetry_space_group_name_H-M "P M N A"
_symmetry_group_IT_number 53
_symmetry_cell_setting 'orthorhombic'
loop_
_space_group_symop_operation_xyz
x,y,z
1/2-x,-y,1/2+z
x,-y,-z
1/2-x,y,1/2-z
-x,-y,-z
1/2+x,y,1/2-z
-x,y,z
1/2+x,-y,1/2+z
loop_
_atom_site_type_symbol
_atom_site_label
_atom_site_fract_x
_atom_site_fract_y
_atom_site_fract_z
Si Si1 0.313516 0.536351 0.640592
Si Si2 0.686262 0.103457 0.558966
Si Si3 0.685506 0.308572 0.357642
Si Si4 0.314173 0.042325 0.352805
Si Si5 0.813897 0.615007 0.141242
Si Si6 0.317074 0.751810 0.040558
O O1 0.250000 0.535112 0.750000
O O2 0.500000 0.536490 0.641403
O O3 0.268454 0.613356 0.605654
O O4 0.268339 0.461075 0.597813
O O5 0.500000 0.107903 0.560711
O O6 0.732058 0.037784 0.624730
O O7 0.756829 0.177021 0.587028
O O8 0.733297 0.084714 0.448536
O O9 0.750000 0.300359 0.250000
O O10 0.500000 0.304319 0.356952
O O11 0.754206 0.253428 0.431341
O O12 0.250000 0.065868 0.250000
O O13 0.500000 0.044698 0.349446
O O14 0.750000 0.615126 0.250000
O O15 0.000000 0.618340 0.140006
O O16 0.748882 0.683302 0.091536
O O17 0.500000 0.750049 0.041810
#
# Coordination Sequence:
#
# PCOD9417830 Si02
#       6
#     8   8   8   8   8   8
#     4   8  16  31  54  79 104 138 184 235 288 337
#     4   9  20  40  59  81 115 150 180 221 272 326
#     4  10  20  37  58  81 110 146 188 238 289 340
#     4   9  19  37  64  90 112 141 179 219 269 326
#     4  10  20  37  58  81 110 146 188 238 289 340
#     4  12  25  38  54  82 116 154 193 230 276 332
#
# _framework density 20.830071
#
# number of rings (size 3 to 8) (size 9 to 14) (size 15 to 20)
#    0.000    2.333    0.000    3.500    0.000    4.667 
#    0.000    8.333    0.000    0.000    0.000    0.000 
#    0.000    0.000    0.000    0.000    0.000    0.000 
#
# Total GULP energy -267937.584614 kJ/mol
# GULP energy per Si atom -5582.033013 kJ/mol
# Density = 2.078266 g / cm^3
# Si number density = 20.830071 Si / 1000 Ang^3
#
#
#
# Elastic Constant Matrix: (Units=GPa)
#
#
# Indices 1 2 3 4 5 6 
#
# 1 46.0510 18.3692 0.1103 0.0000 0.0000 0.0000
# 2 18.3692 82.4981 -10.2996 0.0000 0.0000 0.0000
# 3 0.1103 -10.2996 41.2244 0.0000 0.0000 0.0000
# 4 0.0000 0.0000 0.0000 16.2252 0.0000 0.0000
# 5 0.0000 0.0000 0.0000 0.0000 24.6200 0.0000
# 6 0.0000 0.0000 0.0000 0.0000 0.0000 22.2716
#
#
#
# Elastic Compliance Matrix: (Units=1/GPa)
#
#
# Indices 1 2 3 4 5 6 
#
# 1 0.023914 -0.005504 -0.001439 0.000000 0.000000 0.000000
# 2 -0.005504 0.013779 0.003457 0.000000 0.000000 0.000000
# 3 -0.001439 0.003457 0.025125 0.000000 0.000000 0.000000
# 4 0.000000 0.000000 0.000000 0.061632 0.000000 0.000000
# 5 0.000000 0.000000 0.000000 0.000000 0.040617 0.000000
# 6 0.000000 0.000000 0.000000 0.000000 0.000000 0.044900
#
#
# Mechanical properties :
#
#
# Convention : Reuss Voigt Hill
#
# Bulk Modulus (GPa) = 17.90665 20.68147 19.29406
# Shear Modulus (GPa) = 21.22638 23.39628 22.31133
#
# Velocity S-wave (km/s) = 3.19568 3.35505 3.27633
# Velocity P-wave (km/s) = 4.71505 4.99587 4.85749
#
# Compressibility (1/GPa) = 0.05584517
#
# Stress axis : x y z
#
# Youngs Moduli (GPa) = 41.81624 72.57546 39.80081
#
# Poissons Ratio (x) = 0.39949 0.05728
# Poissons Ratio (y) = 0.23018 -0.13760
# Poissons Ratio (z) = 0.06018 -0.25091
#
# Static dielectric constant tensor:
#      x y z
#    x 1.690300 0.000000 0.000000 
#    y 0.000000 1.766000 0.000000 
#    z 0.000000 0.000000 1.733160 
# 
# From -- ./inp_files/20208.got.cif
#   From: 2010.05.17/outbox.cif.g08.bks.cpg/sg53_11_cif.got.tgz:20208.got - 2010.06.03 12:45:16.
