data_PCOD9417732
_publ_section_title
;
Structure prediction by ZEFSAII (Michael W. Deem and Ramdas Pophale) SiO2 
 PCOD9417732
Probable space group: P M N A
;
_chemical_formula_sum "Si O2"
_cell_formula_units_Z 64
_cell_length_a 8.997029
_cell_length_b 21.631956
_cell_length_c 17.686079
_cell_angle_alpha 90.000000
_cell_angle_beta 90.000000
_cell_angle_gamma 90.000000
_cell_volume 3442.123686
_symmetry_space_group_name_H-M "P M N A"
_symmetry_group_IT_number 53
_symmetry_cell_setting 'orthorhombic'
loop_
_space_group_symop_operation_xyz
x,y,z
1/2-x,-y,1/2+z
x,-y,-z
1/2-x,y,1/2-z
-x,-y,-z
1/2+x,y,1/2-z
-x,y,z
1/2+x,-y,1/2+z
loop_
_atom_site_type_symbol
_atom_site_label
_atom_site_fract_x
_atom_site_fract_y
_atom_site_fract_z
Si Si1 0.324389 0.879836 0.390557
Si Si2 0.823989 0.999505 0.327656
Si Si3 0.176404 0.618674 0.328217
Si Si4 0.823095 0.571335 0.019625
Si Si5 0.822274 0.686828 0.554679
Si Si6 0.675473 0.097719 0.431840
Si Si7 0.177357 0.220065 0.168066
Si Si8 0.325483 0.751844 0.106238
O O1 0.500000 0.887311 0.377510
O O2 0.235328 0.930860 0.344085
O O3 0.294439 0.891102 0.479899
O O4 0.272325 0.810556 0.373239
O O5 0.750000 0.022695 0.250000
O O6 0.000000 0.000556 0.320651
O O7 0.769738 0.042772 0.395970
O O8 0.250000 0.599639 0.250000
O O9 0.253332 0.585742 0.398837
O O10 0.199055 0.692114 0.341680
O O11 0.000000 0.607448 0.329173
O O12 0.000000 0.582610 0.020628
O O13 0.796565 0.500000 0.000000
O O14 0.746944 0.619815 0.962381
O O15 0.748638 0.721798 0.624697
O O16 0.792743 0.727808 0.479004
O O17 0.000000 0.682365 0.563063
O O18 0.500000 0.082598 0.424272
O O19 0.705064 0.159770 0.383972
O O20 0.250000 0.211921 0.250000
O O21 0.000000 0.227564 0.174874
O O22 0.500000 0.768612 0.109067
#
# Coordination Sequence:
#
# PCOD9417732 Si02
#       8
#     8   8   8   8   8   8   8   8
#     4  11  22  38  61  87 115 149 189 237 290 349
#     4  12  26  42  59  80 110 150 192 242 296 349
#     4  10  21  37  59  89 123 160 198 245 294 345
#     4  10  21  38  62  90 121 160 202 243 289 345
#     4  10  20  36  59  86 118 153 191 238 285 341
#     4  10  22  40  61  86 114 149 191 237 291 351
#     4  11  22  37  58  87 119 154 193 239 296 349
#     4   9  19  35  56  84 116 150 190 232 283 342
#
# _framework density 18.593173
#
# number of rings (size 3 to 8) (size 9 to 14) (size 15 to 20)
#    0.000    1.625    1.250    4.500    0.000    8.500 
#    0.000    1.875    0.000    3.000    0.000    0.000 
#    0.000    0.000    0.000    0.000    0.000    0.000 
#
# Total GULP energy -357767.023628 kJ/mol
# GULP energy per Si atom -5590.109744 kJ/mol
# Density = 1.855085 g / cm^3
# Si number density = 18.593173 Si / 1000 Ang^3
#
#
#
# Elastic Constant Matrix: (Units=GPa)
#
#
# Indices 1 2 3 4 5 6 
#
# 1 79.5533 57.0934 30.3756 0.0000 0.0000 0.0000
# 2 57.0934 80.5851 5.6395 0.0000 0.0000 0.0000
# 3 30.3756 5.6395 52.6334 0.0000 0.0000 0.0000
# 4 0.0000 0.0000 0.0000 12.8294 0.0000 0.0000
# 5 0.0000 0.0000 0.0000 0.0000 31.3202 0.0000
# 6 0.0000 0.0000 0.0000 0.0000 0.0000 27.2276
#
#
#
# Elastic Compliance Matrix: (Units=1/GPa)
#
#
# Indices 1 2 3 4 5 6 
#
# 1 0.038787 -0.026109 -0.019587 0.000000 0.000000 0.000000
# 2 -0.026109 0.030078 0.011845 0.000000 0.000000 0.000000
# 3 -0.019587 0.011845 0.029034 0.000000 0.000000 0.000000
# 4 0.000000 0.000000 0.000000 0.077946 0.000000 0.000000
# 5 0.000000 0.000000 0.000000 0.000000 0.031928 0.000000
# 6 0.000000 0.000000 0.000000 0.000000 0.000000 0.036727
#
#
# Mechanical properties :
#
#
# Convention : Reuss Voigt Hill
#
# Bulk Modulus (GPa) = 33.11550 44.33210 38.72380
# Shear Modulus (GPa) = 15.51495 22.25298 18.88396
#
# Velocity S-wave (km/s) = 2.89181 3.46328 3.19037
# Velocity P-wave (km/s) = 5.38510 6.31565 5.86885
#
# Compressibility (1/GPa) = 0.03019734
#
# Stress axis : x y z
#
# Youngs Moduli (GPa) = 25.78176 33.24648 34.44216
#
# Poissons Ratio (x) = 0.86804 0.67462
# Poissons Ratio (y) = 0.67314 -0.40798
# Poissons Ratio (z) = 0.50499 -0.39381
#
# Static dielectric constant tensor:
#      x y z
#    x 1.616790 0.000000 0.000000 
#    y 0.000000 1.623700 0.000000 
#    z 0.000000 0.000000 1.633830 
# 
# From -- ./inp_files/26949.got.cif
#   From: 2010.05.17/outbox.cif.g08.bks.cpg/sg53_14_cif.got.tgz:26949.got - 2010.06.03 12:45:16.
