data_PCOD9417579
_publ_section_title
;
Structure prediction by ZEFSAII (Michael W. Deem and Ramdas Pophale) SiO2 
 PCOD9417579
Probable space group: P M N A
;
_chemical_formula_sum "Si O2"
_cell_formula_units_Z 56
_cell_length_a 7.726956
_cell_length_b 15.924024
_cell_length_c 21.266848
_cell_angle_alpha 90.000000
_cell_angle_beta 90.000000
_cell_angle_gamma 90.000000
_cell_volume 2616.762996
_symmetry_space_group_name_H-M "P M N A"
_symmetry_group_IT_number 53
_symmetry_cell_setting 'orthorhombic'
loop_
_space_group_symop_operation_xyz
x,y,z
1/2-x,-y,1/2+z
x,-y,-z
1/2-x,y,1/2-z
-x,-y,-z
1/2+x,y,1/2-z
-x,y,z
1/2+x,-y,1/2+z
loop_
_atom_site_type_symbol
_atom_site_label
_atom_site_fract_x
_atom_site_fract_y
_atom_site_fract_z
Si Si1 0.707016 0.135908 0.817436
Si Si2 0.796066 0.914880 0.963696
Si Si3 0.792569 0.946154 0.680153
Si Si4 0.701891 0.285943 0.893514
Si Si5 0.287780 0.446659 0.438393
Si Si6 0.196512 0.728061 0.975074
Si Si7 0.294247 0.443197 0.679569
O O1 0.750000 0.173681 0.750000
O O2 0.500000 0.131612 0.823635
O O3 0.772588 0.196527 0.870932
O O4 0.776456 0.042005 0.818246
O O5 0.774035 0.915912 0.887722
O O6 0.724131 0.821667 0.980798
O O7 0.000000 0.914293 0.979455
O O8 0.726681 0.000000 0.000000
O O9 0.750000 0.909499 0.750000
O O10 0.000000 0.945511 0.675938
O O11 0.500000 0.279470 0.910291
O O12 0.718615 0.352504 0.838033
O O13 0.804243 0.311066 0.955079
O O14 0.232450 0.500000 0.500000
O O15 0.500000 0.443633 0.440221
O O16 0.224715 0.349837 0.437126
O O17 0.233932 0.494390 0.375271
O O18 0.000000 0.740767 0.952140
O O19 0.250000 0.469163 0.750000
O O20 0.500000 0.436193 0.674459
#
# Coordination Sequence:
#
# PCOD9417579 Si02
#       7
#     8   8   8   8   8   8   8
#     4   9  19  32  47  71 103 141 181 222 272 335
#     4  10  21  36  56  86 120 151 190 239 289 343
#     4  10  20  36  57  78 107 149 194 239 290 342
#     4  11  21  33  51  80 114 144 181 227 282 340
#     4   9  17  35  60  81 104 144 191 226 269 330
#     4  10  20  36  58  81 107 147 191 230 279 335
#     4  11  22  37  57  81 112 145 185 231 282 338
#
# _framework density 21.400486000000001
#
# number of rings (size 3 to 8) (size 9 to 14) (size 15 to 20)
#    0.000    2.000    1.429    2.571    0.000    3.714 
#    0.000    2.857    0.000    1.714    0.000    0.000 
#    0.000    0.000    0.000    0.000    0.000    0.000 
#
# Total GULP energy -312121.667427 kJ/mol
# GULP energy per Si atom -5573.601204 kJ/mol
# Density = 2.135178 g / cm^3
# Si number density = 21.400486 Si / 1000 Ang^3
#
#
#
# Elastic Constant Matrix: (Units=GPa)
#
#
# Indices 1 2 3 4 5 6 
#
# 1 46.7380 5.6363 -5.8120 0.0000 0.0000 0.0000
# 2 5.6363 117.7848 44.5250 0.0000 0.0000 0.0000
# 3 -5.8120 44.5250 123.9936 0.0000 0.0000 0.0000
# 4 0.0000 0.0000 0.0000 43.8934 0.0000 0.0000
# 5 0.0000 0.0000 0.0000 0.0000 26.8678 0.0000
# 6 0.0000 0.0000 0.0000 0.0000 0.0000 4.1637
#
#
#
# Elastic Compliance Matrix: (Units=1/GPa)
#
#
# Indices 1 2 3 4 5 6 
#
# 1 0.021796 -0.001654 0.001615 0.000000 0.000000 0.000000
# 2 -0.001654 0.009949 -0.003650 0.000000 0.000000 0.000000
# 3 0.001615 -0.003650 0.009451 0.000000 0.000000 0.000000
# 4 0.000000 0.000000 0.000000 0.022782 0.000000 0.000000
# 5 0.000000 0.000000 0.000000 0.000000 0.037219 0.000000
# 6 0.000000 0.000000 0.000000 0.000000 0.000000 0.240172
#
#
# Mechanical properties :
#
#
# Convention : Reuss Voigt Hill
#
# Bulk Modulus (GPa) = 29.56834 41.91277 35.74056
# Shear Modulus (GPa) = 13.88810 31.26277 22.57544
#
# Velocity S-wave (km/s) = 2.55024 3.82625 3.25145
# Velocity P-wave (km/s) = 4.74534 6.25681 5.55275
#
# Compressibility (1/GPa) = 0.03381995
#
# Stress axis : x y z
#
# Youngs Moduli (GPa) = 45.87957 100.51258 105.80465
#
# Poissons Ratio (x) = 0.16622 -0.17093
# Poissons Ratio (y) = 0.07587 0.38620
# Poissons Ratio (z) = -0.07412 0.36688
#
# Static dielectric constant tensor:
#      x y z
#    x 1.784210 0.000000 0.000000 
#    y 0.000000 1.823150 0.000000 
#    z 0.000000 0.000000 1.816760 
# 
# From -- ./inp_files/30871.got.cif
#   From: 2010.05.17/outbox.cif.g08.bks.cpg/sg53_16_cif.got.tgz:30871.got - 2010.06.03 12:45:16.
