data_PCOD9417511
_publ_section_title
;
Structure prediction by ZEFSAII (Michael W. Deem and Ramdas Pophale) SiO2 
 PCOD9417511
Probable space group: P M N A
;
_chemical_formula_sum "Si O2"
_cell_formula_units_Z 40
_cell_length_a 17.589595
_cell_length_b 5.141682
_cell_length_c 26.027063
_cell_angle_alpha 90.000000
_cell_angle_beta 90.000000
_cell_angle_gamma 90.000000
_cell_volume 2353.890285
_symmetry_space_group_name_H-M "P M N A"
_symmetry_group_IT_number 53
_symmetry_cell_setting 'orthorhombic'
loop_
_space_group_symop_operation_xyz
x,y,z
1/2-x,-y,1/2+z
x,-y,-z
1/2-x,y,1/2-z
-x,-y,-z
1/2+x,y,1/2-z
-x,y,z
1/2+x,-y,1/2+z
loop_
_atom_site_type_symbol
_atom_site_label
_atom_site_fract_x
_atom_site_fract_y
_atom_site_fract_z
Si Si1 0.190817 0.569639 0.940761
Si Si2 0.732159 0.057190 0.615729
Si Si3 0.089444 0.528976 0.246794
Si Si4 0.913101 0.237146 0.139980
Si Si5 0.675505 0.041597 0.216101
O O1 0.235443 0.835967 0.928325
O O2 0.109437 0.617172 0.912822
O O3 0.229969 0.337864 0.909381
O O4 0.184522 0.500000 0.000000
O O5 0.649859 0.990086 0.641593
O O6 0.795036 0.019948 0.659055
O O7 0.099698 0.426198 0.188368
O O8 0.135091 0.788681 0.260117
O O9 0.000000 0.572367 0.254767
O O10 0.120951 0.290264 0.280745
O O11 0.000000 0.147080 0.141045
O O12 0.750000 0.104682 0.250000
#
# Coordination Sequence:
#
# PCOD9417511 Si02
#       5
#     8   8   8   8   8
#     4  10  20  36  52  76 108 143 190 235 270 310
#     4  10  21  35  53  79 101 147 184 228 268 321
#     4  11  23  36  54  82 115 149 184 224 269 332
#     4   9  21  35  51  77 113 150 186 221 265 315
#     4  12  20  36  57  78 111 146 189 220 279 330
#
# _framework density 16.993144000000001
#
# number of rings (size 3 to 8) (size 9 to 14) (size 15 to 20)
#    1.200    0.400    2.000    4.200    0.000    1.200 
#    0.000    1.000    0.000    0.000    0.000    0.000 
#    0.000   56.000    0.000    0.000    0.000    0.000 
#
# Total GULP energy -223013.029550 kJ/mol
# GULP energy per Si atom -5575.325739 kJ/mol
# Density = 1.695447 g / cm^3
# Si number density = 16.993144 Si / 1000 Ang^3
#
#
#
# Elastic Constant Matrix: (Units=GPa)
#
#
# Indices 1 2 3 4 5 6 
#
# 1 40.8962 -5.0757 22.3628 0.0000 0.0000 0.0000
# 2 -5.0757 41.8914 -22.2125 0.0000 0.0000 0.0000
# 3 22.3628 -22.2125 58.5628 0.0000 0.0000 0.0000
# 4 0.0000 0.0000 0.0000 21.8548 0.0000 0.0000
# 5 0.0000 0.0000 0.0000 0.0000 14.7544 0.0000
# 6 0.0000 0.0000 0.0000 0.0000 0.0000 15.4484
#
#
#
# Elastic Compliance Matrix: (Units=1/GPa)
#
#
# Indices 1 2 3 4 5 6 
#
# 1 0.031240 -0.003180 -0.013135 0.000000 0.000000 0.000000
# 2 -0.003180 0.030204 0.012671 0.000000 0.000000 0.000000
# 3 -0.013135 0.012671 0.026897 0.000000 0.000000 0.000000
# 4 0.000000 0.000000 0.000000 0.045757 0.000000 0.000000
# 5 0.000000 0.000000 0.000000 0.000000 0.067776 0.000000
# 6 0.000000 0.000000 0.000000 0.000000 0.000000 0.064732
#
#
# Mechanical properties :
#
#
# Convention : Reuss Voigt Hill
#
# Bulk Modulus (GPa) = 12.33763 14.61107 13.47435
# Shear Modulus (GPa) = 16.61606 20.16324 18.38965
#
# Velocity S-wave (km/s) = 3.13039 3.44837 3.29322
# Velocity P-wave (km/s) = 4.51020 4.94691 4.73359
#
# Compressibility (1/GPa) = 0.08105287
#
# Stress axis : x y z
#
# Youngs Moduli (GPa) = 32.00999 33.10766 37.17818
#
# Poissons Ratio (x) = 0.10528 0.48835
# Poissons Ratio (y) = 0.10179 -0.47107
# Poissons Ratio (z) = 0.42047 -0.41949
#
# Static dielectric constant tensor:
#      x y z
#    x 1.557900 0.000000 0.000000 
#    y 0.000000 1.590190 0.000000 
#    z 0.000000 0.000000 1.570240 
# 
# From -- ./inp_files/35153.got.cif
#   From: 2010.05.17/outbox.cif.g08.bks.cpg/sg53_18_cif.got.tgz:35153.got - 2010.06.03 12:45:16.
