data_PCOD9417464
_publ_section_title
;
Structure prediction by ZEFSAII (Michael W. Deem and Ramdas Pophale) SiO2 
 PCOD9417464
Probable space group: P M N A
;
_chemical_formula_sum "Si O2"
_cell_formula_units_Z 40
_cell_length_a 16.965638
_cell_length_b 9.855213
_cell_length_c 11.223682
_cell_angle_alpha 90.000000
_cell_angle_beta 90.000000
_cell_angle_gamma 90.000000
_cell_volume 1876.599363
_symmetry_space_group_name_H-M "P M N A"
_symmetry_group_IT_number 53
_symmetry_cell_setting 'orthorhombic'
loop_
_space_group_symop_operation_xyz
x,y,z
1/2-x,-y,1/2+z
x,-y,-z
1/2-x,y,1/2-z
-x,-y,-z
1/2+x,y,1/2-z
-x,y,z
1/2+x,-y,1/2+z
loop_
_atom_site_type_symbol
_atom_site_label
_atom_site_fract_x
_atom_site_fract_y
_atom_site_fract_z
Si Si1 0.672213 0.343620 0.016380
Si Si2 0.911764 0.974781 0.141854
Si Si3 0.091764 0.579835 0.761498
Si Si4 0.305369 0.783247 0.643328
Si Si5 0.843605 0.289369 0.744670
O O1 0.615570 0.357383 0.131577
O O2 0.745962 0.241723 0.035660
O O3 0.701155 0.500000 0.000000
O O4 0.631536 0.294839 0.895075
O O5 0.890122 0.823815 0.182145
O O6 0.000000 0.009964 0.186833
O O7 0.839833 0.072099 0.179590
O O8 0.912949 0.000000 0.000000
O O9 0.118905 0.687557 0.860214
O O10 0.138589 0.441874 0.785882
O O11 0.000000 0.552666 0.763128
O O12 0.250000 0.730297 0.750000
O O13 0.750000 0.264958 0.750000
#
# Coordination Sequence:
#
# PCOD9417464 Si02
#       5
#     8   8   8   8   8
#     4   9  19  35  60  88 113 149 200 252 297 350
#     4  11  24  39  55  79 113 151 190 237 294 352
#     4  10  20  35  58  88 119 150 187 238 299 358
#     4  10  20  37  58  81 112 148 188 233 288 353
#     4  11  21  37  60  83 111 151 200 247 292 350
#
# _framework density 21.315151
#
# number of rings (size 3 to 8) (size 9 to 14) (size 15 to 20)
#    0.000    1.800    0.000    6.000    0.000    4.400 
#    0.000    3.000    0.000   12.000    0.000    0.000 
#    0.000    0.000    0.000    0.000    0.000    0.000 
#
# Total GULP energy -223034.097701 kJ/mol
# GULP energy per Si atom -5575.852443 kJ/mol
# Density = 2.126664 g / cm^3
# Si number density = 21.315151 Si / 1000 Ang^3
#
#
#
# Elastic Constant Matrix: (Units=GPa)
#
#
# Indices 1 2 3 4 5 6 
#
# 1 82.1709 7.3891 -1.0197 0.0000 0.0000 0.0000
# 2 7.3891 83.4702 20.5642 0.0000 0.0000 0.0000
# 3 -1.0197 20.5642 42.8592 0.0000 0.0000 0.0000
# 4 0.0000 0.0000 0.0000 30.5797 0.0000 0.0000
# 5 0.0000 0.0000 0.0000 0.0000 6.3954 0.0000
# 6 0.0000 0.0000 0.0000 0.0000 0.0000 14.8494
#
#
#
# Elastic Compliance Matrix: (Units=1/GPa)
#
#
# Indices 1 2 3 4 5 6 
#
# 1 0.012300 -0.001317 0.000924 0.000000 0.000000 0.000000
# 2 -0.001317 0.013727 -0.006618 0.000000 0.000000 0.000000
# 3 0.000924 -0.006618 0.026529 0.000000 0.000000 0.000000
# 4 0.000000 0.000000 0.000000 0.032701 0.000000 0.000000
# 5 0.000000 0.000000 0.000000 0.000000 0.156362 0.000000
# 6 0.000000 0.000000 0.000000 0.000000 0.000000 0.067343
#
#
# Mechanical properties :
#
#
# Convention : Reuss Voigt Hill
#
# Bulk Modulus (GPa) = 25.94952 29.15194 27.55073
# Shear Modulus (GPa) = 14.88857 22.46935 18.67896
#
# Velocity S-wave (km/s) = 2.64578 3.25029 2.96349
# Velocity P-wave (km/s) = 4.64049 5.27183 4.96620
#
# Compressibility (1/GPa) = 0.03853635
#
# Stress axis : x y z
#
# Youngs Moduli (GPa) = 81.30334 72.84773 37.69396
#
# Poissons Ratio (x) = 0.09591 -0.03484
# Poissons Ratio (y) = 0.10704 0.24945
# Poissons Ratio (z) = -0.07515 0.48209
#
# Static dielectric constant tensor:
#      x y z
#    x 1.770790 0.000000 0.000000 
#    y 0.000000 1.882560 0.000000 
#    z 0.000000 0.000000 1.829860 
# 
# From -- ./inp_files/16651.got.cif
#   From: 2010.05.17/outbox.cif.g08.bks.cpg/sg53_9_cif.got.tgz:16651.got - 2010.06.03 12:45:16.
