data_PCOD9417857
_publ_section_title
;
Structure prediction by ZEFSAII (Michael W. Deem and Ramdas Pophale) SiO2 
 PCOD9417857
Probable space group: P M N A
;
_chemical_formula_sum "Si O2"
_cell_formula_units_Z 32
_cell_length_a 8.650317
_cell_length_b 21.130617
_cell_length_c 9.325979
_cell_angle_alpha 90.000000
_cell_angle_beta 90.000000
_cell_angle_gamma 90.000000
_cell_volume 1704.663391
_symmetry_space_group_name_H-M "P M N A"
_symmetry_group_IT_number 53
_symmetry_cell_setting 'orthorhombic'
loop_
_space_group_symop_operation_xyz
x,y,z
1/2-x,-y,1/2+z
x,-y,-z
1/2-x,y,1/2-z
-x,-y,-z
1/2+x,y,1/2-z
-x,y,z
1/2+x,-y,1/2+z
loop_
_atom_site_type_symbol
_atom_site_label
_atom_site_fract_x
_atom_site_fract_y
_atom_site_fract_z
Si Si1 0.186077 0.701835 0.588045
Si Si2 0.313770 0.559751 0.909342
Si Si3 0.314655 0.936625 0.910802
Si Si4 0.684636 0.818666 0.410501
O O1 0.250000 0.710012 0.750000
O O2 0.228225 0.630417 0.538663
O O3 0.255777 0.754582 0.485019
O O4 0.000000 0.707381 0.591467
O O5 0.250000 0.554069 0.750000
O O6 0.500000 0.557536 0.905588
O O7 0.257300 0.500000 0.000000
O O8 0.250000 0.940641 0.750000
O O9 0.500000 0.930086 0.905251
O O10 0.244289 0.876863 0.993506
O O11 0.277126 0.000000 0.000000
O O12 0.750000 0.824235 0.250000
O O13 0.500000 0.819078 0.406127
#
# Coordination Sequence:
#
# PCOD9417857 Si02
#       4
#     8   8   8   8
#     4  10  20  37  59  83 114 151 193 238 287 343
#     4   9  19  35  55  81 112 147 188 234 284 340
#     4  11  24  42  65  92 122 156 194 236 284 338
#     4  12  25  41  61  86 118 153 193 239 288 342
#
# _framework density 18.772034999999999
#
# number of rings (size 3 to 8) (size 9 to 14) (size 15 to 20)
#    0.000    1.500    0.000    5.250    0.000    6.500 
#    0.000    2.500    0.000    0.000    0.000    0.000 
#    0.000    0.000    0.000    0.000    0.000    0.000 
#
# Total GULP energy -178866.156576 kJ/mol
# GULP energy per Si atom -5589.567393 kJ/mol
# Density = 1.872931 g / cm^3
# Si number density = 18.772035 Si / 1000 Ang^3
#
#
#
# Elastic Constant Matrix: (Units=GPa)
#
#
# Indices 1 2 3 4 5 6 
#
# 1 88.4572 83.7268 64.2499 0.0000 0.0000 0.0000
# 2 83.7268 206.4286 121.7758 0.0000 0.0000 0.0000
# 3 64.2499 121.7758 155.3988 0.0000 0.0000 0.0000
# 4 0.0000 0.0000 0.0000 39.7096 0.0000 0.0000
# 5 0.0000 0.0000 0.0000 0.0000 36.7631 0.0000
# 6 0.0000 0.0000 0.0000 0.0000 0.0000 56.3315
#
#
#
# Elastic Compliance Matrix: (Units=1/GPa)
#
#
# Indices 1 2 3 4 5 6 
#
# 1 0.019284 -0.005799 -0.003429 0.000000 0.000000 0.000000
# 2 -0.005799 0.010753 -0.006029 0.000000 0.000000 0.000000
# 3 -0.003429 -0.006029 0.012577 0.000000 0.000000 0.000000
# 4 0.000000 0.000000 0.000000 0.025183 0.000000 0.000000
# 5 0.000000 0.000000 0.000000 0.000000 0.027201 0.000000
# 6 0.000000 0.000000 0.000000 0.000000 0.000000 0.017752
#
#
# Mechanical properties :
#
#
# Convention : Reuss Voigt Hill
#
# Bulk Modulus (GPa) = 82.63718 109.97662 96.30690
# Shear Modulus (GPa) = 33.94519 38.59632 36.27075
#
# Velocity S-wave (km/s) = 4.25701 4.53929 4.40041
# Velocity P-wave (km/s) = 8.26316 9.28365 8.78823
#
# Compressibility (1/GPa) = 0.01210109
#
# Stress axis : x y z
#
# Youngs Moduli (GPa) = 51.85602 93.00030 79.51036
#
# Poissons Ratio (x) = 0.53929 0.27264
# Poissons Ratio (y) = 0.30070 0.47934
# Poissons Ratio (z) = 0.17781 0.56066
#
# Static dielectric constant tensor:
#      x y z
#    x 1.627330 0.000000 0.000000 
#    y 0.000000 1.657550 0.000000 
#    z 0.000000 0.000000 1.599470 
# 
# From -- ./inp_files/6013.got.cif
#   From: 2010.05.17/outbox.cif.g08.bks.cpg/sg53_4_cif.got.tgz:6013.got - 2010.06.03 12:45:16.
