data_PCOD9417730
_publ_section_title
;
Structure prediction by ZEFSAII (Michael W. Deem and Ramdas Pophale) SiO2 
 PCOD9417730
Probable space group: P M N A
;
_chemical_formula_sum "Si O2"
_cell_formula_units_Z 64
_cell_length_a 7.978768
_cell_length_b 15.382431
_cell_length_c 24.463984
_cell_angle_alpha 90.000000
_cell_angle_beta 90.000000
_cell_angle_gamma 90.000000
_cell_volume 3002.534435
_symmetry_space_group_name_H-M "P M N A"
_symmetry_group_IT_number 53
_symmetry_cell_setting 'orthorhombic'
loop_
_space_group_symop_operation_xyz
x,y,z
1/2-x,-y,1/2+z
x,-y,-z
1/2-x,y,1/2-z
-x,-y,-z
1/2+x,y,1/2-z
-x,y,z
1/2+x,-y,1/2+z
loop_
_atom_site_type_symbol
_atom_site_label
_atom_site_fract_x
_atom_site_fract_y
_atom_site_fract_z
Si Si1 0.202850 0.201027 0.310088
Si Si2 0.295653 0.399367 0.992752
Si Si3 0.296744 0.333385 0.873809
Si Si4 0.301285 0.653773 0.891134
Si Si5 0.809364 0.899289 0.980365
Si Si6 0.797983 0.147136 0.597316
Si Si7 0.694619 0.040423 0.131393
Si Si8 0.195834 0.501376 0.812413
O O1 0.250000 0.230067 0.250000
O O2 0.269317 0.269131 0.354318
O O3 0.268129 0.104149 0.323199
O O4 0.000000 0.199079 0.313717
O O5 0.500000 0.394674 0.992347
O O6 0.233293 0.351733 0.047388
O O7 0.250291 0.500000 0.000000
O O8 0.240450 0.364772 0.934120
O O9 0.500000 0.335971 0.872127
O O10 0.242879 0.232785 0.870336
O O11 0.232993 0.402100 0.829735
O O12 0.500000 0.668446 0.896679
O O13 0.280888 0.564655 0.856917
O O14 0.704977 0.903429 0.924774
O O15 0.000000 0.875563 0.967654
O O16 0.746125 0.846795 0.032872
O O17 0.805920 0.000000 0.000000
O O18 0.000000 0.144013 0.599174
O O19 0.730592 0.054975 0.620137
O O20 0.500000 0.025742 0.144339
O O21 0.250000 0.517844 0.750000
O O22 0.000000 0.518207 0.816402
#
# Coordination Sequence:
#
# PCOD9417730 Si02
#       8
#     8   8   8   8   8   8   8   8
#     4  10  22  37  57  80 111 147 191 240 285 339
#     4   9  16  30  56  84 113 148 183 220 271 338
#     4  10  20  36  59  86 117 154 192 230 279 342
#     4  10  20  37  60  86 114 148 187 228 276 338
#     4   9  17  29  47  74 108 144 180 223 275 328
#     4   9  18  32  55  81 111 148 188 231 275 330
#     4   9  18  34  53  78 108 144 190 235 276 327
#     4  12  25  41  61  83 111 147 188 237 285 335
#
# _framework density 21.315325999999999
#
# number of rings (size 3 to 8) (size 9 to 14) (size 15 to 20)
#    0.000    2.250    1.250    1.875    1.750    4.000 
#    0.000    1.875    0.000    1.500    0.000    0.000 
#    0.000    0.000    0.000    0.000    0.000    0.000 
#
# Total GULP energy -357199.768046 kJ/mol
# GULP energy per Si atom -5581.246376 kJ/mol
# Density = 2.126681 g / cm^3
# Si number density = 21.315326 Si / 1000 Ang^3
#
#
#
# Elastic Constant Matrix: (Units=GPa)
#
#
# Indices 1 2 3 4 5 6 
#
# 1 20.8632 -1.7102 -1.7744 0.0000 0.0000 0.0000
# 2 -1.7102 73.5149 5.5931 0.0000 0.0000 0.0000
# 3 -1.7744 5.5931 65.5773 0.0000 0.0000 0.0000
# 4 0.0000 0.0000 0.0000 23.1285 0.0000 0.0000
# 5 0.0000 0.0000 0.0000 0.0000 15.0121 0.0000
# 6 0.0000 0.0000 0.0000 0.0000 0.0000 2.9389
#
#
#
# Elastic Compliance Matrix: (Units=1/GPa)
#
#
# Indices 1 2 3 4 5 6 
#
# 1 0.048119 0.001027 0.001214 0.000000 0.000000 0.000000
# 2 0.001027 0.013713 -0.001142 0.000000 0.000000 0.000000
# 3 0.001214 -0.001142 0.015379 0.000000 0.000000 0.000000
# 4 0.000000 0.000000 0.000000 0.043237 0.000000 0.000000
# 5 0.000000 0.000000 0.000000 0.000000 0.066613 0.000000
# 6 0.000000 0.000000 0.000000 0.000000 0.000000 0.340265
#
#
# Mechanical properties :
#
#
# Convention : Reuss Voigt Hill
#
# Bulk Modulus (GPa) = 12.59274 18.24136 15.41705
# Shear Modulus (GPa) = 9.06459 18.73903 13.90181
#
# Velocity S-wave (km/s) = 2.06442 2.96824 2.55659
# Velocity P-wave (km/s) = 3.40634 4.50818 3.99542
#
# Compressibility (1/GPa) = 0.07941085
#
# Stress axis : x y z
#
# Youngs Moduli (GPa) = 20.78190 72.92109 65.02191
#
# Poissons Ratio (x) = -0.07489 -0.07896
# Poissons Ratio (y) = -0.02134 0.07424
# Poissons Ratio (z) = -0.02524 0.08326
#
# Static dielectric constant tensor:
#      x y z
#    x 1.768030 0.000000 0.000000 
#    y 0.000000 1.816650 0.000000 
#    z 0.000000 0.000000 1.759430 
# 
# From -- ./inp_files/34284.got.cif
#   From: 2010.05.17/outbox.cif.g08.bks.cpg/sg53_18_cif.got.tgz:34284.got - 2010.06.03 12:45:16.
