data_PCOD9417095
_publ_section_title
;
Structure prediction by ZEFSAII (Michael W. Deem and Ramdas Pophale) SiO2 
 PCOD9417095
Probable space group: P M N A
;
_chemical_formula_sum "Si O2"
_cell_formula_units_Z 48
_cell_length_a 8.685028
_cell_length_b 32.250833
_cell_length_c 9.441546
_cell_angle_alpha 90.000000
_cell_angle_beta 90.000000
_cell_angle_gamma 90.000000
_cell_volume 2644.571253
_symmetry_space_group_name_H-M "P M N A"
_symmetry_group_IT_number 53
_symmetry_cell_setting 'orthorhombic'
loop_
_space_group_symop_operation_xyz
x,y,z
1/2-x,-y,1/2+z
x,-y,-z
1/2-x,y,1/2-z
-x,-y,-z
1/2+x,y,1/2-z
-x,y,z
1/2+x,-y,1/2+z
loop_
_atom_site_type_symbol
_atom_site_label
_atom_site_fract_x
_atom_site_fract_y
_atom_site_fract_z
Si Si1 0.315271 0.702961 0.909879
Si Si2 0.814273 0.961239 0.092202
Si Si3 0.315273 0.458981 0.908725
Si Si4 0.684296 0.205700 0.091222
Si Si5 0.683907 0.616872 0.589588
Si Si6 0.815431 0.130970 0.908488
O O1 0.250000 0.704437 0.750000
O O2 0.500000 0.698430 0.906649
O O3 0.276801 0.748438 0.970593
O O4 0.241049 0.661298 0.970604
O O5 0.750000 0.964783 0.250000
O O6 0.771786 0.915246 0.037114
O O7 0.000000 0.962720 0.097750
O O8 0.759259 0.000000 0.000000
O O9 0.250000 0.462187 0.750000
O O10 0.500000 0.454993 0.902524
O O11 0.277880 0.500000 0.000000
O O12 0.245235 0.419846 0.991372
O O13 0.750000 0.203408 0.250000
O O14 0.500000 0.203110 0.097619
O O15 0.750072 0.168060 0.001373
O O16 0.750000 0.612318 0.750000
O O17 0.500000 0.616376 0.597659
O O18 0.750000 0.134270 0.750000
O O19 0.000000 0.133453 0.904601
#
# Coordination Sequence:
#
# PCOD9417095 Si02
#       6
#     8   8   8   8   8   8
#     4   9  17  31  52  78 108 141 179 221 266 316
#     4   9  19  35  53  75 102 133 171 213 260 314
#     4  11  24  41  61  85 114 147 184 226 271 321
#     4  10  20  34  54  80 109 141 179 223 266 313
#     4  11  21  35  58  85 114 147 183 224 270 320
#     4  10  20  35  54  75 104 140 176 217 265 319
#
# _framework density 18.150389000000001
#
# number of rings (size 3 to 8) (size 9 to 14) (size 15 to 20)
#    0.000    2.000    0.000    5.000    0.000    6.333 
#    0.000    2.500    0.000    4.000    0.000    0.000 
#    0.000    0.000    0.000    0.000    0.000    0.000 
#
# Total GULP energy -267829.618331 kJ/mol
# GULP energy per Si atom -5579.783715 kJ/mol
# Density = 1.810908 g / cm^3
# Si number density = 18.150389 Si / 1000 Ang^3
#
#
#
# Elastic Constant Matrix: (Units=GPa)
#
#
# Indices 1 2 3 4 5 6 
#
# 1 84.5240 81.4932 40.0176 0.0000 0.0000 0.0000
# 2 81.4932 229.3253 89.7986 0.0000 0.0000 0.0000
# 3 40.0176 89.7986 78.1685 0.0000 0.0000 0.0000
# 4 0.0000 0.0000 0.0000 34.9020 0.0000 0.0000
# 5 0.0000 0.0000 0.0000 0.0000 29.4152 0.0000
# 6 0.0000 0.0000 0.0000 0.0000 0.0000 28.1513
#
#
#
# Elastic Compliance Matrix: (Units=1/GPa)
#
#
# Indices 1 2 3 4 5 6 
#
# 1 0.018506 -0.005210 -0.003488 0.000000 0.000000 0.000000
# 2 -0.005210 0.009393 -0.008123 0.000000 0.000000 0.000000
# 3 -0.003488 -0.008123 0.023910 0.000000 0.000000 0.000000
# 4 0.000000 0.000000 0.000000 0.028652 0.000000 0.000000
# 5 0.000000 0.000000 0.000000 0.000000 0.033996 0.000000
# 6 0.000000 0.000000 0.000000 0.000000 0.000000 0.035522
#
#
# Mechanical properties :
#
#
# Convention : Reuss Voigt Hill
#
# Bulk Modulus (GPa) = 55.04887 90.51518 72.78202
# Shear Modulus (GPa) = 26.36038 30.54093 28.45066
#
# Velocity S-wave (km/s) = 3.81508 4.10647 3.96346
# Velocity P-wave (km/s) = 7.05702 8.51246 7.81868
#
# Compressibility (1/GPa) = 0.01816568
#
# Stress axis : x y z
#
# Youngs Moduli (GPa) = 54.03637 106.46226 41.82267
#
# Poissons Ratio (x) = 0.55470 0.14590
# Poissons Ratio (y) = 0.28155 0.33973
# Poissons Ratio (z) = 0.18850 0.86481
#
# Static dielectric constant tensor:
#      x y z
#    x 1.612350 0.000000 0.000000 
#    y 0.000000 1.662120 0.000000 
#    z 0.000000 0.000000 1.588220 
# 
# From -- ./inp_files/6573.got.cif
#   From: 2010.05.17/outbox.cif.g08.bks.cpg/sg53_4_cif.got.tgz:6573.got - 2010.06.03 12:45:16.
