data_PCOD9417385
_publ_section_title
;
Structure prediction by ZEFSAII (Michael W. Deem and Ramdas Pophale) SiO2 
 PCOD9417385
Probable space group: P M N A
;
_chemical_formula_sum "Si O2"
_cell_formula_units_Z 64
_cell_length_a 7.732651
_cell_length_b 13.039011
_cell_length_c 29.299674
_cell_angle_alpha 90.000000
_cell_angle_beta 90.000000
_cell_angle_gamma 90.000000
_cell_volume 2954.172489
_symmetry_space_group_name_H-M "P M N A"
_symmetry_group_IT_number 53
_symmetry_cell_setting 'orthorhombic'
loop_
_space_group_symop_operation_xyz
x,y,z
1/2-x,-y,1/2+z
x,-y,-z
1/2-x,y,1/2-z
-x,-y,-z
1/2+x,y,1/2-z
-x,y,z
1/2+x,-y,1/2+z
loop_
_atom_site_type_symbol
_atom_site_label
_atom_site_fract_x
_atom_site_fract_y
_atom_site_fract_z
Si Si1 0.209961 0.341325 0.112334
Si Si2 0.707437 0.962455 0.102200
Si Si3 0.294846 0.901725 0.302746
Si Si4 0.202176 0.842975 0.548286
Si Si5 0.207010 0.469780 0.949900
Si Si6 0.292570 0.323627 0.696299
Si Si7 0.208610 0.764631 0.450326
Si Si8 0.792028 0.546205 0.802985
O O1 0.282324 0.242999 0.087016
O O2 0.265572 0.443190 0.084916
O O3 0.265855 0.362824 0.164110
O O4 0.000000 0.333273 0.110537
O O5 0.500000 0.962684 0.097764
O O6 0.744796 0.975718 0.155853
O O7 0.771856 0.852324 0.084175
O O8 0.776292 0.052309 0.069317
O O9 0.250000 0.925919 0.250000
O O10 0.500000 0.893557 0.303226
O O11 0.221112 0.788354 0.316201
O O12 0.273377 0.796952 0.500975
O O13 0.000000 0.863305 0.538760
O O14 0.243539 0.351710 0.938704
O O15 0.000000 0.478756 0.951258
O O16 0.275633 0.500000 0.000000
O O17 0.250000 0.328670 0.750000
O O18 0.500000 0.322113 0.688983
O O19 0.227502 0.434165 0.679435
O O20 0.000000 0.766559 0.450674
O O21 0.750000 0.559595 0.750000
O O22 0.000000 0.541567 0.806439
#
# Coordination Sequence:
#
# PCOD9417385 Si02
#       8
#     8   8   8   8   8   8   8   8
#     4  10  21  36  56  81 114 151 186 228 280 338
#     4  10  22  39  58  83 113 148 191 238 288 337
#     4  10  20  35  57  83 113 148 186 232 282 337
#     4  10  21  39  60  80 109 149 191 237 286 335
#     4  10  20  35  56  83 116 151 182 222 282 345
#     4   8  15  28  47  71 101 136 171 210 263 319
#     4  10  21  37  59  85 114 147 189 237 284 339
#     4   9  18  33  52  76 108 145 183 225 271 326
#
# _framework density 21.664273000000001
#
# number of rings (size 3 to 8) (size 9 to 14) (size 15 to 20)
#    0.000    2.375    1.250    0.750    1.750    4.250 
#    0.000    0.625    0.000    3.750    0.000    0.000 
#    0.000    0.000    0.000    0.000    0.000    0.000 
#
# Total GULP energy -356984.932692 kJ/mol
# GULP energy per Si atom -5577.889573 kJ/mol
# Density = 2.161496 g / cm^3
# Si number density = 21.664273 Si / 1000 Ang^3
#
#
#
# Elastic Constant Matrix: (Units=GPa)
#
#
# Indices 1 2 3 4 5 6 
#
# 1 32.6555 -8.4511 -9.3979 0.0000 0.0000 0.0000
# 2 -8.4511 80.9486 14.5162 0.0000 0.0000 0.0000
# 3 -9.3979 14.5162 62.5926 0.0000 0.0000 0.0000
# 4 0.0000 0.0000 0.0000 22.3374 0.0000 0.0000
# 5 0.0000 0.0000 0.0000 0.0000 20.5277 0.0000
# 6 0.0000 0.0000 0.0000 0.0000 0.0000 87.9879
#
#
#
# Elastic Compliance Matrix: (Units=1/GPa)
#
#
# Indices 1 2 3 4 5 6 
#
# 1 0.032534 0.002630 0.004275 0.000000 0.000000 0.000000
# 2 0.002630 0.013102 -0.002644 0.000000 0.000000 0.000000
# 3 0.004275 -0.002644 0.017231 0.000000 0.000000 0.000000
# 4 0.000000 0.000000 0.000000 0.044768 0.000000 0.000000
# 5 0.000000 0.000000 0.000000 0.000000 0.048715 0.000000
# 6 0.000000 0.000000 0.000000 0.000000 0.000000 0.011365
#
#
# Mechanical properties :
#
#
# Convention : Reuss Voigt Hill
#
# Bulk Modulus (GPa) = 14.00774 18.83678 16.42226
# Shear Modulus (GPa) = 27.32399 38.13921 32.73160
#
# Velocity S-wave (km/s) = 3.55526 4.20034 3.89119
# Velocity P-wave (km/s) = 4.83042 5.67781 5.27117
#
# Compressibility (1/GPa) = 0.07138911
#
# Stress axis : x y z
#
# Youngs Moduli (GPa) = 30.73745 76.32318 58.03392
#
# Poissons Ratio (x) = -0.20073 -0.24808
# Poissons Ratio (y) = -0.08084 0.15343
# Poissons Ratio (z) = -0.13140 0.20178
#
# Static dielectric constant tensor:
#      x y z
#    x 1.959830 0.000000 0.000000 
#    y 0.000000 1.800760 0.000000 
#    z 0.000000 0.000000 1.794000 
# 
# From -- ./inp_files/38264.got.cif
#   From: 2010.05.17/outbox.cif.g08.bks.cpg/sg53_20_cif.got.tgz:38264.got - 2010.06.03 12:45:16.
