data_PCOD9417501
_publ_section_title
;
Structure prediction by ZEFSAII (Michael W. Deem and Ramdas Pophale) SiO2 
 PCOD9417501
Probable space group: P M N A
;
_chemical_formula_sum "Si O2"
_cell_formula_units_Z 44
_cell_length_a 25.193142
_cell_length_b 14.230386
_cell_length_c 6.259526
_cell_angle_alpha 90.000000
_cell_angle_beta 90.000000
_cell_angle_gamma 90.000000
_cell_volume 2244.090994
_symmetry_space_group_name_H-M "P M N A"
_symmetry_group_IT_number 53
_symmetry_cell_setting 'orthorhombic'
loop_
_space_group_symop_operation_xyz
x,y,z
1/2-x,-y,1/2+z
x,-y,-z
1/2-x,y,1/2-z
-x,-y,-z
1/2+x,y,1/2-z
-x,y,z
1/2+x,-y,1/2+z
loop_
_atom_site_type_symbol
_atom_site_label
_atom_site_fract_x
_atom_site_fract_y
_atom_site_fract_z
Si Si1 0.381981 0.767649 0.353328
Si Si2 0.250000 0.461516 0.750000
Si Si3 0.940163 0.906342 0.855601
Si Si4 0.636847 0.398642 0.923419
Si Si5 0.308110 0.276350 0.265803
Si Si6 0.656326 0.897321 0.974321
O O1 0.426577 0.815586 0.499556
O O2 0.396413 0.673528 0.222316
O O3 0.332284 0.743313 0.505067
O O4 0.362516 0.847816 0.190451
O O5 0.259500 0.500000 0.500000
O O6 0.192887 0.414057 0.700535
O O7 0.895763 0.909576 0.673530
O O8 0.000000 0.901458 0.770411
O O9 0.935891 0.000000 0.000000
O O10 0.616018 0.500000 0.000000
O O11 0.651743 0.342359 0.137740
O O12 0.250000 0.320070 0.250000
O O13 0.306251 0.177805 0.140411
O O14 0.680620 0.000000 0.000000
#
# Coordination Sequence:
#
# PCOD9417501 Si02
#       6
#     8   4   8   8   8   8
#     4  10  21  37  57  80 120 148 188 245 292 357
#     4  10  22  34  56  88 116 156 212 258 300 352
#     4  10  20  35  61  87 109 145 191 246 308 361
#     4  10  22  33  56  82 113 154 194 245 297 350
#     4  10  22  37  53  82 114 156 201 238 286 346
#     4  10  20  37  53  81 116 151 189 240 289 353
#
# _framework density 19.607047999999999
#
# number of rings (size 3 to 8) (size 9 to 14) (size 15 to 20)
#    0.000    2.000    1.818    1.091   10.182    3.273 
#    3.273    0.000    0.000    0.545    0.000   11.455 
#    0.000    0.000    0.000    0.000    0.000    0.000 
#
# Total GULP energy -245133.922490 kJ/mol
# GULP energy per Si atom -5571.225511 kJ/mol
# Density = 1.956242 g / cm^3
# Si number density = 19.607048 Si / 1000 Ang^3
#
#
#
# Elastic Constant Matrix: (Units=GPa)
#
#
# Indices 1 2 3 4 5 6 
#
# 1 26.7603 -14.0243 2.6472 0.0000 0.0000 0.0000
# 2 -14.0243 127.6188 32.9162 0.0000 0.0000 0.0000
# 3 2.6472 32.9162 88.3023 0.0000 0.0000 0.0000
# 4 0.0000 0.0000 0.0000 32.4281 0.0000 0.0000
# 5 0.0000 0.0000 0.0000 0.0000 11.1073 0.0000
# 6 0.0000 0.0000 0.0000 0.0000 0.0000 10.0943
#
#
#
# Elastic Compliance Matrix: (Units=1/GPa)
#
#
# Indices 1 2 3 4 5 6 
#
# 1 0.040441 0.005263 -0.003174 0.000000 0.000000 0.000000
# 2 0.005263 0.009354 -0.003645 0.000000 0.000000 0.000000
# 3 -0.003174 -0.003645 0.012779 0.000000 0.000000 0.000000
# 4 0.000000 0.000000 0.000000 0.030837 0.000000 0.000000
# 5 0.000000 0.000000 0.000000 0.000000 0.090031 0.000000
# 6 0.000000 0.000000 0.000000 0.000000 0.000000 0.099066
#
#
# Mechanical properties :
#
#
# Convention : Reuss Voigt Hill
#
# Bulk Modulus (GPa) = 16.81759 31.75106 24.28433
# Shear Modulus (GPa) = 16.36980 25.46877 20.91929
#
# Velocity S-wave (km/s) = 2.89259 3.60802 3.26993
# Velocity P-wave (km/s) = 4.44432 5.79534 5.16420
#
# Compressibility (1/GPa) = 0.05946155
#
# Stress axis : x y z
#
# Youngs Moduli (GPa) = 24.72744 106.90331 78.25627
#
# Poissons Ratio (x) = -0.56261 0.24840
# Poissons Ratio (y) = -0.13014 0.28522
# Poissons Ratio (z) = 0.07849 0.38963
#
# Static dielectric constant tensor:
#      x y z
#    x 1.642520 0.000000 0.000000 
#    y 0.000000 1.748490 0.000000 
#    z 0.000000 0.000000 1.717800 
# 
# From -- ./inp_files/4415.got.cif
#   From: 2010.05.17/outbox.cif.g08.bks.cpg/sg53_3_cif.got.tgz:4415.got - 2010.06.03 12:45:16.
