data_PCOD9417376
_publ_section_title
;
Structure prediction by ZEFSAII (Michael W. Deem and Ramdas Pophale) SiO2 
 PCOD9417376
Probable space group: P M N A
;
_chemical_formula_sum "Si O2"
_cell_formula_units_Z 48
_cell_length_a 8.639412
_cell_length_b 31.739070
_cell_length_c 9.274690
_cell_angle_alpha 90.000000
_cell_angle_beta 90.000000
_cell_angle_gamma 90.000000
_cell_volume 2543.184014
_symmetry_space_group_name_H-M "P M N A"
_symmetry_group_IT_number 53
_symmetry_cell_setting 'orthorhombic'
loop_
_space_group_symop_operation_xyz
x,y,z
1/2-x,-y,1/2+z
x,-y,-z
1/2-x,y,1/2-z
-x,-y,-z
1/2+x,y,1/2-z
-x,y,z
1/2+x,-y,1/2+z
loop_
_atom_site_type_symbol
_atom_site_label
_atom_site_fract_x
_atom_site_fract_y
_atom_site_fract_z
Si Si1 0.686621 0.795535 0.910924
Si Si2 0.813922 0.121581 0.588110
Si Si3 0.686827 0.540985 0.589397
Si Si4 0.814218 0.957793 0.911970
Si Si5 0.313934 0.376729 0.588606
Si Si6 0.686138 0.286644 0.911744
O O1 0.750000 0.799195 0.750000
O O2 0.500000 0.795745 0.904838
O O3 0.734695 0.835250 0.008560
O O4 0.734847 0.751961 0.986967
O O5 0.750000 0.120042 0.750000
O O6 0.752536 0.082327 0.496032
O O7 0.000000 0.120215 0.592661
O O8 0.738569 0.500000 0.500000
O O9 0.750000 0.539391 0.750000
O O10 0.500000 0.540418 0.593528
O O11 0.734132 0.584018 0.509664
O O12 0.750000 0.959602 0.750000
O O13 0.000000 0.954811 0.906926
O O14 0.772206 0.000000 0.000000
O O15 0.250000 0.383055 0.750000
O O16 0.500000 0.374797 0.594115
O O17 0.249394 0.331776 0.536767
O O18 0.750000 0.280068 0.750000
O O19 0.500000 0.288148 0.905478
#
# Coordination Sequence:
#
# PCOD9417376 Si02
#       6
#     8   8   8   8   8   8
#     4  10  23  39  57  83 114 149 188 232 281 334
#     4  11  23  40  62  88 117 151 193 238 287 340
#     4  10  22  38  56  80 109 142 181 224 272 326
#     4  11  24  41  62  89 121 156 194 237 285 338
#     4  10  20  35  56  82 110 142 182 225 272 326
#     4  10  20  36  57  82 111 145 185 226 274 329
#
# _framework density 18.873978999999999
#
# number of rings (size 3 to 8) (size 9 to 14) (size 15 to 20)
#    0.000    1.667    0.000    5.000    0.000    9.000 
#    0.000    3.333    0.000    0.000    0.000    0.000 
#    0.000    0.000    0.000    0.000    0.000    0.000 
#
# Total GULP energy -268325.005098 kJ/mol
# GULP energy per Si atom -5590.104273 kJ/mol
# Density = 1.883102 g / cm^3
# Si number density = 18.873979 Si / 1000 Ang^3
#
#
#
# Elastic Constant Matrix: (Units=GPa)
#
#
# Indices 1 2 3 4 5 6 
#
# 1 44.4652 54.5100 43.3111 0.0000 0.0000 0.0000
# 2 54.5100 213.2779 133.2990 0.0000 0.0000 0.0000
# 3 43.3111 133.2990 175.2930 0.0000 0.0000 0.0000
# 4 0.0000 0.0000 0.0000 42.0488 0.0000 0.0000
# 5 0.0000 0.0000 0.0000 0.0000 36.6321 0.0000
# 6 0.0000 0.0000 0.0000 0.0000 0.0000 30.6645
#
#
#
# Elastic Compliance Matrix: (Units=1/GPa)
#
#
# Indices 1 2 3 4 5 6 
#
# 1 0.033778 -0.006512 -0.003394 0.000000 0.000000 0.000000
# 2 -0.006512 0.010191 -0.006141 0.000000 0.000000 0.000000
# 3 -0.003394 -0.006141 0.011213 0.000000 0.000000 0.000000
# 4 0.000000 0.000000 0.000000 0.023782 0.000000 0.000000
# 5 0.000000 0.000000 0.000000 0.000000 0.027298 0.000000
# 6 0.000000 0.000000 0.000000 0.000000 0.000000 0.032611
#
#
# Mechanical properties :
#
#
# Convention : Reuss Voigt Hill
#
# Bulk Modulus (GPa) = 43.31041 99.47515 71.39278
# Shear Modulus (GPa) = 27.98566 35.33015 31.65790
#
# Velocity S-wave (km/s) = 3.85485 4.33124 4.09997
# Velocity P-wave (km/s) = 6.54294 8.82225 7.76667
#
# Compressibility (1/GPa) = 0.02308914
#
# Stress axis : x y z
#
# Youngs Moduli (GPa) = 29.60471 98.12663 89.18329
#
# Poissons Ratio (x) = 0.63899 0.30269
# Poissons Ratio (y) = 0.19278 0.54764
# Poissons Ratio (z) = 0.10048 0.60256
#
# Static dielectric constant tensor:
#      x y z
#    x 1.641900 0.000000 0.000000 
#    y 0.000000 1.650970 0.000000 
#    z 0.000000 0.000000 1.604410 
# 
# From -- ./inp_files/6681.got.cif
#   From: 2010.05.17/outbox.cif.g08.bks.cpg/sg53_4_cif.got.tgz:6681.got - 2010.06.03 12:45:16.
