data_PCOD9417101
_publ_section_title
;
Structure prediction by ZEFSAII (Michael W. Deem and Ramdas Pophale) SiO2 
 PCOD9417101
Probable space group: P M N A
;
_chemical_formula_sum "Si O2"
_cell_formula_units_Z 64
_cell_length_a 14.929576
_cell_length_b 9.654824
_cell_length_c 25.073484
_cell_angle_alpha 90.000000
_cell_angle_beta 90.000000
_cell_angle_gamma 90.000000
_cell_volume 3614.152879
_symmetry_space_group_name_H-M "P M N A"
_symmetry_group_IT_number 53
_symmetry_cell_setting 'orthorhombic'
loop_
_space_group_symop_operation_xyz
x,y,z
1/2-x,-y,1/2+z
x,-y,-z
1/2-x,y,1/2-z
-x,-y,-z
1/2+x,y,1/2-z
-x,y,z
1/2+x,-y,1/2+z
loop_
_atom_site_type_symbol
_atom_site_label
_atom_site_fract_x
_atom_site_fract_y
_atom_site_fract_z
Si Si1 0.104762 0.004361 0.840590
Si Si2 0.726540 0.503930 0.858476
Si Si3 0.899738 0.606370 0.548501
Si Si4 0.154112 0.291320 0.272584
Si Si5 0.099388 0.680306 0.844382
Si Si6 0.895288 0.850867 0.472967
Si Si7 0.725665 0.823442 0.132780
Si Si8 0.601956 0.005370 0.787936
O O1 0.120309 0.842521 0.855248
O O2 0.115527 0.015619 0.776075
O O3 0.000000 0.035663 0.852169
O O4 0.177330 0.102591 0.868274
O O5 0.667134 0.545459 0.908808
O O6 0.676472 0.577433 0.808787
O O7 0.822827 0.578496 0.863056
O O8 0.734332 0.339226 0.854004
O O9 0.905982 0.500000 0.500000
O O10 0.868834 0.746324 0.520164
O O11 0.000000 0.626127 0.571294
O O12 0.250000 0.241218 0.250000
O O13 0.098910 0.329033 0.220179
O O14 0.113572 0.157895 0.301665
O O15 0.000000 0.648673 0.864808
O O16 0.830951 0.838400 0.421989
O O17 0.000000 0.819481 0.458170
O O18 0.892755 0.000000 0.500000
O O19 0.670096 0.902759 0.178734
O O20 0.500000 0.047176 0.799785
#
# Coordination Sequence:
#
# PCOD9417101 Si02
#       8
#     8   8   8   8   8   8   8   8
#     4   9  20  38  58  79 108 148 187 225 271 317
#     4  11  23  34  55  85 111 146 182 219 276 330
#     4  10  21  40  58  76 111 147 175 215 272 330
#     4   9  18  34  54  79 110 148 188 220 260 318
#     4   9  19  38  58  79 110 146 188 228 262 317
#     4  10  23  40  58  83 109 139 180 225 272 323
#     4  12  22  35  55  83 116 142 178 228 275 328
#     4  10  20  34  54  80 111 148 186 224 266 318
#
# _framework density 17.708159999999999
#
# number of rings (size 3 to 8) (size 9 to 14) (size 15 to 20)
#    0.000    2.000    1.250    4.125    3.500    5.000 
#    0.000    1.250    0.000    1.500    0.000    0.000 
#    0.000    0.000    0.000    0.000    0.000    0.000 
#
# Total GULP energy -357001.680645 kJ/mol
# GULP energy per Si atom -5578.151260 kJ/mol
# Density = 1.766786 g / cm^3
# Si number density = 17.708160 Si / 1000 Ang^3
#
#
#
# Elastic Constant Matrix: (Units=GPa)
#
#
# Indices 1 2 3 4 5 6 
#
# 1 112.8781 50.4009 38.8103 0.0000 0.0000 0.0000
# 2 50.4009 112.6827 31.7116 0.0000 0.0000 0.0000
# 3 38.8103 31.7116 32.9499 0.0000 0.0000 0.0000
# 4 0.0000 0.0000 0.0000 24.7604 0.0000 0.0000
# 5 0.0000 0.0000 0.0000 0.0000 23.4338 0.0000
# 6 0.0000 0.0000 0.0000 0.0000 0.0000 4.9636
#
#
#
# Elastic Compliance Matrix: (Units=1/GPa)
#
#
# Indices 1 2 3 4 5 6 
#
# 1 0.015363 -0.002440 -0.015747 0.000000 0.000000 0.000000
# 2 -0.002440 0.012558 -0.009213 0.000000 0.000000 0.000000
# 3 -0.015747 -0.009213 0.057763 0.000000 0.000000 0.000000
# 4 0.000000 0.000000 0.000000 0.040387 0.000000 0.000000
# 5 0.000000 0.000000 0.000000 0.000000 0.042673 0.000000
# 6 0.000000 0.000000 0.000000 0.000000 0.000000 0.201465
#
#
# Mechanical properties :
#
#
# Convention : Reuss Voigt Hill
#
# Bulk Modulus (GPa) = 32.37775 55.59515 43.98645
# Shear Modulus (GPa) = 11.48625 19.80411 15.64518
#
# Velocity S-wave (km/s) = 2.54961 3.34782 2.97560
# Velocity P-wave (km/s) = 5.19530 6.81228 6.05798
#
# Compressibility (1/GPa) = 0.03088541
#
# Stress axis : x y z
#
# Youngs Moduli (GPa) = 65.09262 79.62770 17.31212
#
# Poissons Ratio (x) = 0.19429 0.27261
# Poissons Ratio (y) = 0.15882 0.15949
# Poissons Ratio (z) = 1.02501 0.73358
#
# Static dielectric constant tensor:
#      x y z
#    x 1.652920 0.000000 0.000000 
#    y 0.000000 1.520580 0.000000 
#    z 0.000000 0.000000 1.596450 
# 
# From -- ./inp_files/35364.got.cif
#   From: 2010.05.17/outbox.cif.g08.bks.cpg/sg53_18_cif.got.tgz:35364.got - 2010.06.03 12:45:16.
