data_PCOD9417589
_publ_section_title
;
Structure prediction by ZEFSAII (Michael W. Deem and Ramdas Pophale) SiO2 
 PCOD9417589
Probable space group: P M N A
;
_chemical_formula_sum "Si O2"
_cell_formula_units_Z 64
_cell_length_a 8.885132
_cell_length_b 23.772145
_cell_length_c 16.259150
_cell_angle_alpha 90.000000
_cell_angle_beta 90.000000
_cell_angle_gamma 90.000000
_cell_volume 3434.235652
_symmetry_space_group_name_H-M "P M N A"
_symmetry_group_IT_number 53
_symmetry_cell_setting 'orthorhombic'
loop_
_space_group_symop_operation_xyz
x,y,z
1/2-x,-y,1/2+z
x,-y,-z
1/2-x,y,1/2-z
-x,-y,-z
1/2+x,y,1/2-z
-x,y,z
1/2+x,-y,1/2+z
loop_
_atom_site_type_symbol
_atom_site_label
_atom_site_fract_x
_atom_site_fract_y
_atom_site_fract_z
Si Si1 0.183038 0.869032 0.492205
Si Si2 0.326767 0.576436 0.904961
Si Si3 0.818862 0.924538 0.662963
Si Si4 0.672456 0.369482 0.913405
Si Si5 0.677403 0.471753 0.663065
Si Si6 0.818693 0.056752 0.662861
Si Si7 0.179287 0.685588 0.835588
Si Si8 0.318084 0.740143 0.997493
O O1 0.232907 0.891557 0.581561
O O2 0.233461 0.907344 0.415763
O O3 0.223140 0.803809 0.481527
O O4 0.000000 0.872365 0.493021
O O5 0.500000 0.573431 0.876920
O O6 0.251620 0.515749 0.899716
O O7 0.235736 0.621791 0.851501
O O8 0.326966 0.600955 0.996945
O O9 0.750000 0.905591 0.750000
O O10 0.000000 0.919887 0.668274
O O11 0.781264 0.990692 0.651792
O O12 0.500000 0.370603 0.882511
O O13 0.776966 0.408064 0.858113
O O14 0.720409 0.305680 0.932510
O O15 0.750000 0.486843 0.750000
O O16 0.500000 0.478426 0.663961
O O17 0.750000 0.075315 0.750000
O O18 0.000000 0.060832 0.667571
O O19 0.250000 0.705659 0.750000
O O20 0.000000 0.687482 0.832673
O O21 0.241712 0.721038 0.912605
O O22 0.500000 0.736349 0.986696
#
# Coordination Sequence:
#
# PCOD9417589 Si02
#       8
#     8   8   8   8   8   8   8   8
#     4   9  17  32  55  78 103 140 182 219 261 317
#     4  10  20  36  57  80 106 133 163 202 252 309
#     4   9  17  30  50  78 111 144 178 215 259 314
#     4   9  19  36  55  73  98 132 166 204 253 306
#     4  12  24  36  53  77 104 131 164 207 254 305
#     4   9  17  31  52  78 107 140 178 221 267 315
#     4  11  21  34  52  75 105 138 173 212 256 307
#     4   9  19  36  55  74  99 134 175 216 259 308
#
# _framework density 18.635878000000002
#
# number of rings (size 3 to 8) (size 9 to 14) (size 15 to 20)
#    0.000    2.250    0.000    4.500    0.000    6.000 
#    0.000    3.750    0.000    4.500    0.000    0.000 
#    0.000    0.000    0.000    0.000    0.000    0.000 
#
# Total GULP energy -357183.220944 kJ/mol
# GULP energy per Si atom -5580.987827 kJ/mol
# Density = 1.859346 g / cm^3
# Si number density = 18.635878 Si / 1000 Ang^3
#
#
#
# Elastic Constant Matrix: (Units=GPa)
#
#
# Indices 1 2 3 4 5 6 
#
# 1 54.3737 20.6933 11.1220 0.0000 0.0000 0.0000
# 2 20.6933 99.3915 39.8441 0.0000 0.0000 0.0000
# 3 11.1220 39.8441 62.1160 0.0000 0.0000 0.0000
# 4 0.0000 0.0000 0.0000 13.0322 0.0000 0.0000
# 5 0.0000 0.0000 0.0000 0.0000 24.7236 0.0000
# 6 0.0000 0.0000 0.0000 0.0000 0.0000 23.3141
#
#
#
# Elastic Compliance Matrix: (Units=1/GPa)
#
#
# Indices 1 2 3 4 5 6 
#
# 1 0.020043 -0.003681 -0.001228 0.000000 0.000000 0.000000
# 2 -0.003681 0.014220 -0.008462 0.000000 0.000000 0.000000
# 3 -0.001228 -0.008462 0.021747 0.000000 0.000000 0.000000
# 4 0.000000 0.000000 0.000000 0.076733 0.000000 0.000000
# 5 0.000000 0.000000 0.000000 0.000000 0.040447 0.000000
# 6 0.000000 0.000000 0.000000 0.000000 0.000000 0.042893
#
#
# Mechanical properties :
#
#
# Convention : Reuss Voigt Hill
#
# Bulk Modulus (GPa) = 34.16659 39.91109 37.03884
# Shear Modulus (GPa) = 19.79566 21.82876 20.81221
#
# Velocity S-wave (km/s) = 3.26273 3.42618 3.34545
# Velocity P-wave (km/s) = 5.70679 6.09216 5.90262
#
# Compressibility (1/GPa) = 0.02926836
#
# Stress axis : x y z
#
# Youngs Moduli (GPa) = 49.89219 70.32393 45.98371
#
# Poissons Ratio (x) = 0.25885 0.05646
# Poissons Ratio (y) = 0.18364 0.38913
# Poissons Ratio (z) = 0.06125 0.59510
#
# Static dielectric constant tensor:
#      x y z
#    x 1.623650 0.000000 0.000000 
#    y 0.000000 1.658820 0.000000 
#    z 0.000000 0.000000 1.636000 
# 
# From -- ./inp_files/20885.got.cif
#   From: 2010.05.17/outbox.cif.g08.bks.cpg/sg53_11_cif.got.tgz:20885.got - 2010.06.03 12:45:16.
