data_PCOD9417499
_publ_section_title
;
Structure prediction by ZEFSAII (Michael W. Deem and Ramdas Pophale) SiO2 
 PCOD9417499
Probable space group: P M N A
;
_chemical_formula_sum "Si O2"
_cell_formula_units_Z 32
_cell_length_a 27.103190
_cell_length_b 8.408247
_cell_length_c 7.598305
_cell_angle_alpha 90.000000
_cell_angle_beta 90.000000
_cell_angle_gamma 90.000000
_cell_volume 1731.580128
_symmetry_space_group_name_H-M "P M N A"
_symmetry_group_IT_number 53
_symmetry_cell_setting 'orthorhombic'
loop_
_space_group_symop_operation_xyz
x,y,z
1/2-x,-y,1/2+z
x,-y,-z
1/2-x,y,1/2-z
-x,-y,-z
1/2+x,y,1/2-z
-x,y,z
1/2+x,-y,1/2+z
loop_
_atom_site_type_symbol
_atom_site_label
_atom_site_fract_x
_atom_site_fract_y
_atom_site_fract_z
Si Si1 0.305446 0.921370 0.190717
Si Si2 0.057375 0.791484 0.135279
Si Si3 0.894032 0.876688 0.787872
Si Si4 0.117502 0.325253 0.565081
O O1 0.250000 0.894411 0.250000
O O2 0.337361 0.762142 0.164316
O O3 0.339352 0.045308 0.300692
O O4 0.302491 0.000000 0.000000
O O5 0.074096 0.675254 0.290850
O O6 0.000000 0.777907 0.093794
O O7 0.070051 0.969278 0.207990
O O8 0.089811 0.776370 0.957845
O O9 0.896277 0.781356 0.605539
O O10 0.129944 0.500000 0.500000
#
# Coordination Sequence:
#
# PCOD9417499 Si02
#       4
#     8   8   8   8
#     4   9  19  34  60  82 101 140 188 233 282 327
#     4  10  20  35  61  84 106 150 193 232 276 313
#     4   9  19  36  56  83 108 137 185 242 273 318
#     4  10  22  38  52  79 123 149 176 225 281 340
#
# _framework density 18.480231
#
# number of rings (size 3 to 8) (size 9 to 14) (size 15 to 20)
#    0.000    2.500    0.000    3.750    7.000    4.500 
#    0.000    6.250    0.000    0.000    0.000    0.000 
#    0.000    0.000    0.000    0.000    0.000    0.000 
#
# Total GULP energy -178370.294599 kJ/mol
# GULP energy per Si atom -5574.071706 kJ/mol
# Density = 1.843817 g / cm^3
# Si number density = 18.480231 Si / 1000 Ang^3
#
#
#
# Elastic Constant Matrix: (Units=GPa)
#
#
# Indices 1 2 3 4 5 6 
#
# 1 134.9517 25.3861 67.2885 0.0000 0.0000 0.0000
# 2 25.3861 32.2913 18.3983 0.0000 0.0000 0.0000
# 3 67.2885 18.3983 110.5300 0.0000 0.0000 0.0000
# 4 0.0000 0.0000 0.0000 11.8534 0.0000 0.0000
# 5 0.0000 0.0000 0.0000 0.0000 27.1130 0.0000
# 6 0.0000 0.0000 0.0000 0.0000 0.0000 4.4943
#
#
#
# Elastic Compliance Matrix: (Units=1/GPa)
#
#
# Indices 1 2 3 4 5 6 
#
# 1 0.011481 -0.005572 -0.006062 0.000000 0.000000 0.000000
# 2 -0.005572 0.036917 -0.002753 0.000000 0.000000 0.000000
# 3 -0.006062 -0.002753 0.013196 0.000000 0.000000 0.000000
# 4 0.000000 0.000000 0.000000 0.084364 0.000000 0.000000
# 5 0.000000 0.000000 0.000000 0.000000 0.036883 0.000000
# 6 0.000000 0.000000 0.000000 0.000000 0.000000 0.222502
#
#
# Mechanical properties :
#
#
# Convention : Reuss Voigt Hill
#
# Bulk Modulus (GPa) = 30.46895 55.54654 43.00775
# Shear Modulus (GPa) = 11.23456 19.80548 15.52002
#
# Velocity S-wave (km/s) = 2.46828 3.27725 2.90110
# Velocity P-wave (km/s) = 4.96451 6.66656 5.87747
#
# Compressibility (1/GPa) = 0.03282030
#
# Stress axis : x y z
#
# Youngs Moduli (GPa) = 87.10313 27.08779 75.78163
#
# Poissons Ratio (x) = 0.15093 0.45937
# Poissons Ratio (y) = 0.48533 0.20862
# Poissons Ratio (z) = 0.52799 0.07457
#
# Static dielectric constant tensor:
#      x y z
#    x 1.657140 0.000000 0.000000 
#    y 0.000000 1.633560 0.000000 
#    z 0.000000 0.000000 1.675020 
# 
# From -- ./inp_files/12140.got.cif
#   From: 2010.05.17/outbox.cif.g08.bks.cpg/sg53_7_cif.got.tgz:12140.got - 2010.06.03 12:45:16.
