data_PCOD9417147
_publ_section_title
;
Structure prediction by ZEFSAII (Michael W. Deem and Ramdas Pophale) SiO2 
 PCOD9417147
Probable space group: P M N A
;
_chemical_formula_sum "Si O2"
_cell_formula_units_Z 64
_cell_length_a 8.856801
_cell_length_b 22.117582
_cell_length_c 17.982694
_cell_angle_alpha 90.000000
_cell_angle_beta 90.000000
_cell_angle_gamma 90.000000
_cell_volume 3522.648313
_symmetry_space_group_name_H-M "P M N A"
_symmetry_group_IT_number 53
_symmetry_cell_setting 'orthorhombic'
loop_
_space_group_symop_operation_xyz
x,y,z
1/2-x,-y,1/2+z
x,-y,-z
1/2-x,y,1/2-z
-x,-y,-z
1/2+x,y,1/2-z
-x,y,z
1/2+x,-y,1/2+z
loop_
_atom_site_type_symbol
_atom_site_label
_atom_site_fract_x
_atom_site_fract_y
_atom_site_fract_z
Si Si1 0.319763 0.683646 0.050320
Si Si2 0.319295 0.890542 0.430952
Si Si3 0.679693 0.004981 0.328179
Si Si4 0.682110 0.217105 0.832253
Si Si5 0.680545 0.742761 0.891437
Si Si6 0.320116 0.374251 0.326404
Si Si7 0.317921 0.567780 0.517742
Si Si8 0.818566 0.880045 0.595058
O O1 0.500000 0.675195 0.051433
O O2 0.276470 0.721791 0.122785
O O3 0.285118 0.724280 0.977125
O O4 0.242814 0.619143 0.037674
O O5 0.500000 0.882134 0.436163
O O6 0.247480 0.838383 0.380040
O O7 0.247105 0.888832 0.512394
O O8 0.290577 0.954536 0.390789
O O9 0.750000 0.984928 0.250000
O O10 0.500000 0.011463 0.320550
O O11 0.752259 0.068090 0.352876
O O12 0.750000 0.216457 0.750000
O O13 0.500000 0.212730 0.829802
O O14 0.500000 0.736282 0.881191
O O15 0.764596 0.694084 0.841116
O O16 0.722419 0.812256 0.879059
O O17 0.250000 0.397150 0.250000
O O18 0.500000 0.375593 0.321912
O O19 0.271360 0.411819 0.399238
O O20 0.266647 0.500000 0.500000
O O21 0.500000 0.568906 0.515019
O O22 0.000000 0.883817 0.592498
#
# Coordination Sequence:
#
# PCOD9417147 Si02
#       8
#     8   8   8   8   8   8   8   8
#     4   9  18  35  56  80 112 144 182 227 271 330
#     4  11  23  39  60  84 112 147 190 237 285 343
#     4  11  25  42  57  79 110 147 190 238 288 343
#     4  11  22  37  57  85 116 148 188 235 288 341
#     4   9  18  35  56  80 109 142 179 225 274 328
#     4  10  20  34  55  83 113 149 186 228 278 328
#     4   9  19  36  58  84 113 148 191 233 275 327
#     4  11  22  38  61  86 112 147 186 233 287 342
#
# _framework density 18.168149
#
# number of rings (size 3 to 8) (size 9 to 14) (size 15 to 20)
#    0.000    1.875    1.250    2.625    0.000    7.750 
#    0.000    0.625    0.000    3.000    0.000    0.000 
#    0.000    0.000    0.000    0.000    0.000    0.000 
#
# Total GULP energy -357480.375862 kJ/mol
# GULP energy per Si atom -5585.630873 kJ/mol
# Density = 1.812680 g / cm^3
# Si number density = 18.168149 Si / 1000 Ang^3
#
#
#
# Elastic Constant Matrix: (Units=GPa)
#
#
# Indices 1 2 3 4 5 6 
#
# 1 35.0888 33.5413 13.3055 0.0000 0.0000 0.0000
# 2 33.5413 105.8689 4.4814 0.0000 0.0000 0.0000
# 3 13.3055 4.4814 44.7820 0.0000 0.0000 0.0000
# 4 0.0000 0.0000 0.0000 14.3858 0.0000 0.0000
# 5 0.0000 0.0000 0.0000 0.0000 -20.4512 0.0000
# 6 0.0000 0.0000 0.0000 0.0000 0.0000 26.3897
#
#
#
# Elastic Compliance Matrix: (Units=1/GPa)
#
#
# Indices 1 2 3 4 5 6 
#
# 1 0.046961 -0.014348 -0.012517 0.000000 0.000000 0.000000
# 2 -0.014348 0.013870 0.002875 0.000000 0.000000 0.000000
# 3 -0.012517 0.002875 0.025762 0.000000 0.000000 0.000000
# 4 0.000000 0.000000 0.000000 0.069513 0.000000 0.000000
# 5 0.000000 0.000000 0.000000 0.000000 -0.048897 0.000000
# 6 0.000000 0.000000 0.000000 0.000000 0.000000 0.037894
#
#
# Mechanical properties :
#
#
# Convention : Reuss Voigt Hill
#
# Bulk Modulus (GPa) = 25.89865 32.04401 28.97133
# Shear Modulus (GPa) = 24.27738 13.02563 18.65150
#
# Velocity S-wave (km/s) = 3.65946 2.68049 3.20754
# Velocity P-wave (km/s) = 5.66934 5.22071 5.44964
#
# Compressibility (1/GPa) = 0.03861204
#
# Stress axis : x y z
#
# Youngs Moduli (GPa) = 21.29428 72.09934 38.81734
#
# Poissons Ratio (x) = 1.03450 0.48588
# Poissons Ratio (y) = 0.30554 -0.11161
# Poissons Ratio (z) = 0.26654 -0.20730
#
# Static dielectric constant tensor:
#      x y z
#    x 1.606990 0.000000 0.000000 
#    y 0.000000 1.609440 0.000000 
#    z 0.000000 0.000000 1.611610 
# 
# From -- ./inp_files/26862.got.cif
#   From: 2010.05.17/outbox.cif.g08.bks.cpg/sg53_14_cif.got.tgz:26862.got - 2010.06.03 12:45:16.
