data_PCOD9417822
_publ_section_title
;
Structure prediction by ZEFSAII (Michael W. Deem and Ramdas Pophale) SiO2 
 PCOD9417822
Probable space group: P M N A
;
_chemical_formula_sum "Si O2"
_cell_formula_units_Z 56
_cell_length_a 8.632980
_cell_length_b 18.192126
_cell_length_c 19.703753
_cell_angle_alpha 90.000000
_cell_angle_beta 90.000000
_cell_angle_gamma 90.000000
_cell_volume 3094.518937
_symmetry_space_group_name_H-M "P M N A"
_symmetry_group_IT_number 53
_symmetry_cell_setting 'orthorhombic'
loop_
_space_group_symop_operation_xyz
x,y,z
1/2-x,-y,1/2+z
x,-y,-z
1/2-x,y,1/2-z
-x,-y,-z
1/2+x,y,1/2-z
-x,y,z
1/2+x,-y,1/2+z
loop_
_atom_site_type_symbol
_atom_site_label
_atom_site_fract_x
_atom_site_fract_y
_atom_site_fract_z
Si Si1 0.185980 0.503013 0.173740
Si Si2 0.813964 0.629495 0.927242
Si Si3 0.685112 0.370599 0.922350
Si Si4 0.313618 0.079055 0.674530
Si Si5 0.186556 0.790928 0.075071
Si Si6 0.815108 0.209696 0.425653
Si Si7 0.686352 0.086745 0.326092
O O1 0.250000 0.498433 0.250000
O O2 0.227034 0.431687 0.128308
O O3 0.252805 0.572612 0.133100
O O4 0.000000 0.508295 0.176075
O O5 0.746605 0.708969 0.907676
O O6 0.000000 0.634231 0.932107
O O7 0.749527 0.610767 0.002279
O O8 0.500000 0.371679 0.924596
O O9 0.744116 0.288390 0.906253
O O10 0.250000 0.089920 0.750000
O O11 0.500000 0.080980 0.677389
O O12 0.262669 0.144053 0.625039
O O13 0.270432 0.996460 0.651541
O O14 0.000000 0.785968 0.075481
O O15 0.244085 0.807376 0.999326
O O16 0.758469 0.148683 0.373319
O O17 0.000000 0.211620 0.429669
O O18 0.750000 0.095312 0.250000
O O19 0.500000 0.092772 0.326272
#
# Coordination Sequence:
#
# PCOD9417822 Si02
#       7
#     8   8   8   8   8   8   8
#     4  11  24  40  59  84 113 145 183 227 275 325
#     4  10  21  39  61  83 110 146 186 229 277 328
#     4  11  22  37  59  85 113 147 185 225 273 330
#     4   9  20  36  57  81 108 145 185 227 276 329
#     4  10  20  37  58  82 112 146 186 231 277 325
#     4  11  22  36  56  84 113 145 185 228 276 327
#     4  10  20  37  57  80 110 145 185 227 275 330
#
# _framework density 18.096512000000001
#
# number of rings (size 3 to 8) (size 9 to 14) (size 15 to 20)
#    0.000    1.714    0.000    6.429    0.000    7.429 
#    0.000    5.714    0.000    0.000    0.000    0.000 
#    0.000    0.000    0.000    0.000    0.000    0.000 
#
# Total GULP energy -312870.713531 kJ/mol
# GULP energy per Si atom -5586.977027 kJ/mol
# Density = 1.805532 g / cm^3
# Si number density = 18.096512 Si / 1000 Ang^3
#
#
#
# Elastic Constant Matrix: (Units=GPa)
#
#
# Indices 1 2 3 4 5 6 
#
# 1 81.2981 51.9381 48.3833 0.0000 0.0000 0.0000
# 2 51.9381 146.3457 119.8177 0.0000 0.0000 0.0000
# 3 48.3833 119.8177 121.5264 0.0000 0.0000 0.0000
# 4 0.0000 0.0000 0.0000 65.8876 0.0000 0.0000
# 5 0.0000 0.0000 0.0000 0.0000 32.0743 0.0000
# 6 0.0000 0.0000 0.0000 0.0000 0.0000 25.8981
#
#
#
# Elastic Compliance Matrix: (Units=1/GPa)
#
#
# Indices 1 2 3 4 5 6 
#
# 1 0.016287 -0.002445 -0.004074 0.000000 0.000000 0.000000
# 2 -0.002445 0.035812 -0.034335 0.000000 0.000000 0.000000
# 3 -0.004074 -0.034335 0.043703 0.000000 0.000000 0.000000
# 4 0.000000 0.000000 0.000000 0.015177 0.000000 0.000000
# 5 0.000000 0.000000 0.000000 0.000000 0.031178 0.000000
# 6 0.000000 0.000000 0.000000 0.000000 0.000000 0.038613
#
#
# Mechanical properties :
#
#
# Convention : Reuss Voigt Hill
#
# Bulk Modulus (GPa) = 70.95110 87.71646 79.33378
# Shear Modulus (GPa) = 18.71436 33.37409 26.04422
#
# Velocity S-wave (km/s) = 3.21930 4.29911 3.79777
# Velocity P-wave (km/s) = 7.28771 8.55686 7.94766
#
# Compressibility (1/GPa) = 0.01409421
#
# Stress axis : x y z
#
# Youngs Moduli (GPa) = 61.39953 27.92366 22.88186
#
# Poissons Ratio (x) = 0.06827 0.09322
# Poissons Ratio (y) = 0.15011 0.78565
# Poissons Ratio (z) = 0.25013 0.95876
#
# Static dielectric constant tensor:
#      x y z
#    x 1.605480 0.000000 0.000000 
#    y 0.000000 1.617100 0.000000 
#    z 0.000000 0.000000 1.592110 
# 
# From -- ./inp_files/30833.got.cif
#   From: 2010.05.17/outbox.cif.g08.bks.cpg/sg53_16_cif.got.tgz:30833.got - 2010.06.03 12:45:16.
