data_PCOD9417431
_publ_section_title
;
Structure prediction by ZEFSAII (Michael W. Deem and Ramdas Pophale) SiO2 
 PCOD9417431
Probable space group: P M N A
;
_chemical_formula_sum "Si O2"
_cell_formula_units_Z 40
_cell_length_a 17.132777
_cell_length_b 13.656345
_cell_length_c 8.606085
_cell_angle_alpha 90.000000
_cell_angle_beta 90.000000
_cell_angle_gamma 90.000000
_cell_volume 2013.575290
_symmetry_space_group_name_H-M "P M N A"
_symmetry_group_IT_number 53
_symmetry_cell_setting 'orthorhombic'
loop_
_space_group_symop_operation_xyz
x,y,z
1/2-x,-y,1/2+z
x,-y,-z
1/2-x,y,1/2-z
-x,-y,-z
1/2+x,y,1/2-z
-x,y,z
1/2+x,-y,1/2+z
loop_
_atom_site_type_symbol
_atom_site_label
_atom_site_fract_x
_atom_site_fract_y
_atom_site_fract_z
Si Si1 0.907713 0.006055 0.678298
Si Si2 0.091557 0.601461 0.148900
Si Si3 0.162047 0.810790 0.810378
Si Si4 0.664528 0.201179 0.682392
Si Si5 0.340039 0.595332 0.696384
O O1 0.866182 0.098383 0.754817
O O2 0.000000 0.022532 0.684092
O O3 0.881754 0.000000 0.500000
O O4 0.887702 0.903082 0.757437
O O5 0.111791 0.704959 0.226536
O O6 0.115254 0.503926 0.243305
O O7 0.000000 0.597666 0.108803
O O8 0.143345 0.599666 0.990128
O O9 0.250000 0.824123 0.750000
O O10 0.133490 0.703884 0.750237
O O11 0.164762 0.807193 0.996352
O O12 0.750000 0.219670 0.750000
O O13 0.250000 0.586113 0.750000
#
# Coordination Sequence:
#
# PCOD9417431 Si02
#       5
#     8   8   8   8   8
#     4  11  24  40  58  82 116 153 191 242 300 353
#     4  10  20  35  57  87 119 151 193 244 295 347
#     4  10  21  37  58  85 114 149 193 239 286 346
#     4  11  22  37  61  87 116 153 196 243 292 352
#     4   9  18  33  55  84 115 150 192 239 289 345
#
# _framework density 19.865162000000002
#
# number of rings (size 3 to 8) (size 9 to 14) (size 15 to 20)
#    0.000    1.800    0.000    4.800    0.000    5.600 
#    0.000    0.000    0.000    0.000    0.000   33.600 
#    0.000    0.000    0.000    0.000    0.000    0.000 
#
# Total GULP energy -223108.480845 kJ/mol
# GULP energy per Si atom -5577.712021 kJ/mol
# Density = 1.981995 g / cm^3
# Si number density = 19.865162 Si / 1000 Ang^3
#
#
#
# Elastic Constant Matrix: (Units=GPa)
#
#
# Indices 1 2 3 4 5 6 
#
# 1 76.4438 59.1812 37.9457 0.0000 0.0000 0.0000
# 2 59.1812 175.8916 39.5215 0.0000 0.0000 0.0000
# 3 37.9457 39.5215 60.9501 0.0000 0.0000 0.0000
# 4 0.0000 0.0000 0.0000 47.3244 0.0000 0.0000
# 5 0.0000 0.0000 0.0000 0.0000 -160.5660 0.0000
# 6 0.0000 0.0000 0.0000 0.0000 0.0000 -11.4474
#
#
#
# Elastic Compliance Matrix: (Units=1/GPa)
#
#
# Indices 1 2 3 4 5 6 
#
# 1 0.022290 -0.005129 -0.010551 0.000000 0.000000 0.000000
# 2 -0.005129 0.007835 -0.001887 0.000000 0.000000 0.000000
# 3 -0.010551 -0.001887 0.024199 0.000000 0.000000 0.000000
# 4 0.000000 0.000000 0.000000 0.021131 0.000000 0.000000
# 5 0.000000 0.000000 0.000000 0.000000 -0.006228 0.000000
# 6 0.000000 0.000000 0.000000 0.000000 0.000000 -0.087356
#
#
# Mechanical properties :
#
#
# Convention : Reuss Voigt Hill
#
# Bulk Modulus (GPa) = 52.11209 65.17580 58.64395
# Shear Modulus (GPa) = 213.65562 -13.16198 100.24682
#
# Velocity S-wave (km/s) = 10.38202 -2.57683 7.11148
# Velocity P-wave (km/s) = 13.03860 4.90173 9.84967
#
# Compressibility (1/GPa) = 0.01918941
#
# Stress axis : x y z
#
# Youngs Moduli (GPa) = 44.86388 127.63096 41.32321
#
# Poissons Ratio (x) = 0.65461 0.43601
# Poissons Ratio (y) = 0.23010 0.07799
# Poissons Ratio (z) = 0.47337 0.24088
#
# Static dielectric constant tensor:
#      x y z
#    x 1.670960 0.000000 0.000000 
#    y 0.000000 1.759190 0.000000 
#    z 0.000000 0.000000 1.711290 
# 
# From -- ./inp_files/8435.got.cif
#   From: 2010.05.17/outbox.cif.g08.bks.cpg/sg53_5_cif.got.tgz:8435.got - 2010.06.03 12:45:16.
