data_PCOD9417286
_publ_section_title
;
Structure prediction by ZEFSAII (Michael W. Deem and Ramdas Pophale) SiO2 
 PCOD9417286
Probable space group: P M N A
;
_chemical_formula_sum "Si O2"
_cell_formula_units_Z 48
_cell_length_a 8.626654
_cell_length_b 31.758003
_cell_length_c 9.521913
_cell_angle_alpha 90.000000
_cell_angle_beta 90.000000
_cell_angle_gamma 90.000000
_cell_volume 2608.673786
_symmetry_space_group_name_H-M "P M N A"
_symmetry_group_IT_number 53
_symmetry_cell_setting 'orthorhombic'
loop_
_space_group_symop_operation_xyz
x,y,z
1/2-x,-y,1/2+z
x,-y,-z
1/2-x,y,1/2-z
-x,-y,-z
1/2+x,y,1/2-z
-x,y,z
1/2+x,-y,1/2+z
loop_
_atom_site_type_symbol
_atom_site_label
_atom_site_fract_x
_atom_site_fract_y
_atom_site_fract_z
Si Si1 0.185961 0.959525 0.592675
Si Si2 0.313691 0.379367 0.091884
Si Si3 0.313524 0.289686 0.407007
Si Si4 0.313649 0.884006 0.407600
Si Si5 0.312823 0.540171 0.092268
Si Si6 0.813359 0.788741 0.094393
O O1 0.250000 0.962710 0.750000
O O2 0.247707 0.918137 0.514278
O O3 0.000000 0.958283 0.597719
O O4 0.233303 0.000000 0.500000
O O5 0.250000 0.386030 0.250000
O O6 0.500000 0.377749 0.099272
O O7 0.250283 0.334422 0.039580
O O8 0.266618 0.417418 0.990186
O O9 0.250000 0.285289 0.250000
O O10 0.500000 0.291316 0.404923
O O11 0.261663 0.249309 0.495812
O O12 0.250000 0.891494 0.250000
O O13 0.500000 0.886668 0.404165
O O14 0.267824 0.836183 0.449402
O O15 0.250000 0.538612 0.250000
O O16 0.500000 0.539424 0.098561
O O17 0.262094 0.500000 0.000000
O O18 0.750000 0.782125 0.250000
O O19 0.000000 0.788004 0.098191
#
# Coordination Sequence:
#
# PCOD9417286 Si02
#       6
#     8   8   8   8   8   8
#     4  11  24  40  59  84 113 146 183 224 272 324
#     4  10  20  35  55  79 106 138 178 220 265 316
#     4  10  20  35  54  78 108 142 180 220 267 318
#     4  10  20  37  59  83 112 145 184 227 273 324
#     4  10  22  38  56  80 108 139 176 217 263 316
#     4   9  20  36  55  80 109 143 181 222 268 319
#
# _framework density 18.400155000000002
#
# number of rings (size 3 to 8) (size 9 to 14) (size 15 to 20)
#    0.000    2.000    0.000    4.000    0.000    7.667 
#    0.000    5.000    0.000    0.000    0.000    0.000 
#    0.000    0.000    0.000    0.000    0.000    0.000 
#
# Total GULP energy -268058.466592 kJ/mol
# GULP energy per Si atom -5584.551387 kJ/mol
# Density = 1.835828 g / cm^3
# Si number density = 18.400155 Si / 1000 Ang^3
#
#
#
# Elastic Constant Matrix: (Units=GPa)
#
#
# Indices 1 2 3 4 5 6 
#
# 1 41.4316 49.3648 36.2266 0.0000 0.0000 0.0000
# 2 49.3648 208.0811 127.4200 0.0000 0.0000 0.0000
# 3 36.2266 127.4200 131.8072 0.0000 0.0000 0.0000
# 4 0.0000 0.0000 0.0000 42.3836 0.0000 0.0000
# 5 0.0000 0.0000 0.0000 0.0000 32.2497 0.0000
# 6 0.0000 0.0000 0.0000 0.0000 0.0000 29.5985
#
#
#
# Elastic Compliance Matrix: (Units=1/GPa)
#
#
# Indices 1 2 3 4 5 6 
#
# 1 0.034422 -0.005815 -0.003839 0.000000 0.000000 0.000000
# 2 -0.005815 0.012761 -0.010738 0.000000 0.000000 0.000000
# 3 -0.003839 -0.010738 0.019022 0.000000 0.000000 0.000000
# 4 0.000000 0.000000 0.000000 0.023594 0.000000 0.000000
# 5 0.000000 0.000000 0.000000 0.000000 0.031008 0.000000
# 6 0.000000 0.000000 0.000000 0.000000 0.000000 0.033786
#
#
# Mechanical properties :
#
#
# Convention : Reuss Voigt Hill
#
# Bulk Modulus (GPa) = 39.33780 89.70472 64.52126
# Shear Modulus (GPa) = 24.52791 32.06694 28.29743
#
# Velocity S-wave (km/s) = 3.65503 4.17916 3.92585
# Velocity P-wave (km/s) = 6.26401 8.49383 7.46267
#
# Compressibility (1/GPa) = 0.02542084
#
# Stress axis : x y z
#
# Youngs Moduli (GPa) = 29.05151 78.36527 52.57022
#
# Poissons Ratio (x) = 0.45573 0.20180
# Poissons Ratio (y) = 0.16895 0.56448
# Poissons Ratio (z) = 0.11152 0.84146
#
# Static dielectric constant tensor:
#      x y z
#    x 1.625000 0.000000 0.000000 
#    y 0.000000 1.646660 0.000000 
#    z 0.000000 0.000000 1.587880 
# 
# From -- ./inp_files/6735.got.cif
#   From: 2010.05.17/outbox.cif.g08.bks.cpg/sg53_4_cif.got.tgz:6735.got - 2010.06.03 12:45:16.
