data_PCOD9417961
_publ_section_title
;
Structure prediction by ZEFSAII (Michael W. Deem and Ramdas Pophale) SiO2 
 PCOD9417961
Probable space group: P M N A
;
_chemical_formula_sum "Si O2"
_cell_formula_units_Z 56
_cell_length_a 18.909998
_cell_length_b 11.974760
_cell_length_c 13.384910
_cell_angle_alpha 90.000000
_cell_angle_beta 90.000000
_cell_angle_gamma 90.000000
_cell_volume 3030.914994
_symmetry_space_group_name_H-M "P M N A"
_symmetry_group_IT_number 53
_symmetry_cell_setting 'orthorhombic'
loop_
_space_group_symop_operation_xyz
x,y,z
1/2-x,-y,1/2+z
x,-y,-z
1/2-x,y,1/2-z
-x,-y,-z
1/2+x,y,1/2-z
-x,y,z
1/2+x,-y,1/2+z
loop_
_atom_site_type_symbol
_atom_site_label
_atom_site_fract_x
_atom_site_fract_y
_atom_site_fract_z
Si Si1 0.659680 0.872384 0.001521
Si Si2 0.419397 0.260292 0.166911
Si Si3 0.326454 0.591875 0.701088
Si Si4 0.917277 0.072549 0.158122
Si Si5 0.183940 0.656867 0.170941
Si Si6 0.188865 0.786508 0.962287
Si Si7 0.335487 0.868129 0.236211
O O1 0.614888 0.790583 0.932233
O O2 0.739311 0.859006 0.958087
O O3 0.656231 0.851397 0.118684
O O4 0.635106 0.000000 0.000000
O O5 0.500000 0.288697 0.148220
O O6 0.378959 0.365345 0.213426
O O7 0.416006 0.164673 0.252698
O O8 0.250000 0.584782 0.750000
O O9 0.343766 0.468644 0.660002
O O10 0.319938 0.688384 0.618689
O O11 0.875381 0.128351 0.064177
O O12 0.000000 0.048570 0.135964
O O13 0.875196 0.967947 0.206210
O O14 0.250000 0.651678 0.250000
O O15 0.135809 0.751758 0.219631
O O16 0.197932 0.716953 0.065137
O O17 0.250000 0.884545 0.250000
#
# Coordination Sequence:
#
# PCOD9417961 Si02
#       7
#     8   8   8   8   8   8   8
#     4  12  21  34  61  92 119 159 198 245 301 360
#     4  10  22  39  59  91 124 155 201 248 298 363
#     4  10  20  37  63  88 116 156 205 253 300 352
#     4  10  23  39  60  89 127 162 195 248 305 366
#     4  10  21  37  58  89 119 155 203 261 300 344
#     4  11  21  37  62  91 117 154 210 252 298 361
#     4  11  21  38  59  87 124 157 201 247 298 354
#
# _framework density 18.476268999999998
#
# number of rings (size 3 to 8) (size 9 to 14) (size 15 to 20)
#    0.000    1.429    5.714    1.286    0.000    0.857 
#    0.000    3.571    0.000    4.286    0.000    0.000 
#    0.000    0.000    0.000    0.000    0.000    0.000 
#
# Total GULP energy -311747.905585 kJ/mol
# GULP energy per Si atom -5566.926885 kJ/mol
# Density = 1.843422 g / cm^3
# Si number density = 18.476269 Si / 1000 Ang^3
#
#
#
# Elastic Constant Matrix: (Units=GPa)
#
#
# Indices 1 2 3 4 5 6 
#
# 1 95.6208 33.5302 33.3507 0.0000 0.0000 0.0000
# 2 33.5302 84.6146 14.1989 0.0000 0.0000 0.0000
# 3 33.3507 14.1989 98.5156 0.0000 0.0000 0.0000
# 4 0.0000 0.0000 0.0000 21.9144 0.0000 0.0000
# 5 0.0000 0.0000 0.0000 0.0000 -7.5452 0.0000
# 6 0.0000 0.0000 0.0000 0.0000 0.0000 24.2129
#
#
#
# Elastic Compliance Matrix: (Units=1/GPa)
#
#
# Indices 1 2 3 4 5 6 
#
# 1 0.013452 -0.004680 -0.003879 0.000000 0.000000 0.000000
# 2 -0.004680 0.013739 -0.000396 0.000000 0.000000 0.000000
# 3 -0.003879 -0.000396 0.011521 0.000000 0.000000 0.000000
# 4 0.000000 0.000000 0.000000 0.045632 0.000000 0.000000
# 5 0.000000 0.000000 0.000000 0.000000 -0.132534 0.000000
# 6 0.000000 0.000000 0.000000 0.000000 0.000000 0.041300
#
#
# Mechanical properties :
#
#
# Convention : Reuss Voigt Hill
#
# Bulk Modulus (GPa) = 48.07222 48.99008 48.53115
# Shear Modulus (GPa) = 278.47262 20.89449 149.68356
#
# Velocity S-wave (km/s) = 12.29009 3.36651 9.01054
# Velocity P-wave (km/s) = 15.08210 6.45630 11.60073
#
# Compressibility (1/GPa) = 0.02080203
#
# Stress axis : x y z
#
# Youngs Moduli (GPa) = 74.33839 72.78479 86.79750
#
# Poissons Ratio (x) = 0.34061 0.33673
# Poissons Ratio (y) = 0.34788 0.03437
# Poissons Ratio (z) = 0.28839 0.02882
#
# Static dielectric constant tensor:
#      x y z
#    x 1.633670 0.000000 0.000000 
#    y 0.000000 1.740680 0.000000 
#    z 0.000000 0.000000 1.503340 
# 
# From -- ./inp_files/17867.got.cif
#   From: 2010.05.17/outbox.cif.g08.bks.cpg/sg53_9_cif.got.tgz:17867.got - 2010.06.03 12:45:16.
