data_PCOD9417460
_publ_section_title
;
Structure prediction by ZEFSAII (Michael W. Deem and Ramdas Pophale) SiO2 
 PCOD9417460
Probable space group: P M N A
;
_chemical_formula_sum "Si O2"
_cell_formula_units_Z 48
_cell_length_a 15.313954
_cell_length_b 9.108820
_cell_length_c 17.529587
_cell_angle_alpha 90.000000
_cell_angle_beta 90.000000
_cell_angle_gamma 90.000000
_cell_volume 2445.238035
_symmetry_space_group_name_H-M "P M N A"
_symmetry_group_IT_number 53
_symmetry_cell_setting 'orthorhombic'
loop_
_space_group_symop_operation_xyz
x,y,z
1/2-x,-y,1/2+z
x,-y,-z
1/2-x,y,1/2-z
-x,-y,-z
1/2+x,y,1/2-z
-x,y,z
1/2+x,-y,1/2+z
loop_
_atom_site_type_symbol
_atom_site_label
_atom_site_fract_x
_atom_site_fract_y
_atom_site_fract_z
Si Si1 0.598099 0.310037 0.412001
Si Si2 0.398534 0.851183 0.048800
Si Si3 0.396469 0.816296 0.223869
Si Si4 0.179104 0.530562 0.196336
Si Si5 0.103239 0.034032 0.878888
Si Si6 0.221201 0.716537 0.047599
O O1 0.500000 0.331165 0.441036
O O2 0.613156 0.413458 0.339103
O O3 0.610172 0.138437 0.392720
O O4 0.666913 0.345385 0.477316
O O5 0.500000 0.799824 0.043892
O O6 0.375062 0.869330 0.138802
O O7 0.320399 0.746261 0.022427
O O8 0.393405 0.000000 0.000000
O O9 0.500000 0.799936 0.225141
O O10 0.358496 0.660044 0.250129
O O11 0.373959 0.928670 0.291260
O O12 0.250000 0.453589 0.250000
O O13 0.217399 0.615354 0.122536
O O14 0.000000 0.074995 0.892828
O O15 0.168103 0.134114 0.928918
#
# Coordination Sequence:
#
# PCOD9417460 Si02
#       6
#     8   8   8   8   8   8
#     4  11  23  39  61  93 129 161 199 253 317 372
#     4  10  20  35  58  87 117 155 208 259 304 355
#     4   9  18  36  61  84 113 155 204 252 300 363
#     4  11  22  39  57  85 119 163 208 246 295 371
#     4   9  19  35  59  92 124 154 194 253 316 369
#     4  11  21  38  62  89 121 158 206 253 307 366
#
# _framework density 19.629991
#
# number of rings (size 3 to 8) (size 9 to 14) (size 15 to 20)
#    0.000    1.833    1.667    3.000    0.000    4.000 
#    6.000    0.000    0.000    3.000    0.000    0.000 
#    0.000    0.000    0.000    0.000    0.000    0.000 
#
# Total GULP energy -267757.415881 kJ/mol
# GULP energy per Si atom -5578.279498 kJ/mol
# Density = 1.958531 g / cm^3
# Si number density = 19.629991 Si / 1000 Ang^3
#
#
#
# Elastic Constant Matrix: (Units=GPa)
#
#
# Indices 1 2 3 4 5 6 
#
# 1 84.2664 34.5362 38.5123 0.0000 0.0000 0.0000
# 2 34.5362 66.7941 30.3107 0.0000 0.0000 0.0000
# 3 38.5123 30.3107 111.4831 0.0000 0.0000 0.0000
# 4 0.0000 0.0000 0.0000 22.0094 0.0000 0.0000
# 5 0.0000 0.0000 0.0000 0.0000 33.5892 0.0000
# 6 0.0000 0.0000 0.0000 0.0000 0.0000 10.5144
#
#
#
# Elastic Compliance Matrix: (Units=1/GPa)
#
#
# Indices 1 2 3 4 5 6 
#
# 1 0.016374 -0.006730 -0.003827 0.000000 0.000000 0.000000
# 2 -0.006730 0.019844 -0.003071 0.000000 0.000000 0.000000
# 3 -0.003827 -0.003071 0.011127 0.000000 0.000000 0.000000
# 4 0.000000 0.000000 0.000000 0.045435 0.000000 0.000000
# 5 0.000000 0.000000 0.000000 0.000000 0.029772 0.000000
# 6 0.000000 0.000000 0.000000 0.000000 0.000000 0.095108
#
#
# Mechanical properties :
#
#
# Convention : Reuss Voigt Hill
#
# Bulk Modulus (GPa) = 49.77324 52.14021 50.95673
# Shear Modulus (GPa) = 19.87188 23.83487 21.85337
#
# Velocity S-wave (km/s) = 3.18515 3.48833 3.34018
# Velocity P-wave (km/s) = 6.24001 6.54551 6.39458
#
# Compressibility (1/GPa) = 0.02009112
#
# Stress axis : x y z
#
# Youngs Moduli (GPa) = 61.07135 50.39181 89.87300
#
# Poissons Ratio (x) = 0.33913 0.34393
# Poissons Ratio (y) = 0.41100 0.27596
# Poissons Ratio (z) = 0.23371 0.15473
#
# Static dielectric constant tensor:
#      x y z
#    x 1.712500 0.000000 0.000000 
#    y 0.000000 1.684040 0.000000 
#    z 0.000000 0.000000 1.702160 
# 
# From -- ./inp_files/28280.got.cif
#   From: 2010.05.17/outbox.cif.g08.bks.cpg/sg53_15_cif.got.tgz:28280.got - 2010.06.03 12:45:16.
