data_PCOD9417982
_publ_section_title
;
Structure prediction by ZEFSAII (Michael W. Deem and Ramdas Pophale) SiO2 
 PCOD9417982
Probable space group: P M N A
;
_chemical_formula_sum "Si O2"
_cell_formula_units_Z 48
_cell_length_a 17.221392
_cell_length_b 15.385627
_cell_length_c 8.261032
_cell_angle_alpha 90.000000
_cell_angle_beta 90.000000
_cell_angle_gamma 90.000000
_cell_volume 2188.858848
_symmetry_space_group_name_H-M "P M N A"
_symmetry_group_IT_number 53
_symmetry_cell_setting 'orthorhombic'
loop_
_space_group_symop_operation_xyz
x,y,z
1/2-x,-y,1/2+z
x,-y,-z
1/2-x,y,1/2-z
-x,-y,-z
1/2+x,y,1/2-z
-x,y,z
1/2+x,-y,1/2+z
loop_
_atom_site_type_symbol
_atom_site_label
_atom_site_fract_x
_atom_site_fract_y
_atom_site_fract_z
Si Si1 0.825642 0.924891 0.871656
Si Si2 0.000000 0.860853 0.425329
Si Si3 0.787078 0.268646 0.073388
Si Si4 0.836165 0.405209 0.828677
Si Si5 0.123825 0.286746 0.549993
Si Si6 0.908220 0.553185 0.660445
Si Si7 0.500000 0.971190 0.749332
O O1 0.750000 0.925726 0.750000
O O2 0.829707 0.823622 0.924940
O O3 0.914753 0.946923 0.820236
O O4 0.805934 0.000000 0.000000
O O5 0.927451 0.797479 0.436879
O O6 0.000000 0.921305 0.581016
O O7 0.000000 0.924774 0.273370
O O8 0.750000 0.286455 0.250000
O O9 0.831015 0.350117 0.993594
O O10 0.712275 0.257729 0.959183
O O11 0.750000 0.410227 0.750000
O O12 0.887631 0.346680 0.706766
O O13 0.868656 0.502480 0.808589
O O14 0.106407 0.347227 0.392751
O O15 0.880533 0.500000 0.500000
O O16 0.000000 0.542778 0.677243
#
# Coordination Sequence:
#
# PCOD9417982 Si02
#       7
#     8   4   8   8   8   8   4
#     4  11  26  45  70  99 138 183 236 307 370 430
#     4  11  22  38  69  97 133 179 232 287 367 434
#     4  10  22  41  62  90 130 183 227 279 357 412
#     4   9  20  36  61  95 129 170 229 280 331 415
#     4  10  20  37  66  97 128 175 226 285 343 428
#     4   9  17  34  58  96 132 163 210 278 345 407
#     4  11  27  44  64 101 141 179 243 296 367 442
#
# _framework density 21.929234999999998
#
# number of rings (size 3 to 8) (size 9 to 14) (size 15 to 20)
#    0.000    2.000    0.833    2.250    8.167    1.333 
#    1.500    2.500    0.000    1.000    0.000    0.000 
#    0.000    0.000    0.000    0.000    0.000    0.000 
#
# Total GULP energy -267570.569286 kJ/mol
# GULP energy per Si atom -5574.386860 kJ/mol
# Density = 2.187932 g / cm^3
# Si number density = 21.929235 Si / 1000 Ang^3
#
#
#
# Elastic Constant Matrix: (Units=GPa)
#
#
# Indices 1 2 3 4 5 6 
#
# 1 107.5151 79.0351 31.0210 0.0000 0.0000 0.0000
# 2 79.0351 202.0660 81.0258 0.0000 0.0000 0.0000
# 3 31.0210 81.0258 78.0110 0.0000 0.0000 0.0000
# 4 0.0000 0.0000 0.0000 35.8511 0.0000 0.0000
# 5 0.0000 0.0000 0.0000 0.0000 14.9136 0.0000
# 6 0.0000 0.0000 0.0000 0.0000 0.0000 22.9431
#
#
#
# Elastic Compliance Matrix: (Units=1/GPa)
#
#
# Indices 1 2 3 4 5 6 
#
# 1 0.013056 -0.005184 0.000192 0.000000 0.000000 0.000000
# 2 -0.005184 0.010539 -0.008885 0.000000 0.000000 0.000000
# 3 0.000192 -0.008885 0.021971 0.000000 0.000000 0.000000
# 4 0.000000 0.000000 0.000000 0.027893 0.000000 0.000000
# 5 0.000000 0.000000 0.000000 0.000000 0.067053 0.000000
# 6 0.000000 0.000000 0.000000 0.000000 0.000000 0.043586
#
#
# Mechanical properties :
#
#
# Convention : Reuss Voigt Hill
#
# Bulk Modulus (GPa) = 56.13900 85.52845 70.83372
# Shear Modulus (GPa) = 22.95793 27.84224 25.40008
#
# Velocity S-wave (km/s) = 3.23911 3.56707 3.40704
# Velocity P-wave (km/s) = 6.29641 7.48679 6.91725
#
# Compressibility (1/GPa) = 0.01781293
#
# Stress axis : x y z
#
# Youngs Moduli (GPa) = 76.59180 94.88227 45.51487
#
# Poissons Ratio (x) = 0.49186 -0.00876
# Poissons Ratio (y) = 0.39705 0.40441
# Poissons Ratio (z) = -0.01474 0.84306
#
# Static dielectric constant tensor:
#      x y z
#    x 1.805050 0.000000 0.000000 
#    y 0.000000 1.801370 0.000000 
#    z 0.000000 0.000000 1.895410 
# 
# From -- ./inp_files/10052.got.cif
#   From: 2010.05.17/outbox.cif.g08.bks.cpg/sg53_6_cif.got.tgz:10052.got - 2010.06.03 12:45:16.
