data_PCOD9417892
_publ_section_title
;
Structure prediction by ZEFSAII (Michael W. Deem and Ramdas Pophale) SiO2 
 PCOD9417892
Probable space group: P M N A
;
_chemical_formula_sum "Si O2"
_cell_formula_units_Z 40
_cell_length_a 8.766777
_cell_length_b 9.304068
_cell_length_c 26.297613
_cell_angle_alpha 90.000000
_cell_angle_beta 90.000000
_cell_angle_gamma 90.000000
_cell_volume 2145.009230
_symmetry_space_group_name_H-M "P M N A"
_symmetry_group_IT_number 53
_symmetry_cell_setting 'orthorhombic'
loop_
_space_group_symop_operation_xyz
x,y,z
1/2-x,-y,1/2+z
x,-y,-z
1/2-x,y,1/2-z
-x,-y,-z
1/2+x,y,1/2-z
-x,y,z
1/2+x,-y,1/2+z
loop_
_atom_site_type_symbol
_atom_site_label
_atom_site_fract_x
_atom_site_fract_y
_atom_site_fract_z
Si Si1 0.316308 0.667524 0.502123
Si Si2 0.817179 0.840315 0.100120
Si Si3 0.683033 0.329180 0.804805
Si Si4 0.183296 0.336184 0.304342
Si Si5 0.683230 0.841568 0.903470
O O1 0.273568 0.500000 0.500000
O O2 0.500000 0.676237 0.508423
O O3 0.276338 0.746298 0.449468
O O4 0.238237 0.747549 0.548981
O O5 0.748165 0.766929 0.150113
O O6 0.000000 0.843694 0.104030
O O7 0.754069 0.000518 0.093793
O O8 0.750000 0.286689 0.750000
O O9 0.500000 0.319910 0.803688
O O10 0.726980 0.496884 0.813295
O O11 0.250000 0.290983 0.250000
O O12 0.231890 0.237620 0.351309
O O13 0.000000 0.331453 0.301293
O O14 0.500000 0.851467 0.903668
#
# Coordination Sequence:
#
# PCOD9417892 Si02
#       5
#     8   8   8   8   8
#     4  10  22  40  61  84 111 146 189 235 284 340
#     4  11  23  38  57  83 115 150 188 231 281 336
#     4  10  20  37  60  85 113 146 187 232 279 331
#     4   9  20  37  58  84 112 145 186 231 277 329
#     4  11  23  38  57  84 117 150 187 233 284 337
#
# _framework density 18.647939000000001
#
# number of rings (size 3 to 8) (size 9 to 14) (size 15 to 20)
#    0.000    1.800    0.000    3.600    0.000    7.600 
#    0.000    2.000    0.000    0.000    0.000    0.000 
#    0.000    0.000    0.000    0.000    0.000    0.000 
#
# Total GULP energy -223580.925140 kJ/mol
# GULP energy per Si atom -5589.523129 kJ/mol
# Density = 1.860550 g / cm^3
# Si number density = 18.647939 Si / 1000 Ang^3
#
#
#
# Elastic Constant Matrix: (Units=GPa)
#
#
# Indices 1 2 3 4 5 6 
#
# 1 46.7215 55.3765 64.7354 0.0000 0.0000 0.0000
# 2 55.3765 158.2168 123.2629 0.0000 0.0000 0.0000
# 3 64.7354 123.2629 190.2946 0.0000 0.0000 0.0000
# 4 0.0000 0.0000 0.0000 -71.9178 0.0000 0.0000
# 5 0.0000 0.0000 0.0000 0.0000 37.0510 0.0000
# 6 0.0000 0.0000 0.0000 0.0000 0.0000 42.1905
#
#
#
# Elastic Compliance Matrix: (Units=1/GPa)
#
#
# Indices 1 2 3 4 5 6 
#
# 1 0.044656 -0.007660 -0.010229 0.000000 0.000000 0.000000
# 2 -0.007660 0.014073 -0.006510 0.000000 0.000000 0.000000
# 3 -0.010229 -0.006510 0.012952 0.000000 0.000000 0.000000
# 4 0.000000 0.000000 0.000000 -0.013905 0.000000 0.000000
# 5 0.000000 0.000000 0.000000 0.000000 0.026990 0.000000
# 6 0.000000 0.000000 0.000000 0.000000 0.000000 0.023702
#
#
# Mechanical properties :
#
#
# Convention : Reuss Voigt Hill
#
# Bulk Modulus (GPa) = 43.70282 97.99805 70.85044
# Shear Modulus (GPa) = 30.32214 11.58861 20.95538
#
# Velocity S-wave (km/s) = 4.03678 2.49558 3.35586
# Velocity P-wave (km/s) = 6.72414 7.80831 7.28642
#
# Compressibility (1/GPa) = 0.02288182
#
# Stress axis : x y z
#
# Youngs Moduli (GPa) = 22.39320 71.05559 77.20916
#
# Poissons Ratio (x) = 0.54431 0.78981
# Poissons Ratio (y) = 0.17154 0.50264
# Poissons Ratio (z) = 0.22907 0.46258
#
# Static dielectric constant tensor:
#      x y z
#    x 1.630100 0.000000 0.000000 
#    y 0.000000 1.620820 0.000000 
#    z 0.000000 0.000000 1.610040 
# 
# From -- ./inp_files/33602.got.cif
#   From: 2010.05.17/outbox.cif.g08.bks.cpg/sg53_17_cif.got.tgz:33602.got - 2010.06.03 12:45:16.
