data_PCOD9417175
_publ_section_title
;
Structure prediction by ZEFSAII (Michael W. Deem and Ramdas Pophale) SiO2 
 PCOD9417175
Probable space group: P M N A
;
_chemical_formula_sum "Si O2"
_cell_formula_units_Z 64
_cell_length_a 9.158594
_cell_length_b 23.539835
_cell_length_c 14.741443
_cell_angle_alpha 90.000000
_cell_angle_beta 90.000000
_cell_angle_gamma 90.000000
_cell_volume 3178.134107
_symmetry_space_group_name_H-M "P M N A"
_symmetry_group_IT_number 53
_symmetry_cell_setting 'orthorhombic'
loop_
_space_group_symop_operation_xyz
x,y,z
1/2-x,-y,1/2+z
x,-y,-z
1/2-x,y,1/2-z
-x,-y,-z
1/2+x,y,1/2-z
-x,y,z
1/2+x,-y,1/2+z
loop_
_atom_site_type_symbol
_atom_site_label
_atom_site_fract_x
_atom_site_fract_y
_atom_site_fract_z
Si Si1 0.670068 0.890843 0.027288
Si Si2 0.169140 0.594738 0.167327
Si Si3 0.169055 0.306385 0.973554
Si Si4 0.668853 0.781633 0.154056
Si Si5 0.169889 0.110177 0.156722
Si Si6 0.176069 0.364818 0.155133
Si Si7 0.669405 0.027238 0.656960
Si Si8 0.668960 0.516928 0.894216
O O1 0.500000 0.903545 0.009127
O O2 0.679103 0.841980 0.103243
O O3 0.751475 0.944400 0.071742
O O4 0.747590 0.871269 0.934545
O O5 0.250000 0.625882 0.250000
O O6 0.177191 0.633265 0.078388
O O7 0.252898 0.536091 0.152695
O O8 0.000000 0.585236 0.188917
O O9 0.264328 0.263184 0.916391
O O10 0.000000 0.287721 0.971062
O O11 0.211724 0.319301 0.076681
O O12 0.750000 0.781928 0.250000
O O13 0.500000 0.768110 0.170612
O O14 0.250000 0.127493 0.250000
O O15 0.000000 0.127351 0.156953
O O16 0.174774 0.041121 0.153035
O O17 0.250000 0.349456 0.250000
O O18 0.243084 0.425700 0.125945
O O19 0.000000 0.369139 0.161637
O O20 0.750000 0.044536 0.750000
O O21 0.500000 0.044793 0.659218
O O22 0.500000 0.523512 0.865242
O O23 0.669814 0.500000 0.000000
#
# Coordination Sequence:
#
# PCOD9417175 Si02
#       8
#     8   8   8   8   8   8   8   8
#     4  11  23  38  58  87 120 159 203 247 299 356
#     4  11  22  37  57  84 116 150 189 233 284 342
#     4  10  23  42  64  87 114 151 194 241 294 347
#     4  11  25  43  65  91 120 152 192 242 296 353
#     4  10  21  37  58  86 121 161 203 248 297 352
#     4  11  23  41  63  89 120 155 195 240 291 346
#     4  10  20  34  55  86 122 161 203 247 299 356
#     4  11  22  36  57  86 118 156 195 233 283 341
#
# _framework density 20.137602000000001
#
# number of rings (size 3 to 8) (size 9 to 14) (size 15 to 20)
#    0.000    1.375    1.250    4.125    0.000    9.500 
#    0.000    0.625    0.000    1.500    0.000    0.000 
#    0.000    0.000    0.000    0.000    0.000    0.000 
#
# Total GULP energy -357847.472399 kJ/mol
# GULP energy per Si atom -5591.366756 kJ/mol
# Density = 2.009177 g / cm^3
# Si number density = 20.137602 Si / 1000 Ang^3
#
#
#
# Elastic Constant Matrix: (Units=GPa)
#
#
# Indices 1 2 3 4 5 6 
#
# 1 154.1813 31.1439 78.4906 0.0000 0.0000 0.0000
# 2 31.1439 23.9086 12.3091 0.0000 0.0000 0.0000
# 3 78.4906 12.3091 151.5485 0.0000 0.0000 0.0000
# 4 0.0000 0.0000 0.0000 21.4290 0.0000 0.0000
# 5 0.0000 0.0000 0.0000 0.0000 36.6710 0.0000
# 6 0.0000 0.0000 0.0000 0.0000 0.0000 -7.0025
#
#
#
# Elastic Compliance Matrix: (Units=1/GPa)
#
#
# Indices 1 2 3 4 5 6 
#
# 1 0.011527 -0.012463 -0.004958 0.000000 0.000000 0.000000
# 2 -0.012463 0.057127 0.001815 0.000000 0.000000 0.000000
# 3 -0.004958 0.001815 0.009019 0.000000 0.000000 0.000000
# 4 0.000000 0.000000 0.000000 0.046666 0.000000 0.000000
# 5 0.000000 0.000000 0.000000 0.000000 0.027270 0.000000
# 6 0.000000 0.000000 0.000000 0.000000 0.000000 -0.142805
#
#
# Mechanical properties :
#
#
# Convention : Reuss Voigt Hill
#
# Bulk Modulus (GPa) = 21.52368 63.72507 42.62438
# Shear Modulus (GPa) = 90.08675 24.06582 57.07628
#
# Velocity S-wave (km/s) = 6.69572 3.46073 5.32960
# Velocity P-wave (km/s) = 8.39574 6.90524 7.68670
#
# Compressibility (1/GPa) = 0.04646045
#
# Stress axis : x y z
#
# Youngs Moduli (GPa) = 86.74950 17.50500 110.87703
#
# Poissons Ratio (x) = 0.21817 0.54973
# Poissons Ratio (y) = 1.08119 -0.20125
# Poissons Ratio (z) = 0.43011 -0.03177
#
# Static dielectric constant tensor:
#      x y z
#    x 1.684500 0.000000 0.000000 
#    y 0.000000 1.703890 0.000000 
#    z 0.000000 0.000000 1.737590 
# 
# From -- ./inp_files/20940.got.cif
#   From: 2010.05.17/outbox.cif.g08.bks.cpg/sg53_11_cif.got.tgz:20940.got - 2010.06.03 12:45:16.
