data_PCOD9417302
_publ_section_title
;
Structure prediction by ZEFSAII (Michael W. Deem and Ramdas Pophale) SiO2 
 PCOD9417302
Probable space group: P M N A
;
_chemical_formula_sum "Si O2"
_cell_formula_units_Z 56
_cell_length_a 11.244436
_cell_length_b 19.736130
_cell_length_c 11.584418
_cell_angle_alpha 90.000000
_cell_angle_beta 90.000000
_cell_angle_gamma 90.000000
_cell_volume 2570.833165
_symmetry_space_group_name_H-M "P M N A"
_symmetry_group_IT_number 53
_symmetry_cell_setting 'orthorhombic'
loop_
_space_group_symop_operation_xyz
x,y,z
1/2-x,-y,1/2+z
x,-y,-z
1/2-x,y,1/2-z
-x,-y,-z
1/2+x,y,1/2-z
-x,y,z
1/2+x,-y,1/2+z
loop_
_atom_site_type_symbol
_atom_site_label
_atom_site_fract_x
_atom_site_fract_y
_atom_site_fract_z
Si Si1 0.628619 0.580909 0.479213
Si Si2 0.626549 0.473826 0.763199
Si Si3 0.368749 0.106814 0.207086
Si Si4 0.871876 0.026015 0.869078
Si Si5 0.626708 0.378050 0.982692
Si Si6 0.367271 0.902371 0.066386
Si Si7 0.869614 0.245468 0.674973
O O1 0.630875 0.500000 0.500000
O O2 0.500000 0.607651 0.514891
O O3 0.633749 0.583533 0.338119
O O4 0.743830 0.613094 0.536856
O O5 0.750000 0.512800 0.750000
O O6 0.500000 0.508895 0.744759
O O7 0.623833 0.438607 0.887507
O O8 0.250000 0.144904 0.250000
O O9 0.500000 0.138972 0.221058
O O10 0.370654 0.038560 0.284447
O O11 0.354210 0.090773 0.071614
O O12 0.747126 0.065832 0.871276
O O13 0.000000 0.063195 0.848657
O O14 0.878173 0.000000 0.000000
O O15 0.500000 0.381665 0.046893
O O16 0.630139 0.308641 0.911714
O O17 0.500000 0.930623 0.093797
O O18 0.367400 0.824124 0.103064
O O19 0.750000 0.248429 0.750000
O O20 0.000000 0.247406 0.736767
#
# Coordination Sequence:
#
# PCOD9417302 Si02
#       7
#     8   8   8   8   8   8   8
#     4   9  16  25  40  67 101 131 161 200 247 300
#     4   8  13  22  37  58  84 116 152 188 231 282
#     4  10  20  35  55  77 103 135 168 209 262 320
#     4  10  20  35  55  80 108 136 170 215 268 324
#     4   9  17  30  49  70  96 132 172 212 258 310
#     4  10  22  38  55  79 108 139 177 220 272 331
#     4  10  21  37  55  77 106 141 182 228 275 329
#
# _framework density 21.782821999999999
#
# number of rings (size 3 to 8) (size 9 to 14) (size 15 to 20)
#    0.000    2.571    1.429    1.286    0.000    4.000 
#    0.000    2.857    0.000    0.000    0.000    3.000 
#    0.000   18.286    0.000    0.000    0.000    0.000 
#
# Total GULP energy -312032.792414 kJ/mol
# GULP energy per Si atom -5572.014150 kJ/mol
# Density = 2.173324 g / cm^3
# Si number density = 21.782822 Si / 1000 Ang^3
#
#
#
# Elastic Constant Matrix: (Units=GPa)
#
#
# Indices 1 2 3 4 5 6 
#
# 1 294.8003 29.8718 20.6069 0.0000 0.0000 0.0000
# 2 29.8718 34.6063 13.6965 0.0000 0.0000 0.0000
# 3 20.6069 13.6965 69.3822 0.0000 0.0000 0.0000
# 4 0.0000 0.0000 0.0000 12.3866 0.0000 0.0000
# 5 0.0000 0.0000 0.0000 0.0000 -22.3540 0.0000
# 6 0.0000 0.0000 0.0000 0.0000 0.0000 20.6859
#
#
#
# Elastic Compliance Matrix: (Units=1/GPa)
#
#
# Indices 1 2 3 4 5 6 
#
# 1 0.003734 -0.003020 -0.000513 0.000000 0.000000 0.000000
# 2 -0.003020 0.033788 -0.005773 0.000000 0.000000 0.000000
# 3 -0.000513 -0.005773 0.015705 0.000000 0.000000 0.000000
# 4 0.000000 0.000000 0.000000 0.080733 0.000000 0.000000
# 5 0.000000 0.000000 0.000000 0.000000 -0.044735 0.000000
# 6 0.000000 0.000000 0.000000 0.000000 0.000000 0.048342
#
#
# Mechanical properties :
#
#
# Convention : Reuss Voigt Hill
#
# Bulk Modulus (GPa) = 28.88913 58.57103 43.73008
# Shear Modulus (GPa) = 29.81201 24.45127 27.13164
#
# Velocity S-wave (km/s) = 3.70348 3.35401 3.53307
# Velocity P-wave (km/s) = 5.61950 6.47659 6.06321
#
# Compressibility (1/GPa) = 0.03461509
#
# Stress axis : x y z
#
# Youngs Moduli (GPa) = 267.80896 29.59604 63.67458
#
# Poissons Ratio (x) = 0.08939 0.03265
# Poissons Ratio (y) = 0.80883 0.36760
# Poissons Ratio (z) = 0.13734 0.17086
#
# Static dielectric constant tensor:
#      x y z
#    x 1.972490 0.000000 0.000000 
#    y 0.000000 1.747950 0.000000 
#    z 0.000000 0.000000 1.824520 
# 
# From -- ./inp_files/14993.got.cif
#   From: 2010.05.17/outbox.cif.g08.bks.cpg/sg53_8_cif.got.tgz:14993.got - 2010.06.03 12:45:16.
