data_PCOD9417800
_publ_section_title
;
Structure prediction by ZEFSAII (Michael W. Deem and Ramdas Pophale) SiO2 
 PCOD9417800
Probable space group: P M N A
;
_chemical_formula_sum "Si O2"
_cell_formula_units_Z 56
_cell_length_a 17.307338
_cell_length_b 10.151215
_cell_length_c 15.796225
_cell_angle_alpha 90.000000
_cell_angle_beta 90.000000
_cell_angle_gamma 90.000000
_cell_volume 2775.246812
_symmetry_space_group_name_H-M "P M N A"
_symmetry_group_IT_number 53
_symmetry_cell_setting 'orthorhombic'
loop_
_space_group_symop_operation_xyz
x,y,z
1/2-x,-y,1/2+z
x,-y,-z
1/2-x,y,1/2-z
-x,-y,-z
1/2+x,y,1/2-z
-x,y,z
1/2+x,-y,1/2+z
loop_
_atom_site_type_symbol
_atom_site_label
_atom_site_fract_x
_atom_site_fract_y
_atom_site_fract_z
Si Si1 0.838914 0.146747 0.510847
Si Si2 0.410598 0.531585 0.256602
Si Si3 0.091718 0.296311 0.358546
Si Si4 0.841204 0.860339 0.967160
Si Si5 0.911847 0.383556 0.932845
Si Si6 0.410954 0.826789 0.188188
Si Si7 0.091650 0.084295 0.212222
O O1 0.875743 0.255250 0.449343
O O2 0.750146 0.140287 0.483001
O O3 0.853727 0.172413 0.609078
O O4 0.873781 0.000000 0.500000
O O5 0.500000 0.485549 0.271201
O O6 0.377592 0.426416 0.189984
O O7 0.373981 0.553097 0.348955
O O8 0.412122 0.678198 0.220449
O O9 0.105613 0.175197 0.294175
O O10 0.000000 0.312759 0.369777
O O11 0.862791 0.859026 0.868114
O O12 0.874109 0.741210 0.022476
O O13 0.873239 0.000000 0.000000
O O14 0.000000 0.344060 0.909860
O O15 0.914867 0.500000 0.000000
O O16 0.500000 0.861042 0.162360
O O17 0.389005 0.934720 0.259445
O O18 0.000000 0.089958 0.192350
#
# Coordination Sequence:
#
# PCOD9417800 Si02
#       7
#     8   8   8   8   8   8   8
#     4  11  23  40  57  86 124 165 202 247 307 365
#     4   9  19  35  58  91 117 147 196 253 311 349
#     4  10  20  37  63  89 116 153 205 254 296 358
#     4  11  24  39  57  88 124 164 201 246 307 372
#     4  10  20  39  65  88 122 160 201 256 303 359
#     4  10  20  37  63  90 120 154 202 260 304 354
#     4  10  20  36  63  92 114 150 205 254 298 355
#
# _framework density 20.178387000000001
#
# number of rings (size 3 to 8) (size 9 to 14) (size 15 to 20)
#    0.000    1.857    1.429    2.571    0.000    6.286 
#    2.571    4.286    0.000    0.000    0.000    0.000 
#    0.000    0.000    0.000    0.000    0.000    0.000 
#
# Total GULP energy -312398.101206 kJ/mol
# GULP energy per Si atom -5578.537522 kJ/mol
# Density = 2.013246 g / cm^3
# Si number density = 20.178387 Si / 1000 Ang^3
#
#
#
# Elastic Constant Matrix: (Units=GPa)
#
#
# Indices 1 2 3 4 5 6 
#
# 1 25.3251 11.8315 25.4829 0.0000 0.0000 0.0000
# 2 11.8315 111.9172 18.4459 0.0000 0.0000 0.0000
# 3 25.4829 18.4459 95.9569 0.0000 0.0000 0.0000
# 4 0.0000 0.0000 0.0000 40.2119 0.0000 0.0000
# 5 0.0000 0.0000 0.0000 0.0000 4.2123 0.0000
# 6 0.0000 0.0000 0.0000 0.0000 0.0000 6.4891
#
#
#
# Elastic Compliance Matrix: (Units=1/GPa)
#
#
# Indices 1 2 3 4 5 6 
#
# 1 0.055205 -0.003532 -0.013982 0.000000 0.000000 0.000000
# 2 -0.003532 0.009453 -0.000879 0.000000 0.000000 0.000000
# 3 -0.013982 -0.000879 0.014303 0.000000 0.000000 0.000000
# 4 0.000000 0.000000 0.000000 0.024868 0.000000 0.000000
# 5 0.000000 0.000000 0.000000 0.000000 0.237401 0.000000
# 6 0.000000 0.000000 0.000000 0.000000 0.000000 0.154105
#
#
# Mechanical properties :
#
#
# Convention : Reuss Voigt Hill
#
# Bulk Modulus (GPa) = 23.70977 38.30220 31.00599
# Shear Modulus (GPa) = 9.15447 22.01190 15.58319
#
# Velocity S-wave (km/s) = 2.13228 3.30641 2.78199
# Velocity P-wave (km/s) = 4.22348 5.79650 5.07135
#
# Compressibility (1/GPa) = 0.04217671
#
# Stress axis : x y z
#
# Youngs Moduli (GPa) = 18.11414 105.78129 69.91297
#
# Poissons Ratio (x) = 0.37359 0.97751
# Poissons Ratio (y) = 0.06397 0.06148
# Poissons Ratio (z) = 0.25327 0.09302
#
# Static dielectric constant tensor:
#      x y z
#    x 1.726460 0.000000 0.000000 
#    y 0.000000 1.664400 0.000000 
#    z 0.000000 0.000000 1.629360 
# 
# From -- ./inp_files/24365.got.cif
#   From: 2010.05.17/outbox.cif.g08.bks.cpg/sg53_13_cif.got.tgz:24365.got - 2010.06.03 12:45:16.
