data_PCOD9417270
_publ_section_title
;
Structure prediction by ZEFSAII (Michael W. Deem and Ramdas Pophale) SiO2 
 PCOD9417270
Probable space group: P M N A
;
_chemical_formula_sum "Si O2"
_cell_formula_units_Z 40
_cell_length_a 8.733860
_cell_length_b 26.142655
_cell_length_c 9.815205
_cell_angle_alpha 90.000000
_cell_angle_beta 90.000000
_cell_angle_gamma 90.000000
_cell_volume 2241.069331
_symmetry_space_group_name_H-M "P M N A"
_symmetry_group_IT_number 53
_symmetry_cell_setting 'orthorhombic'
loop_
_space_group_symop_operation_xyz
x,y,z
1/2-x,-y,1/2+z
x,-y,-z
1/2-x,y,1/2-z
-x,-y,-z
1/2+x,y,1/2-z
-x,y,z
1/2+x,-y,1/2+z
loop_
_atom_site_type_symbol
_atom_site_label
_atom_site_fract_x
_atom_site_fract_y
_atom_site_fract_z
Si Si1 0.815535 0.862261 0.600666
Si Si2 0.315078 0.952738 0.097678
Si Si3 0.816466 0.744657 0.601045
Si Si4 0.315449 0.454986 0.599049
Si Si5 0.183542 0.660175 0.098599
O O1 0.750000 0.875591 0.750000
O O2 0.766677 0.901483 0.483256
O O3 0.772287 0.803555 0.568784
O O4 0.000000 0.864739 0.610074
O O5 0.250000 0.956314 0.250000
O O6 0.500000 0.952916 0.107442
O O7 0.270211 0.000000 0.000000
O O8 0.750000 0.733404 0.750000
O O9 0.750869 0.704008 0.496004
O O10 0.000000 0.741908 0.603501
O O11 0.261656 0.500000 0.500000
O O12 0.250000 0.461773 0.750000
O O13 0.500000 0.457216 0.606344
O O14 0.274572 0.397520 0.551181
O O15 0.250000 0.665735 0.250000
O O16 0.000000 0.663810 0.102217
#
# Coordination Sequence:
#
# PCOD9417270 Si02
#       5
#     8   8   8   8   8
#     4   9  19  35  54  77 104 135 171 211 254 302
#     4  10  21  36  54  78 106 135 171 212 254 303
#     4  10  20  35  54  77 106 138 174 214 257 306
#     4   9  19  35  53  75 102 132 168 209 254 305
#     4  10  20  35  54  76 104 137 173 213 258 307
#
# _framework density 17.84862
#
# number of rings (size 3 to 8) (size 9 to 14) (size 15 to 20)
#    0.000    2.400    0.000    1.800    0.000    4.800 
#    0.000    4.000    0.000    0.000    0.000    0.000 
#    0.000    0.000    0.000    0.000    0.000    0.000 
#
# Total GULP energy -223184.645830 kJ/mol
# GULP energy per Si atom -5579.616146 kJ/mol
# Density = 1.780800 g / cm^3
# Si number density = 17.848620 Si / 1000 Ang^3
#
#
#
# Elastic Constant Matrix: (Units=GPa)
#
#
# Indices 1 2 3 4 5 6 
#
# 1 29.0803 43.6181 36.9871 0.0000 0.0000 0.0000
# 2 43.6181 153.6383 122.9066 0.0000 0.0000 0.0000
# 3 36.9871 122.9066 141.6526 0.0000 0.0000 0.0000
# 4 0.0000 0.0000 0.0000 43.0265 0.0000 0.0000
# 5 0.0000 0.0000 0.0000 0.0000 36.8789 0.0000
# 6 0.0000 0.0000 0.0000 0.0000 0.0000 23.4149
#
#
#
# Elastic Compliance Matrix: (Units=1/GPa)
#
#
# Indices 1 2 3 4 5 6 
#
# 1 0.060256 -0.014778 -0.002912 0.000000 0.000000 0.000000
# 2 -0.014778 0.024902 -0.017748 0.000000 0.000000 0.000000
# 3 -0.002912 -0.017748 0.023219 0.000000 0.000000 0.000000
# 4 0.000000 0.000000 0.000000 0.023242 0.000000 0.000000
# 5 0.000000 0.000000 0.000000 0.000000 0.027116 0.000000
# 6 0.000000 0.000000 0.000000 0.000000 0.000000 0.042708
#
#
# Mechanical properties :
#
#
# Convention : Reuss Voigt Hill
#
# Bulk Modulus (GPa) = 26.66467 81.26606 53.96536
# Shear Modulus (GPa) = 17.55510 28.72134 23.13822
#
# Velocity S-wave (km/s) = 3.13957 4.01579 3.60440
# Velocity P-wave (km/s) = 5.30229 8.19339 6.90094
#
# Compressibility (1/GPa) = 0.03750281
#
# Stress axis : x y z
#
# Youngs Moduli (GPa) = 16.59587 40.15724 43.06807
#
# Poissons Ratio (x) = 0.59342 0.12540
# Poissons Ratio (y) = 0.24525 0.76437
# Poissons Ratio (z) = 0.04832 0.71271
#
# Static dielectric constant tensor:
#      x y z
#    x 1.607750 0.000000 0.000000 
#    y 0.000000 1.628390 0.000000 
#    z 0.000000 0.000000 1.551490 
# 
# From -- ./inp_files/6243.got.cif
#   From: 2010.05.17/outbox.cif.g08.bks.cpg/sg53_4_cif.got.tgz:6243.got - 2010.06.03 12:45:16.
