data_PCOD9417048
_publ_section_title
;
Structure prediction by ZEFSAII (Michael W. Deem and Ramdas Pophale) SiO2 
 PCOD9417048
Probable space group: P M N A
;
_chemical_formula_sum "Si O2"
_cell_formula_units_Z 64
_cell_length_a 8.932160
_cell_length_b 18.328015
_cell_length_c 20.169599
_cell_angle_alpha 90.000000
_cell_angle_beta 90.000000
_cell_angle_gamma 90.000000
_cell_volume 3301.940092
_symmetry_space_group_name_H-M "P M N A"
_symmetry_group_IT_number 53
_symmetry_cell_setting 'orthorhombic'
loop_
_space_group_symop_operation_xyz
x,y,z
1/2-x,-y,1/2+z
x,-y,-z
1/2-x,y,1/2-z
-x,-y,-z
1/2+x,y,1/2-z
-x,y,z
1/2+x,-y,1/2+z
loop_
_atom_site_type_symbol
_atom_site_label
_atom_site_fract_x
_atom_site_fract_y
_atom_site_fract_z
Si Si1 0.828465 0.968853 0.426118
Si Si2 0.677509 0.569840 0.182992
Si Si3 0.169579 0.567960 0.048862
Si Si4 0.319552 0.910488 0.820231
Si Si5 0.820858 0.698006 0.534420
Si Si6 0.174292 0.728432 0.187729
Si Si7 0.319533 0.740454 0.820714
Si Si8 0.827498 0.182888 0.948191
O O1 0.729561 0.896981 0.429923
O O2 0.000000 0.949472 0.406994
O O3 0.832516 0.000000 0.500000
O O4 0.774139 0.032450 0.376848
O O5 0.750000 0.537981 0.250000
O O6 0.500000 0.564227 0.185846
O O7 0.741815 0.541799 0.113788
O O8 0.731916 0.654123 0.180770
O O9 0.000000 0.590136 0.068195
O O10 0.162841 0.500000 0.000000
O O11 0.245920 0.635053 0.010100
O O12 0.250000 0.932223 0.750000
O O13 0.500000 0.911636 0.816759
O O14 0.276760 0.825815 0.832123
O O15 0.776157 0.697387 0.612254
O O16 0.771306 0.775192 0.502650
O O17 0.000000 0.691124 0.530632
O O18 0.250000 0.768910 0.250000
O O19 0.182405 0.771205 0.119577
O O20 0.000000 0.712315 0.202050
O O21 0.250000 0.717532 0.750000
O O22 0.500000 0.736942 0.815308
O O23 0.000000 0.181820 0.970268
#
# Coordination Sequence:
#
# PCOD9417048 Si02
#       8
#     8   8   8   8   8   8   8   8
#     4  10  21  37  55  75 105 146 191 240 292 348
#     4  11  21  36  62  90 120 157 197 239 284 340
#     4  11  24  42  63  90 125 161 198 243 297 353
#     4   9  18  34  55  78 108 146 187 234 286 343
#     4  11  22  38  62  88 116 151 194 241 291 352
#     4  10  20  34  53  79 113 148 189 235 284 338
#     4   9  19  36  59  87 114 146 190 237 290 349
#     4  11  23  36  54  81 114 149 190 242 293 349
#
# _framework density 19.382543999999999
#
# number of rings (size 3 to 8) (size 9 to 14) (size 15 to 20)
#    0.000    1.750    1.250    4.125    0.000    6.750 
#    0.000    5.625    0.000    1.500    0.000    0.000 
#    0.000    0.000    0.000    0.000    0.000    0.000 
#
# Total GULP energy -357285.392349 kJ/mol
# GULP energy per Si atom -5582.584255 kJ/mol
# Density = 1.933843 g / cm^3
# Si number density = 19.382544 Si / 1000 Ang^3
#
#
#
# Elastic Constant Matrix: (Units=GPa)
#
#
# Indices 1 2 3 4 5 6 
#
# 1 97.2314 10.9625 50.5930 0.0000 0.0000 0.0000
# 2 10.9625 17.8337 14.3925 0.0000 0.0000 0.0000
# 3 50.5930 14.3925 135.9651 0.0000 0.0000 0.0000
# 4 0.0000 0.0000 0.0000 23.0158 0.0000 0.0000
# 5 0.0000 0.0000 0.0000 0.0000 35.9744 0.0000
# 6 0.0000 0.0000 0.0000 0.0000 0.0000 -31.6198
#
#
#
# Elastic Compliance Matrix: (Units=1/GPa)
#
#
# Indices 1 2 3 4 5 6 
#
# 1 0.013076 -0.004495 -0.004390 0.000000 0.000000 0.000000
# 2 -0.004495 0.062857 -0.004981 0.000000 0.000000 0.000000
# 3 -0.004390 -0.004981 0.009515 0.000000 0.000000 0.000000
# 4 0.000000 0.000000 0.000000 0.043448 0.000000 0.000000
# 5 0.000000 0.000000 0.000000 0.000000 0.027798 0.000000
# 6 0.000000 0.000000 0.000000 0.000000 0.000000 -0.031626
#
#
# Mechanical properties :
#
#
# Convention : Reuss Voigt Hill
#
# Bulk Modulus (GPa) = 17.32615 44.76958 31.04786
# Shear Modulus (GPa) = 29.06334 17.14623 23.10479
#
# Velocity S-wave (km/s) = 3.87649 2.97749 3.45634
# Velocity P-wave (km/s) = 5.38467 5.91343 5.65523
#
# Compressibility (1/GPa) = 0.05771624
#
# Stress axis : x y z
#
# Youngs Moduli (GPa) = 76.47810 15.90924 105.09172
#
# Poissons Ratio (x) = 0.07151 0.46132
# Poissons Ratio (y) = 0.34377 0.52346
# Poissons Ratio (z) = 0.33571 0.07924
#
# Static dielectric constant tensor:
#      x y z
#    x 1.670590 0.000000 0.000000 
#    y 0.000000 1.667670 0.000000 
#    z 0.000000 0.000000 1.735410 
# 
# From -- ./inp_files/27008.got.cif
#   From: 2010.05.17/outbox.cif.g08.bks.cpg/sg53_14_cif.got.tgz:27008.got - 2010.06.03 12:45:16.
