data_PCOD9417827
_publ_section_title
;
Structure prediction by ZEFSAII (Michael W. Deem and Ramdas Pophale) SiO2 
 PCOD9417827
Probable space group: P M N A
;
_chemical_formula_sum "Si O2"
_cell_formula_units_Z 64
_cell_length_a 24.565515
_cell_length_b 9.932479
_cell_length_c 14.116749
_cell_angle_alpha 90.000000
_cell_angle_beta 90.000000
_cell_angle_gamma 90.000000
_cell_volume 3444.436809
_symmetry_space_group_name_H-M "P M N A"
_symmetry_group_IT_number 53
_symmetry_cell_setting 'orthorhombic'
loop_
_space_group_symop_operation_xyz
x,y,z
1/2-x,-y,1/2+z
x,-y,-z
1/2-x,y,1/2-z
-x,-y,-z
1/2+x,y,1/2-z
-x,y,z
1/2+x,-y,1/2+z
loop_
_atom_site_type_symbol
_atom_site_label
_atom_site_fract_x
_atom_site_fract_y
_atom_site_fract_z
Si Si1 0.291113 0.642429 0.963164
Si Si2 0.299055 0.692490 0.674548
Si Si3 0.724062 0.898454 0.087586
Si Si4 0.383284 0.058749 0.802330
Si Si5 0.619423 0.595345 0.817740
Si Si6 0.935129 0.680884 0.387055
Si Si7 0.658789 0.984078 0.609575
Si Si8 0.437810 0.810377 0.906261
O O1 0.233605 0.625461 0.910978
O O2 0.337073 0.673556 0.885752
O O3 0.308944 0.500000 0.000000
O O4 0.285245 0.751668 0.044159
O O5 0.250000 0.720777 0.750000
O O6 0.346251 0.601038 0.720801
O O7 0.322902 0.832287 0.635816
O O8 0.679682 0.922957 0.167585
O O9 0.785967 0.926631 0.116816
O O10 0.713674 0.000000 0.000000
O O11 0.416468 0.194116 0.822999
O O12 0.383279 0.023751 0.691461
O O13 0.405123 0.940478 0.870986
O O14 0.599014 0.451356 0.855868
O O15 0.569182 0.697196 0.824994
O O16 0.924123 0.735385 0.494092
O O17 0.000000 0.653015 0.380867
O O18 0.640865 0.000000 0.500000
O O19 0.500000 0.853931 0.916527
#
# Coordination Sequence:
#
# PCOD9417827 Si02
#       8
#     8   8   8   8   8   8   8   8
#     4  11  21  34  55  86 123 157 195 233 278 345
#     4  10  20  37  57  85 120 160 198 237 287 351
#     4  11  20  33  57  86 121 159 191 234 288 352
#     4  12  22  36  60  87 119 157 199 247 299 357
#     4  11  21  37  59  84 121 165 196 229 283 362
#     4  11  24  40  58  89 124 152 193 248 306 361
#     4  11  22  38  59  86 116 155 201 244 292 351
#     4  11  22  37  60  87 118 155 194 242 299 359
#
# _framework density 18.580687000000001
#
# number of rings (size 3 to 8) (size 9 to 14) (size 15 to 20)
#    0.000    1.000    3.750    6.375    0.000    3.000 
#    0.000    2.500    0.000    1.500    0.000    0.875 
#    0.000    0.000    0.000    0.000    0.000    0.000 
#
# Total GULP energy -356969.776968 kJ/mol
# GULP energy per Si atom -5577.652765 kJ/mol
# Density = 1.853840 g / cm^3
# Si number density = 18.580687 Si / 1000 Ang^3
#
#
#
# Elastic Constant Matrix: (Units=GPa)
#
#
# Indices 1 2 3 4 5 6 
#
# 1 62.1499 23.7382 31.4007 0.0000 0.0000 0.0000
# 2 23.7382 95.7843 16.6127 0.0000 0.0000 0.0000
# 3 31.4007 16.6127 78.1634 0.0000 0.0000 0.0000
# 4 0.0000 0.0000 0.0000 17.4048 0.0000 0.0000
# 5 0.0000 0.0000 0.0000 0.0000 28.2727 0.0000
# 6 0.0000 0.0000 0.0000 0.0000 0.0000 22.9045
#
#
#
# Elastic Compliance Matrix: (Units=1/GPa)
#
#
# Indices 1 2 3 4 5 6 
#
# 1 0.021562 -0.003988 -0.007814 0.000000 0.000000 0.000000
# 2 -0.003988 0.011577 -0.000858 0.000000 0.000000 0.000000
# 3 -0.007814 -0.000858 0.016115 0.000000 0.000000 0.000000
# 4 0.000000 0.000000 0.000000 0.057455 0.000000 0.000000
# 5 0.000000 0.000000 0.000000 0.000000 0.035370 0.000000
# 6 0.000000 0.000000 0.000000 0.000000 0.000000 0.043659
#
#
# Mechanical properties :
#
#
# Convention : Reuss Voigt Hill
#
# Bulk Modulus (GPa) = 41.78442 42.17788 41.98115
# Shear Modulus (GPa) = 22.82703 24.67280 23.74992
#
# Velocity S-wave (km/s) = 3.50885 3.64795 3.57908
# Velocity P-wave (km/s) = 6.24123 6.36338 6.30260
#
# Compressibility (1/GPa) = 0.02393237
#
# Stress axis : x y z
#
# Youngs Moduli (GPa) = 46.37882 86.37494 62.05238
#
# Poissons Ratio (x) = 0.34449 0.48490
# Poissons Ratio (y) = 0.18497 0.05327
# Poissons Ratio (z) = 0.36242 0.07415
#
# Static dielectric constant tensor:
#      x y z
#    x 1.680230 0.000000 0.000000 
#    y 0.000000 1.638380 0.000000 
#    z 0.000000 0.000000 1.642870 
# 
# From -- ./inp_files/24731.got.cif
#   From: 2010.05.17/outbox.cif.g08.bks.cpg/sg53_13_cif.got.tgz:24731.got - 2010.06.03 12:45:16.
