data_PCOD9417269
_publ_section_title
;
Structure prediction by ZEFSAII (Michael W. Deem and Ramdas Pophale) SiO2 
 PCOD9417269
Probable space group: P M N A
;
_chemical_formula_sum "Si O2"
_cell_formula_units_Z 48
_cell_length_a 8.654145
_cell_length_b 31.885539
_cell_length_c 9.533104
_cell_angle_alpha 90.000000
_cell_angle_beta 90.000000
_cell_angle_gamma 90.000000
_cell_volume 2630.584527
_symmetry_space_group_name_H-M "P M N A"
_symmetry_group_IT_number 53
_symmetry_cell_setting 'orthorhombic'
loop_
_space_group_symop_operation_xyz
x,y,z
1/2-x,-y,1/2+z
x,-y,-z
1/2-x,y,1/2-z
-x,-y,-z
1/2+x,y,1/2-z
-x,y,z
1/2+x,-y,1/2+z
loop_
_atom_site_type_symbol
_atom_site_label
_atom_site_fract_x
_atom_site_fract_y
_atom_site_fract_z
Si Si1 0.314899 0.293669 0.594261
Si Si2 0.813531 0.461188 0.406750
Si Si3 0.686641 0.040299 0.591979
Si Si4 0.186409 0.198799 0.906356
Si Si5 0.186799 0.879362 0.907086
Si Si6 0.814873 0.632013 0.593035
O O1 0.250000 0.299789 0.750000
O O2 0.500000 0.295507 0.596285
O O3 0.268695 0.246202 0.551109
O O4 0.250657 0.330038 0.496747
O O5 0.758376 0.500000 0.500000
O O6 0.750000 0.465084 0.250000
O O7 0.770374 0.414654 0.461045
O O8 0.000000 0.462634 0.401499
O O9 0.750000 0.039381 0.750000
O O10 0.500000 0.040060 0.600301
O O11 0.734137 0.081849 0.506359
O O12 0.734804 0.000000 0.500000
O O13 0.250000 0.190665 0.750000
O O14 0.000000 0.197311 0.898445
O O15 0.237216 0.163565 0.016356
O O16 0.250000 0.883205 0.750000
O O17 0.000000 0.879522 0.899992
O O18 0.750000 0.635028 0.750000
O O19 0.000000 0.634374 0.595867
#
# Coordination Sequence:
#
# PCOD9417269 Si02
#       6
#     8   8   8   8   8   8
#     4  10  20  35  54  77 105 136 173 215 259 308
#     4   9  19  35  53  75 102 132 168 208 251 302
#     4  10  21  36  55  80 108 138 174 215 258 307
#     4   9  19  35  54  76 102 134 172 213 256 305
#     4  10  21  36  53  77 107 137 174 215 256 306
#     4  10  20  35  54  76 104 137 172 211 257 307
#
# _framework density 18.246897000000001
#
# number of rings (size 3 to 8) (size 9 to 14) (size 15 to 20)
#    0.000    2.333    0.000    2.000    0.000    4.667 
#    0.000    3.333    0.000    0.000    0.000    0.000 
#    0.000    0.000    0.000    0.000    0.000    0.000 
#
# Total GULP energy -267847.510422 kJ/mol
# GULP energy per Si atom -5580.156467 kJ/mol
# Density = 1.820537 g / cm^3
# Si number density = 18.246897 Si / 1000 Ang^3
#
#
#
# Elastic Constant Matrix: (Units=GPa)
#
#
# Indices 1 2 3 4 5 6 
#
# 1 22.3150 43.4318 28.8538 0.0000 0.0000 0.0000
# 2 43.4318 200.3719 123.0289 0.0000 0.0000 0.0000
# 3 28.8538 123.0289 134.2300 0.0000 0.0000 0.0000
# 4 0.0000 0.0000 0.0000 42.4714 0.0000 0.0000
# 5 0.0000 0.0000 0.0000 0.0000 37.0278 0.0000
# 6 0.0000 0.0000 0.0000 0.0000 0.0000 23.4740
#
#
#
# Elastic Compliance Matrix: (Units=1/GPa)
#
#
# Indices 1 2 3 4 5 6 
#
# 1 0.078007 -0.015124 -0.002906 0.000000 0.000000 0.000000
# 2 -0.015124 0.014347 -0.009898 0.000000 0.000000 0.000000
# 3 -0.002906 -0.009898 0.017147 0.000000 0.000000 0.000000
# 4 0.000000 0.000000 0.000000 0.023545 0.000000 0.000000
# 5 0.000000 0.000000 0.000000 0.000000 0.027007 0.000000
# 6 0.000000 0.000000 0.000000 0.000000 0.000000 0.042600
#
#
# Mechanical properties :
#
#
# Convention : Reuss Voigt Hill
#
# Bulk Modulus (GPa) = 18.64170 83.06067 50.85119
# Shear Modulus (GPa) = 18.09031 31.36812 24.72921
#
# Velocity S-wave (km/s) = 3.15210 4.15069 3.68537
# Velocity P-wave (km/s) = 4.84625 8.28192 6.78515
#
# Compressibility (1/GPa) = 0.05364318
#
# Stress axis : x y z
#
# Youngs Moduli (GPa) = 12.81939 69.70313 58.31924
#
# Poissons Ratio (x) = 1.05419 0.16949
# Poissons Ratio (y) = 0.19388 0.57726
# Poissons Ratio (z) = 0.03726 0.68995
#
# Static dielectric constant tensor:
#      x y z
#    x 1.630710 0.000000 0.000000 
#    y 0.000000 1.651780 0.000000 
#    z 0.000000 0.000000 1.567860 
# 
# From -- ./inp_files/6572.got.cif
#   From: 2010.05.17/outbox.cif.g08.bks.cpg/sg53_4_cif.got.tgz:6572.got - 2010.06.03 12:45:16.
