data_PCOD9417476
_publ_section_title
;
Structure prediction by ZEFSAII (Michael W. Deem and Ramdas Pophale) SiO2 
 PCOD9417476
Probable space group: P M N A
;
_chemical_formula_sum "Si O2"
_cell_formula_units_Z 36
_cell_length_a 7.725085
_cell_length_b 8.270878
_cell_length_c 29.702736
_cell_angle_alpha 90.000000
_cell_angle_beta 90.000000
_cell_angle_gamma 90.000000
_cell_volume 1897.803908
_symmetry_space_group_name_H-M "P M N A"
_symmetry_group_IT_number 53
_symmetry_cell_setting 'orthorhombic'
loop_
_space_group_symop_operation_xyz
x,y,z
1/2-x,-y,1/2+z
x,-y,-z
1/2-x,y,1/2-z
-x,-y,-z
1/2+x,y,1/2-z
-x,y,z
1/2+x,-y,1/2+z
loop_
_atom_site_type_symbol
_atom_site_label
_atom_site_fract_x
_atom_site_fract_y
_atom_site_fract_z
Si Si1 0.000000 0.187405 0.102501
Si Si2 0.500000 0.871321 0.447853
Si Si3 0.197657 0.349859 0.531178
Si Si4 0.000000 0.123683 0.844546
Si Si5 0.795803 0.329524 0.698331
Si Si6 0.804145 0.433805 0.381517
O O1 0.167296 0.299901 0.104192
O O2 0.000000 0.063141 0.060466
O O3 0.000000 0.067360 0.145712
O O4 0.329678 0.797386 0.470217
O O5 0.500000 0.808202 0.395704
O O6 0.253783 0.500000 0.500000
O O7 0.196502 0.424327 0.581294
O O8 0.000000 0.306922 0.518674
O O9 0.830686 0.188434 0.819232
O O10 0.750000 0.363396 0.750000
O O11 0.761667 0.483204 0.666109
O O12 0.000000 0.290151 0.693985
O O13 0.000000 0.368233 0.380079
#
# Coordination Sequence:
#
# PCOD9417476 Si02
#       6
#     4   4   8   4   8   8
#     4  10  22  36  57  78 122 156 174 230 281 347
#     4  10  20  35  59  79 111 157 183 232 275 337
#     4  10  20  36  60  87 112 144 195 245 277 320
#     4  10  21  37  55  86 112 148 184 232 280 331
#     4  11  21  36  64  85 106 143 193 240 276 325
#     4  10  20  36  57  83 111 150 187 228 282 332
#
# _framework density 18.969294000000001
#
# number of rings (size 3 to 8) (size 9 to 14) (size 15 to 20)
#    0.667    1.111    3.333    1.667    0.000    1.778 
#    0.000    3.333    0.000    4.000    0.000    0.000 
#    0.000    0.000    0.000    0.000    0.000    0.000 
#
# Total GULP energy -200843.041796 kJ/mol
# GULP energy per Si atom -5578.973383 kJ/mol
# Density = 1.892612 g / cm^3
# Si number density = 18.969294 Si / 1000 Ang^3
#
#
#
# Elastic Constant Matrix: (Units=GPa)
#
#
# Indices 1 2 3 4 5 6 
#
# 1 119.4380 70.0612 7.8157 0.0000 0.0000 0.0000
# 2 70.0612 79.9667 8.0823 0.0000 0.0000 0.0000
# 3 7.8157 8.0823 76.6385 0.0000 0.0000 0.0000
# 4 0.0000 0.0000 0.0000 29.7078 0.0000 0.0000
# 5 0.0000 0.0000 0.0000 0.0000 25.5423 0.0000
# 6 0.0000 0.0000 0.0000 0.0000 0.0000 -1.2621
#
#
#
# Elastic Compliance Matrix: (Units=1/GPa)
#
#
# Indices 1 2 3 4 5 6 
#
# 1 0.017227 -0.015076 -0.000167 0.000000 0.000000 0.000000
# 2 -0.015076 0.025834 -0.001187 0.000000 0.000000 0.000000
# 3 -0.000167 -0.001187 0.013190 0.000000 0.000000 0.000000
# 4 0.000000 0.000000 0.000000 0.033661 0.000000 0.000000
# 5 0.000000 0.000000 0.000000 0.000000 0.039151 0.000000
# 6 0.000000 0.000000 0.000000 0.000000 0.000000 -0.792306
#
#
# Mechanical properties :
#
#
# Convention : Reuss Voigt Hill
#
# Bulk Modulus (GPa) = 42.75107 49.77354 46.26230
# Shear Modulus (GPa) = -8.03103 23.46986 7.71941
#
# Velocity S-wave (km/s) = -2.05983 3.52128 2.01947
# Velocity P-wave (km/s) = 4.11445 6.54435 5.46613
#
# Compressibility (1/GPa) = 0.02339123
#
# Stress axis : x y z
#
# Youngs Moduli (GPa) = 58.04820 38.70878 75.81235
#
# Poissons Ratio (x) = 0.58358 0.01265
# Poissons Ratio (y) = 0.87515 0.08998
# Poissons Ratio (z) = 0.00969 0.04595
#
# Static dielectric constant tensor:
#      x y z
#    x 1.660640 0.000000 0.000000 
#    y 0.000000 1.627250 0.000000 
#    z 0.000000 0.000000 1.689260 
# 
# From -- ./inp_files/37504.got.cif
#   From: 2010.05.17/outbox.cif.g08.bks.cpg/sg53_19_cif.got.tgz:37504.got - 2010.06.03 12:45:16.
