data_PCOD9417686
_publ_section_title
;
Structure prediction by ZEFSAII (Michael W. Deem and Ramdas Pophale) SiO2 
 PCOD9417686
Probable space group: P M N A
;
_chemical_formula_sum "Si O2"
_cell_formula_units_Z 48
_cell_length_a 8.707007
_cell_length_b 9.301456
_cell_length_c 31.570243
_cell_angle_alpha 90.000000
_cell_angle_beta 90.000000
_cell_angle_gamma 90.000000
_cell_volume 2556.805868
_symmetry_space_group_name_H-M "P M N A"
_symmetry_group_IT_number 53
_symmetry_cell_setting 'orthorhombic'
loop_
_space_group_symop_operation_xyz
x,y,z
1/2-x,-y,1/2+z
x,-y,-z
1/2-x,y,1/2-z
-x,-y,-z
1/2+x,y,1/2-z
-x,y,z
1/2+x,-y,1/2+z
loop_
_atom_site_type_symbol
_atom_site_label
_atom_site_fract_x
_atom_site_fract_y
_atom_site_fract_z
Si Si1 0.815050 0.417197 0.621242
Si Si2 0.183347 0.912802 0.795549
Si Si3 0.315585 0.406697 0.204752
Si Si4 0.314570 0.908912 0.958871
Si Si5 0.183880 0.411672 0.041599
Si Si6 0.685621 0.916482 0.125512
O O1 0.774386 0.488785 0.666204
O O2 0.741756 0.506249 0.583190
O O3 0.770814 0.250015 0.619963
O O4 0.000000 0.425313 0.616959
O O5 0.250000 0.959191 0.750000
O O6 0.248204 0.752141 0.803408
O O7 0.000000 0.907488 0.793463
O O8 0.239498 0.014817 0.833070
O O9 0.250000 0.455768 0.250000
O O10 0.500000 0.396178 0.207392
O O11 0.500000 0.899402 0.959611
O O12 0.248163 0.749363 0.959572
O O13 0.270645 0.992488 0.916027
O O14 0.266077 0.000000 0.000000
O O15 0.000000 0.406320 0.041869
O O16 0.234589 0.500000 0.000000
O O17 0.500000 0.923335 0.129787
#
# Coordination Sequence:
#
# PCOD9417686 Si02
#       6
#     8   8   8   8   8   8
#     4  10  22  39  60  84 113 150 189 230 276 333
#     4  11  22  37  58  83 112 149 190 232 281 334
#     4  10  20  36  58  84 112 145 186 230 278 330
#     4  10  21  38  62  87 112 148 191 232 277 334
#     4  11  24  39  57  84 117 150 186 232 283 333
#     4  10  21  38  58  84 116 147 186 234 281 331
#
# _framework density 18.773425
#
# number of rings (size 3 to 8) (size 9 to 14) (size 15 to 20)
#    0.000    1.667    0.000    5.500    0.000   10.333 
#    0.000    1.667    0.000    0.000    0.000    0.000 
#    0.000    0.000    0.000    0.000    0.000    0.000 
#
# Total GULP energy -268342.803179 kJ/mol
# GULP energy per Si atom -5590.475066 kJ/mol
# Density = 1.873070 g / cm^3
# Si number density = 18.773425 Si / 1000 Ang^3
#
#
#
# Elastic Constant Matrix: (Units=GPa)
#
#
# Indices 1 2 3 4 5 6 
#
# 1 50.5905 55.4724 62.2341 0.0000 0.0000 0.0000
# 2 55.4724 180.2555 136.2425 0.0000 0.0000 0.0000
# 3 62.2341 136.2425 189.9850 0.0000 0.0000 0.0000
# 4 0.0000 0.0000 0.0000 41.5987 0.0000 0.0000
# 5 0.0000 0.0000 0.0000 0.0000 30.5944 0.0000
# 6 0.0000 0.0000 0.0000 0.0000 0.0000 107.5877
#
#
#
# Elastic Compliance Matrix: (Units=1/GPa)
#
#
# Indices 1 2 3 4 5 6 
#
# 1 0.034746 -0.004564 -0.008109 0.000000 0.000000 0.000000
# 2 -0.004564 0.012713 -0.007622 0.000000 0.000000 0.000000
# 3 -0.008109 -0.007622 0.013386 0.000000 0.000000 0.000000
# 4 0.000000 0.000000 0.000000 0.024039 0.000000 0.000000
# 5 0.000000 0.000000 0.000000 0.000000 0.032686 0.000000
# 6 0.000000 0.000000 0.000000 0.000000 0.000000 0.009295
#
#
# Mechanical properties :
#
#
# Convention : Reuss Voigt Hill
#
# Bulk Modulus (GPa) = 49.36950 103.19211 76.28080
# Shear Modulus (GPa) = 28.70173 47.08162 37.89168
#
# Velocity S-wave (km/s) = 3.91429 5.01331 4.49750
# Velocity P-wave (km/s) = 6.83985 9.41263 8.22743
#
# Compressibility (1/GPa) = 0.02025542
#
# Stress axis : x y z
#
# Youngs Moduli (GPa) = 28.78010 78.66054 74.70694
#
# Poissons Ratio (x) = 0.35899 0.60581
# Poissons Ratio (y) = 0.13134 0.56939
# Poissons Ratio (z) = 0.23338 0.59953
#
# Static dielectric constant tensor:
#      x y z
#    x 1.635210 0.000000 0.000000 
#    y 0.000000 1.614850 0.000000 
#    z 0.000000 0.000000 1.629320 
# 
# From -- ./inp_files/37792.got.cif
#   From: 2010.05.17/outbox.cif.g08.bks.cpg/sg53_19_cif.got.tgz:37792.got - 2010.06.03 12:45:16.
