data_PCOD9417639
_publ_section_title
;
Structure prediction by ZEFSAII (Michael W. Deem and Ramdas Pophale) SiO2 
 PCOD9417639
Probable space group: P M N A
;
_chemical_formula_sum "Si O2"
_cell_formula_units_Z 48
_cell_length_a 15.379307
_cell_length_b 17.838904
_cell_length_c 7.383020
_cell_angle_alpha 90.000000
_cell_angle_beta 90.000000
_cell_angle_gamma 90.000000
_cell_volume 2025.531398
_symmetry_space_group_name_H-M "P M N A"
_symmetry_group_IT_number 53
_symmetry_cell_setting 'orthorhombic'
loop_
_space_group_symop_operation_xyz
x,y,z
1/2-x,-y,1/2+z
x,-y,-z
1/2-x,y,1/2-z
-x,-y,-z
1/2+x,y,1/2-z
-x,y,z
1/2+x,-y,1/2+z
loop_
_atom_site_type_symbol
_atom_site_label
_atom_site_fract_x
_atom_site_fract_y
_atom_site_fract_z
Si Si1 0.898951 0.569229 0.791138
Si Si2 0.243758 0.187818 0.529672
Si Si3 0.408109 0.086325 0.954434
Si Si4 0.345438 0.602407 0.327093
Si Si5 0.099415 0.310935 0.509751
Si Si6 0.099043 0.087715 0.977720
O O1 0.876490 0.481790 0.780499
O O2 0.886352 0.613722 0.606747
O O3 0.000000 0.574538 0.842471
O O4 0.847879 0.606875 0.956831
O O5 0.250000 0.194228 0.750000
O O6 0.178993 0.121413 0.473980
O O7 0.182953 0.258187 0.473249
O O8 0.337115 0.155890 0.463189
O O9 0.500000 0.118307 0.020959
O O10 0.406320 0.096872 0.738943
O O11 0.408081 0.000000 0.000000
O O12 0.250000 0.610372 0.250000
O O13 0.399141 0.664964 0.220577
O O14 0.000000 0.285158 0.467293
O O15 0.000000 0.092098 0.051094
O O16 0.128937 0.000000 0.000000
#
# Coordination Sequence:
#
# PCOD9417639 Si02
#       6
#     8   8   8   8   8   8
#     4  10  23  42  67 100 132 169 225 287 338 396
#     4  10  20  36  57  88 126 169 213 262 330 402
#     4   9  17  31  57  85 115 153 204 264 318 382
#     4  11  23  39  68  99 131 171 218 284 339 394
#     4  11  23  40  66  94 131 181 224 268 336 411
#     4   9  18  34  61  90 120 161 212 267 327 392
#
# _framework density 23.697485
#
# number of rings (size 3 to 8) (size 9 to 14) (size 15 to 20)
#    0.000    2.000    0.000    4.000    4.667    2.000 
#    0.000    0.000   22.000    0.000    0.000    2.333 
#    0.000    0.000    0.000    0.000    0.000    0.000 
#
# Total GULP energy -267879.933797 kJ/mol
# GULP energy per Si atom -5580.831954 kJ/mol
# Density = 2.364355 g / cm^3
# Si number density = 23.697485 Si / 1000 Ang^3
#
#
#
# Elastic Constant Matrix: (Units=GPa)
#
#
# Indices 1 2 3 4 5 6 
#
# 1 134.0518 27.6264 9.3961 0.0000 0.0000 0.0000
# 2 27.6264 75.5458 3.7989 0.0000 0.0000 0.0000
# 3 9.3961 3.7989 60.7545 0.0000 0.0000 0.0000
# 4 0.0000 0.0000 0.0000 13.4884 0.0000 0.0000
# 5 0.0000 0.0000 0.0000 0.0000 30.2876 0.0000
# 6 0.0000 0.0000 0.0000 0.0000 0.0000 60.8370
#
#
#
# Elastic Compliance Matrix: (Units=1/GPa)
#
#
# Indices 1 2 3 4 5 6 
#
# 1 0.008137 -0.002922 -0.001076 0.000000 0.000000 0.000000
# 2 -0.002922 0.014328 -0.000444 0.000000 0.000000 0.000000
# 3 -0.001076 -0.000444 0.016654 0.000000 0.000000 0.000000
# 4 0.000000 0.000000 0.000000 0.074138 0.000000 0.000000
# 5 0.000000 0.000000 0.000000 0.000000 0.033017 0.000000
# 6 0.000000 0.000000 0.000000 0.000000 0.000000 0.016437
#
#
# Mechanical properties :
#
#
# Convention : Reuss Voigt Hill
#
# Bulk Modulus (GPa) = 33.07327 39.11056 36.09191
# Shear Modulus (GPa) = 27.52202 36.22463 31.87333
#
# Velocity S-wave (km/s) = 3.41161 3.91401 3.67141
# Velocity P-wave (km/s) = 5.43190 6.07996 5.76504
#
# Compressibility (1/GPa) = 0.03023590
#
# Stress axis : x y z
#
# Youngs Moduli (GPa) = 122.89055 69.79461 60.04625
#
# Poissons Ratio (x) = 0.20392 0.06460
# Poissons Ratio (y) = 0.35904 0.02666
# Poissons Ratio (z) = 0.13221 0.03099
#
# Static dielectric constant tensor:
#      x y z
#    x 1.926730 0.000000 0.000000 
#    y 0.000000 1.916330 0.000000 
#    z 0.000000 0.000000 1.897220 
# 
# From -- ./inp_files/8670.got.cif
#   From: 2010.05.17/outbox.cif.g08.bks.cpg/sg53_5_cif.got.tgz:8670.got - 2010.06.03 12:45:16.
