data_PCOD9417078
_publ_section_title
;
Structure prediction by ZEFSAII (Michael W. Deem and Ramdas Pophale) SiO2 
 PCOD9417078
Probable space group: P M N A
;
_chemical_formula_sum "Si O2"
_cell_formula_units_Z 64
_cell_length_a 8.945755
_cell_length_b 22.725733
_cell_length_c 17.945440
_cell_angle_alpha 90.000000
_cell_angle_beta 90.000000
_cell_angle_gamma 90.000000
_cell_volume 3648.287128
_symmetry_space_group_name_H-M "P M N A"
_symmetry_group_IT_number 53
_symmetry_cell_setting 'orthorhombic'
loop_
_space_group_symop_operation_xyz
x,y,z
1/2-x,-y,1/2+z
x,-y,-z
1/2-x,y,1/2-z
-x,-y,-z
1/2+x,y,1/2-z
-x,y,z
1/2+x,-y,1/2+z
loop_
_atom_site_type_symbol
_atom_site_label
_atom_site_fract_x
_atom_site_fract_y
_atom_site_fract_z
Si Si1 0.821518 0.137964 0.467043
Si Si2 0.179777 0.258813 0.991579
Si Si3 0.321895 0.382628 0.027524
Si Si4 0.678536 0.707650 0.326375
Si Si5 0.179054 0.949825 0.669634
Si Si6 0.177053 0.456920 0.324071
Si Si7 0.679310 0.423391 0.622327
Si Si8 0.328653 0.045203 0.569859
O O1 0.743362 0.201006 0.469599
O O2 0.787281 0.100891 0.391781
O O3 0.759865 0.100618 0.537177
O O4 0.000000 0.143656 0.472024
O O5 0.250373 0.317926 0.025449
O O6 0.000000 0.261481 0.996443
O O7 0.220739 0.259852 0.903243
O O8 0.500000 0.379124 0.014372
O O9 0.296031 0.415866 0.104790
O O10 0.245141 0.418569 0.960723
O O11 0.750000 0.729490 0.250000
O O12 0.500000 0.710558 0.319831
O O13 0.719518 0.638835 0.339127
O O14 0.250000 0.937367 0.750000
O O15 0.000000 0.954756 0.675275
O O16 0.247687 0.009926 0.635734
O O17 0.250000 0.431040 0.250000
O O18 0.250799 0.520337 0.338488
O O19 0.000000 0.464190 0.314574
O O20 0.500000 0.427618 0.620335
O O21 0.500000 0.060113 0.589020
O O22 0.332198 0.000000 0.500000
#
# Coordination Sequence:
#
# PCOD9417078 Si02
#       8
#     8   8   8   8   8   8   8   8
#     4  10  20  35  56  81 108 141 182 223 263 312
#     4  10  21  37  56  78 104 138 182 224 264 315
#     4  10  21  37  55  76 103 136 176 220 267 320
#     4   9  19  33  50  75 103 131 165 208 258 311
#     4  10  20  34  54  82 114 144 178 221 267 314
#     4  11  23  36  52  76 105 136 172 217 269 324
#     4  10  20  34  54  79 105 134 170 212 263 325
#     4   9  17  31  53  79 107 139 172 208 255 308
#
# _framework density 17.542479
#
# number of rings (size 3 to 8) (size 9 to 14) (size 15 to 20)
#    0.000    2.125    0.000    4.125    0.000   10.500 
#    0.000    1.250    0.000    1.500    0.000    0.000 
#    0.000    0.000    0.000    0.000    0.000    0.000 
#
# Total GULP energy -357238.653312 kJ/mol
# GULP energy per Si atom -5581.853958 kJ/mol
# Density = 1.750255 g / cm^3
# Si number density = 17.542479 Si / 1000 Ang^3
#
#
#
# Elastic Constant Matrix: (Units=GPa)
#
#
# Indices 1 2 3 4 5 6 
#
# 1 68.2172 31.8100 55.3053 0.0000 0.0000 0.0000
# 2 31.8100 58.1609 35.2700 0.0000 0.0000 0.0000
# 3 55.3053 35.2700 106.4981 0.0000 0.0000 0.0000
# 4 0.0000 0.0000 0.0000 13.1000 0.0000 0.0000
# 5 0.0000 0.0000 0.0000 0.0000 31.8216 0.0000
# 6 0.0000 0.0000 0.0000 0.0000 0.0000 91.9415
#
#
#
# Elastic Compliance Matrix: (Units=1/GPa)
#
#
# Indices 1 2 3 4 5 6 
#
# 1 0.028106 -0.008160 -0.011893 0.000000 0.000000 0.000000
# 2 -0.008160 0.023883 -0.003672 0.000000 0.000000 0.000000
# 3 -0.011893 -0.003672 0.016782 0.000000 0.000000 0.000000
# 4 0.000000 0.000000 0.000000 0.076336 0.000000 0.000000
# 5 0.000000 0.000000 0.000000 0.000000 0.031425 0.000000
# 6 0.000000 0.000000 0.000000 0.000000 0.000000 0.010876
#
#
# Mechanical properties :
#
#
# Convention : Reuss Voigt Hill
#
# Bulk Modulus (GPa) = 46.90185 53.07188 49.98687
# Shear Modulus (GPa) = 20.66390 34.73867 27.70128
#
# Velocity S-wave (km/s) = 3.43583 4.45484 3.97810
# Velocity P-wave (km/s) = 6.52182 7.53524 7.04677
#
# Compressibility (1/GPa) = 0.02132112
#
# Stress axis : x y z
#
# Youngs Moduli (GPa) = 35.57921 41.87001 59.58615
#
# Poissons Ratio (x) = 0.34165 0.70869
# Poissons Ratio (y) = 0.29032 0.21882
# Poissons Ratio (z) = 0.42316 0.15376
#
# Static dielectric constant tensor:
#      x y z
#    x 1.584830 0.000000 0.000000 
#    y 0.000000 1.581340 0.000000 
#    z 0.000000 0.000000 1.599110 
# 
# From -- ./inp_files/20971.got.cif
#   From: 2010.05.17/outbox.cif.g08.bks.cpg/sg53_11_cif.got.tgz:20971.got - 2010.06.03 12:45:16.
