data_PCOD9417179
_publ_section_title
;
Structure prediction by ZEFSAII (Michael W. Deem and Ramdas Pophale) SiO2 
 PCOD9417179
Probable space group: P M N A
;
_chemical_formula_sum "Si O2"
_cell_formula_units_Z 56
_cell_length_a 17.609117
_cell_length_b 18.830107
_cell_length_c 8.099702
_cell_angle_alpha 90.000000
_cell_angle_beta 90.000000
_cell_angle_gamma 90.000000
_cell_volume 2685.711803
_symmetry_space_group_name_H-M "P M N A"
_symmetry_group_IT_number 53
_symmetry_cell_setting 'orthorhombic'
loop_
_space_group_symop_operation_xyz
x,y,z
1/2-x,-y,1/2+z
x,-y,-z
1/2-x,y,1/2-z
-x,-y,-z
1/2+x,y,1/2-z
-x,y,z
1/2+x,-y,1/2+z
loop_
_atom_site_type_symbol
_atom_site_label
_atom_site_fract_x
_atom_site_fract_y
_atom_site_fract_z
Si Si1 0.842860 0.331148 0.765989
Si Si2 0.085574 0.959950 0.174068
Si Si3 0.155803 0.366095 0.409879
Si Si4 0.838526 0.208808 0.290394
Si Si5 0.670166 0.579067 0.569750
Si Si6 0.592057 0.192054 0.576377
Si Si7 0.313585 0.939985 0.883862
O O1 0.750000 0.327030 0.750000
O O2 0.870710 0.370340 0.599439
O O3 0.874645 0.253448 0.807387
O O4 0.867745 0.375578 0.925821
O O5 0.122142 0.883450 0.144781
O O6 0.000000 0.946124 0.226956
O O7 0.121704 0.011962 0.304588
O O8 0.085130 0.000000 0.000000
O O9 0.138657 0.284066 0.366622
O O10 0.245490 0.386348 0.418544
O O11 0.131658 0.412044 0.249468
O O12 0.750000 0.220000 0.250000
O O13 0.845187 0.139871 0.411674
O O14 0.880298 0.197362 0.114612
O O15 0.677768 0.500000 0.500000
O O16 0.500000 0.193411 0.576036
O O17 0.250000 0.924632 0.750000
O O18 0.276028 0.000000 0.000000
#
# Coordination Sequence:
#
# PCOD9417179 Si02
#       7
#     8   8   8   8   8   8   8
#     4  10  21  37  61  94 125 168 204 265 327 383
#     4  10  21  40  59  81 116 161 212 263 320 377
#     4  10  20  34  55  89 130 161 204 260 319 379
#     4  11  20  39  60  86 126 168 212 267 321 387
#     4  10  20  34  58  95 132 162 205 260 328 388
#     4  11  23  41  65  90 126 175 220 267 330 401
#     4  11  25  37  57  88 121 164 215 270 325 382
#
# _framework density 20.851084
#
# number of rings (size 3 to 8) (size 9 to 14) (size 15 to 20)
#    0.000    1.571    4.286    1.286   10.000    0.857 
#    0.000    0.714    0.000    0.429    0.000    1.000 
#    0.000    0.000    0.000    0.000    0.000    0.000 
#
# Total GULP energy -311811.332285 kJ/mol
# GULP energy per Si atom -5568.059505 kJ/mol
# Density = 2.080363 g / cm^3
# Si number density = 20.851084 Si / 1000 Ang^3
#
#
#
# Elastic Constant Matrix: (Units=GPa)
#
#
# Indices 1 2 3 4 5 6 
#
# 1 24.6081 -1.2013 5.7424 0.0000 0.0000 0.0000
# 2 -1.2013 135.3758 34.7444 0.0000 0.0000 0.0000
# 3 5.7424 34.7444 104.5615 0.0000 0.0000 0.0000
# 4 0.0000 0.0000 0.0000 37.0205 0.0000 0.0000
# 5 0.0000 0.0000 0.0000 0.0000 18.7270 0.0000
# 6 0.0000 0.0000 0.0000 0.0000 0.0000 -14.2662
#
#
#
# Elastic Compliance Matrix: (Units=1/GPa)
#
#
# Indices 1 2 3 4 5 6 
#
# 1 0.041297 0.001037 -0.002613 0.000000 0.000000 0.000000
# 2 0.001037 0.008102 -0.002749 0.000000 0.000000 0.000000
# 3 -0.002613 -0.002749 0.010621 0.000000 0.000000 0.000000
# 4 0.000000 0.000000 0.000000 0.027012 0.000000 0.000000
# 5 0.000000 0.000000 0.000000 0.000000 0.053399 0.000000
# 6 0.000000 0.000000 0.000000 0.000000 0.000000 -0.070096
#
#
# Mechanical properties :
#
#
# Convention : Reuss Voigt Hill
#
# Bulk Modulus (GPa) = 19.46644 38.12403 28.79524
# Shear Modulus (GPa) = 52.02512 23.31360 37.66936
#
# Velocity S-wave (km/s) = 5.00050 3.34743 4.25501
# Velocity P-wave (km/s) = 6.53423 5.76750 6.16280
#
# Compressibility (1/GPa) = 0.05137045
#
# Stress axis : x y z
#
# Youngs Moduli (GPa) = 24.21464 123.43272 94.15591
#
# Poissons Ratio (x) = -0.12800 0.24599
# Poissons Ratio (y) = -0.02511 0.25883
# Poissons Ratio (z) = 0.06326 0.33932
#
# Static dielectric constant tensor:
#      x y z
#    x 12.579010 0.000000 0.000000 
#    y 0.000000 1.310600 0.000000 
#    z 0.000000 0.000000 1.700700 
# 
# From -- ./inp_files/11169.got.cif
#   From: 2010.05.17/outbox.cif.g08.bks.cpg/sg53_6_cif.got.tgz:11169.got - 2010.06.03 12:45:16.
