data_PCOD9417027
_publ_section_title
;
Structure prediction by ZEFSAII (Michael W. Deem and Ramdas Pophale) SiO2 
 PCOD9417027
Probable space group: P M N A
;
_chemical_formula_sum "Si O2"
_cell_formula_units_Z 64
_cell_length_a 7.642977
_cell_length_b 20.877618
_cell_length_c 18.950857
_cell_angle_alpha 90.000000
_cell_angle_beta 90.000000
_cell_angle_gamma 90.000000
_cell_volume 3023.934321
_symmetry_space_group_name_H-M "P M N A"
_symmetry_group_IT_number 53
_symmetry_cell_setting 'orthorhombic'
loop_
_space_group_symop_operation_xyz
x,y,z
1/2-x,-y,1/2+z
x,-y,-z
1/2-x,y,1/2-z
-x,-y,-z
1/2+x,y,1/2-z
-x,y,z
1/2+x,-y,1/2+z
loop_
_atom_site_type_symbol
_atom_site_label
_atom_site_fract_x
_atom_site_fract_y
_atom_site_fract_z
Si Si1 0.710148 0.994767 0.831522
Si Si2 0.790981 0.597750 0.667555
Si Si3 0.214852 0.132511 0.409208
Si Si4 0.710489 0.634675 0.330380
Si Si5 0.210066 0.259686 0.332637
Si Si6 0.296691 0.478640 0.573894
Si Si7 0.704158 0.894079 0.066916
Si Si8 0.291146 0.219588 0.669256
O O1 0.750000 0.007808 0.750000
O O2 0.500000 0.995446 0.836999
O O3 0.779892 0.048675 0.885344
O O4 0.769242 0.924834 0.857249
O O5 0.750000 0.590019 0.750000
O O6 0.726498 0.669101 0.647293
O O7 0.710185 0.539912 0.624429
O O8 0.000000 0.595166 0.657768
O O9 0.275205 0.200979 0.379703
O O10 0.276071 0.117183 0.488574
O O11 0.000000 0.134242 0.409718
O O12 0.750000 0.615005 0.250000
O O13 0.500000 0.636652 0.336082
O O14 0.779867 0.582644 0.385510
O O15 0.774745 0.707482 0.340533
O O16 0.250000 0.248885 0.250000
O O17 0.000000 0.261355 0.339010
O O18 0.214831 0.500000 0.500000
O O19 0.500000 0.462068 0.559777
O O20 0.500000 0.910036 0.055873
O O21 0.716240 0.830022 0.113391
O O22 0.250000 0.200532 0.750000
O O23 0.500000 0.219395 0.661173
#
# Coordination Sequence:
#
# PCOD9417027 Si02
#       8
#     8   8   8   8   8   8   8   8
#     4  10  20  34  54  77 101 133 173 214 253 297
#     4  10  20  34  53  77 103 133 171 213 256 304
#     4   9  18  34  54  75 102 137 173 207 249 303
#     4   9  19  35  54  75  99 131 171 211 250 297
#     4   9  18  33  53  76 102 133 171 213 254 301
#     4  10  21  36  53  75 105 138 170 209 259 310
#     4  10  20  34  53  77 105 136 169 207 253 303
#     4  10  20  35  54  76 102 132 169 210 251 298
#
# _framework density 21.164480999999999
#
# number of rings (size 3 to 8) (size 9 to 14) (size 15 to 20)
#    0.000    2.375    0.000    2.250    0.000    6.750 
#    0.000    1.250    0.000    1.500    0.000    0.000 
#    0.000    0.000    0.000    0.000    0.000    0.000 
#
# Total GULP energy -357376.990623 kJ/mol
# GULP energy per Si atom -5584.015478 kJ/mol
# Density = 2.111631 g / cm^3
# Si number density = 21.164481 Si / 1000 Ang^3
#
#
#
# Elastic Constant Matrix: (Units=GPa)
#
#
# Indices 1 2 3 4 5 6 
#
# 1 41.3853 -15.1905 -17.6341 0.0000 0.0000 0.0000
# 2 -15.1905 62.5115 17.1002 0.0000 0.0000 0.0000
# 3 -17.6341 17.1002 46.3276 0.0000 0.0000 0.0000
# 4 0.0000 0.0000 0.0000 -13.5955 0.0000 0.0000
# 5 0.0000 0.0000 0.0000 0.0000 17.9089 0.0000
# 6 0.0000 0.0000 0.0000 0.0000 0.0000 709.3380
#
#
#
# Elastic Compliance Matrix: (Units=1/GPa)
#
#
# Indices 1 2 3 4 5 6 
#
# 1 0.030001 0.004634 0.009709 0.000000 0.000000 0.000000
# 2 0.004634 0.018510 -0.005068 0.000000 0.000000 0.000000
# 3 0.009709 -0.005068 0.027152 0.000000 0.000000 0.000000
# 4 0.000000 0.000000 0.000000 -0.073554 0.000000 0.000000
# 5 0.000000 0.000000 0.000000 0.000000 0.055838 0.000000
# 6 0.000000 0.000000 0.000000 0.000000 0.000000 0.001410
#
#
# Mechanical properties :
#
#
# Convention : Reuss Voigt Hill
#
# Bulk Modulus (GPa) = 10.61424 13.19731 11.90578
# Shear Modulus (GPa) = 69.24166 153.79352 111.51759
#
# Velocity S-wave (km/s) = 5.72599 8.53368 7.26673
# Velocity P-wave (km/s) = 6.98155 10.16599 8.72036
#
# Compressibility (1/GPa) = 0.09421305
#
# Stress axis : x y z
#
# Youngs Moduli (GPa) = 33.33204 54.02583 36.83011
#
# Poissons Ratio (x) = -0.25038 -0.35758
# Poissons Ratio (y) = -0.15448 0.18666
# Poissons Ratio (z) = -0.32362 0.27381
#
# Static dielectric constant tensor:
#      x y z
#    x 1.827780 0.000000 0.000000 
#    y 0.000000 1.766110 0.000000 
#    z 0.000000 0.000000 1.724270 
# 
# From -- ./inp_files/26845.got.cif
#   From: 2010.05.17/outbox.cif.g08.bks.cpg/sg53_14_cif.got.tgz:26845.got - 2010.06.03 12:45:16.
