data_PCOD9417483
_publ_section_title
;
Structure prediction by ZEFSAII (Michael W. Deem and Ramdas Pophale) SiO2 
 PCOD9417483
Probable space group: P M N A
;
_chemical_formula_sum "Si O2"
_cell_formula_units_Z 56
_cell_length_a 8.633589
_cell_length_b 21.816210
_cell_length_c 15.805444
_cell_angle_alpha 90.000000
_cell_angle_beta 90.000000
_cell_angle_gamma 90.000000
_cell_volume 2976.990002
_symmetry_space_group_name_H-M "P M N A"
_symmetry_group_IT_number 53
_symmetry_cell_setting 'orthorhombic'
loop_
_space_group_symop_operation_xyz
x,y,z
1/2-x,-y,1/2+z
x,-y,-z
1/2-x,y,1/2-z
-x,-y,-z
1/2+x,y,1/2-z
-x,y,z
1/2+x,-y,1/2+z
loop_
_atom_site_type_symbol
_atom_site_label
_atom_site_fract_x
_atom_site_fract_y
_atom_site_fract_z
Si Si1 0.688580 0.710607 0.999908
Si Si2 0.184706 0.500016 0.899399
Si Si3 0.812511 0.851880 0.496182
Si Si4 0.685739 0.629647 0.159698
Si Si5 0.314228 0.629678 0.840330
Si Si6 0.186002 0.067421 0.341427
Si Si7 0.684853 0.069202 0.658104
O O1 0.500000 0.710278 0.999483
O O2 0.737672 0.781139 0.000497
O O3 0.738614 0.673734 0.916558
O O4 0.738035 0.673708 0.083378
O O5 0.255018 0.438769 0.859586
O O6 0.255343 0.561211 0.859635
O O7 0.000000 0.500078 0.887171
O O8 0.217494 0.500000 0.000000
O O9 0.770513 0.887483 0.582347
O O10 0.742282 0.886586 0.415921
O O11 0.000000 0.853670 0.489195
O O12 0.750000 0.650076 0.250000
O O13 0.500000 0.629109 0.161703
O O14 0.250000 0.649994 0.750000
O O15 0.500000 0.629254 0.838402
O O16 0.250000 0.087359 0.250000
O O17 0.000000 0.063665 0.337036
O O18 0.251758 0.999458 0.358207
O O19 0.750000 0.088099 0.750000
O O20 0.500000 0.067469 0.661477
#
# Coordination Sequence:
#
# PCOD9417483 Si02
#       7
#     8   8   8   8   8   8   8
#     4   9  21  40  60  81 113 155 193 232 280 339
#     4  11  22  37  60  88 116 145 185 239 290 338
#     4  10  21  39  60  84 116 154 195 235 285 340
#     4  11  22  39  61  85 113 149 190 234 286 343
#     4  11  22  39  61  86 115 151 192 233 286 341
#     4  10  20  35  59  87 118 153 189 236 286 338
#     4  11  22  37  59  87 118 151 190 238 287 340
#
# _framework density 18.810946000000001
#
# number of rings (size 3 to 8) (size 9 to 14) (size 15 to 20)
#    0.000    1.571    1.429    4.714    0.000    4.571 
#    0.000    4.286    0.000    0.000    0.000    0.000 
#    0.000    0.000    0.000    0.000    0.000    0.000 
#
# Total GULP energy -313047.116982 kJ/mol
# GULP energy per Si atom -5590.127089 kJ/mol
# Density = 1.876813 g / cm^3
# Si number density = 18.810946 Si / 1000 Ang^3
#
#
#
# Elastic Constant Matrix: (Units=GPa)
#
#
# Indices 1 2 3 4 5 6 
#
# 1 56.6379 36.3456 56.7394 0.0000 0.0000 0.0000
# 2 36.3456 147.1318 120.6852 0.0000 0.0000 0.0000
# 3 56.7394 120.6852 202.2225 0.0000 0.0000 0.0000
# 4 0.0000 0.0000 0.0000 -1.3043 0.0000 0.0000
# 5 0.0000 0.0000 0.0000 0.0000 33.9579 0.0000
# 6 0.0000 0.0000 0.0000 0.0000 0.0000 7.6717
#
#
#
# Elastic Compliance Matrix: (Units=1/GPa)
#
#
# Indices 1 2 3 4 5 6 
#
# 1 0.024609 -0.000814 -0.006419 0.000000 0.000000 0.000000
# 2 -0.000814 0.013341 -0.007734 0.000000 0.000000 0.000000
# 3 -0.006419 -0.007734 0.011361 0.000000 0.000000 0.000000
# 4 0.000000 0.000000 0.000000 -0.766706 0.000000 0.000000
# 5 0.000000 0.000000 0.000000 0.000000 0.029448 0.000000
# 6 0.000000 0.000000 0.000000 0.000000 0.000000 0.130350
#
#
# Mechanical properties :
#
#
# Convention : Reuss Voigt Hill
#
# Bulk Modulus (GPa) = 51.60346 92.61475 72.10910
# Shear Modulus (GPa) = -9.59317 20.87986 5.64334
#
# Velocity S-wave (km/s) = -2.26072 3.33526 1.73394
# Velocity P-wave (km/s) = 4.54728 8.01082 6.51349
#
# Compressibility (1/GPa) = 0.01937855
#
# Stress axis : x y z
#
# Youngs Moduli (GPa) = 40.63582 74.95604 88.01692
#
# Poissons Ratio (x) = 0.06100 0.56498
# Poissons Ratio (y) = 0.03307 0.68069
# Poissons Ratio (z) = 0.26084 0.57968
#
# Static dielectric constant tensor:
#      x y z
#    x 1.634300 0.000000 0.000000 
#    y 0.000000 1.617610 0.000000 
#    z 0.000000 0.000000 1.645230 
# 
# From -- ./inp_files/20533.got.cif
#   From: 2010.05.17/outbox.cif.g08.bks.cpg/sg53_11_cif.got.tgz:20533.got - 2010.06.03 12:45:16.
