data_PCOD9417955
_publ_section_title
;
Structure prediction by ZEFSAII (Michael W. Deem and Ramdas Pophale) SiO2 
 PCOD9417955
Probable space group: P M N A
;
_chemical_formula_sum "Si O2"
_cell_formula_units_Z 40
_cell_length_a 23.217420
_cell_length_b 7.527300
_cell_length_c 10.177132
_cell_angle_alpha 90.000000
_cell_angle_beta 90.000000
_cell_angle_gamma 90.000000
_cell_volume 1778.601239
_symmetry_space_group_name_H-M "P M N A"
_symmetry_group_IT_number 53
_symmetry_cell_setting 'orthorhombic'
loop_
_space_group_symop_operation_xyz
x,y,z
1/2-x,-y,1/2+z
x,-y,-z
1/2-x,y,1/2-z
-x,-y,-z
1/2+x,y,1/2-z
-x,y,z
1/2+x,-y,1/2+z
loop_
_atom_site_type_symbol
_atom_site_label
_atom_site_fract_x
_atom_site_fract_y
_atom_site_fract_z
Si Si1 0.610996 0.292684 0.518442
Si Si2 0.232002 0.838149 0.095577
Si Si3 0.061740 0.701441 0.277991
Si Si4 0.432760 0.267521 0.239072
Si Si5 0.645973 0.286506 0.997904
O O1 0.597955 0.500000 0.500000
O O2 0.675294 0.282566 0.579229
O O3 0.569267 0.225041 0.632371
O O4 0.596782 0.213017 0.376586
O O5 0.250000 0.867981 0.250000
O O6 0.288190 0.764199 0.021258
O O7 0.214944 0.000000 0.000000
O O8 0.065354 0.485409 0.269766
O O9 0.111755 0.771660 0.369166
O O10 0.000000 0.744832 0.336912
O O11 0.500000 0.210954 0.228726
O O12 0.389287 0.214971 0.122484
O O13 0.643329 0.500000 0.000000
#
# Coordination Sequence:
#
# PCOD9417955 Si02
#       5
#     8   8   8   8   8
#     4  10  20  37  62  90 120 153 194 243 291 347
#     4  12  27  44  60  82 116 160 205 250 294 344
#     4   9  16  31  57  90 122 153 186 237 296 347
#     4   9  18  31  57  96 126 145 182 235 296 357
#     4  10  20  37  62  90 120 153 194 243 291 347
#
# _framework density 22.489583
#
# number of rings (size 3 to 8) (size 9 to 14) (size 15 to 20)
#    0.000    2.000    2.000    1.800    2.800    4.800 
#    0.000    0.000    0.000    7.200    0.000    0.000 
#    0.000    0.000    0.000    0.000    0.000    0.000 
#
# Total GULP energy -223120.341237 kJ/mol
# GULP energy per Si atom -5578.008531 kJ/mol
# Density = 2.243840 g / cm^3
# Si number density = 22.489583 Si / 1000 Ang^3
#
#
#
# Elastic Constant Matrix: (Units=GPa)
#
#
# Indices 1 2 3 4 5 6 
#
# 1 116.0365 -24.9382 19.8294 0.0000 0.0000 0.0000
# 2 -24.9382 30.3350 0.4320 0.0000 0.0000 0.0000
# 3 19.8294 0.4320 129.6457 0.0000 0.0000 0.0000
# 4 0.0000 0.0000 0.0000 -0.8237 0.0000 0.0000
# 5 0.0000 0.0000 0.0000 0.0000 38.7845 0.0000
# 6 0.0000 0.0000 0.0000 0.0000 0.0000 -927.4301
#
#
#
# Elastic Compliance Matrix: (Units=1/GPa)
#
#
# Indices 1 2 3 4 5 6 
#
# 1 0.010823 0.008922 -0.001685 0.000000 0.000000 0.000000
# 2 0.008922 0.040321 -0.001499 0.000000 0.000000 0.000000
# 3 -0.001685 -0.001499 0.007976 0.000000 0.000000 0.000000
# 4 0.000000 0.000000 0.000000 -1.213967 0.000000 0.000000
# 5 0.000000 0.000000 0.000000 0.000000 0.025784 0.000000
# 6 0.000000 0.000000 0.000000 0.000000 0.000000 -0.001078
#
#
# Mechanical properties :
#
#
# Convention : Reuss Voigt Hill
#
# Bulk Modulus (GPa) = 14.16506 29.62928 21.89717
# Shear Modulus (GPa) = -4.47193 -159.18094 -81.82644
#
# Velocity S-wave (km/s) = -1.41165 -8.42220 -6.03847
# Velocity P-wave (km/s) = 1.91185 9.02080 6.23376
#
# Compressibility (1/GPa) = 0.07059623
#
# Stress axis : x y z
#
# Youngs Moduli (GPa) = 92.39225 24.80081 125.37495
#
# Poissons Ratio (x) = -0.22127 0.21128
# Poissons Ratio (y) = -0.82431 0.18793
# Poissons Ratio (z) = 0.15570 0.03718
#
# Static dielectric constant tensor:
#      x y z
#    x 1.793740 0.000000 0.000000 
#    y 0.000000 1.919870 0.000000 
#    z 0.000000 0.000000 1.833800 
# 
# From -- ./inp_files/11522.got.cif
#   From: 2010.05.17/outbox.cif.g08.bks.cpg/sg53_6_cif.got.tgz:11522.got - 2010.06.03 12:45:16.
