data_PCOD9417059
_publ_section_title
;
Structure prediction by ZEFSAII (Michael W. Deem and Ramdas Pophale) SiO2 
 PCOD9417059
Probable space group: P M N A
;
_chemical_formula_sum "Si O2"
_cell_formula_units_Z 64
_cell_length_a 8.788071
_cell_length_b 14.835027
_cell_length_c 25.533600
_cell_angle_alpha 90.000000
_cell_angle_beta 90.000000
_cell_angle_gamma 90.000000
_cell_volume 3328.847874
_symmetry_space_group_name_H-M "P M N A"
_symmetry_group_IT_number 53
_symmetry_cell_setting 'orthorhombic'
loop_
_space_group_symop_operation_xyz
x,y,z
1/2-x,-y,1/2+z
x,-y,-z
1/2-x,y,1/2-z
-x,-y,-z
1/2+x,y,1/2-z
-x,y,z
1/2+x,-y,1/2+z
loop_
_atom_site_type_symbol
_atom_site_label
_atom_site_fract_x
_atom_site_fract_y
_atom_site_fract_z
Si Si1 0.316776 0.516811 0.560904
Si Si2 0.821502 0.017038 0.667732
Si Si3 0.321027 0.656902 0.105575
Si Si4 0.318149 0.719975 0.596080
Si Si5 0.317756 0.182193 0.195936
Si Si6 0.318333 0.211468 0.693734
Si Si7 0.329618 0.061592 0.949218
Si Si8 0.324586 0.768225 0.482080
O O1 0.269989 0.500000 0.500000
O O2 0.500000 0.507725 0.561909
O O3 0.245434 0.443224 0.599737
O O4 0.278591 0.617276 0.580473
O O5 0.735710 0.108423 0.683244
O O6 0.813091 0.009224 0.604813
O O7 0.000000 0.028817 0.682085
O O8 0.764559 0.922235 0.690004
O O9 0.500000 0.655838 0.114856
O O10 0.243538 0.721297 0.148872
O O11 0.280425 0.700029 0.049298
O O12 0.500000 0.723988 0.605072
O O13 0.235631 0.760581 0.646100
O O14 0.284262 0.775515 0.543012
O O15 0.250000 0.218612 0.250000
O O16 0.500000 0.181000 0.197757
O O17 0.250000 0.238133 0.750000
O O18 0.500000 0.214651 0.694493
O O19 0.500000 0.104416 0.947635
O O20 0.201933 0.136812 0.954426
O O21 0.323226 0.000000 0.000000
O O22 0.500000 0.737699 0.478514
#
# Coordination Sequence:
#
# PCOD9417059 Si02
#       8
#     8   8   8   8   8   8   8   8
#     4  10  20  40  66  93 127 163 202 251 308 368
#     4  10  21  38  60  89 123 162 208 257 305 359
#     4  12  24  39  61  92 128 162 202 252 305 367
#     4  10  22  40  64  92 125 162 204 254 307 366
#     4  11  24  42  64  89 123 164 210 259 308 361
#     4  12  25  42  65  91 123 164 209 258 310 367
#     4  10  20  34  53  82 123 166 204 251 309 364
#     4  11  21  36  58  88 123 163 203 247 306 365
#
# _framework density 19.225871000000001
#
# number of rings (size 3 to 8) (size 9 to 14) (size 15 to 20)
#    0.000    1.250    2.500    4.125    0.000    5.000 
#    0.000    0.625    0.000    3.000    0.000    0.000 
#    0.000    0.000    0.000    0.000    0.000    0.000 
#
# Total GULP energy -357563.270197 kJ/mol
# GULP energy per Si atom -5586.926097 kJ/mol
# Density = 1.918211 g / cm^3
# Si number density = 19.225871 Si / 1000 Ang^3
#
#
#
# Elastic Constant Matrix: (Units=GPa)
#
#
# Indices 1 2 3 4 5 6 
#
# 1 72.9766 36.4195 42.0107 0.0000 0.0000 0.0000
# 2 36.4195 79.3788 41.6866 0.0000 0.0000 0.0000
# 3 42.0107 41.6866 126.4586 0.0000 0.0000 0.0000
# 4 0.0000 0.0000 0.0000 11.9369 0.0000 0.0000
# 5 0.0000 0.0000 0.0000 0.0000 27.4013 0.0000
# 6 0.0000 0.0000 0.0000 0.0000 0.0000 26.7298
#
#
#
# Elastic Compliance Matrix: (Units=1/GPa)
#
#
# Indices 1 2 3 4 5 6 
#
# 1 0.019509 -0.006709 -0.004270 0.000000 0.000000 0.000000
# 2 -0.006709 0.017542 -0.003554 0.000000 0.000000 0.000000
# 3 -0.004270 -0.003554 0.010498 0.000000 0.000000 0.000000
# 4 0.000000 0.000000 0.000000 0.083774 0.000000 0.000000
# 5 0.000000 0.000000 0.000000 0.000000 0.036495 0.000000
# 6 0.000000 0.000000 0.000000 0.000000 0.000000 0.037411
#
#
# Mechanical properties :
#
#
# Convention : Reuss Voigt Hill
#
# Bulk Modulus (GPa) = 54.09985 57.67195 55.88590
# Shear Modulus (GPa) = 20.79392 23.79341 22.29366
#
# Velocity S-wave (km/s) = 3.29227 3.52173 3.40893
# Velocity P-wave (km/s) = 6.53087 6.82634 6.68024
#
# Compressibility (1/GPa) = 0.01848434
#
# Stress axis : x y z
#
# Youngs Moduli (GPa) = 51.25871 57.00531 95.25895
#
# Poissons Ratio (x) = 0.38243 0.40671
# Poissons Ratio (y) = 0.34387 0.33856
# Poissons Ratio (z) = 0.21885 0.20260
#
# Static dielectric constant tensor:
#      x y z
#    x 1.666120 0.000000 0.000000 
#    y 0.000000 1.683950 0.000000 
#    z 0.000000 0.000000 1.662570 
# 
# From -- ./inp_files/34192.got.cif
#   From: 2010.05.17/outbox.cif.g08.bks.cpg/sg53_18_cif.got.tgz:34192.got - 2010.06.03 12:45:16.
