data_PCOD9417914
_publ_section_title
;
Structure prediction by ZEFSAII (Michael W. Deem and Ramdas Pophale) SiO2 
 PCOD9417914
Probable space group: P M N A
;
_chemical_formula_sum "Si O2"
_cell_formula_units_Z 64
_cell_length_a 15.563121
_cell_length_b 21.101760
_cell_length_c 9.012687
_cell_angle_alpha 90.000000
_cell_angle_beta 90.000000
_cell_angle_gamma 90.000000
_cell_volume 2959.849726
_symmetry_space_group_name_H-M "P M N A"
_symmetry_group_IT_number 53
_symmetry_cell_setting 'orthorhombic'
loop_
_space_group_symop_operation_xyz
x,y,z
1/2-x,-y,1/2+z
x,-y,-z
1/2-x,y,1/2-z
-x,-y,-z
1/2+x,y,1/2-z
-x,y,z
1/2+x,-y,1/2+z
loop_
_atom_site_type_symbol
_atom_site_label
_atom_site_fract_x
_atom_site_fract_y
_atom_site_fract_z
Si Si1 0.162834 0.984962 0.675185
Si Si2 0.598229 0.852969 0.869574
Si Si3 0.896745 0.618434 0.644105
Si Si4 0.342546 0.755784 0.328872
Si Si5 0.347366 0.370635 0.809818
Si Si6 0.100869 0.500621 0.834575
Si Si7 0.399972 0.119533 0.806125
Si Si8 0.896196 0.742450 0.844458
O O1 0.250000 0.963097 0.750000
O O2 0.138781 0.052801 0.744316
O O3 0.170421 0.000000 0.500000
O O4 0.100508 0.924987 0.689361
O O5 0.500000 0.831637 0.891351
O O6 0.633728 0.802235 0.754479
O O7 0.638079 0.857415 0.034563
O O8 0.852254 0.626740 0.486250
O O9 0.864625 0.555588 0.728114
O O10 0.884093 0.678907 0.749383
O O11 0.000000 0.612844 0.615399
O O12 0.250000 0.762615 0.250000
O O13 0.385949 0.695928 0.246766
O O14 0.388676 0.822692 0.304626
O O15 0.344556 0.740427 0.502346
O O16 0.250000 0.371917 0.750000
O O17 0.391148 0.432310 0.740208
O O18 0.000000 0.516638 0.851319
O O19 0.139457 0.500000 0.000000
O O20 0.500000 0.105766 0.832563
O O21 0.000000 0.748025 0.876491
#
# Coordination Sequence:
#
# PCOD9417914 Si02
#       8
#     8   8   8   8   8   8   8   8
#     4  10  21  36  56  82 115 153 190 235 292 355
#     4   9  19  36  58  85 113 146 193 243 292 347
#     4  10  21  40  67  94 120 156 205 258 306 355
#     4  11  24  40  56  84 123 159 196 240 300 364
#     4  11  24  40  58  87 123 162 202 242 298 363
#     4  10  21  38  62  92 123 156 199 250 299 350
#     4  10  20  37  61  85 112 151 198 246 294 350
#     4  10  21  39  64  91 118 152 199 253 302 352
#
# _framework density 21.622720000000001
#
# number of rings (size 3 to 8) (size 9 to 14) (size 15 to 20)
#    0.000    1.875    0.000    3.375    0.000   10.500 
#    0.000    7.500    0.000    3.000    0.000    0.000 
#    0.000    0.000    0.000    0.000    0.000    0.000 
#
# Total GULP energy -357454.379692 kJ/mol
# GULP energy per Si atom -5585.224683 kJ/mol
# Density = 2.157351 g / cm^3
# Si number density = 21.622720 Si / 1000 Ang^3
#
#
#
# Elastic Constant Matrix: (Units=GPa)
#
#
# Indices 1 2 3 4 5 6 
#
# 1 37.1786 -10.2249 11.4567 0.0000 0.0000 0.0000
# 2 -10.2249 99.2274 14.0197 0.0000 0.0000 0.0000
# 3 11.4567 14.0197 72.2650 0.0000 0.0000 0.0000
# 4 0.0000 0.0000 0.0000 10.0681 0.0000 0.0000
# 5 0.0000 0.0000 0.0000 0.0000 19.5189 0.0000
# 6 0.0000 0.0000 0.0000 0.0000 0.0000 36.2688
#
#
#
# Elastic Compliance Matrix: (Units=1/GPa)
#
#
# Indices 1 2 3 4 5 6 
#
# 1 0.029624 0.003821 -0.005438 0.000000 0.000000 0.000000
# 2 0.003821 0.010855 -0.002712 0.000000 0.000000 0.000000
# 3 -0.005438 -0.002712 0.015226 0.000000 0.000000 0.000000
# 4 0.000000 0.000000 0.000000 0.099323 0.000000 0.000000
# 5 0.000000 0.000000 0.000000 0.000000 0.051232 0.000000
# 6 0.000000 0.000000 0.000000 0.000000 0.000000 0.027572
#
#
# Mechanical properties :
#
#
# Convention : Reuss Voigt Hill
#
# Bulk Modulus (GPa) = 21.25509 26.57489 23.91499
# Shear Modulus (GPa) = 19.36697 26.06580 22.71638
#
# Velocity S-wave (km/s) = 2.99603 3.47577 3.24478
# Velocity P-wave (km/s) = 4.67115 5.33150 5.01221
#
# Compressibility (1/GPa) = 0.04704755
#
# Stress axis : x y z
#
# Youngs Moduli (GPa) = 33.75677 92.12592 65.67666
#
# Poissons Ratio (x) = -0.35200 0.35713
# Poissons Ratio (y) = -0.12898 0.17809
# Poissons Ratio (z) = 0.18356 0.24981
#
# Static dielectric constant tensor:
#      x y z
#    x 1.780970 0.000000 0.000000 
#    y 0.000000 1.777200 0.000000 
#    z 0.000000 0.000000 1.773740 
# 
# From -- ./inp_files/10239.got.cif
#   From: 2010.05.17/outbox.cif.g08.bks.cpg/sg53_6_cif.got.tgz:10239.got - 2010.06.03 12:45:16.
