data_PCOD9417338
_publ_section_title
;
Structure prediction by ZEFSAII (Michael W. Deem and Ramdas Pophale) SiO2 
 PCOD9417338
Probable space group: P M N A
;
_chemical_formula_sum "Si O2"
_cell_formula_units_Z 44
_cell_length_a 17.401893
_cell_length_b 5.390122
_cell_length_c 25.056151
_cell_angle_alpha 90.000000
_cell_angle_beta 90.000000
_cell_angle_gamma 90.000000
_cell_volume 2350.225027
_symmetry_space_group_name_H-M "P M N A"
_symmetry_group_IT_number 53
_symmetry_cell_setting 'orthorhombic'
loop_
_space_group_symop_operation_xyz
x,y,z
1/2-x,-y,1/2+z
x,-y,-z
1/2-x,y,1/2-z
-x,-y,-z
1/2+x,y,1/2-z
-x,y,z
1/2+x,-y,1/2+z
loop_
_atom_site_type_symbol
_atom_site_label
_atom_site_fract_x
_atom_site_fract_y
_atom_site_fract_z
Si Si1 0.315858 0.255230 0.202986
Si Si2 0.919647 0.035339 0.837707
Si Si3 0.910648 0.751495 0.275186
Si Si4 0.168818 0.000000 0.000000
Si Si5 0.085620 0.608798 0.062708
Si Si6 0.290763 0.765897 0.607328
O O1 0.250000 0.261283 0.250000
O O2 0.371360 0.490550 0.211923
O O3 0.283550 0.287195 0.142421
O O4 0.361211 0.992186 0.206357
O O5 0.911403 0.220087 0.788919
O O6 0.924157 0.180538 0.892623
O O7 0.000000 0.891725 0.829337
O O8 0.845467 0.874466 0.846277
O O9 0.000000 0.764380 0.293067
O O10 0.215908 0.941111 0.945579
O O11 0.113544 0.235616 0.988718
O O12 0.158024 0.457004 0.084668
O O13 0.000000 0.492119 0.058755
#
# Coordination Sequence:
#
# PCOD9417338 Si02
#       6
#     8   8   8   4   8   8
#     4  12  24  39  66  94 129 164 209 262 320 373
#     4   9  19  34  54  82 120 162 203 243 296 365
#     4  11  24  42  62  92 128 170 211 254 313 384
#     4  10  23  36  54  82 119 162 216 256 307 368
#     4  10  20  35  55  81 120 166 211 249 296 366
#     4  11  22  36  56  84 121 161 209 254 314 360
#
# _framework density 18.721612
#
# number of rings (size 3 to 8) (size 9 to 14) (size 15 to 20)
#    0.000    1.455    1.818    3.545    5.091    2.909 
#    0.000    0.000    0.000    0.000    0.000    3.818 
#    0.000    0.000    0.000    0.000    0.000    0.000 
#
# Total GULP energy -245046.212139 kJ/mol
# GULP energy per Si atom -5569.232094 kJ/mol
# Density = 1.867900 g / cm^3
# Si number density = 18.721612 Si / 1000 Ang^3
#
#
#
# Elastic Constant Matrix: (Units=GPa)
#
#
# Indices 1 2 3 4 5 6 
#
# 1 87.7927 35.9513 40.5441 0.0000 0.0000 0.0000
# 2 35.9513 60.6374 1.3690 0.0000 0.0000 0.0000
# 3 40.5441 1.3690 94.0628 0.0000 0.0000 0.0000
# 4 0.0000 0.0000 0.0000 21.3507 0.0000 0.0000
# 5 0.0000 0.0000 0.0000 0.0000 7.5434 0.0000
# 6 0.0000 0.0000 0.0000 0.0000 0.0000 37.3140
#
#
#
# Elastic Compliance Matrix: (Units=1/GPa)
#
#
# Indices 1 2 3 4 5 6 
#
# 1 0.020125 -0.011740 -0.008504 0.000000 0.000000 0.000000
# 2 -0.011740 0.023345 0.004721 0.000000 0.000000 0.000000
# 3 -0.008504 0.004721 0.014228 0.000000 0.000000 0.000000
# 4 0.000000 0.000000 0.000000 0.046837 0.000000 0.000000
# 5 0.000000 0.000000 0.000000 0.000000 0.132566 0.000000
# 6 0.000000 0.000000 0.000000 0.000000 0.000000 0.026800
#
#
# Mechanical properties :
#
#
# Convention : Reuss Voigt Hill
#
# Bulk Modulus (GPa) = 37.52052 44.24686 40.88369
# Shear Modulus (GPa) = 16.45650 24.21688 20.33669
#
# Velocity S-wave (km/s) = 2.96803 3.60046 3.29943
# Velocity P-wave (km/s) = 5.64184 6.40077 6.03325
#
# Compressibility (1/GPa) = 0.02665208
#
# Stress axis : x y z
#
# Youngs Moduli (GPa) = 49.68896 42.83497 70.28451
#
# Poissons Ratio (x) = 0.50288 0.59768
# Poissons Ratio (y) = 0.58335 -0.33178
# Poissons Ratio (z) = 0.42254 -0.20221
#
# Static dielectric constant tensor:
#      x y z
#    x 1.559170 0.000000 0.000000 
#    y 0.000000 1.720760 0.000000 
#    z 0.000000 0.000000 1.680110 
# 
# From -- ./inp_files/36935.got.cif
#   From: 2010.05.17/outbox.cif.g08.bks.cpg/sg53_19_cif.got.tgz:36935.got - 2010.06.03 12:45:16.
