data_PCOD9417435
_publ_section_title
;
Structure prediction by ZEFSAII (Michael W. Deem and Ramdas Pophale) SiO2 
 PCOD9417435
Probable space group: P M N A
;
_chemical_formula_sum "Si O2"
_cell_formula_units_Z 56
_cell_length_a 9.003488
_cell_length_b 14.488564
_cell_length_c 20.916501
_cell_angle_alpha 90.000000
_cell_angle_beta 90.000000
_cell_angle_gamma 90.000000
_cell_volume 2728.507609
_symmetry_space_group_name_H-M "P M N A"
_symmetry_group_IT_number 53
_symmetry_cell_setting 'orthorhombic'
loop_
_space_group_symop_operation_xyz
x,y,z
1/2-x,-y,1/2+z
x,-y,-z
1/2-x,y,1/2-z
-x,-y,-z
1/2+x,y,1/2-z
-x,y,z
1/2+x,-y,1/2+z
loop_
_atom_site_type_symbol
_atom_site_label
_atom_site_fract_x
_atom_site_fract_y
_atom_site_fract_z
Si Si1 0.322840 0.858490 0.872766
Si Si2 0.833063 0.336095 0.574959
Si Si3 0.177710 0.481441 0.076248
Si Si4 0.336094 0.210885 0.802290
Si Si5 0.322117 0.171544 0.509536
Si Si6 0.824124 0.951500 0.133713
Si Si7 0.679624 0.656424 0.819843
O O1 0.500000 0.864538 0.876783
O O2 0.252791 0.853239 0.943239
O O3 0.286682 0.764498 0.834839
O O4 0.256560 0.954184 0.847953
O O5 0.742915 0.422484 0.601322
O O6 0.849833 0.267515 0.633671
O O7 0.738565 0.273876 0.526182
O O8 0.000000 0.360194 0.551157
O O9 0.254156 0.402486 0.120001
O O10 0.000000 0.471479 0.080962
O O11 0.212738 0.500000 0.000000
O O12 0.250000 0.269878 0.750000
O O13 0.500000 0.182710 0.782172
O O14 0.229929 0.125908 0.817688
O O15 0.500000 0.174325 0.504685
O O16 0.285271 0.094995 0.564224
O O17 0.000000 0.965326 0.133855
O O18 0.750000 0.632505 0.750000
O O19 0.500000 0.644581 0.818018
#
# Coordination Sequence:
#
# PCOD9417435 Si02
#       7
#     8   8   8   8   8   8   8
#     4  11  23  38  59  86 117 157 202 249 303 362
#     4  10  21  37  59  87 118 152 190 237 294 354
#     4  11  24  42  67  97 127 162 204 253 311 376
#     4  10  21  37  57  82 113 150 192 237 288 346
#     4  10  20  35  57  88 123 157 197 246 302 363
#     4  10  21  36  56  84 119 158 200 249 301 356
#     4  11  26  46  66  90 123 164 211 264 319 379
#
# _framework density 20.524039999999999
#
# number of rings (size 3 to 8) (size 9 to 14) (size 15 to 20)
#    0.000    1.571    0.000    4.286    0.000   12.000 
#    0.000    2.857    0.000    0.000    0.000    0.000 
#    0.000    0.000    0.000    0.000    0.000    0.000 
#
# Total GULP energy -312307.418433 kJ/mol
# GULP energy per Si atom -5576.918186 kJ/mol
# Density = 2.047733 g / cm^3
# Si number density = 20.524040 Si / 1000 Ang^3
#
#
#
# Elastic Constant Matrix: (Units=GPa)
#
#
# Indices 1 2 3 4 5 6 
#
# 1 68.9385 20.2264 47.8957 0.0000 0.0000 0.0000
# 2 20.2264 77.2082 26.8701 0.0000 0.0000 0.0000
# 3 47.8957 26.8701 81.4867 0.0000 0.0000 0.0000
# 4 0.0000 0.0000 0.0000 -2.1813 0.0000 0.0000
# 5 0.0000 0.0000 0.0000 0.0000 10.3469 0.0000
# 6 0.0000 0.0000 0.0000 0.0000 0.0000 29.5210
#
#
#
# Elastic Compliance Matrix: (Units=1/GPa)
#
#
# Indices 1 2 3 4 5 6 
#
# 1 0.024692 -0.001601 -0.013985 0.000000 0.000000 0.000000
# 2 -0.001601 0.014735 -0.003918 0.000000 0.000000 0.000000
# 3 -0.013985 -0.003918 0.021784 0.000000 0.000000 0.000000
# 4 0.000000 0.000000 0.000000 -0.458439 0.000000 0.000000
# 5 0.000000 0.000000 0.000000 0.000000 0.096647 0.000000
# 6 0.000000 0.000000 0.000000 0.000000 0.000000 0.033874
#
#
# Mechanical properties :
#
#
# Convention : Reuss Voigt Hill
#
# Bulk Modulus (GPa) = 45.04021 46.40195 45.72108
# Shear Modulus (GPa) = -22.69656 16.38007 -3.15824
#
# Velocity S-wave (km/s) = -3.32904 2.82812 -1.24183
# Velocity P-wave (km/s) = 2.68627 5.77252 4.50211
#
# Compressibility (1/GPa) = 0.02220238
#
# Stress axis : x y z
#
# Youngs Moduli (GPa) = 40.49916 67.86607 45.90560
#
# Poissons Ratio (x) = 0.10868 0.64200
# Poissons Ratio (y) = 0.06486 0.17984
# Poissons Ratio (z) = 0.56639 0.26587
#
# Static dielectric constant tensor:
#      x y z
#    x 1.753030 0.000000 0.000000 
#    y 0.000000 1.792160 0.000000 
#    z 0.000000 0.000000 1.825460 
# 
# From -- ./inp_files/30784.got.cif
#   From: 2010.05.17/outbox.cif.g08.bks.cpg/sg53_16_cif.got.tgz:30784.got - 2010.06.03 12:45:16.
