data_PCOD9417013
_publ_section_title
;
Structure prediction by ZEFSAII (Michael W. Deem and Ramdas Pophale) SiO2 
 PCOD9417013
Probable space group: P M N A
;
_chemical_formula_sum "Si O2"
_cell_formula_units_Z 48
_cell_length_a 8.878331
_cell_length_b 15.165348
_cell_length_c 19.027908
_cell_angle_alpha 90.000000
_cell_angle_beta 90.000000
_cell_angle_gamma 90.000000
_cell_volume 2561.974222
_symmetry_space_group_name_H-M "P M N A"
_symmetry_group_IT_number 53
_symmetry_cell_setting 'orthorhombic'
loop_
_space_group_symop_operation_xyz
x,y,z
1/2-x,-y,1/2+z
x,-y,-z
1/2-x,y,1/2-z
-x,-y,-z
1/2+x,y,1/2-z
-x,y,z
1/2+x,-y,1/2+z
loop_
_atom_site_type_symbol
_atom_site_label
_atom_site_fract_x
_atom_site_fract_y
_atom_site_fract_z
Si Si1 0.320342 0.619114 0.429709
Si Si2 0.179463 0.774530 0.178114
Si Si3 0.320298 0.474584 0.173326
Si Si4 0.679361 0.681150 0.926372
Si Si5 0.318140 0.128197 0.443226
Si Si6 0.182722 0.059197 0.900170
O O1 0.500000 0.606596 0.435198
O O2 0.291037 0.709002 0.386241
O O3 0.248262 0.542188 0.383259
O O4 0.250679 0.631507 0.506460
O O5 0.250000 0.741355 0.250000
O O6 0.237187 0.872023 0.157924
O O7 0.000000 0.778107 0.186939
O O8 0.250000 0.487712 0.250000
O O9 0.500000 0.487165 0.176844
O O10 0.288708 0.377186 0.142497
O O11 0.500000 0.684885 0.935958
O O12 0.745235 0.779454 0.923458
O O13 0.500000 0.136697 0.439650
O O14 0.280654 0.100764 0.523578
O O15 0.269251 0.042556 0.398177
O O16 0.000000 0.057933 0.897405
#
# Coordination Sequence:
#
# PCOD9417013 Si02
#       6
#     8   8   8   8   8   8
#     4  11  22  38  62  87 112 149 195 238 284 347
#     4  10  20  34  52  80 115 149 186 229 282 341
#     4  11  25  43  60  82 115 153 190 236 291 344
#     4  11  23  38  58  87 120 148 185 242 293 336
#     4   9  16  32  59  82 105 144 189 232 277 332
#     4   8  15  31  54  79 108 143 186 231 274 331
#
# _framework density 18.735552999999999
#
# number of rings (size 3 to 8) (size 9 to 14) (size 15 to 20)
#    0.000    2.000    1.667    3.500    0.000    7.333 
#    0.000    3.333    0.000    4.000    0.000    0.000 
#    0.000    0.000    0.000    0.000    0.000    0.000 
#
# Total GULP energy -267921.850224 kJ/mol
# GULP energy per Si atom -5581.705213 kJ/mol
# Density = 1.869291 g / cm^3
# Si number density = 18.735553 Si / 1000 Ang^3
#
#
#
# Elastic Constant Matrix: (Units=GPa)
#
#
# Indices 1 2 3 4 5 6 
#
# 1 34.1115 42.1188 20.1612 0.0000 0.0000 0.0000
# 2 42.1188 119.5157 17.6014 0.0000 0.0000 0.0000
# 3 20.1612 17.6014 40.7766 0.0000 0.0000 0.0000
# 4 0.0000 0.0000 0.0000 11.7534 0.0000 0.0000
# 5 0.0000 0.0000 0.0000 0.0000 -4.0813 0.0000
# 6 0.0000 0.0000 0.0000 0.0000 0.0000 26.9273
#
#
#
# Elastic Compliance Matrix: (Units=1/GPa)
#
#
# Indices 1 2 3 4 5 6 
#
# 1 0.070592 -0.021077 -0.025805 0.000000 0.000000 0.000000
# 2 -0.021077 0.015228 0.003848 0.000000 0.000000 0.000000
# 3 -0.025805 0.003848 0.035622 0.000000 0.000000 0.000000
# 4 0.000000 0.000000 0.000000 0.085082 0.000000 0.000000
# 5 0.000000 0.000000 0.000000 0.000000 -0.245019 0.000000
# 6 0.000000 0.000000 0.000000 0.000000 0.000000 0.037137
#
#
# Mechanical properties :
#
#
# Convention : Reuss Voigt Hill
#
# Bulk Modulus (GPa) = 28.26961 39.35184 33.81072
# Shear Modulus (GPa) = 51.81310 14.55471 33.18391
#
# Velocity S-wave (km/s) = 5.26450 2.79023 4.21310
# Velocity P-wave (km/s) = 7.21629 5.60624 6.46161
#
# Compressibility (1/GPa) = 0.03537368
#
# Stress axis : x y z
#
# Youngs Moduli (GPa) = 14.16597 65.66753 28.07292
#
# Poissons Ratio (x) = 1.38408 0.72441
# Poissons Ratio (y) = 0.29858 -0.10802
# Poissons Ratio (z) = 0.36555 -0.25267
#
# Static dielectric constant tensor:
#      x y z
#    x 1.625340 0.000000 0.000000 
#    y 0.000000 1.682090 0.000000 
#    z 0.000000 0.000000 1.618020 
# 
# From -- ./inp_files/26276.got.cif
#   From: 2010.05.17/outbox.cif.g08.bks.cpg/sg53_14_cif.got.tgz:26276.got - 2010.06.03 12:45:16.
