data_PCOD9417612
_publ_section_title
;
Structure prediction by ZEFSAII (Michael W. Deem and Ramdas Pophale) SiO2 
 PCOD9417612
Probable space group: P M N A
;
_chemical_formula_sum "Si O2"
_cell_formula_units_Z 40
_cell_length_a 8.591210
_cell_length_b 26.216351
_cell_length_c 9.440098
_cell_angle_alpha 90.000000
_cell_angle_beta 90.000000
_cell_angle_gamma 90.000000
_cell_volume 2126.194942
_symmetry_space_group_name_H-M "P M N A"
_symmetry_group_IT_number 53
_symmetry_cell_setting 'orthorhombic'
loop_
_space_group_symop_operation_xyz
x,y,z
1/2-x,-y,1/2+z
x,-y,-z
1/2-x,y,1/2-z
-x,-y,-z
1/2+x,y,1/2-z
-x,y,z
1/2+x,-y,1/2+z
loop_
_atom_site_type_symbol
_atom_site_label
_atom_site_fract_x
_atom_site_fract_y
_atom_site_fract_z
Si Si1 0.312007 0.049337 0.090413
Si Si2 0.688061 0.548808 0.407944
Si Si3 0.313013 0.760497 0.592396
Si Si4 0.312336 0.643907 0.593623
Si Si5 0.686782 0.147838 0.908556
O O1 0.250000 0.048192 0.250000
O O2 0.500000 0.048957 0.096308
O O3 0.263040 0.100272 0.006804
O O4 0.261722 0.000000 0.000000
O O5 0.737982 0.500000 0.500000
O O6 0.750000 0.545139 0.250000
O O7 0.500000 0.548944 0.404654
O O8 0.740459 0.601046 0.483691
O O9 0.250000 0.772235 0.750000
O O10 0.500000 0.763240 0.594308
O O11 0.265583 0.702046 0.558654
O O12 0.247168 0.800576 0.481022
O O13 0.250000 0.631911 0.750000
O O14 0.500000 0.642873 0.598409
O O15 0.750000 0.142129 0.750000
O O16 0.500000 0.148454 0.904291
#
# Coordination Sequence:
#
# PCOD9417612 Si02
#       5
#     8   8   8   8   8
#     4  10  22  39  59  84 112 143 180 222 270 323
#     4  10  21  36  54  78 107 138 176 220 266 318
#     4  10  20  36  57  81 111 145 183 225 270 322
#     4   9  19  35  55  80 108 140 178 220 266 318
#     4  11  23  38  57  82 112 146 185 227 273 323
#
# _framework density 18.812950000000001
#
# number of rings (size 3 to 8) (size 9 to 14) (size 15 to 20)
#    0.000    2.000    0.000    3.000    0.000    6.400 
#    0.000    2.000    0.000    0.000    0.000    0.000 
#    0.000    0.000    0.000    0.000    0.000    0.000 
#
# Total GULP energy -223465.736525 kJ/mol
# GULP energy per Si atom -5586.643413 kJ/mol
# Density = 1.877013 g / cm^3
# Si number density = 18.812950 Si / 1000 Ang^3
#
#
#
# Elastic Constant Matrix: (Units=GPa)
#
#
# Indices 1 2 3 4 5 6 
#
# 1 22.8046 32.1555 33.6573 0.0000 0.0000 0.0000
# 2 32.1555 144.3250 126.9637 0.0000 0.0000 0.0000
# 3 33.6573 126.9637 196.7004 0.0000 0.0000 0.0000
# 4 0.0000 0.0000 0.0000 43.3196 0.0000 0.0000
# 5 0.0000 0.0000 0.0000 0.0000 39.6044 0.0000
# 6 0.0000 0.0000 0.0000 0.0000 0.0000 22.2750
#
#
#
# Elastic Compliance Matrix: (Units=1/GPa)
#
#
# Indices 1 2 3 4 5 6 
#
# 1 0.065354 -0.010929 -0.004128 0.000000 0.000000 0.000000
# 2 -0.010929 0.017860 -0.009658 0.000000 0.000000 0.000000
# 3 -0.004128 -0.009658 0.012024 0.000000 0.000000 0.000000
# 4 0.000000 0.000000 0.000000 0.023084 0.000000 0.000000
# 5 0.000000 0.000000 0.000000 0.000000 0.025250 0.000000
# 6 0.000000 0.000000 0.000000 0.000000 0.000000 0.044893
#
#
# Mechanical properties :
#
#
# Convention : Reuss Voigt Hill
#
# Bulk Modulus (GPa) = 21.83043 83.26480 52.54761
# Shear Modulus (GPa) = 19.74987 32.44337 26.09662
#
# Velocity S-wave (km/s) = 3.24358 4.15724 3.72850
# Velocity P-wave (km/s) = 5.06526 8.20969 6.82114
#
# Compressibility (1/GPa) = 0.04580763
#
# Stress axis : x y z
#
# Youngs Moduli (GPa) = 15.30117 55.99103 83.16591
#
# Poissons Ratio (x) = 0.61194 0.34333
# Poissons Ratio (y) = 0.16723 0.80321
# Poissons Ratio (z) = 0.06317 0.54076
#
# Static dielectric constant tensor:
#      x y z
#    x 1.642240 0.000000 0.000000 
#    y 0.000000 1.659880 0.000000 
#    z 0.000000 0.000000 1.601130 
# 
# From -- ./inp_files/6271.got.cif
#   From: 2010.05.17/outbox.cif.g08.bks.cpg/sg53_4_cif.got.tgz:6271.got - 2010.06.03 12:45:16.
