data_PCOD9417577
_publ_section_title
;
Structure prediction by ZEFSAII (Michael W. Deem and Ramdas Pophale) SiO2 
 PCOD9417577
Probable space group: P M N A
;
_chemical_formula_sum "Si O2"
_cell_formula_units_Z 52
_cell_length_a 26.155746
_cell_length_b 5.227668
_cell_length_c 20.338673
_cell_angle_alpha 90.000000
_cell_angle_beta 90.000000
_cell_angle_gamma 90.000000
_cell_volume 2780.979091
_symmetry_space_group_name_H-M "P M N A"
_symmetry_group_IT_number 53
_symmetry_cell_setting 'orthorhombic'
loop_
_space_group_symop_operation_xyz
x,y,z
1/2-x,-y,1/2+z
x,-y,-z
1/2-x,y,1/2-z
-x,-y,-z
1/2+x,y,1/2-z
-x,y,z
1/2+x,-y,1/2+z
loop_
_atom_site_type_symbol
_atom_site_label
_atom_site_fract_x
_atom_site_fract_y
_atom_site_fract_z
Si Si1 0.808635 0.664983 0.753368
Si Si2 0.340888 0.189421 0.388881
Si Si3 0.557071 0.363516 0.776567
Si Si4 0.442389 0.864659 0.684925
Si Si5 0.196932 0.500000 0.000000
Si Si6 0.244019 0.124945 0.572695
Si Si7 0.158911 0.165056 0.678243
O O1 0.750000 0.746873 0.750000
O O2 0.826833 0.626675 0.827917
O O3 0.813580 0.396964 0.716379
O O4 0.838949 0.901896 0.719876
O O5 0.397612 0.106012 0.368622
O O6 0.338588 0.301963 0.462067
O O7 0.292624 0.996773 0.389711
O O8 0.500000 0.386303 0.805408
O O9 0.566829 0.622938 0.734619
O O10 0.601659 0.280517 0.826945
O O11 0.557100 0.127065 0.725865
O O12 0.500000 0.824949 0.658037
O O13 0.235488 0.594354 0.056192
O O14 0.192145 0.115214 0.613198
O O15 0.238913 0.000000 0.500000
#
# Coordination Sequence:
#
# PCOD9417577 Si02
#       7
#     8   8   8   8   4   8   8
#     4  12  23  33  57  91 120 143 190 252 299 340
#     4  11  21  38  57  83 117 156 197 240 292 347
#     4  10  20  36  56  88 121 150 186 243 308 355
#     4  10  21  36  59  86 119 153 193 244 300 346
#     4  10  24  40  57  76 119 168 196 230 294 356
#     4  10  24  40  57  82 120 164 201 236 293 363
#     4  12  22  37  59  90 116 155 192 243 300 352
#
# _framework density 18.698450999999999
#
# number of rings (size 3 to 8) (size 9 to 14) (size 15 to 20)
#    0.000    1.231    4.615    1.385    6.462    0.000 
#    0.000    0.385    0.000    4.615    0.000    0.538 
#    0.000    0.000    0.000    0.000    0.000    0.000 
#
# Total GULP energy -289681.193099 kJ/mol
# GULP energy per Si atom -5570.792175 kJ/mol
# Density = 1.865589 g / cm^3
# Si number density = 18.698451 Si / 1000 Ang^3
#
#
#
# Elastic Constant Matrix: (Units=GPa)
#
#
# Indices 1 2 3 4 5 6 
#
# 1 159.6542 11.4293 43.6306 0.0000 0.0000 0.0000
# 2 11.4293 88.3906 15.6786 0.0000 0.0000 0.0000
# 3 43.6306 15.6786 61.1161 0.0000 0.0000 0.0000
# 4 0.0000 0.0000 0.0000 18.4508 0.0000 0.0000
# 5 0.0000 0.0000 0.0000 0.0000 24.0855 0.0000
# 6 0.0000 0.0000 0.0000 0.0000 0.0000 24.7999
#
#
#
# Elastic Compliance Matrix: (Units=1/GPa)
#
#
# Indices 1 2 3 4 5 6 
#
# 1 0.007782 -0.000022 -0.005550 0.000000 0.000000 0.000000
# 2 -0.000022 0.011853 -0.003025 0.000000 0.000000 0.000000
# 3 -0.005550 -0.003025 0.021100 0.000000 0.000000 0.000000
# 4 0.000000 0.000000 0.000000 0.054198 0.000000 0.000000
# 5 0.000000 0.000000 0.000000 0.000000 0.041519 0.000000
# 6 0.000000 0.000000 0.000000 0.000000 0.000000 0.040323
#
#
# Mechanical properties :
#
#
# Convention : Reuss Voigt Hill
#
# Bulk Modulus (GPa) = 42.47820 50.07088 46.27454
# Shear Modulus (GPa) = 24.77514 29.36207 27.06861
#
# Velocity S-wave (km/s) = 3.64398 3.96699 3.80891
# Velocity P-wave (km/s) = 6.36173 6.91512 6.64419
#
# Compressibility (1/GPa) = 0.02354149
#
# Stress axis : x y z
#
# Youngs Moduli (GPa) = 128.50580 84.36805 47.39259
#
# Poissons Ratio (x) = 0.00184 0.26302
# Poissons Ratio (y) = 0.00280 0.14337
# Poissons Ratio (z) = 0.71318 0.25523
#
# Static dielectric constant tensor:
#      x y z
#    x 1.714260 0.000000 0.000000 
#    y 0.000000 1.728130 0.000000 
#    z 0.000000 0.000000 1.650310 
# 
# From -- ./inp_files/29675.got.cif
#   From: 2010.05.17/outbox.cif.g08.bks.cpg/sg53_15_cif.got.tgz:29675.got - 2010.06.03 12:45:16.
