data_PCOD9417173
_publ_section_title
;
Structure prediction by ZEFSAII (Michael W. Deem and Ramdas Pophale) SiO2 
 PCOD9417173
Probable space group: P M N A
;
_chemical_formula_sum "Si O2"
_cell_formula_units_Z 64
_cell_length_a 14.916008
_cell_length_b 9.454754
_cell_length_c 24.177749
_cell_angle_alpha 90.000000
_cell_angle_beta 90.000000
_cell_angle_gamma 90.000000
_cell_volume 3409.719913
_symmetry_space_group_name_H-M "P M N A"
_symmetry_group_IT_number 53
_symmetry_cell_setting 'orthorhombic'
loop_
_space_group_symop_operation_xyz
x,y,z
1/2-x,-y,1/2+z
x,-y,-z
1/2-x,y,1/2-z
-x,-y,-z
1/2+x,y,1/2-z
-x,y,z
1/2+x,-y,1/2+z
loop_
_atom_site_type_symbol
_atom_site_label
_atom_site_fract_x
_atom_site_fract_y
_atom_site_fract_z
Si Si1 0.694750 0.156453 0.695430
Si Si2 0.604748 0.405698 0.219040
Si Si3 0.284041 0.457356 0.115957
Si Si4 0.395086 0.208445 0.066300
Si Si5 0.601339 0.912954 0.761043
Si Si6 0.858922 0.070780 0.626182
Si Si7 0.602485 0.442095 0.662797
Si Si8 0.403081 0.669841 0.056087
O O1 0.750000 0.208367 0.750000
O O2 0.651445 0.010706 0.717154
O O3 0.760332 0.117016 0.645401
O O4 0.628783 0.279314 0.675471
O O5 0.500000 0.403758 0.200518
O O6 0.666203 0.484881 0.174582
O O7 0.637520 0.243699 0.226817
O O8 0.607465 0.479678 0.278152
O O9 0.323851 0.305276 0.098889
O O10 0.179287 0.486010 0.125017
O O11 0.324891 0.562279 0.070470
O O12 0.500000 0.227958 0.084033
O O13 0.369012 0.047777 0.079328
O O14 0.391261 0.253434 0.002450
O O15 0.500000 0.891647 0.741811
O O16 0.601812 0.000262 0.818325
O O17 0.903478 0.211668 0.603412
O O18 0.500000 0.452854 0.642358
O O19 0.500000 0.594862 0.056013
#
# Coordination Sequence:
#
# PCOD9417173 Si02
#       8
#     8   8   8   8   8   8   8   8
#     4  10  21  36  55  86 116 156 196 236 282 340
#     4  10  21  35  57  88 122 157 191 231 284 351
#     4  12  22  38  61  85 118 157 194 236 291 344
#     4  11  23  39  60  89 123 152 188 237 290 353
#     4  10  20  34  55  86 121 156 193 231 280 342
#     4  11  21  36  58  86 119 158 188 228 287 346
#     4  11  24  40  58  84 116 154 200 245 287 336
#     4  11  23  38  59  88 120 154 193 234 286 354
#
# _framework density 18.769869
#
# number of rings (size 3 to 8) (size 9 to 14) (size 15 to 20)
#    0.000    1.250    2.500    4.500    3.500    3.000 
#    0.000    0.000    0.000    1.500    0.000    0.875 
#    0.000    0.000    0.000    0.000    0.000    0.000 
#
# Total GULP energy -357371.758201 kJ/mol
# GULP energy per Si atom -5583.933722 kJ/mol
# Density = 1.872715 g / cm^3
# Si number density = 18.769869 Si / 1000 Ang^3
#
#
#
# Elastic Constant Matrix: (Units=GPa)
#
#
# Indices 1 2 3 4 5 6 
#
# 1 123.0867 29.9719 35.1853 0.0000 0.0000 0.0000
# 2 29.9719 72.9589 9.2274 0.0000 0.0000 0.0000
# 3 35.1853 9.2274 48.1122 0.0000 0.0000 0.0000
# 4 0.0000 0.0000 0.0000 32.5736 0.0000 0.0000
# 5 0.0000 0.0000 0.0000 0.0000 19.3708 0.0000
# 6 0.0000 0.0000 0.0000 0.0000 0.0000 20.0569
#
#
#
# Elastic Compliance Matrix: (Units=1/GPa)
#
#
# Indices 1 2 3 4 5 6 
#
# 1 0.011138 -0.003634 -0.007449 0.000000 0.000000 0.000000
# 2 -0.003634 0.015232 -0.000264 0.000000 0.000000 0.000000
# 3 -0.007449 -0.000264 0.026283 0.000000 0.000000 0.000000
# 4 0.000000 0.000000 0.000000 0.030700 0.000000 0.000000
# 5 0.000000 0.000000 0.000000 0.000000 0.051624 0.000000
# 6 0.000000 0.000000 0.000000 0.000000 0.000000 0.049858
#
#
# Mechanical properties :
#
#
# Convention : Reuss Voigt Hill
#
# Bulk Modulus (GPa) = 33.37711 43.65856 38.51783
# Shear Modulus (GPa) = 22.98683 25.71847 24.35265
#
# Velocity S-wave (km/s) = 3.50332 3.70564 3.60590
# Velocity P-wave (km/s) = 5.84681 6.45131 6.15649
#
# Compressibility (1/GPa) = 0.02996065
#
# Stress axis : x y z
#
# Youngs Moduli (GPa) = 89.77887 65.64921 38.04761
#
# Poissons Ratio (x) = 0.23855 0.28341
# Poissons Ratio (y) = 0.32623 0.01005
# Poissons Ratio (z) = 0.66875 0.01733
#
# Static dielectric constant tensor:
#      x y z
#    x 1.684540 0.000000 0.000000 
#    y 0.000000 1.669620 0.000000 
#    z 0.000000 0.000000 1.643750 
# 
# From -- ./inp_files/35378.got.cif
#   From: 2010.05.17/outbox.cif.g08.bks.cpg/sg53_18_cif.got.tgz:35378.got - 2010.06.03 12:45:16.
