data_PCOD9417445
_publ_section_title
;
Structure prediction by ZEFSAII (Michael W. Deem and Ramdas Pophale) SiO2 
 PCOD9417445
Probable space group: P M N A
;
_chemical_formula_sum "Si O2"
_cell_formula_units_Z 48
_cell_length_a 8.778198
_cell_length_b 15.384780
_cell_length_c 19.536112
_cell_angle_alpha 90.000000
_cell_angle_beta 90.000000
_cell_angle_gamma 90.000000
_cell_volume 2638.364527
_symmetry_space_group_name_H-M "P M N A"
_symmetry_group_IT_number 53
_symmetry_cell_setting 'orthorhombic'
loop_
_space_group_symop_operation_xyz
x,y,z
1/2-x,-y,1/2+z
x,-y,-z
1/2-x,y,1/2-z
-x,-y,-z
1/2+x,y,1/2-z
-x,y,z
1/2+x,-y,1/2+z
loop_
_atom_site_type_symbol
_atom_site_label
_atom_site_fract_x
_atom_site_fract_y
_atom_site_fract_z
Si Si1 0.317375 0.602858 0.675840
Si Si2 0.183246 0.598505 0.176348
Si Si3 0.682806 0.904686 0.324184
Si Si4 0.817195 0.905994 0.675822
Si Si5 0.817825 0.253223 0.422394
Si Si6 0.316282 0.748948 0.426480
O O1 0.250000 0.627443 0.750000
O O2 0.500000 0.608647 0.678344
O O3 0.274295 0.501930 0.663094
O O4 0.253453 0.665762 0.618018
O O5 0.250000 0.624082 0.250000
O O6 0.231648 0.664212 0.116988
O O7 0.000000 0.602627 0.180915
O O8 0.750000 0.879896 0.250000
O O9 0.500000 0.910080 0.318743
O O10 0.722099 0.833205 0.380866
O O11 0.749639 0.999433 0.341264
O O12 0.750000 0.881157 0.750000
O O13 0.776890 0.833788 0.619917
O O14 0.000000 0.912005 0.681033
O O15 0.757806 0.248648 0.499367
O O16 0.000000 0.260973 0.421881
O O17 0.500000 0.746357 0.433942
#
# Coordination Sequence:
#
# PCOD9417445 Si02
#       6
#     8   8   8   8   8   8
#     4  10  20  36  59  83 109 141 179 224 269 318
#     4   9  19  36  58  83 109 141 180 221 268 319
#     4  10  20  35  58  84 108 139 179 222 268 318
#     4  10  21  37  57  80 106 138 178 223 269 318
#     4  11  24  38  54  79 110 146 184 223 271 321
#     4  10  22  38  55  79 112 147 180 217 267 324
#
# _framework density 18.193090000000002
#
# number of rings (size 3 to 8) (size 9 to 14) (size 15 to 20)
#    0.000    2.000    0.000    4.000    0.000    8.000 
#    0.000    6.667    0.000    0.000    0.000    0.000 
#    0.000    0.000    0.000    0.000    0.000    0.000 
#
# Total GULP energy -268149.647168 kJ/mol
# GULP energy per Si atom -5586.450983 kJ/mol
# Density = 1.815168 g / cm^3
# Si number density = 18.193090 Si / 1000 Ang^3
#
#
#
# Elastic Constant Matrix: (Units=GPa)
#
#
# Indices 1 2 3 4 5 6 
#
# 1 47.0262 52.4666 60.9988 0.0000 0.0000 0.0000
# 2 52.4666 121.3398 123.6091 0.0000 0.0000 0.0000
# 3 60.9988 123.6091 183.5801 0.0000 0.0000 0.0000
# 4 0.0000 0.0000 0.0000 -0.0201 0.0000 0.0000
# 5 0.0000 0.0000 0.0000 0.0000 37.0545 0.0000
# 6 0.0000 0.0000 0.0000 0.0000 0.0000 24.5982
#
#
#
# Elastic Compliance Matrix: (Units=1/GPa)
#
#
# Indices 1 2 3 4 5 6 
#
# 1 0.042825 -0.012804 -0.005608 0.000000 0.000000 0.000000
# 2 -0.012804 0.030068 -0.015991 0.000000 0.000000 0.000000
# 3 -0.005608 -0.015991 0.018078 0.000000 0.000000 0.000000
# 4 0.000000 0.000000 0.000000-49.869902 0.000000 0.000000
# 5 0.000000 0.000000 0.000000 0.000000 0.026987 0.000000
# 6 0.000000 0.000000 0.000000 0.000000 0.000000 0.040653
#
#
# Mechanical properties :
#
#
# Convention : Reuss Voigt Hill
#
# Bulk Modulus (GPa) = 45.11865 91.78834 68.45349
# Shear Modulus (GPa) = -0.10074 19.98462 9.94194
#
# Velocity S-wave (km/s) = -0.23556 3.31792 2.34020
# Velocity P-wave (km/s) = 4.97792 8.07712 6.70894
#
# Compressibility (1/GPa) = 0.02216379
#
# Stress axis : x y z
#
# Youngs Moduli (GPa) = 23.35109 33.25842 55.31667
#
# Poissons Ratio (x) = 0.42584 0.31023
# Poissons Ratio (y) = 0.29899 0.88456
# Poissons Ratio (z) = 0.13096 0.53183
#
# Static dielectric constant tensor:
#      x y z
#    x 1.611360 0.000000 0.000000 
#    y 0.000000 1.626440 0.000000 
#    z 0.000000 0.000000 1.582280 
# 
# From -- ./inp_files/26191.got.cif
#   From: 2010.05.17/outbox.cif.g08.bks.cpg/sg53_14_cif.got.tgz:26191.got - 2010.06.03 12:45:16.
