data_PCOD9417321
_publ_section_title
;
Structure prediction by ZEFSAII (Michael W. Deem and Ramdas Pophale) SiO2 
 PCOD9417321
Probable space group: P M N A
;
_chemical_formula_sum "Si O2"
_cell_formula_units_Z 40
_cell_length_a 8.531584
_cell_length_b 26.519954
_cell_length_c 9.362792
_cell_angle_alpha 90.000000
_cell_angle_beta 90.000000
_cell_angle_gamma 90.000000
_cell_volume 2118.399245
_symmetry_space_group_name_H-M "P M N A"
_symmetry_group_IT_number 53
_symmetry_cell_setting 'orthorhombic'
loop_
_space_group_symop_operation_xyz
x,y,z
1/2-x,-y,1/2+z
x,-y,-z
1/2-x,y,1/2-z
-x,-y,-z
1/2+x,y,1/2-z
-x,y,z
1/2+x,-y,1/2+z
loop_
_atom_site_type_symbol
_atom_site_label
_atom_site_fract_x
_atom_site_fract_y
_atom_site_fract_z
Si Si1 0.189451 0.450735 0.088710
Si Si2 0.188216 0.146110 0.410625
Si Si3 0.310650 0.647374 0.410673
Si Si4 0.310658 0.951189 0.089631
Si Si5 0.811781 0.255279 0.089192
O O1 0.250000 0.451803 0.250000
O O2 0.000000 0.450722 0.092755
O O3 0.240234 0.500000 0.000000
O O4 0.240972 0.400382 0.005435
O O5 0.250000 0.137809 0.250000
O O6 0.239568 0.100189 0.510941
O O7 0.250233 0.200655 0.458733
O O8 0.000000 0.147562 0.406537
O O9 0.250000 0.643687 0.250000
O O10 0.500000 0.646955 0.407542
O O11 0.260593 0.699237 0.487044
O O12 0.250000 0.953496 0.250000
O O13 0.500000 0.951540 0.091785
O O14 0.258120 0.000000 0.000000
O O15 0.750000 0.263798 0.250000
O O16 0.000000 0.254014 0.093842
#
# Coordination Sequence:
#
# PCOD9417321 Si02
#       5
#     8   8   8   8   8
#     4  10  21  37  57  82 110 140 178 221 266 318
#     4  10  20  35  56  81 108 139 177 218 263 315
#     4  10  22  37  54  79 109 142 180 221 265 315
#     4  10  22  38  56  80 108 139 176 217 263 315
#     4  10  20  35  55  79 107 140 179 219 263 315
#
# _framework density 18.882182
#
# number of rings (size 3 to 8) (size 9 to 14) (size 15 to 20)
#    0.000    2.000    0.000    4.200    0.000    5.600 
#    0.000    4.000    0.000    0.000    0.000    0.000 
#    0.000    0.000    0.000    0.000    0.000    0.000 
#
# Total GULP energy -223470.224215 kJ/mol
# GULP energy per Si atom -5586.755605 kJ/mol
# Density = 1.883921 g / cm^3
# Si number density = 18.882182 Si / 1000 Ang^3
#
#
#
# Elastic Constant Matrix: (Units=GPa)
#
#
# Indices 1 2 3 4 5 6 
#
# 1 24.2198 36.4311 25.5841 0.0000 0.0000 0.0000
# 2 36.4311 215.2825 142.3533 0.0000 0.0000 0.0000
# 3 25.5841 142.3533 169.7638 0.0000 0.0000 0.0000
# 4 0.0000 0.0000 0.0000 43.2646 0.0000 0.0000
# 5 0.0000 0.0000 0.0000 0.0000 34.8980 0.0000
# 6 0.0000 0.0000 0.0000 0.0000 0.0000 58.0509
#
#
#
# Elastic Compliance Matrix: (Units=1/GPa)
#
#
# Indices 1 2 3 4 5 6 
#
# 1 0.055478 -0.008663 -0.001096 0.000000 0.000000 0.000000
# 2 -0.008663 0.011779 -0.008571 0.000000 0.000000 0.000000
# 3 -0.001096 -0.008571 0.013243 0.000000 0.000000 0.000000
# 4 0.000000 0.000000 0.000000 0.023114 0.000000 0.000000
# 5 0.000000 0.000000 0.000000 0.000000 0.028655 0.000000
# 6 0.000000 0.000000 0.000000 0.000000 0.000000 0.017226
#
#
# Mechanical properties :
#
#
# Convention : Reuss Voigt Hill
#
# Bulk Modulus (GPa) = 22.81130 90.88924 56.85027
# Shear Modulus (GPa) = 24.90420 40.90253 32.90337
#
# Velocity S-wave (km/s) = 3.63564 4.65929 4.17893
# Velocity P-wave (km/s) = 5.45261 8.78549 7.31149
#
# Compressibility (1/GPa) = 0.04383793
#
# Stress axis : x y z
#
# Youngs Moduli (GPa) = 18.02523 84.89763 75.51046
#
# Poissons Ratio (x) = 0.73550 0.08277
# Poissons Ratio (y) = 0.15616 0.64723
# Poissons Ratio (z) = 0.01976 0.72769
#
# Static dielectric constant tensor:
#      x y z
#    x 1.649710 0.000000 0.000000 
#    y 0.000000 1.659980 0.000000 
#    z 0.000000 0.000000 1.601860 
# 
# From -- ./inp_files/6448.got.cif
#   From: 2010.05.17/outbox.cif.g08.bks.cpg/sg53_4_cif.got.tgz:6448.got - 2010.06.03 12:45:16.
