data_PCOD9417297
_publ_section_title
;
Structure prediction by ZEFSAII (Michael W. Deem and Ramdas Pophale) SiO2 
 PCOD9417297
Probable space group: P M N A
;
_chemical_formula_sum "Si O2"
_cell_formula_units_Z 52
_cell_length_a 26.478383
_cell_length_b 11.050334
_cell_length_c 9.226993
_cell_angle_alpha 90.000000
_cell_angle_beta 90.000000
_cell_angle_gamma 90.000000
_cell_volume 2699.771795
_symmetry_space_group_name_H-M "P M N A"
_symmetry_group_IT_number 53
_symmetry_cell_setting 'orthorhombic'
loop_
_space_group_symop_operation_xyz
x,y,z
1/2-x,-y,1/2+z
x,-y,-z
1/2-x,y,1/2-z
-x,-y,-z
1/2+x,y,1/2-z
-x,y,z
1/2+x,-y,1/2+z
loop_
_atom_site_type_symbol
_atom_site_label
_atom_site_fract_x
_atom_site_fract_y
_atom_site_fract_z
Si Si1 0.107662 0.500000 0.000000
Si Si2 0.353404 0.862416 0.488382
Si Si3 0.671621 0.364691 0.026242
Si Si4 0.000000 0.390426 0.701853
Si Si5 0.739248 0.875867 0.923874
Si Si6 0.500000 0.677509 0.876301
Si Si7 0.597115 0.692082 0.720121
Si Si8 0.886854 0.676052 0.228913
O O1 0.078812 0.594630 0.899099
O O2 0.138001 0.417824 0.886515
O O3 0.292998 0.855829 0.497865
O O4 0.374722 0.791826 0.627057
O O5 0.374510 0.803956 0.342022
O O6 0.368901 0.000000 0.500000
O O7 0.707112 0.247211 0.050731
O O8 0.635323 0.369284 0.166638
O O9 0.694459 0.500000 0.000000
O O10 0.636284 0.339761 0.886690
O O11 0.000000 0.322553 0.547918
O O12 0.000000 0.534242 0.667581
O O13 0.946731 0.353661 0.773574
O O14 0.750000 0.892765 0.750000
O O15 0.718152 0.000000 0.000000
O O16 0.549669 0.736069 0.810173
#
# Coordination Sequence:
#
# PCOD9417297 Si02
#       8
#     4   8   8   4   8   4   8   8
#     4  10  20  35  54  92 132 164 200 250 316 373
#     4  10  25  47  66  89 126 169 223 272 322 387
#     4  12  23  42  65 101 137 170 211 271 335 385
#     4  11  20  36  60  97 131 171 214 251 317 398
#     4  11  26  48  72  96 127 173 229 271 324 398
#     4  11  20  34  62  95 131 171 212 259 309 398
#     4  11  21  39  64  93 130 171 210 264 319 382
#     4  11  23  38  67  93 131 172 212 262 319 385
#
# _framework density 19.260888000000001
#
# number of rings (size 3 to 8) (size 9 to 14) (size 15 to 20)
#    0.000    1.077    6.154    0.000    4.308    3.077 
#    8.308    1.538    0.000    0.923    0.000    0.000 
#    0.000    0.000    0.000    0.000    0.000    0.000 
#
# Total GULP energy -289875.846691 kJ/mol
# GULP energy per Si atom -5574.535513 kJ/mol
# Density = 1.921705 g / cm^3
# Si number density = 19.260888 Si / 1000 Ang^3
#
#
#
# Elastic Constant Matrix: (Units=GPa)
#
#
# Indices 1 2 3 4 5 6 
#
# 1 53.0853 39.9294 19.9461 0.0000 0.0000 0.0000
# 2 39.9294 116.0344 54.4482 0.0000 0.0000 0.0000
# 3 19.9461 54.4482 123.7183 0.0000 0.0000 0.0000
# 4 0.0000 0.0000 0.0000 30.3538 0.0000 0.0000
# 5 0.0000 0.0000 0.0000 0.0000 23.3659 0.0000
# 6 0.0000 0.0000 0.0000 0.0000 0.0000 10.3855
#
#
#
# Elastic Compliance Matrix: (Units=1/GPa)
#
#
# Indices 1 2 3 4 5 6 
#
# 1 0.025426 -0.008602 -0.000313 0.000000 0.000000 0.000000
# 2 -0.008602 0.013772 -0.004674 0.000000 0.000000 0.000000
# 3 -0.000313 -0.004674 0.010190 0.000000 0.000000 0.000000
# 4 0.000000 0.000000 0.000000 0.032945 0.000000 0.000000
# 5 0.000000 0.000000 0.000000 0.000000 0.042797 0.000000
# 6 0.000000 0.000000 0.000000 0.000000 0.000000 0.096288
#
#
# Mechanical properties :
#
#
# Convention : Reuss Voigt Hill
#
# Bulk Modulus (GPa) = 45.02790 57.94283 51.48536
# Shear Modulus (GPa) = 19.53123 24.72200 22.12662
#
# Velocity S-wave (km/s) = 3.18785 3.58653 3.39305
# Velocity P-wave (km/s) = 6.08099 6.87746 6.49145
#
# Compressibility (1/GPa) = 0.02220845
#
# Stress axis : x y z
#
# Youngs Moduli (GPa) = 39.33003 72.61321 98.13180
#
# Poissons Ratio (x) = 0.62465 0.03074
# Poissons Ratio (y) = 0.33834 0.45866
# Poissons Ratio (z) = 0.01232 0.33939
#
# Static dielectric constant tensor:
#      x y z
#    x 1.666820 0.000000 0.000000 
#    y 0.000000 1.715570 0.000000 
#    z 0.000000 0.000000 1.693160 
# 
# From -- ./inp_files/12527.got.cif
#   From: 2010.05.17/outbox.cif.g08.bks.cpg/sg53_7_cif.got.tgz:12527.got - 2010.06.03 12:45:16.
