data_PCOD9417665
_publ_section_title
;
Structure prediction by ZEFSAII (Michael W. Deem and Ramdas Pophale) SiO2 
 PCOD9417665
Probable space group: P M N A
;
_chemical_formula_sum "Si O2"
_cell_formula_units_Z 48
_cell_length_a 8.696065
_cell_length_b 31.651074
_cell_length_c 9.211622
_cell_angle_alpha 90.000000
_cell_angle_beta 90.000000
_cell_angle_gamma 90.000000
_cell_volume 2535.404968
_symmetry_space_group_name_H-M "P M N A"
_symmetry_group_IT_number 53
_symmetry_cell_setting 'orthorhombic'
loop_
_space_group_symop_operation_xyz
x,y,z
1/2-x,-y,1/2+z
x,-y,-z
1/2-x,y,1/2-z
-x,-y,-z
1/2+x,y,1/2-z
-x,y,z
1/2+x,-y,1/2+z
loop_
_atom_site_type_symbol
_atom_site_label
_atom_site_fract_x
_atom_site_fract_y
_atom_site_fract_z
Si Si1 0.183969 0.122573 0.087353
Si Si2 0.815944 0.713157 0.589049
Si Si3 0.814662 0.459493 0.911135
Si Si4 0.184033 0.043062 0.587728
Si Si5 0.315308 0.365242 0.586704
Si Si6 0.184777 0.797805 0.412518
O O1 0.250000 0.120944 0.250000
O O2 0.000000 0.123221 0.092505
O O3 0.241451 0.082062 0.997541
O O4 0.245754 0.164068 0.005878
O O5 0.750000 0.718576 0.750000
O O6 0.750458 0.671082 0.515007
O O7 0.775429 0.753570 0.490057
O O8 0.000000 0.710462 0.596298
O O9 0.750000 0.462444 0.750000
O O10 0.772582 0.412590 0.966743
O O11 0.000000 0.460976 0.906571
O O12 0.759026 0.500000 0.000000
O O13 0.250000 0.040480 0.750000
O O14 0.000000 0.048894 0.594045
O O15 0.216155 0.000000 0.500000
O O16 0.250000 0.360417 0.750000
O O17 0.500000 0.362253 0.592497
O O18 0.250000 0.798924 0.250000
O O19 0.000000 0.801802 0.408484
#
# Coordination Sequence:
#
# PCOD9417665 Si02
#       6
#     8   8   8   8   8   8
#     4  12  25  42  65  92 125 161 200 248 299 352
#     4  11  24  40  60  86 117 152 191 238 290 345
#     4   9  19  35  54  79 110 145 186 231 281 337
#     4  11  24  42  65  93 126 164 206 251 300 354
#     4  10  20  36  58  82 112 149 190 236 285 342
#     4  11  24  42  64  90 120 156 197 240 290 347
#
# _framework density 18.931887
#
# number of rings (size 3 to 8) (size 9 to 14) (size 15 to 20)
#    0.000    1.333    0.000    5.500    0.000    9.667 
#    0.000    1.667    0.000    0.000    0.000    0.000 
#    0.000    0.000    0.000    0.000    0.000    0.000 
#
# Total GULP energy -268425.402693 kJ/mol
# GULP energy per Si atom -5592.195889 kJ/mol
# Density = 1.888880 g / cm^3
# Si number density = 18.931887 Si / 1000 Ang^3
#
#
#
# Elastic Constant Matrix: (Units=GPa)
#
#
# Indices 1 2 3 4 5 6 
#
# 1 83.2198 84.9588 66.9811 0.0000 0.0000 0.0000
# 2 84.9588 194.3706 110.9410 0.0000 0.0000 0.0000
# 3 66.9811 110.9410 171.4621 0.0000 0.0000 0.0000
# 4 0.0000 0.0000 0.0000 36.8207 0.0000 0.0000
# 5 0.0000 0.0000 0.0000 0.0000 38.8965 0.0000
# 6 0.0000 0.0000 0.0000 0.0000 0.0000 29.3047
#
#
#
# Elastic Compliance Matrix: (Units=1/GPa)
#
#
# Indices 1 2 3 4 5 6 
#
# 1 0.023297 -0.007910 -0.003983 0.000000 0.000000 0.000000
# 2 -0.007910 0.010843 -0.003926 0.000000 0.000000 0.000000
# 3 -0.003983 -0.003926 0.009928 0.000000 0.000000 0.000000
# 4 0.000000 0.000000 0.000000 0.027159 0.000000 0.000000
# 5 0.000000 0.000000 0.000000 0.000000 0.025709 0.000000
# 6 0.000000 0.000000 0.000000 0.000000 0.000000 0.034124
#
#
# Mechanical properties :
#
#
# Convention : Reuss Voigt Hill
#
# Bulk Modulus (GPa) = 80.44312 108.31270 94.37791
# Shear Modulus (GPa) = 29.96858 33.41582 31.69220
#
# Velocity S-wave (km/s) = 3.98297 4.20581 4.09591
# Velocity P-wave (km/s) = 7.98343 8.99562 8.50459
#
# Compressibility (1/GPa) = 0.01243114
#
# Stress axis : x y z
#
# Youngs Moduli (GPa) = 42.92344 92.22715 100.72241
#
# Poissons Ratio (x) = 0.72949 0.40120
# Poissons Ratio (y) = 0.33951 0.39541
# Poissons Ratio (z) = 0.17097 0.36206
#
# Static dielectric constant tensor:
#      x y z
#    x 1.636600 0.000000 0.000000 
#    y 0.000000 1.652630 0.000000 
#    z 0.000000 0.000000 1.606530 
# 
# From -- ./inp_files/6566.got.cif
#   From: 2010.05.17/outbox.cif.g08.bks.cpg/sg53_4_cif.got.tgz:6566.got - 2010.06.03 12:45:16.
