data_PCOD9417552
_publ_section_title
;
Structure prediction by ZEFSAII (Michael W. Deem and Ramdas Pophale) SiO2 
 PCOD9417552
Probable space group: P M N A
;
_chemical_formula_sum "Si O2"
_cell_formula_units_Z 64
_cell_length_a 8.820062
_cell_length_b 19.998420
_cell_length_c 20.811973
_cell_angle_alpha 90.000000
_cell_angle_beta 90.000000
_cell_angle_gamma 90.000000
_cell_volume 3670.967815
_symmetry_space_group_name_H-M "P M N A"
_symmetry_group_IT_number 53
_symmetry_cell_setting 'orthorhombic'
loop_
_space_group_symop_operation_xyz
x,y,z
1/2-x,-y,1/2+z
x,-y,-z
1/2-x,y,1/2-z
-x,-y,-z
1/2+x,y,1/2-z
-x,y,z
1/2+x,-y,1/2+z
loop_
_atom_site_type_symbol
_atom_site_label
_atom_site_fract_x
_atom_site_fract_y
_atom_site_fract_z
Si Si1 0.682009 0.420901 0.180560
Si Si2 0.318007 0.924112 0.818666
Si Si3 0.817788 0.079646 0.680545
Si Si4 0.319443 0.576939 0.181214
Si Si5 0.818053 0.172638 0.929522
Si Si6 0.682307 0.676307 0.574036
Si Si7 0.818844 0.328881 0.926412
Si Si8 0.182717 0.176795 0.431383
O O1 0.750000 0.402224 0.250000
O O2 0.500000 0.414601 0.181800
O O3 0.721406 0.499055 0.169469
O O4 0.751443 0.374951 0.125349
O O5 0.250000 0.904023 0.750000
O O6 0.500000 0.921322 0.813965
O O7 0.271408 0.875722 0.876429
O O8 0.276528 0.001629 0.830873
O O9 0.750000 0.098294 0.750000
O O10 0.749710 0.125668 0.625137
O O11 0.000000 0.085097 0.681811
O O12 0.250000 0.596627 0.250000
O O13 0.500000 0.581111 0.185482
O O14 0.260625 0.623534 0.124392
O O15 0.781576 0.250664 0.915744
O O16 0.000000 0.166654 0.932424
O O17 0.747842 0.156745 0.999134
O O18 0.500000 0.679936 0.578622
O O19 0.720929 0.655839 0.500624
O O20 0.751511 0.749966 0.584066
O O21 0.000000 0.336167 0.919742
O O22 0.000000 0.179632 0.434337
#
# Coordination Sequence:
#
# PCOD9417552 Si02
#       8
#     8   8   8   8   8   8   8   8
#     4  10  21  37  56  80 108 140 177 219 264 314
#     4   9  20  36  55  79 107 139 177 218 265 317
#     4  10  20  36  56  79 107 140 177 220 266 316
#     4  10  21  36  56  80 107 138 176 219 264 314
#     4  10  21  37  55  79 108 141 180 220 264 318
#     4  10  21  37  56  80 109 142 178 219 264 316
#     4   9  20  37  55  76 106 140 176 216 261 313
#     4  10  20  36  56  79 108 142 178 221 268 316
#
# _framework density 17.434094999999999
#
# number of rings (size 3 to 8) (size 9 to 14) (size 15 to 20)
#    0.000    2.250    0.000    3.000    0.000    8.000 
#    0.000    6.250    0.000    0.000    0.000    0.000 
#    0.000    0.000    0.000    0.000    0.000    0.000 
#
# Total GULP energy -357287.693288 kJ/mol
# GULP energy per Si atom -5582.620208 kJ/mol
# Density = 1.739441 g / cm^3
# Si number density = 17.434095 Si / 1000 Ang^3
#
#
#
# Elastic Constant Matrix: (Units=GPa)
#
#
# Indices 1 2 3 4 5 6 
#
# 1 60.7178 53.5676 71.7515 0.0000 0.0000 0.0000
# 2 53.5676 99.0718 126.3638 0.0000 0.0000 0.0000
# 3 71.7515 126.3638 193.0082 0.0000 0.0000 0.0000
# 4 0.0000 0.0000 0.0000 43.4719 0.0000 0.0000
# 5 0.0000 0.0000 0.0000 0.0000 38.4599 0.0000
# 6 0.0000 0.0000 0.0000 0.0000 0.0000 99.5038
#
#
#
# Elastic Compliance Matrix: (Units=1/GPa)
#
#
# Indices 1 2 3 4 5 6 
#
# 1 0.031862 -0.012853 -0.003430 0.000000 0.000000 0.000000
# 2 -0.012853 0.066382 -0.038683 0.000000 0.000000 0.000000
# 3 -0.003430 -0.038683 0.031782 0.000000 0.000000 0.000000
# 4 0.000000 0.000000 0.000000 0.023003 0.000000 0.000000
# 5 0.000000 0.000000 0.000000 0.000000 0.026001 0.000000
# 6 0.000000 0.000000 0.000000 0.000000 0.000000 0.010050
#
#
# Mechanical properties :
#
#
# Convention : Reuss Voigt Hill
#
# Bulk Modulus (GPa) = 49.76285 95.12926 72.44605
# Shear Modulus (GPa) = 16.35537 43.02810 29.69174
#
# Velocity S-wave (km/s) = 3.06621 4.97333 4.13132
# Velocity P-wave (km/s) = 6.41411 9.36281 8.02506
#
# Compressibility (1/GPa) = 0.02009531
#
# Stress axis : x y z
#
# Youngs Moduli (GPa) = 31.38513 15.06435 31.46418
#
# Poissons Ratio (x) = 0.19361 0.10793
# Poissons Ratio (y) = 0.40338 1.21712
# Poissons Ratio (z) = 0.10766 0.58273
#
# Static dielectric constant tensor:
#      x y z
#    x 1.582410 0.000000 0.000000 
#    y 0.000000 1.577470 0.000000 
#    z 0.000000 0.000000 1.562210 
# 
# From -- ./inp_files/26873.got.cif
#   From: 2010.05.17/outbox.cif.g08.bks.cpg/sg53_14_cif.got.tgz:26873.got - 2010.06.03 12:45:16.
