data_PCOD9417627
_publ_section_title
;
Structure prediction by ZEFSAII (Michael W. Deem and Ramdas Pophale) SiO2 
 PCOD9417627
Probable space group: P M N A
;
_chemical_formula_sum "Si O2"
_cell_formula_units_Z 48
_cell_length_a 8.613454
_cell_length_b 31.501439
_cell_length_c 9.292535
_cell_angle_alpha 90.000000
_cell_angle_beta 90.000000
_cell_angle_gamma 90.000000
_cell_volume 2521.401096
_symmetry_space_group_name_H-M "P M N A"
_symmetry_group_IT_number 53
_symmetry_cell_setting 'orthorhombic'
loop_
_space_group_symop_operation_xyz
x,y,z
1/2-x,-y,1/2+z
x,-y,-z
1/2-x,y,1/2-z
-x,-y,-z
1/2+x,y,1/2-z
-x,y,z
1/2+x,-y,1/2+z
loop_
_atom_site_type_symbol
_atom_site_label
_atom_site_fract_x
_atom_site_fract_y
_atom_site_fract_z
Si Si1 0.813014 0.793114 0.410421
Si Si2 0.185745 0.700944 0.088507
Si Si3 0.186091 0.457310 0.911428
Si Si4 0.687625 0.958366 0.088714
Si Si5 0.814541 0.377753 0.410967
Si Si6 0.687247 0.875687 0.910593
O O1 0.750000 0.801675 0.250000
O O2 0.744776 0.747651 0.455656
O O3 0.766406 0.831586 0.514020
O O4 0.000000 0.790330 0.405384
O O5 0.250000 0.693284 0.250000
O O6 0.000000 0.700215 0.092463
O O7 0.249110 0.664939 0.983344
O O8 0.250000 0.460283 0.750000
O O9 0.000000 0.452465 0.907337
O O10 0.223137 0.500000 0.000000
O O11 0.258765 0.417234 0.992835
O O12 0.750000 0.959440 0.250000
O O13 0.500000 0.958227 0.093705
O O14 0.738870 0.915804 0.006059
O O15 0.737012 0.000000 0.000000
O O16 0.750000 0.382509 0.250000
O O17 0.000000 0.376275 0.407749
O O18 0.750000 0.878884 0.750000
O O19 0.500000 0.876504 0.906138
#
# Coordination Sequence:
#
# PCOD9417627 Si02
#       6
#     8   8   8   8   8   8
#     4  10  20  36  57  83 113 147 191 238 287 343
#     4  11  22  39  62  88 118 154 196 241 293 348
#     4  11  24  42  65  93 125 161 201 245 294 347
#     4  10  21  37  57  83 113 146 187 232 280 336
#     4  12  25  42  63  89 122 158 199 245 295 350
#     4  10  22  37  55  81 113 148 188 234 282 339
#
# _framework density 19.037034999999999
#
# number of rings (size 3 to 8) (size 9 to 14) (size 15 to 20)
#    0.000    1.333    0.000    7.000    0.000    5.667 
#    0.000    1.667    0.000    0.000    0.000    0.000 
#    0.000    0.000    0.000    0.000    0.000    0.000 
#
# Total GULP energy -268493.929971 kJ/mol
# GULP energy per Si atom -5593.623541 kJ/mol
# Density = 1.899371 g / cm^3
# Si number density = 19.037035 Si / 1000 Ang^3
#
#
#
# Elastic Constant Matrix: (Units=GPa)
#
#
# Indices 1 2 3 4 5 6 
#
# 1 97.9043 71.2852 63.0134 0.0000 0.0000 0.0000
# 2 71.2852 172.5440 130.4823 0.0000 0.0000 0.0000
# 3 63.0134 130.4823 183.0122 0.0000 0.0000 0.0000
# 4 0.0000 0.0000 0.0000 40.3818 0.0000 0.0000
# 5 0.0000 0.0000 0.0000 0.0000 38.5763 0.0000
# 6 0.0000 0.0000 0.0000 0.0000 0.0000 -452.8904
#
#
#
# Elastic Compliance Matrix: (Units=1/GPa)
#
#
# Indices 1 2 3 4 5 6 
#
# 1 0.014821 -0.004913 -0.001600 0.000000 0.000000 0.000000
# 2 -0.004913 0.014205 -0.008436 0.000000 0.000000 0.000000
# 3 -0.001600 -0.008436 0.012030 0.000000 0.000000 0.000000
# 4 0.000000 0.000000 0.000000 0.024764 0.000000 0.000000
# 5 0.000000 0.000000 0.000000 0.000000 0.025923 0.000000
# 6 0.000000 0.000000 0.000000 0.000000 0.000000 -0.002208
#
#
# Mechanical properties :
#
#
# Convention : Reuss Voigt Hill
#
# Bulk Modulus (GPa) = 89.62860 109.22470 99.42665
# Shear Modulus (GPa) = 40.60000 -62.20782 -10.80391
#
# Velocity S-wave (km/s) = 4.62311 -5.72260 -2.38485
# Velocity P-wave (km/s) = 8.69948 3.71956 6.69014
#
# Compressibility (1/GPa) = 0.01115715
#
# Stress axis : x y z
#
# Youngs Moduli (GPa) = 67.47030 70.39712 83.12678
#
# Poissons Ratio (x) = 0.34588 0.13302
# Poissons Ratio (y) = 0.33150 0.70127
# Poissons Ratio (z) = 0.10797 0.59388
#
# Static dielectric constant tensor:
#      x y z
#    x 1.643010 0.000000 0.000000 
#    y 0.000000 1.649340 0.000000 
#    z 0.000000 0.000000 1.613870 
# 
# From -- ./inp_files/6753.got.cif
#   From: 2010.05.17/outbox.cif.g08.bks.cpg/sg53_4_cif.got.tgz:6753.got - 2010.06.03 12:45:16.
