data_PCOD9417228
_publ_section_title
;
Structure prediction by ZEFSAII (Michael W. Deem and Ramdas Pophale) SiO2 
 PCOD9417228
Probable space group: P M N A
;
_chemical_formula_sum "Si O2"
_cell_formula_units_Z 40
_cell_length_a 14.157483
_cell_length_b 7.470176
_cell_length_c 15.672368
_cell_angle_alpha 90.000000
_cell_angle_beta 90.000000
_cell_angle_gamma 90.000000
_cell_volume 1657.492239
_symmetry_space_group_name_H-M "P M N A"
_symmetry_group_IT_number 53
_symmetry_cell_setting 'orthorhombic'
loop_
_space_group_symop_operation_xyz
x,y,z
1/2-x,-y,1/2+z
x,-y,-z
1/2-x,y,1/2-z
-x,-y,-z
1/2+x,y,1/2-z
-x,y,z
1/2+x,-y,1/2+z
loop_
_atom_site_type_symbol
_atom_site_label
_atom_site_fract_x
_atom_site_fract_y
_atom_site_fract_z
Si Si1 0.614585 0.543538 0.290755
Si Si2 0.385734 0.799324 0.796423
Si Si3 0.386257 0.181558 0.848541
Si Si4 0.104471 0.701755 0.034120
Si Si5 0.296790 0.712449 0.977752
O O1 0.500000 0.542390 0.298564
O O2 0.644983 0.337893 0.278093
O O3 0.641876 0.643914 0.204496
O O4 0.643664 0.663892 0.370829
O O5 0.500000 0.790453 0.797509
O O6 0.358703 0.006991 0.793952
O O7 0.348262 0.737298 0.888458
O O8 0.500000 0.182182 0.854252
O O9 0.347350 0.187903 0.943851
O O10 0.188408 0.780833 0.978181
O O11 0.000000 0.786394 0.034106
O O12 0.092182 0.500000 0.000000
O O13 0.296952 0.500000 0.000000
#
# Coordination Sequence:
#
# PCOD9417228 Si02
#       5
#     8   8   8   8   8
#     4   9  18  36  63  87 114 153 200 247 296 349
#     4  10  20  35  60  94 125 154 189 239 303 365
#     4  10  20  34  58  91 127 157 186 236 301 365
#     4   9  20  39  63  85 110 159 212 253 294 342
#     4  11  20  33  57  87 122 160 191 238 294 361
#
# _framework density 24.132843000000001
#
# number of rings (size 3 to 8) (size 9 to 14) (size 15 to 20)
#    0.000    2.200    2.000    1.200    0.000    3.200 
#    0.000    0.000   26.400    2.400    0.000    0.000 
#    0.000    0.000    0.000    0.000    0.000    0.000 
#
# Total GULP energy -223508.973190 kJ/mol
# GULP energy per Si atom -5587.724330 kJ/mol
# Density = 2.407792 g / cm^3
# Si number density = 24.132843 Si / 1000 Ang^3
#
#
#
# Elastic Constant Matrix: (Units=GPa)
#
#
# Indices 1 2 3 4 5 6 
#
# 1 68.1359 8.2797 0.4867 0.0000 0.0000 0.0000
# 2 8.2797 91.4865 4.8554 0.0000 0.0000 0.0000
# 3 0.4867 4.8554 69.9863 0.0000 0.0000 0.0000
# 4 0.0000 0.0000 0.0000 7.6203 0.0000 0.0000
# 5 0.0000 0.0000 0.0000 0.0000 35.2441 0.0000
# 6 0.0000 0.0000 0.0000 0.0000 0.0000 18.8628
#
#
#
# Elastic Compliance Matrix: (Units=1/GPa)
#
#
# Indices 1 2 3 4 5 6 
#
# 1 0.014840 -0.001342 -0.000010 0.000000 0.000000 0.000000
# 2 -0.001342 0.011092 -0.000760 0.000000 0.000000 0.000000
# 3 -0.000010 -0.000760 0.014341 0.000000 0.000000 0.000000
# 4 0.000000 0.000000 0.000000 0.131228 0.000000 0.000000
# 5 0.000000 0.000000 0.000000 0.000000 0.028374 0.000000
# 6 0.000000 0.000000 0.000000 0.000000 0.000000 0.053014
#
#
# Mechanical properties :
#
#
# Convention : Reuss Voigt Hill
#
# Bulk Modulus (GPa) = 27.74083 28.53915 28.13999
# Shear Modulus (GPa) = 18.57833 26.74457 22.66145
#
# Velocity S-wave (km/s) = 2.77760 3.33261 3.06768
# Velocity P-wave (km/s) = 4.66977 5.16332 4.92274
#
# Compressibility (1/GPa) = 0.03604794
#
# Stress axis : x y z
#
# Youngs Moduli (GPa) = 67.38656 90.15162 69.72860
#
# Poissons Ratio (x) = 0.12103 0.00070
# Poissons Ratio (y) = 0.09047 0.05301
# Poissons Ratio (z) = 0.00068 0.06853
#
# Static dielectric constant tensor:
#      x y z
#    x 1.960800 0.000000 0.000000 
#    y 0.000000 1.944020 0.000000 
#    z 0.000000 0.000000 1.841370 
# 
# From -- ./inp_files/28057.got.cif
#   From: 2010.05.17/outbox.cif.g08.bks.cpg/sg53_15_cif.got.tgz:28057.got - 2010.06.03 12:45:16.
