data_PCOD9417679
_publ_section_title
;
Structure prediction by ZEFSAII (Michael W. Deem and Ramdas Pophale) SiO2 
 PCOD9417679
Probable space group: P M N A
;
_chemical_formula_sum "Si O2"
_cell_formula_units_Z 44
_cell_length_a 8.524395
_cell_length_b 28.400233
_cell_length_c 9.387324
_cell_angle_alpha 90.000000
_cell_angle_beta 90.000000
_cell_angle_gamma 90.000000
_cell_volume 2272.622366
_symmetry_space_group_name_H-M "P M N A"
_symmetry_group_IT_number 53
_symmetry_cell_setting 'orthorhombic'
loop_
_space_group_symop_operation_xyz
x,y,z
1/2-x,-y,1/2+z
x,-y,-z
1/2-x,y,1/2-z
-x,-y,-z
1/2+x,y,1/2-z
-x,y,z
1/2+x,-y,1/2+z
loop_
_atom_site_type_symbol
_atom_site_label
_atom_site_fract_x
_atom_site_fract_y
_atom_site_fract_z
Si Si1 0.310446 0.955333 0.910616
Si Si2 0.312331 0.148584 0.089434
Si Si3 0.750000 0.502140 0.250000
Si Si4 0.687208 0.764472 0.410201
Si Si5 0.678335 0.436014 0.018404
Si Si6 0.188692 0.340651 0.912400
O O1 0.250000 0.959035 0.750000
O O2 0.500000 0.956505 0.909074
O O3 0.263213 0.903401 0.966395
O O4 0.253383 0.000000 0.000000
O O5 0.250000 0.152028 0.250000
O O6 0.500000 0.149957 0.091014
O O7 0.250736 0.192367 0.000594
O O8 0.793568 0.464115 0.125676
O O9 0.826198 0.539088 0.362402
O O10 0.750000 0.768189 0.250000
O O11 0.500000 0.766520 0.407314
O O12 0.730550 0.712003 0.464498
O O13 0.500000 0.439813 0.076130
O O14 0.732551 0.382814 0.998707
O O15 0.250000 0.343929 0.750000
O O16 0.000000 0.345980 0.912940
#
# Coordination Sequence:
#
# PCOD9417679 Si02
#       6
#     8   8   4   8   8   8
#     4   9  19  35  54  80 114 150 191 234 281 336
#     4  10  20  36  58  83 114 154 192 236 288 339
#     4  10  22  38  60  86 116 148 186 224 274 330
#     4  10  21  38  59  85 113 147 191 238 286 341
#     4  11  23  40  61  88 117 149 188 230 276 332
#     4  10  21  37  60  85 113 147 185 230 283 336
#
# _framework density 19.360893000000001
#
# number of rings (size 3 to 8) (size 9 to 14) (size 15 to 20)
#    0.000    2.000    0.909    2.727    0.000    6.182 
#    1.636    6.364    0.000    0.000    0.000    0.000 
#    0.000    0.000    0.000    0.000    0.000    0.000 
#
# Total GULP energy -244991.052500 kJ/mol
# GULP energy per Si atom -5567.978466 kJ/mol
# Density = 1.931683 g / cm^3
# Si number density = 19.360893 Si / 1000 Ang^3
#
#
#
# Elastic Constant Matrix: (Units=GPa)
#
#
# Indices 1 2 3 4 5 6 
#
# 1 42.5915 49.5493 20.2998 0.0000 0.0000 0.0000
# 2 49.5493 227.7934 71.4158 0.0000 0.0000 0.0000
# 3 20.2998 71.4158 67.1055 0.0000 0.0000 0.0000
# 4 0.0000 0.0000 0.0000 38.3239 0.0000 0.0000
# 5 0.0000 0.0000 0.0000 0.0000 21.1646 0.0000
# 6 0.0000 0.0000 0.0000 0.0000 0.0000 -75.0616
#
#
#
# Elastic Compliance Matrix: (Units=1/GPa)
#
#
# Indices 1 2 3 4 5 6 
#
# 1 0.031943 -0.005881 -0.003404 0.000000 0.000000 0.000000
# 2 -0.005881 0.007671 -0.006384 0.000000 0.000000 0.000000
# 3 -0.003404 -0.006384 0.022726 0.000000 0.000000 0.000000
# 4 0.000000 0.000000 0.000000 0.026093 0.000000 0.000000
# 5 0.000000 0.000000 0.000000 0.000000 0.047249 0.000000
# 6 0.000000 0.000000 0.000000 0.000000 0.000000 -0.013322
#
#
# Mechanical properties :
#
#
# Convention : Reuss Voigt Hill
#
# Bulk Modulus (GPa) = 32.25729 68.89113 50.57421
# Shear Modulus (GPa) = 30.48173 9.96706 20.22440
#
# Velocity S-wave (km/s) = 3.97217 2.27139 3.23553
# Velocity P-wave (km/s) = 6.14286 6.52218 6.33536
#
# Compressibility (1/GPa) = 0.03100074
#
# Stress axis : x y z
#
# Youngs Moduli (GPa) = 31.30570 130.36537 44.00192
#
# Poissons Ratio (x) = 0.76667 0.14980
# Poissons Ratio (y) = 0.18411 0.28093
# Poissons Ratio (z) = 0.10657 0.83231
#
# Static dielectric constant tensor:
#      x y z
#    x 1.707370 0.000000 0.000000 
#    y 0.000000 1.707970 0.000000 
#    z 0.000000 0.000000 1.638570 
# 
# From -- ./inp_files/6535.got.cif
#   From: 2010.05.17/outbox.cif.g08.bks.cpg/sg53_4_cif.got.tgz:6535.got - 2010.06.03 12:45:16.
