data_PCOD9417379
_publ_section_title
;
Structure prediction by ZEFSAII (Michael W. Deem and Ramdas Pophale) SiO2 
 PCOD9417379
Probable space group: P M N A
;
_chemical_formula_sum "Si O2"
_cell_formula_units_Z 56
_cell_length_a 16.165169
_cell_length_b 22.025291
_cell_length_c 7.812517
_cell_angle_alpha 90.000000
_cell_angle_beta 90.000000
_cell_angle_gamma 90.000000
_cell_volume 2781.588485
_symmetry_space_group_name_H-M "P M N A"
_symmetry_group_IT_number 53
_symmetry_cell_setting 'orthorhombic'
loop_
_space_group_symop_operation_xyz
x,y,z
1/2-x,-y,1/2+z
x,-y,-z
1/2-x,y,1/2-z
-x,-y,-z
1/2+x,y,1/2-z
-x,y,z
1/2+x,-y,1/2+z
loop_
_atom_site_type_symbol
_atom_site_label
_atom_site_fract_x
_atom_site_fract_y
_atom_site_fract_z
Si Si1 0.404447 0.584058 0.125680
Si Si2 0.906799 0.771274 0.968413
Si Si3 0.843254 0.456042 0.273639
Si Si4 0.756212 0.151001 0.939004
Si Si5 0.597615 0.631459 0.478426
Si Si6 0.091412 0.856690 0.634371
Si Si7 0.670324 0.041397 0.344565
O O1 0.500000 0.599274 0.085715
O O2 0.399324 0.515284 0.199187
O O3 0.372244 0.625024 0.282263
O O4 0.354391 0.582744 0.948216
O O5 0.826112 0.797033 0.063651
O O6 0.894323 0.699467 0.951154
O O7 0.000000 0.780204 0.045384
O O8 0.908319 0.808940 0.791508
O O9 0.750000 0.478366 0.250000
O O10 0.864283 0.416333 0.109124
O O11 0.750000 0.126734 0.750000
O O12 0.665292 0.164266 0.011407
O O13 0.790462 0.099358 0.061998
O O14 0.500000 0.617465 0.469079
O O15 0.109721 0.924870 0.710019
O O16 0.000000 0.856283 0.555738
O O17 0.750000 0.011845 0.250000
O O18 0.635945 0.000000 0.500000
#
# Coordination Sequence:
#
# PCOD9417379 Si02
#       7
#     8   8   8   8   8   8   8
#     4  10  22  40  60  82 113 149 190 231 285 358
#     4   9  19  38  58  81 110 144 191 240 288 345
#     4  11  23  35  58  85 116 147 184 235 288 344
#     4  10  20  35  56  82 113 154 192 235 291 343
#     4  10  21  39  61  82 111 150 189 232 289 349
#     4   9  19  36  58  82 117 157 195 239 288 348
#     4   9  17  31  55  83 115 152 197 239 286 336
#
# _framework density 20.132382
#
# number of rings (size 3 to 8) (size 9 to 14) (size 15 to 20)
#    0.000    2.286    0.000    3.857    4.000    3.143 
#    5.143    0.000    0.000   14.571    0.000    0.000 
#    0.000    0.000    0.000    0.000    0.000    0.000 
#
# Total GULP energy -312023.044184 kJ/mol
# GULP energy per Si atom -5571.840075 kJ/mol
# Density = 2.008656 g / cm^3
# Si number density = 20.132382 Si / 1000 Ang^3
#
#
#
# Elastic Constant Matrix: (Units=GPa)
#
#
# Indices 1 2 3 4 5 6 
#
# 1 95.3156 10.0033 18.0190 0.0000 0.0000 0.0000
# 2 10.0033 32.5273 -2.9983 0.0000 0.0000 0.0000
# 3 18.0190 -2.9983 63.7144 0.0000 0.0000 0.0000
# 4 0.0000 0.0000 0.0000 -3.6302 0.0000 0.0000
# 5 0.0000 0.0000 0.0000 0.0000 -25.4559 0.0000
# 6 0.0000 0.0000 0.0000 0.0000 0.0000 -20.7406
#
#
#
# Elastic Compliance Matrix: (Units=1/GPa)
#
#
# Indices 1 2 3 4 5 6 
#
# 1 0.011549 -0.003870 -0.003448 0.000000 0.000000 0.000000
# 2 -0.003870 0.032174 0.002608 0.000000 0.000000 0.000000
# 3 -0.003448 0.002608 0.016793 0.000000 0.000000 0.000000
# 4 0.000000 0.000000 0.000000 -0.275465 0.000000 0.000000
# 5 0.000000 0.000000 0.000000 0.000000 -0.039284 0.000000
# 6 0.000000 0.000000 0.000000 0.000000 0.000000 -0.048215
#
#
# Mechanical properties :
#
#
# Convention : Reuss Voigt Hill
#
# Bulk Modulus (GPa) = 19.57058 26.84502 23.20780
# Shear Modulus (GPa) = -18.11629 1.13686 -8.48971
#
# Velocity S-wave (km/s) = -3.00302 0.75228 -2.05575
# Velocity P-wave (km/s) = 1.51066 3.75736 2.43266
#
# Compressibility (1/GPa) = 0.05109712
#
# Stress axis : x y z
#
# Youngs Moduli (GPa) = 86.58389 31.08101 59.54853
#
# Poissons Ratio (x) = 0.12028 0.20535
# Poissons Ratio (y) = 0.33506 -0.15533
# Poissons Ratio (z) = 0.29858 -0.08107
#
# Static dielectric constant tensor:
#      x y z
#    x 1.757730 0.000000 0.000000 
#    y 0.000000 1.698560 0.000000 
#    z 0.000000 0.000000 1.960120 
# 
# From -- ./inp_files/8823.got.cif
#   From: 2010.05.17/outbox.cif.g08.bks.cpg/sg53_5_cif.got.tgz:8823.got - 2010.06.03 12:45:16.
