data_PCOD9417092
_publ_section_title
;
Structure prediction by ZEFSAII (Michael W. Deem and Ramdas Pophale) SiO2 
 PCOD9417092
Probable space group: P M N A
;
_chemical_formula_sum "Si O2"
_cell_formula_units_Z 48
_cell_length_a 8.845822
_cell_length_b 18.285492
_cell_length_c 14.513762
_cell_angle_alpha 90.000000
_cell_angle_beta 90.000000
_cell_angle_gamma 90.000000
_cell_volume 2347.604014
_symmetry_space_group_name_H-M "P M N A"
_symmetry_group_IT_number 53
_symmetry_cell_setting 'orthorhombic'
loop_
_space_group_symop_operation_xyz
x,y,z
1/2-x,-y,1/2+z
x,-y,-z
1/2-x,y,1/2-z
-x,-y,-z
1/2+x,y,1/2-z
-x,y,z
1/2+x,-y,1/2+z
loop_
_atom_site_type_symbol
_atom_site_label
_atom_site_fract_x
_atom_site_fract_y
_atom_site_fract_z
Si Si1 0.180124 0.959610 0.650798
Si Si2 0.180476 0.116026 0.850490
Si Si3 0.179258 0.182088 0.474444
Si Si4 0.681232 0.669861 0.550288
Si Si5 0.679035 0.375057 0.657444
Si Si6 0.328320 0.476369 0.107473
O O1 0.250000 0.940949 0.750000
O O2 0.203807 0.892294 0.582622
O O3 0.000000 0.973333 0.658392
O O4 0.260272 0.035001 0.622133
O O5 0.250000 0.130907 0.750000
O O6 0.241345 0.170924 0.927240
O O7 0.000000 0.117161 0.846085
O O8 0.251781 0.251703 0.424337
O O9 0.000000 0.192642 0.485721
O O10 0.500000 0.667978 0.556824
O O11 0.724176 0.657669 0.441930
O O12 0.752098 0.603031 0.607462
O O13 0.750000 0.341721 0.750000
O O14 0.500000 0.369905 0.664376
O O15 0.730678 0.459650 0.652398
O O16 0.500000 0.475120 0.143448
O O17 0.335381 0.500000 0.000000
#
# Coordination Sequence:
#
# PCOD9417092 Si02
#       6
#     8   8   8   8   8   8
#     4  10  21  38  60  84 111 145 187 237 286 335
#     4  11  22  37  59  85 114 149 189 234 282 336
#     4  11  23  38  57  83 116 152 190 233 285 342
#     4  10  21  36  54  78 109 144 182 224 273 329
#     4  10  20  34  54  80 108 139 177 222 270 323
#     4   9  17  32  54  76 100 133 172 213 258 310
#
# _framework density 20.446377999999999
#
# number of rings (size 3 to 8) (size 9 to 14) (size 15 to 20)
#    0.000    1.833    0.000    5.500    0.000    9.333 
#    0.000    2.500    0.000    2.000    0.000    0.000 
#    0.000    0.000    0.000    0.000    0.000    0.000 
#
# Total GULP energy -268257.988529 kJ/mol
# GULP energy per Si atom -5588.708094 kJ/mol
# Density = 2.039984 g / cm^3
# Si number density = 20.446378 Si / 1000 Ang^3
#
#
#
# Elastic Constant Matrix: (Units=GPa)
#
#
# Indices 1 2 3 4 5 6 
#
# 1 61.7997 20.9613 2.5467 0.0000 0.0000 0.0000
# 2 20.9613 74.4713 -1.8621 0.0000 0.0000 0.0000
# 3 2.5467 -1.8621 18.8481 0.0000 0.0000 0.0000
# 4 0.0000 0.0000 0.0000 10.1286 0.0000 0.0000
# 5 0.0000 0.0000 0.0000 0.0000 -144.9479 0.0000
# 6 0.0000 0.0000 0.0000 0.0000 0.0000 -157.1442
#
#
#
# Elastic Compliance Matrix: (Units=1/GPa)
#
#
# Indices 1 2 3 4 5 6 
#
# 1 0.018051 -0.005155 -0.002948 0.000000 0.000000 0.000000
# 2 -0.005155 0.014933 0.002172 0.000000 0.000000 0.000000
# 3 -0.002948 0.002172 0.053669 0.000000 0.000000 0.000000
# 4 0.000000 0.000000 0.000000 0.098730 0.000000 0.000000
# 5 0.000000 0.000000 0.000000 0.000000 -0.006899 0.000000
# 6 0.000000 0.000000 0.000000 0.000000 0.000000 -0.006364
#
#
# Mechanical properties :
#
#
# Convention : Reuss Voigt Hill
#
# Bulk Modulus (GPa) = 13.37058 22.04564 17.70811
# Shear Modulus (GPa) = 23.93339 -49.49448 -12.78055
#
# Velocity S-wave (km/s) = 3.42503 -4.92540 -2.50286
# Velocity P-wave (km/s) = 4.71112 4.64117 0.57194
#
# Compressibility (1/GPa) = 0.07479106
#
# Stress axis : x y z
#
# Youngs Moduli (GPa) = 55.39819 66.96520 18.63281
#
# Poissons Ratio (x) = 0.34517 0.05493
# Poissons Ratio (y) = 0.28555 -0.04047
# Poissons Ratio (z) = 0.16333 -0.14544
#
# Static dielectric constant tensor:
#      x y z
#    x 1.683990 0.000000 0.000000 
#    y 0.000000 1.719340 0.000000 
#    z 0.000000 0.000000 1.761480 
# 
# From -- ./inp_files/20249.got.cif
#   From: 2010.05.17/outbox.cif.g08.bks.cpg/sg53_11_cif.got.tgz:20249.got - 2010.06.03 12:45:16.
