data_PCOD9417094
_publ_section_title
;
Structure prediction by ZEFSAII (Michael W. Deem and Ramdas Pophale) SiO2 
 PCOD9417094
Probable space group: P M N A
;
_chemical_formula_sum "Si O2"
_cell_formula_units_Z 48
_cell_length_a 8.543579
_cell_length_b 14.553913
_cell_length_c 22.455136
_cell_angle_alpha 90.000000
_cell_angle_beta 90.000000
_cell_angle_gamma 90.000000
_cell_volume 2792.127871
_symmetry_space_group_name_H-M "P M N A"
_symmetry_group_IT_number 53
_symmetry_cell_setting 'orthorhombic'
loop_
_space_group_symop_operation_xyz
x,y,z
1/2-x,-y,1/2+z
x,-y,-z
1/2-x,y,1/2-z
-x,-y,-z
1/2+x,y,1/2-z
-x,y,z
1/2+x,-y,1/2+z
loop_
_atom_site_type_symbol
_atom_site_label
_atom_site_fract_x
_atom_site_fract_y
_atom_site_fract_z
Si Si1 0.812790 0.210986 0.187587
Si Si2 0.309695 0.066263 0.556626
Si Si3 0.684160 0.530001 0.430234
Si Si4 0.687270 0.723564 0.462729
Si Si5 0.812322 0.003321 0.315015
Si Si6 0.316300 0.342742 0.087699
O O1 0.750000 0.247057 0.250000
O O2 0.746787 0.108216 0.181658
O O3 0.741675 0.275479 0.138170
O O4 0.000000 0.208326 0.185259
O O5 0.500000 0.062817 0.558029
O O6 0.257489 0.172275 0.546772
O O7 0.262913 0.000000 0.500000
O O8 0.248319 0.039039 0.622449
O O9 0.697781 0.500000 0.500000
O O10 0.500000 0.526744 0.415379
O O11 0.742935 0.635017 0.424194
O O12 0.773299 0.448153 0.397838
O O13 0.500000 0.725528 0.455601
O O14 0.727461 0.692468 0.529150
O O15 0.750000 0.967478 0.250000
O O16 0.000000 0.999441 0.313476
O O17 0.500000 0.335621 0.077058
#
# Coordination Sequence:
#
# PCOD9417094 Si02
#       6
#     8   8   8   8   8   8
#     4  11  21  35  53  73  99 130 166 206 251 303
#     4  10  20  34  54  80 109 141 177 219 267 312
#     4   8  15  29  47  68  96 132 169 202 245 300
#     4   9  18  32  50  73 103 138 173 211 255 302
#     4  11  22  37  56  78 106 140 178 216 258 312
#     4  11  20  30  48  75 104 132 165 206 254 306
#
# _framework density 17.191189000000001
#
# number of rings (size 3 to 8) (size 9 to 14) (size 15 to 20)
#    0.000    2.000    0.000    7.500    0.000    5.333 
#    0.000    0.000    0.000    1.000    0.000    4.667 
#    0.000    0.000    0.000    0.000    0.000    0.000 
#
# Total GULP energy -267322.604869 kJ/mol
# GULP energy per Si atom -5569.220935 kJ/mol
# Density = 1.715206 g / cm^3
# Si number density = 17.191189 Si / 1000 Ang^3
#
#
#
# Elastic Constant Matrix: (Units=GPa)
#
#
# Indices 1 2 3 4 5 6 
#
# 1 81.1917 30.8896 40.8686 0.0000 0.0000 0.0000
# 2 30.8896 122.9020 64.0454 0.0000 0.0000 0.0000
# 3 40.8686 64.0454 110.9530 0.0000 0.0000 0.0000
# 4 0.0000 0.0000 0.0000 23.8907 0.0000 0.0000
# 5 0.0000 0.0000 0.0000 0.0000 22.7586 0.0000
# 6 0.0000 0.0000 0.0000 0.0000 0.0000 18.7316
#
#
#
# Elastic Compliance Matrix: (Units=1/GPa)
#
#
# Indices 1 2 3 4 5 6 
#
# 1 0.015263 -0.001296 -0.004874 0.000000 0.000000 0.000000
# 2 -0.001296 0.011747 -0.006303 0.000000 0.000000 0.000000
# 3 -0.004874 -0.006303 0.014446 0.000000 0.000000 0.000000
# 4 0.000000 0.000000 0.000000 0.041857 0.000000 0.000000
# 5 0.000000 0.000000 0.000000 0.000000 0.043939 0.000000
# 6 0.000000 0.000000 0.000000 0.000000 0.000000 0.053386
#
#
# Mechanical properties :
#
#
# Convention : Reuss Voigt Hill
#
# Bulk Modulus (GPa) = 60.56996 65.18375 62.87685
# Shear Modulus (GPa) = 23.68672 25.02573 24.35622
#
# Velocity S-wave (km/s) = 3.71595 3.81954 3.76810
# Velocity P-wave (km/s) = 7.32944 7.57965 7.45560
#
# Compressibility (1/GPa) = 0.01650984
#
# Stress axis : x y z
#
# Youngs Moduli (GPa) = 65.51815 85.12755 69.22137
#
# Poissons Ratio (x) = 0.11036 0.33736
# Poissons Ratio (y) = 0.08494 0.43632
# Poissons Ratio (z) = 0.31931 0.53658
#
# Static dielectric constant tensor:
#      x y z
#    x 1.579520 0.000000 0.000000 
#    y 0.000000 1.611870 0.000000 
#    z 0.000000 0.000000 1.582970 
# 
# From -- ./inp_files/30492.got.cif
#   From: 2010.05.17/outbox.cif.g08.bks.cpg/sg53_16_cif.got.tgz:30492.got - 2010.06.03 12:45:16.
