data_PCOD9417727
_publ_section_title
;
Structure prediction by ZEFSAII (Michael W. Deem and Ramdas Pophale) SiO2 
 PCOD9417727
Probable space group: P M N A
;
_chemical_formula_sum "Si O2"
_cell_formula_units_Z 48
_cell_length_a 10.066878
_cell_length_b 30.836361
_cell_length_c 8.771348
_cell_angle_alpha 90.000000
_cell_angle_beta 90.000000
_cell_angle_gamma 90.000000
_cell_volume 2722.853458
_symmetry_space_group_name_H-M "P M N A"
_symmetry_group_IT_number 53
_symmetry_cell_setting 'orthorhombic'
loop_
_space_group_symop_operation_xyz
x,y,z
1/2-x,-y,1/2+z
x,-y,-z
1/2-x,y,1/2-z
-x,-y,-z
1/2+x,y,1/2-z
-x,y,z
1/2+x,-y,1/2+z
loop_
_atom_site_type_symbol
_atom_site_label
_atom_site_fract_x
_atom_site_fract_y
_atom_site_fract_z
Si Si1 0.500000 0.452490 0.429981
Si Si2 0.160284 0.315532 0.095493
Si Si3 0.653892 0.780330 0.605508
Si Si4 0.746142 0.598940 0.432219
Si Si5 0.500000 0.450661 0.063946
Si Si6 0.656702 0.124522 0.398442
Si Si7 0.844856 0.041953 0.893340
O O1 0.500000 0.500000 0.500000
O O2 0.626206 0.427787 0.495316
O O3 0.500000 0.452926 0.247111
O O4 0.250000 0.317810 0.250000
O O5 0.174348 0.266556 0.029445
O O6 0.000000 0.322902 0.122660
O O7 0.219428 0.351880 0.985001
O O8 0.750000 0.780519 0.750000
O O9 0.500000 0.780007 0.656601
O O10 0.674827 0.827268 0.529096
O O11 0.750000 0.595685 0.250000
O O12 0.875294 0.576593 0.503341
O O13 0.500000 0.500000 0.000000
O O14 0.750000 0.121558 0.250000
O O15 0.500000 0.120687 0.355947
O O16 0.686490 0.085437 0.512069
O O17 0.750000 0.038310 0.750000
O O18 0.000000 0.043945 0.847623
O O19 0.828421 0.000000 0.000000
#
# Coordination Sequence:
#
# PCOD9417727 Si02
#       7
#     4   8   8   8   4   8   8
#     4  12  24  44  66  88 116 148 190 228 275 334
#     4  10  20  36  59  86 114 149 191 233 278 332
#     4   8  15  29  51  78 108 141 182 227 273 323
#     4  12  25  41  60  88 120 151 187 230 279 333
#     4  12  26  44  66  90 116 152 186 230 279 330
#     4   9  17  31  52  78 107 141 181 228 276 328
#     4  10  21  35  51  75 106 141 185 231 282 338
#
# _framework density 17.628567
#
# number of rings (size 3 to 8) (size 9 to 14) (size 15 to 20)
#    0.000    1.833    0.833    4.000    1.167    1.000 
#    0.000    0.833    0.000    0.000    0.000    0.000 
#    0.000    0.000    0.000    0.000    0.000    0.000 
#
# Total GULP energy -267546.029539 kJ/mol
# GULP energy per Si atom -5573.875615 kJ/mol
# Density = 1.758844 g / cm^3
# Si number density = 17.628567 Si / 1000 Ang^3
#
#
#
# Elastic Constant Matrix: (Units=GPa)
#
#
# Indices 1 2 3 4 5 6 
#
# 1 112.5166 71.5592 61.8384 0.0000 0.0000 0.0000
# 2 71.5592 179.9566 71.2189 0.0000 0.0000 0.0000
# 3 61.8384 71.2189 128.1898 0.0000 0.0000 0.0000
# 4 0.0000 0.0000 0.0000 26.1055 0.0000 0.0000
# 5 0.0000 0.0000 0.0000 0.0000 25.8865 0.0000
# 6 0.0000 0.0000 0.0000 0.0000 0.0000 26.4108
#
#
#
# Elastic Compliance Matrix: (Units=1/GPa)
#
#
# Indices 1 2 3 4 5 6 
#
# 1 0.013731 -0.003639 -0.004602 0.000000 0.000000 0.000000
# 2 -0.003639 0.008087 -0.002738 0.000000 0.000000 0.000000
# 3 -0.004602 -0.002738 0.011542 0.000000 0.000000 0.000000
# 4 0.000000 0.000000 0.000000 0.038306 0.000000 0.000000
# 5 0.000000 0.000000 0.000000 0.000000 0.038630 0.000000
# 6 0.000000 0.000000 0.000000 0.000000 0.000000 0.037863
#
#
# Mechanical properties :
#
#
# Convention : Reuss Voigt Hill
#
# Bulk Modulus (GPa) = 87.69659 92.21066 89.95362
# Shear Modulus (GPa) = 28.74904 30.08366 29.41635
#
# Velocity S-wave (km/s) = 4.04272 4.13550 4.08937
# Velocity P-wave (km/s) = 8.46442 8.67319 8.56944
#
# Compressibility (1/GPa) = 0.01140295
#
# Stress axis : x y z
#
# Youngs Moduli (GPa) = 72.82701 123.65013 86.63949
#
# Poissons Ratio (x) = 0.44994 0.39874
# Poissons Ratio (y) = 0.26500 0.23720
# Poissons Ratio (z) = 0.33517 0.33853
#
# Static dielectric constant tensor:
#      x y z
#    x 1.606820 0.000000 0.000000 
#    y 0.000000 1.656400 0.000000 
#    z 0.000000 0.000000 1.556410 
# 
# From -- ./inp_files/6789.got.cif
#   From: 2010.05.17/outbox.cif.g08.bks.cpg/sg53_4_cif.got.tgz:6789.got - 2010.06.03 12:45:16.
