data_PCOD9417160
_publ_section_title
;
Structure prediction by ZEFSAII (Michael W. Deem and Ramdas Pophale) SiO2 
 PCOD9417160
Probable space group: P M N A
;
_chemical_formula_sum "Si O2"
_cell_formula_units_Z 56
_cell_length_a 18.597596
_cell_length_b 17.536346
_cell_length_c 7.604600
_cell_angle_alpha 90.000000
_cell_angle_beta 90.000000
_cell_angle_gamma 90.000000
_cell_volume 2480.117690
_symmetry_space_group_name_H-M "P M N A"
_symmetry_group_IT_number 53
_symmetry_cell_setting 'orthorhombic'
loop_
_space_group_symop_operation_xyz
x,y,z
1/2-x,-y,1/2+z
x,-y,-z
1/2-x,y,1/2-z
-x,-y,-z
1/2+x,y,1/2-z
-x,y,z
1/2+x,-y,1/2+z
loop_
_atom_site_type_symbol
_atom_site_label
_atom_site_fract_x
_atom_site_fract_y
_atom_site_fract_z
Si Si1 0.919801 0.941714 0.340431
Si Si2 0.667185 0.367157 0.733554
Si Si3 0.332273 0.665207 0.684925
Si Si4 0.185926 0.949786 0.857656
Si Si5 0.581414 0.227986 0.819766
Si Si6 0.917204 0.515171 0.787367
Si Si7 0.581905 0.808390 0.598498
O O1 0.900701 0.855527 0.395875
O O2 0.000000 0.936282 0.257691
O O3 0.924983 0.000000 0.500000
O O4 0.861419 0.981067 0.219760
O O5 0.750000 0.387484 0.750000
O O6 0.662551 0.347922 0.526040
O O7 0.640241 0.293715 0.842786
O O8 0.617884 0.438256 0.785067
O O9 0.250000 0.671706 0.750000
O O10 0.370768 0.589514 0.758833
O O11 0.379078 0.741828 0.709178
O O12 0.250000 0.912643 0.750000
O O13 0.129245 0.884170 0.896820
O O14 0.228822 0.000000 0.000000
O O15 0.500000 0.250136 0.873817
O O16 0.578880 0.214914 0.607658
O O17 0.000000 0.525224 0.736500
O O18 0.915992 0.500000 0.000000
O O19 0.500000 0.820677 0.659555
#
# Coordination Sequence:
#
# PCOD9417160 Si02
#       7
#     8   8   8   8   8   8   8
#     4  10  21  39  60  84 112 148 193 245 299 352
#     4  10  20  34  55  85 114 155 193 238 292 354
#     4  10  20  36  56  86 120 151 189 242 300 347
#     4  12  24  39  57  85 115 152 191 240 295 359
#     4   9  18  35  58  82 110 146 195 244 288 344
#     4   9  17  32  58  86 113 150 202 249 285 335
#     4  10  20  37  61  84 109 148 199 242 286 349
#
# _framework density 22.579574999999998
#
# number of rings (size 3 to 8) (size 9 to 14) (size 15 to 20)
#    0.000    2.000    1.429    2.571    0.000    4.571 
#    7.714    0.000    0.000    3.429    0.000    0.000 
#    0.000    0.000    0.000    0.000    0.000    0.000 
#
# Total GULP energy -312632.933554 kJ/mol
# GULP energy per Si atom -5582.730956 kJ/mol
# Density = 2.252818 g / cm^3
# Si number density = 22.579575 Si / 1000 Ang^3
#
#
#
# Elastic Constant Matrix: (Units=GPa)
#
#
# Indices 1 2 3 4 5 6 
#
# 1 129.4434 68.3449 0.9441 0.0000 0.0000 0.0000
# 2 68.3449 140.2693 13.8679 0.0000 0.0000 0.0000
# 3 0.9441 13.8679 11.5586 0.0000 0.0000 0.0000
# 4 0.0000 0.0000 0.0000 18.5800 0.0000 0.0000
# 5 0.0000 0.0000 0.0000 0.0000 5.9629 0.0000
# 6 0.0000 0.0000 0.0000 0.0000 0.0000 59.3657
#
#
#
# Elastic Compliance Matrix: (Units=1/GPa)
#
#
# Indices 1 2 3 4 5 6 
#
# 1 0.010773 -0.005857 0.006147 0.000000 0.000000 0.000000
# 2 -0.005857 0.011273 -0.013046 0.000000 0.000000 0.000000
# 3 0.006147 -0.013046 0.101666 0.000000 0.000000 0.000000
# 4 0.000000 0.000000 0.000000 0.053821 0.000000 0.000000
# 5 0.000000 0.000000 0.000000 0.000000 0.167702 0.000000
# 6 0.000000 0.000000 0.000000 0.000000 0.000000 0.016845
#
#
# Mechanical properties :
#
#
# Convention : Reuss Voigt Hill
#
# Bulk Modulus (GPa) = 10.18336 49.73167 29.95752
# Shear Modulus (GPa) = 11.89554 29.98937 20.94245
#
# Velocity S-wave (km/s) = 2.29776 3.64835 3.04879
# Velocity P-wave (km/s) = 3.39991 6.31032 5.06851
#
# Compressibility (1/GPa) = 0.09819938
#
# Stress axis : x y z
#
# Youngs Moduli (GPa) = 92.82621 88.71082 9.83610
#
# Poissons Ratio (x) = 0.51955 -0.06046
# Poissons Ratio (y) = 0.54365 0.12832
# Poissons Ratio (z) = -0.57059 1.15735
#
# Static dielectric constant tensor:
#      x y z
#    x 1.800100 0.000000 0.000000 
#    y 0.000000 1.917840 0.000000 
#    z 0.000000 0.000000 2.381660 
# 
# From -- ./inp_files/11048.got.cif
#   From: 2010.05.17/outbox.cif.g08.bks.cpg/sg53_6_cif.got.tgz:11048.got - 2010.06.03 12:45:16.
