data_PCOD9417624
_publ_section_title
;
Structure prediction by ZEFSAII (Michael W. Deem and Ramdas Pophale) SiO2 
 PCOD9417624
Probable space group: P M N A
;
_chemical_formula_sum "Si O2"
_cell_formula_units_Z 24
_cell_length_a 8.421209
_cell_length_b 9.977369
_cell_length_c 11.944374
_cell_angle_alpha 90.000000
_cell_angle_beta 90.000000
_cell_angle_gamma 90.000000
_cell_volume 1003.584335
_symmetry_space_group_name_H-M "P M N A"
_symmetry_group_IT_number 53
_symmetry_cell_setting 'orthorhombic'
loop_
_space_group_symop_operation_xyz
x,y,z
1/2-x,-y,1/2+z
x,-y,-z
1/2-x,y,1/2-z
-x,-y,-z
1/2+x,y,1/2-z
-x,y,z
1/2+x,-y,1/2+z
loop_
_atom_site_type_symbol
_atom_site_label
_atom_site_fract_x
_atom_site_fract_y
_atom_site_fract_z
Si Si1 0.185641 0.028689 0.871760
Si Si2 0.681641 0.615849 0.865365
Si Si3 0.178799 0.659814 0.097070
O O1 0.250000 0.977990 0.750000
O O2 0.198895 0.190015 0.863006
O O3 0.000000 0.990092 0.875913
O O4 0.251021 0.000000 0.000000
O O5 0.750000 0.666234 0.750000
O O6 0.500000 0.653710 0.884743
O O7 0.697930 0.453420 0.864751
O O8 0.794124 0.664038 0.964210
O O9 0.000000 0.613219 0.123015
#
# Coordination Sequence:
#
# PCOD9417624 Si02
#       3
#     8   8   8
#     4  10  23  42  63  89 120 156 200 249 299 354
#     4  11  21  34  54  82 116 151 191 236 290 351
#     4  10  20  36  57  82 114 149 191 240 291 350
#
# _framework density 23.914283000000001
#
# number of rings (size 3 to 8) (size 9 to 14) (size 15 to 20)
#    0.000    1.667    0.000    7.000    0.000    7.333 
#    0.000    3.333    0.000    0.000    0.000    0.000 
#    0.000    0.000    0.000    0.000    0.000    0.000 
#
# Total GULP energy -133977.101397 kJ/mol
# GULP energy per Si atom -5582.379225 kJ/mol
# Density = 2.385985 g / cm^3
# Si number density = 23.914283 Si / 1000 Ang^3
#
#
#
# Elastic Constant Matrix: (Units=GPa)
#
#
# Indices 1 2 3 4 5 6 
#
# 1 67.1526 30.5429 40.4703 0.0000 0.0000 0.0000
# 2 30.5429 47.7030 -2.2478 0.0000 0.0000 0.0000
# 3 40.4703 -2.2478 203.9376 0.0000 0.0000 0.0000
# 4 0.0000 0.0000 0.0000 -33.0379 0.0000 0.0000
# 5 0.0000 0.0000 0.0000 0.0000 36.9311 0.0000
# 6 0.0000 0.0000 0.0000 0.0000 0.0000 -11.7687
#
#
#
# Elastic Compliance Matrix: (Units=1/GPa)
#
#
# Indices 1 2 3 4 5 6 
#
# 1 0.025654 -0.016674 -0.005275 0.000000 0.000000 0.000000
# 2 -0.016674 0.031812 0.003660 0.000000 0.000000 0.000000
# 3 -0.005275 0.003660 0.005991 0.000000 0.000000 0.000000
# 4 0.000000 0.000000 0.000000 -0.030268 0.000000 0.000000
# 5 0.000000 0.000000 0.000000 0.000000 0.027077 0.000000
# 6 0.000000 0.000000 0.000000 0.000000 0.000000 -0.084971
#
#
# Mechanical properties :
#
#
# Convention : Reuss Voigt Hill
#
# Bulk Modulus (GPa) = 37.20590 50.70267 43.95428
# Shear Modulus (GPa) = 240.00807 15.09343 127.55075
#
# Velocity S-wave (km/s) = 10.02894 2.51499 7.31112
# Velocity P-wave (km/s) = 12.23512 5.44807 9.47047
#
# Compressibility (1/GPa) = 0.02687746
#
# Stress axis : x y z
#
# Youngs Moduli (GPa) = 38.97986 31.43510 166.92985
#
# Poissons Ratio (x) = 0.52416 0.88051
# Poissons Ratio (y) = 0.64996 -0.61089
# Poissons Ratio (z) = 0.20561 -0.11504
#
# Static dielectric constant tensor:
#      x y z
#    x 1.820250 0.000000 0.000000 
#    y 0.000000 1.951540 0.000000 
#    z 0.000000 0.000000 1.999350 
# 
# From -- ./inp_files/13573.got.cif
#   From: 2010.05.17/outbox.cif.g08.bks.cpg/sg53_7_cif.got.tgz:13573.got - 2010.06.03 12:45:16.
