data_PCOD9417622
_publ_section_title
;
Structure prediction by ZEFSAII (Michael W. Deem and Ramdas Pophale) SiO2 
 PCOD9417622
Probable space group: P M N A
;
_chemical_formula_sum "Si O2"
_cell_formula_units_Z 64
_cell_length_a 8.843355
_cell_length_b 12.202232
_cell_length_c 31.589039
_cell_angle_alpha 90.000000
_cell_angle_beta 90.000000
_cell_angle_gamma 90.000000
_cell_volume 3408.731165
_symmetry_space_group_name_H-M "P M N A"
_symmetry_group_IT_number 53
_symmetry_cell_setting 'orthorhombic'
loop_
_space_group_symop_operation_xyz
x,y,z
1/2-x,-y,1/2+z
x,-y,-z
1/2-x,y,1/2-z
-x,-y,-z
1/2+x,y,1/2-z
-x,y,z
1/2+x,-y,1/2+z
loop_
_atom_site_type_symbol
_atom_site_label
_atom_site_fract_x
_atom_site_fract_y
_atom_site_fract_z
Si Si1 0.676422 0.860992 0.614747
Si Si2 0.321209 0.741245 0.056013
Si Si3 0.320183 0.239401 0.704492
Si Si4 0.180159 0.498629 0.796048
Si Si5 0.819123 0.490813 0.950352
Si Si6 0.820028 0.629194 0.625145
Si Si7 0.180566 0.906608 0.368749
Si Si8 0.676429 0.877258 0.513700
O O1 0.500000 0.849586 0.626041
O O2 0.767727 0.754720 0.629071
O O3 0.687481 0.866422 0.563786
O O4 0.742008 0.975238 0.631268
O O5 0.500000 0.719838 0.058911
O O6 0.231581 0.629831 0.064576
O O7 0.281043 0.837508 0.088950
O O8 0.275494 0.788069 0.010368
O O9 0.250000 0.213536 0.750000
O O10 0.500000 0.220836 0.704230
O O11 0.293684 0.368774 0.696738
O O12 0.239480 0.166587 0.669581
O O13 0.250000 0.526322 0.750000
O O14 0.254177 0.563489 0.834740
O O15 0.000000 0.517444 0.795202
O O16 0.746257 0.578151 0.918418
O O17 0.000000 0.502717 0.948382
O O18 0.773563 0.500000 0.000000
O O19 0.000000 0.620216 0.624290
O O20 0.000000 0.919224 0.367397
O O21 0.500000 0.861759 0.501287
O O22 0.721554 0.000000 0.500000
#
# Coordination Sequence:
#
# PCOD9417622 Si02
#       8
#     8   8   8   8   8   8   8   8
#     4  11  23  40  61  84 116 159 205 248 296 354
#     4  11  23  36  57  87 118 152 193 246 300 350
#     4  10  21  38  63  92 121 153 188 234 290 350
#     4  10  21  40  67  97 126 159 201 248 302 364
#     4  11  24  41  60  84 118 161 207 253 304 364
#     4  12  25  41  62  89 124 162 204 254 310 367
#     4  11  23  38  57  86 120 152 192 239 290 346
#     4  10  20  36  57  82 113 155 202 247 294 351
#
# _framework density 18.775314000000002
#
# number of rings (size 3 to 8) (size 9 to 14) (size 15 to 20)
#    0.000    1.250    1.250    4.875    0.000   10.250 
#    0.000    0.625    0.000    0.000    0.000    0.000 
#    0.000    0.000    0.000    0.000    0.000    0.000 
#
# Total GULP energy -357917.425797 kJ/mol
# GULP energy per Si atom -5592.459778 kJ/mol
# Density = 1.873258 g / cm^3
# Si number density = 18.775314 Si / 1000 Ang^3
#
#
#
# Elastic Constant Matrix: (Units=GPa)
#
#
# Indices 1 2 3 4 5 6 
#
# 1 86.8104 51.7822 54.8322 0.0000 0.0000 0.0000
# 2 51.7822 87.9408 47.0123 0.0000 0.0000 0.0000
# 3 54.8322 47.0123 96.7898 0.0000 0.0000 0.0000
# 4 0.0000 0.0000 0.0000 43.5687 0.0000 0.0000
# 5 0.0000 0.0000 0.0000 0.0000 20.5168 0.0000
# 6 0.0000 0.0000 0.0000 0.0000 0.0000 37.0620
#
#
#
# Elastic Compliance Matrix: (Units=1/GPa)
#
#
# Indices 1 2 3 4 5 6 
#
# 1 0.021724 -0.008391 -0.008231 0.000000 0.000000 0.000000
# 2 -0.008391 0.018601 -0.004281 0.000000 0.000000 0.000000
# 3 -0.008231 -0.004281 0.017074 0.000000 0.000000 0.000000
# 4 0.000000 0.000000 0.000000 0.022952 0.000000 0.000000
# 5 0.000000 0.000000 0.000000 0.000000 0.048740 0.000000
# 6 0.000000 0.000000 0.000000 0.000000 0.000000 0.026982
#
#
# Mechanical properties :
#
#
# Convention : Reuss Voigt Hill
#
# Bulk Modulus (GPa) = 64.13518 64.31050 64.22284
# Shear Modulus (GPa) = 24.62125 28.09046 26.35585
#
# Velocity S-wave (km/s) = 3.62520 3.87219 3.75073
# Velocity P-wave (km/s) = 7.19418 7.37013 7.28269
#
# Compressibility (1/GPa) = 0.01559207
#
# Stress axis : x y z
#
# Youngs Moduli (GPa) = 46.03284 53.76064 58.56928
#
# Poissons Ratio (x) = 0.45113 0.48207
# Poissons Ratio (y) = 0.38628 0.25073
# Poissons Ratio (z) = 0.37889 0.23015
#
# Static dielectric constant tensor:
#      x y z
#    x 1.632380 0.000000 0.000000 
#    y 0.000000 1.635360 0.000000 
#    z 0.000000 0.000000 1.640450 
# 
# From -- ./inp_files/38184.got.cif
#   From: 2010.05.17/outbox.cif.g08.bks.cpg/sg53_20_cif.got.tgz:38184.got - 2010.06.03 12:45:16.
