data_PCOD9417895
_publ_section_title
;
Structure prediction by ZEFSAII (Michael W. Deem and Ramdas Pophale) SiO2 
 PCOD9417895
Probable space group: P M N A
;
_chemical_formula_sum "Si O2"
_cell_formula_units_Z 48
_cell_length_a 8.226526
_cell_length_b 10.130003
_cell_length_c 31.783671
_cell_angle_alpha 90.000000
_cell_angle_beta 90.000000
_cell_angle_gamma 90.000000
_cell_volume 2648.683738
_symmetry_space_group_name_H-M "P M N A"
_symmetry_group_IT_number 53
_symmetry_cell_setting 'orthorhombic'
loop_
_space_group_symop_operation_xyz
x,y,z
1/2-x,-y,1/2+z
x,-y,-z
1/2-x,y,1/2-z
-x,-y,-z
1/2+x,y,1/2-z
-x,y,z
1/2+x,-y,1/2+z
loop_
_atom_site_type_symbol
_atom_site_label
_atom_site_fract_x
_atom_site_fract_y
_atom_site_fract_z
Si Si1 0.000000 0.575970 0.935655
Si Si2 0.191433 0.464958 0.704056
Si Si3 0.000000 0.290411 0.973525
Si Si4 0.305984 0.027832 0.129683
Si Si5 0.802787 0.833875 0.297093
Si Si6 0.818125 0.322633 0.139874
Si Si7 0.692615 0.099199 0.960360
O O1 0.000000 0.421093 0.944757
O O2 0.152608 0.618505 0.906761
O O3 0.000000 0.656239 0.978723
O O4 0.250000 0.508334 0.750000
O O5 0.257285 0.316785 0.695555
O O6 0.231265 0.571137 0.668768
O O7 0.000000 0.450844 0.706405
O O8 0.166343 0.208230 0.966250
O O9 0.500000 0.022378 0.131985
O O10 0.242146 0.931641 0.166486
O O11 0.264452 0.976161 0.083085
O O12 0.256103 0.178364 0.136835
O O13 0.750000 0.872657 0.250000
O O14 0.000000 0.834330 0.298220
O O15 0.000000 0.307745 0.157793
O O16 0.500000 0.143420 0.957686
O O17 0.701559 0.000000 0.000000
#
# Coordination Sequence:
#
# PCOD9417895 Si02
#       7
#     4   8   4   8   8   8   8
#     4   9  24  40  58  90 124 157 210 259 302 380
#     4  10  20  37  60  85 115 158 197 249 306 364
#     4  11  21  42  66  88 127 170 203 270 319 358
#     4  10  21  37  57  86 120 155 201 254 309 368
#     4   9  20  37  57  84 116 148 195 250 301 360
#     4  10  22  37  55  82 117 157 199 247 296 370
#     4  10  22  38  63  95 124 162 212 258 315 388
#
# _framework density 18.122208000000001
#
# number of rings (size 3 to 8) (size 9 to 14) (size 15 to 20)
#    0.500    1.667    0.000    2.250    3.500    2.000 
#    0.000    5.000    0.000    0.000    0.000    0.000 
#    0.000    0.000    0.000    0.000    0.000    0.000 
#
# Total GULP energy -267475.562743 kJ/mol
# GULP energy per Si atom -5572.407557 kJ/mol
# Density = 1.808096 g / cm^3
# Si number density = 18.122208 Si / 1000 Ang^3
#
#
#
# Elastic Constant Matrix: (Units=GPa)
#
#
# Indices 1 2 3 4 5 6 
#
# 1 38.8851 44.5159 38.7018 0.0000 0.0000 0.0000
# 2 44.5159 133.9165 92.6740 0.0000 0.0000 0.0000
# 3 38.7018 92.6740 131.8421 0.0000 0.0000 0.0000
# 4 0.0000 0.0000 0.0000 38.4213 0.0000 0.0000
# 5 0.0000 0.0000 0.0000 0.0000 29.5939 0.0000
# 6 0.0000 0.0000 0.0000 0.0000 0.0000 32.8081
#
#
#
# Elastic Compliance Matrix: (Units=1/GPa)
#
#
# Indices 1 2 3 4 5 6 
#
# 1 0.043165 -0.010865 -0.005034 0.000000 0.000000 0.000000
# 2 -0.010865 0.017275 -0.008954 0.000000 0.000000 0.000000
# 3 -0.005034 -0.008954 0.015356 0.000000 0.000000 0.000000
# 4 0.000000 0.000000 0.000000 0.026027 0.000000 0.000000
# 5 0.000000 0.000000 0.000000 0.000000 0.033791 0.000000
# 6 0.000000 0.000000 0.000000 0.000000 0.000000 0.030480
#
#
# Mechanical properties :
#
#
# Convention : Reuss Voigt Hill
#
# Bulk Modulus (GPa) = 38.32657 72.93635 55.63146
# Shear Modulus (GPa) = 22.27196 28.74812 25.51004
#
# Velocity S-wave (km/s) = 3.50949 3.98722 3.75596
# Velocity P-wave (km/s) = 6.13326 7.84420 7.04090
#
# Compressibility (1/GPa) = 0.02609156
#
# Stress axis : x y z
#
# Youngs Moduli (GPa) = 23.16668 57.88599 65.12092
#
# Poissons Ratio (x) = 0.62896 0.32779
# Poissons Ratio (y) = 0.25172 0.58307
# Poissons Ratio (z) = 0.11661 0.51829
#
# Static dielectric constant tensor:
#      x y z
#    x 1.639970 0.000000 0.000000 
#    y 0.000000 1.706600 0.000000 
#    z 0.000000 0.000000 1.611920 
# 
# From -- ./inp_files/37837.got.cif
#   From: 2010.05.17/outbox.cif.g08.bks.cpg/sg53_19_cif.got.tgz:37837.got - 2010.06.03 12:45:16.
