data_PCOD9417360
_publ_section_title
;
Structure prediction by ZEFSAII (Michael W. Deem and Ramdas Pophale) SiO2 
 PCOD9417360
Probable space group: P M N A
;
_chemical_formula_sum "Si O2"
_cell_formula_units_Z 64
_cell_length_a 18.530275
_cell_length_b 22.296391
_cell_length_c 7.367453
_cell_angle_alpha 90.000000
_cell_angle_beta 90.000000
_cell_angle_gamma 90.000000
_cell_volume 3043.924038
_symmetry_space_group_name_H-M "P M N A"
_symmetry_group_IT_number 53
_symmetry_cell_setting 'orthorhombic'
loop_
_space_group_symop_operation_xyz
x,y,z
1/2-x,-y,1/2+z
x,-y,-z
1/2-x,y,1/2-z
-x,-y,-z
1/2+x,y,1/2-z
-x,y,z
1/2+x,-y,1/2+z
loop_
_atom_site_type_symbol
_atom_site_label
_atom_site_fract_x
_atom_site_fract_y
_atom_site_fract_z
Si Si1 0.415049 0.429489 0.511664
Si Si2 0.170998 0.630350 0.717746
Si Si3 0.667182 0.980606 0.711722
Si Si4 0.913237 0.773701 0.401808
Si Si5 0.580326 0.128638 0.387812
Si Si6 0.831928 0.235357 0.218546
Si Si7 0.334763 0.658105 0.208064
Si Si8 0.919183 0.909117 0.301828
O O1 0.398372 0.500000 0.500000
O O2 0.500000 0.421643 0.547263
O O3 0.392485 0.404466 0.315309
O O4 0.370184 0.391785 0.661244
O O5 0.250000 0.601907 0.750000
O O6 0.174318 0.694434 0.824664
O O7 0.159427 0.638860 0.503848
O O8 0.750000 0.967860 0.750000
O O9 0.619564 0.920776 0.735687
O O10 0.663578 0.000000 0.500000
O O11 0.635928 0.036530 0.825206
O O12 0.880236 0.764567 0.600660
O O13 0.875833 0.722267 0.279960
O O14 0.895700 0.843057 0.361930
O O15 0.000000 0.767133 0.393153
O O16 0.500000 0.142854 0.319837
O O17 0.627290 0.188524 0.407474
O O18 0.573893 0.099180 0.584609
O O19 0.750000 0.214158 0.250000
O O20 0.250000 0.665571 0.250000
O O21 0.000000 0.922517 0.372792
#
# Coordination Sequence:
#
# PCOD9417360 Si02
#       8
#     8   8   8   8   8   8   8   8
#     4  11  26  45  68 101 136 173 221 270 319 384
#     4  10  22  43  66  96 133 174 217 266 325 383
#     4  10  21  36  53  76 109 145 195 247 303 362
#     4  10  22  39  61  90 125 160 203 255 312 374
#     4  10  20  35  56  80 111 153 198 246 305 370
#     4  10  22  37  59  88 122 156 200 254 307 371
#     4  11  23  42  69  99 135 173 218 270 323 384
#     4   9  20  36  55  80 109 150 195 242 301 364
#
# _framework density 21.025492
#
# number of rings (size 3 to 8) (size 9 to 14) (size 15 to 20)
#    0.000    1.875    1.250    1.500    1.750    9.000 
#    0.000    1.250    0.000    3.000    0.000    0.000 
#    0.000    0.000    0.000    0.000    0.000    0.000 
#
# Total GULP energy -357367.231465 kJ/mol
# GULP energy per Si atom -5583.862992 kJ/mol
# Density = 2.097764 g / cm^3
# Si number density = 21.025492 Si / 1000 Ang^3
#
#
#
# Elastic Constant Matrix: (Units=GPa)
#
#
# Indices 1 2 3 4 5 6 
#
# 1 107.8475 58.3879 17.0088 0.0000 0.0000 0.0000
# 2 58.3879 84.0180 25.9885 0.0000 0.0000 0.0000
# 3 17.0088 25.9885 63.9010 0.0000 0.0000 0.0000
# 4 0.0000 0.0000 0.0000 25.1294 0.0000 0.0000
# 5 0.0000 0.0000 0.0000 0.0000 -7.3012 0.0000
# 6 0.0000 0.0000 0.0000 0.0000 0.0000 37.6058
#
#
#
# Elastic Compliance Matrix: (Units=1/GPa)
#
#
# Indices 1 2 3 4 5 6 
#
# 1 0.014870 -0.010420 0.000280 0.000000 0.000000 0.000000
# 2 -0.010420 0.020917 -0.005733 0.000000 0.000000 0.000000
# 3 0.000280 -0.005733 0.017906 0.000000 0.000000 0.000000
# 4 0.000000 0.000000 0.000000 0.039794 0.000000 0.000000
# 5 0.000000 0.000000 0.000000 0.000000 -0.136965 0.000000
# 6 0.000000 0.000000 0.000000 0.000000 0.000000 0.026592
#
#
# Mechanical properties :
#
#
# Convention : Reuss Voigt Hill
#
# Bulk Modulus (GPa) = 45.56641 50.94855 48.25748
# Shear Modulus (GPa) = 225.46143 21.37888 123.42016
#
# Velocity S-wave (km/s) = 10.36654 3.19220 7.66992
# Velocity P-wave (km/s) = 12.84547 6.15396 10.07167
#
# Compressibility (1/GPa) = 0.02194599
#
# Stress axis : x y z
#
# Youngs Moduli (GPa) = 67.25127 47.80774 55.84575
#
# Poissons Ratio (x) = 0.49816 -0.01563
# Poissons Ratio (y) = 0.70077 0.32019
# Poissons Ratio (z) = -0.01883 0.27410
#
# Static dielectric constant tensor:
#      x y z
#    x 1.740600 0.000000 0.000000 
#    y 0.000000 1.770560 0.000000 
#    z 0.000000 0.000000 1.768510 
# 
# From -- ./inp_files/8930.got.cif
#   From: 2010.05.17/outbox.cif.g08.bks.cpg/sg53_5_cif.got.tgz:8930.got - 2010.06.03 12:45:16.
