data_PCOD9417842
_publ_section_title
;
Structure prediction by ZEFSAII (Michael W. Deem and Ramdas Pophale) SiO2 
 PCOD9417842
Probable space group: P M N A
;
_chemical_formula_sum "Si O2"
_cell_formula_units_Z 64
_cell_length_a 9.240518
_cell_length_b 25.731884
_cell_length_c 14.465942
_cell_angle_alpha 90.000000
_cell_angle_beta 90.000000
_cell_angle_gamma 90.000000
_cell_volume 3439.652918
_symmetry_space_group_name_H-M "P M N A"
_symmetry_group_IT_number 53
_symmetry_cell_setting 'orthorhombic'
loop_
_space_group_symop_operation_xyz
x,y,z
1/2-x,-y,1/2+z
x,-y,-z
1/2-x,y,1/2-z
-x,-y,-z
1/2+x,y,1/2-z
-x,y,z
1/2+x,-y,1/2+z
loop_
_atom_site_type_symbol
_atom_site_label
_atom_site_fract_x
_atom_site_fract_y
_atom_site_fract_z
Si Si1 0.168921 0.649697 0.335809
Si Si2 0.673268 0.030048 0.150333
Si Si3 0.829771 0.547382 0.119258
Si Si4 0.171467 0.827799 0.150744
Si Si5 0.669138 0.565978 0.601479
Si Si6 0.828205 0.680635 0.841876
Si Si7 0.167556 0.277842 0.964553
Si Si8 0.673654 0.921231 0.044672
O O1 0.250000 0.675911 0.250000
O O2 0.226714 0.591346 0.342070
O O3 0.223506 0.680076 0.424385
O O4 0.000000 0.651903 0.323183
O O5 0.750000 0.037244 0.250000
O O6 0.500000 0.034765 0.163698
O O7 0.701024 0.972728 0.106932
O O8 0.713581 0.067372 0.063020
O O9 0.773678 0.489108 0.138933
O O10 0.000000 0.552778 0.146910
O O11 0.826844 0.558428 0.009003
O O12 0.250000 0.823145 0.250000
O O13 0.187659 0.775731 0.089250
O O14 0.241409 0.874413 0.092014
O O15 0.000000 0.836447 0.165521
O O16 0.500000 0.566087 0.627243
O O17 0.727235 0.622163 0.631200
O O18 0.750000 0.697801 0.750000
O O19 0.000000 0.676396 0.826737
O O20 0.808442 0.720525 0.926070
O O21 0.000000 0.295422 0.949315
O O22 0.500000 0.912243 0.046744
#
# Coordination Sequence:
#
# PCOD9417842 Si02
#       8
#     8   8   8   8   8   8   8   8
#     4  12  24  36  54  80 108 140 177 219 270 330
#     4   9  18  33  55  84 120 163 205 242 287 334
#     4   9  16  32  55  78 105 139 175 211 265 329
#     4  11  23  38  60  88 114 147 188 234 286 340
#     4   8  15  30  56  79 102 139 174 210 265 326
#     4  10  20  37  59  82 106 137 178 225 273 327
#     4  10  22  42  62  79 107 143 183 231 278 329
#     4   9  19  36  56  83 121 160 198 243 287 336
#
# _framework density 18.606528000000001
#
# number of rings (size 3 to 8) (size 9 to 14) (size 15 to 20)
#    0.000    2.250    1.250    3.750    0.000    5.000 
#    0.000    5.000    0.000    3.000    0.000    0.000 
#    0.000    0.000    0.000    0.000    0.000    0.000 
#
# Total GULP energy -356794.430066 kJ/mol
# GULP energy per Si atom -5574.912970 kJ/mol
# Density = 1.856418 g / cm^3
# Si number density = 18.606528 Si / 1000 Ang^3
#
#
#
# Elastic Constant Matrix: (Units=GPa)
#
#
# Indices 1 2 3 4 5 6 
#
# 1 83.8214 57.2417 72.6595 0.0000 0.0000 0.0000
# 2 57.2417 80.1708 52.1417 0.0000 0.0000 0.0000
# 3 72.6595 52.1417 151.1075 0.0000 0.0000 0.0000
# 4 0.0000 0.0000 0.0000 -9.8933 0.0000 0.0000
# 5 0.0000 0.0000 0.0000 0.0000 31.7500 0.0000
# 6 0.0000 0.0000 0.0000 0.0000 0.0000 40.9244
#
#
#
# Elastic Compliance Matrix: (Units=1/GPa)
#
#
# Indices 1 2 3 4 5 6 
#
# 1 0.031018 -0.016048 -0.009377 0.000000 0.000000 0.000000
# 2 -0.016048 0.024385 -0.000698 0.000000 0.000000 0.000000
# 3 -0.009377 -0.000698 0.011368 0.000000 0.000000 0.000000
# 4 0.000000 0.000000 0.000000 -0.101079 0.000000 0.000000
# 5 0.000000 0.000000 0.000000 0.000000 0.031496 0.000000
# 6 0.000000 0.000000 0.000000 0.000000 0.000000 0.024435
#
#
# Mechanical properties :
#
#
# Convention : Reuss Voigt Hill
#
# Bulk Modulus (GPa) = 68.84802 75.46507 72.15655
# Shear Modulus (GPa) = 63.52338 21.42668 42.47503
#
# Velocity S-wave (km/s) = 5.84932 3.39716 4.78305
# Velocity P-wave (km/s) = 9.09405 7.48559 8.32874
#
# Compressibility (1/GPa) = 0.01452475
#
# Stress axis : x y z
#
# Youngs Moduli (GPa) = 32.23964 41.00818 87.96868
#
# Poissons Ratio (x) = 0.65809 0.82491
# Poissons Ratio (y) = 0.51737 0.06140
# Poissons Ratio (z) = 0.30232 0.02862
#
# Static dielectric constant tensor:
#      x y z
#    x 1.637040 0.000000 0.000000 
#    y 0.000000 1.662910 0.000000 
#    z 0.000000 0.000000 1.770790 
# 
# From -- ./inp_files/20943.got.cif
#   From: 2010.05.17/outbox.cif.g08.bks.cpg/sg53_11_cif.got.tgz:20943.got - 2010.06.03 12:45:16.
