data_PCOD9417351
_publ_section_title
;
Structure prediction by ZEFSAII (Michael W. Deem and Ramdas Pophale) SiO2 
 PCOD9417351
Probable space group: P M N A
;
_chemical_formula_sum "Si O2"
_cell_formula_units_Z 48
_cell_length_a 8.690187
_cell_length_b 31.226789
_cell_length_c 9.650109
_cell_angle_alpha 90.000000
_cell_angle_beta 90.000000
_cell_angle_gamma 90.000000
_cell_volume 2618.717615
_symmetry_space_group_name_H-M "P M N A"
_symmetry_group_IT_number 53
_symmetry_cell_setting 'orthorhombic'
loop_
_space_group_symop_operation_xyz
x,y,z
1/2-x,-y,1/2+z
x,-y,-z
1/2-x,y,1/2-z
-x,-y,-z
1/2+x,y,1/2-z
-x,y,z
1/2+x,-y,1/2+z
loop_
_atom_site_type_symbol
_atom_site_label
_atom_site_fract_x
_atom_site_fract_y
_atom_site_fract_z
Si Si1 0.315441 0.540592 0.595479
Si Si2 0.814676 0.287544 0.599648
Si Si3 0.685710 0.210987 0.096203
Si Si4 0.815381 0.960024 0.096120
Si Si5 0.184844 0.868789 0.404548
Si Si6 0.184879 0.613504 0.401925
O O1 0.271787 0.500000 0.500000
O O2 0.250000 0.536376 0.750000
O O3 0.500000 0.542625 0.602124
O O4 0.251292 0.582439 0.518275
O O5 0.750000 0.275360 0.750000
O O6 0.763121 0.253901 0.484150
O O7 0.770472 0.336874 0.571921
O O8 0.000000 0.286105 0.606513
O O9 0.750000 0.208972 0.250000
O O10 0.500000 0.211506 0.102055
O O11 0.731289 0.169743 0.005322
O O12 0.750000 0.966739 0.250000
O O13 0.747759 0.914711 0.045971
O O14 0.000000 0.956796 0.102206
O O15 0.773182 0.000000 0.000000
O O16 0.250000 0.861691 0.250000
O O17 0.000000 0.870398 0.396893
O O18 0.250000 0.601660 0.250000
O O19 0.000000 0.610559 0.398978
#
# Coordination Sequence:
#
# PCOD9417351 Si02
#       6
#     8   8   8   8   8   8
#     4  11  24  40  59  83 112 147 185 227 276 327
#     4   9  19  36  57  82 110 143 182 221 265 319
#     4  10  22  37  53  78 110 142 178 220 267 316
#     4  10  21  36  55  79 106 138 175 215 262 315
#     4  10  20  35  56  79 104 137 177 219 262 313
#     4  10  20  36  59  85 114 146 183 227 272 323
#
# _framework density 18.329584000000001
#
# number of rings (size 3 to 8) (size 9 to 14) (size 15 to 20)
#    0.000    2.000    0.000    4.000    0.000    8.000 
#    0.000    5.000    0.000    0.000    0.000    0.000 
#    0.000    0.000    0.000    0.000    0.000    0.000 
#
# Total GULP energy -268116.074636 kJ/mol
# GULP energy per Si atom -5585.751555 kJ/mol
# Density = 1.828786 g / cm^3
# Si number density = 18.329584 Si / 1000 Ang^3
#
#
#
# Elastic Constant Matrix: (Units=GPa)
#
#
# Indices 1 2 3 4 5 6 
#
# 1 38.4854 42.4877 42.1398 0.0000 0.0000 0.0000
# 2 42.4877 135.8580 112.6952 0.0000 0.0000 0.0000
# 3 42.1398 112.6952 150.7938 0.0000 0.0000 0.0000
# 4 0.0000 0.0000 0.0000 38.4459 0.0000 0.0000
# 5 0.0000 0.0000 0.0000 0.0000 35.9593 0.0000
# 6 0.0000 0.0000 0.0000 0.0000 0.0000 35.9547
#
#
#
# Elastic Compliance Matrix: (Units=1/GPa)
#
#
# Indices 1 2 3 4 5 6 
#
# 1 0.041037 -0.008738 -0.004938 0.000000 0.000000 0.000000
# 2 -0.008738 0.021227 -0.013422 0.000000 0.000000 0.000000
# 3 -0.004938 -0.013422 0.018042 0.000000 0.000000 0.000000
# 4 0.000000 0.000000 0.000000 0.026011 0.000000 0.000000
# 5 0.000000 0.000000 0.000000 0.000000 0.027809 0.000000
# 6 0.000000 0.000000 0.000000 0.000000 0.000000 0.027813
#
#
# Mechanical properties :
#
#
# Convention : Reuss Voigt Hill
#
# Bulk Modulus (GPa) = 38.29792 79.97584 59.13688
# Shear Modulus (GPa) = 22.23822 30.59294 26.41558
#
# Velocity S-wave (km/s) = 3.48694 4.08983 3.80036
# Velocity P-wave (km/s) = 6.09517 8.12583 7.18262
#
# Compressibility (1/GPa) = 0.02611108
#
# Stress axis : x y z
#
# Youngs Moduli (GPa) = 24.36818 47.10984 55.42523
#
# Poissons Ratio (x) = 0.41164 0.27367
# Poissons Ratio (y) = 0.21293 0.74392
# Poissons Ratio (z) = 0.12032 0.63231
#
# Static dielectric constant tensor:
#      x y z
#    x 1.618880 0.000000 0.000000 
#    y 0.000000 1.637430 0.000000 
#    z 0.000000 0.000000 1.586870 
# 
# From -- ./inp_files/6596.got.cif
#   From: 2010.05.17/outbox.cif.g08.bks.cpg/sg53_4_cif.got.tgz:6596.got - 2010.06.03 12:45:16.
