data_PCOD9417703
_publ_section_title
;
Structure prediction by ZEFSAII (Michael W. Deem and Ramdas Pophale) SiO2 
 PCOD9417703
Probable space group: P M N A
;
_chemical_formula_sum "Si O2"
_cell_formula_units_Z 60
_cell_length_a 17.852176
_cell_length_b 13.720929
_cell_length_c 12.491154
_cell_angle_alpha 90.000000
_cell_angle_beta 90.000000
_cell_angle_gamma 90.000000
_cell_volume 3059.688678
_symmetry_space_group_name_H-M "P M N A"
_symmetry_group_IT_number 53
_symmetry_cell_setting 'orthorhombic'
loop_
_space_group_symop_operation_xyz
x,y,z
1/2-x,-y,1/2+z
x,-y,-z
1/2-x,y,1/2-z
-x,-y,-z
1/2+x,y,1/2-z
-x,y,z
1/2+x,-y,1/2+z
loop_
_atom_site_type_symbol
_atom_site_label
_atom_site_fract_x
_atom_site_fract_y
_atom_site_fract_z
Si Si1 0.914512 0.444309 0.613109
Si Si2 0.249332 0.869410 0.079162
Si Si3 0.916376 0.116429 0.513355
Si Si4 0.161191 0.593497 0.777810
Si Si5 0.804132 0.926156 0.844863
Si Si6 0.815935 0.500000 0.000000
Si Si7 0.729410 0.342575 0.867539
Si Si8 0.587792 0.801254 0.773126
O O1 0.912131 0.500000 0.500000
O O2 0.881340 0.521086 0.697386
O O3 0.859478 0.351448 0.614335
O O4 0.000000 0.418573 0.636752
O O5 0.233582 0.762545 0.121335
O O6 0.209562 0.958363 0.140150
O O7 0.340018 0.874821 0.081220
O O8 0.221949 0.880326 0.956788
O O9 0.901729 0.166682 0.397441
O O10 0.000000 0.149231 0.550703
O O11 0.921798 0.000000 0.500000
O O12 0.250000 0.594056 0.750000
O O13 0.131262 0.702747 0.758116
O O14 0.145685 0.551150 0.897300
O O15 0.750000 0.892019 0.750000
O O16 0.883704 0.888180 0.804215
O O17 0.764786 0.415284 0.952023
O O18 0.750000 0.378601 0.750000
O O19 0.500000 0.784112 0.758846
#
# Coordination Sequence:
#
# PCOD9417703 Si02
#       8
#     8   8   8   8   8   4   8   8
#     4  11  23  40  62  92 132 169 209 268 337 392
#     4  11  23  36  63  94 122 164 222 257 324 387
#     4  10  20  36  58  91 132 163 199 266 334 387
#     4  12  23  41  68  99 131 170 227 277 328 394
#     4  11  20  40  62  93 123 165 212 268 311 380
#     4  12  22  42  68  92 124 174 224 272 322 374
#     4  12  23  41  62  92 127 167 213 267 321 382
#     4  11  24  39  63  96 129 168 215 268 333 396
#
# _framework density 19.609839000000001
#
# number of rings (size 3 to 8) (size 9 to 14) (size 15 to 20)
#    0.000    0.800    6.000    2.000    3.733    0.533 
#    0.000    2.667    0.000    2.400    0.000    0.000 
#    0.000    0.000    0.000    0.000    0.000    0.000 
#
# Total GULP energy -334921.872716 kJ/mol
# GULP energy per Si atom -5582.031212 kJ/mol
# Density = 1.956521 g / cm^3
# Si number density = 19.609839 Si / 1000 Ang^3
#
#
#
# Elastic Constant Matrix: (Units=GPa)
#
#
# Indices 1 2 3 4 5 6 
#
# 1 52.2460 41.4824 7.8224 0.0000 0.0000 0.0000
# 2 41.4824 124.9012 35.0767 0.0000 0.0000 0.0000
# 3 7.8224 35.0767 89.5805 0.0000 0.0000 0.0000
# 4 0.0000 0.0000 0.0000 21.6355 0.0000 0.0000
# 5 0.0000 0.0000 0.0000 0.0000 -32.8855 0.0000
# 6 0.0000 0.0000 0.0000 0.0000 0.0000 36.5341
#
#
#
# Elastic Compliance Matrix: (Units=1/GPa)
#
#
# Indices 1 2 3 4 5 6 
#
# 1 0.026120 -0.009027 0.001254 0.000000 0.000000 0.000000
# 2 -0.009027 0.012115 -0.003956 0.000000 0.000000 0.000000
# 3 0.001254 -0.003956 0.012603 0.000000 0.000000 0.000000
# 4 0.000000 0.000000 0.000000 0.046220 0.000000 0.000000
# 5 0.000000 0.000000 0.000000 0.000000 -0.030409 0.000000
# 6 0.000000 0.000000 0.000000 0.000000 0.000000 0.027372
#
#
# Mechanical properties :
#
#
# Convention : Reuss Voigt Hill
#
# Bulk Modulus (GPa) = 36.52316 48.38787 42.45552
# Shear Modulus (GPa) = 39.49271 17.21324 28.35297
#
# Velocity S-wave (km/s) = 4.49254 2.96596 3.80656
# Velocity P-wave (km/s) = 6.75100 6.03805 6.40445
#
# Compressibility (1/GPa) = 0.02737988
#
# Stress axis : x y z
#
# Youngs Moduli (GPa) = 38.28506 82.54012 79.34891
#
# Poissons Ratio (x) = 0.74510 -0.09949
# Poissons Ratio (y) = 0.34560 0.31388
# Poissons Ratio (z) = -0.04800 0.32650
#
# Static dielectric constant tensor:
#      x y z
#    x 1.711590 0.000000 0.000000 
#    y 0.000000 1.711360 0.000000 
#    z 0.000000 0.000000 1.626240 
# 
# From -- ./inp_files/17035.got.cif
#   From: 2010.05.17/outbox.cif.g08.bks.cpg/sg53_9_cif.got.tgz:17035.got - 2010.06.03 12:45:16.
