data_PCOD9417051
_publ_section_title
;
Structure prediction by ZEFSAII (Michael W. Deem and Ramdas Pophale) SiO2 
 PCOD9417051
Probable space group: P M N A
;
_chemical_formula_sum "Si O2"
_cell_formula_units_Z 64
_cell_length_a 9.129189
_cell_length_b 17.795467
_cell_length_c 20.276469
_cell_angle_alpha 90.000000
_cell_angle_beta 90.000000
_cell_angle_gamma 90.000000
_cell_volume 3294.078283
_symmetry_space_group_name_H-M "P M N A"
_symmetry_group_IT_number 53
_symmetry_cell_setting 'orthorhombic'
loop_
_space_group_symop_operation_xyz
x,y,z
1/2-x,-y,1/2+z
x,-y,-z
1/2-x,y,1/2-z
-x,-y,-z
1/2+x,y,1/2-z
-x,y,z
1/2+x,-y,1/2+z
loop_
_atom_site_type_symbol
_atom_site_label
_atom_site_fract_x
_atom_site_fract_y
_atom_site_fract_z
Si Si1 0.831992 0.762449 0.684631
Si Si2 0.666752 0.933167 0.552166
Si Si3 0.329358 0.478719 0.076861
Si Si4 0.673929 0.234462 0.681931
Si Si5 0.325948 0.414547 0.681009
Si Si6 0.175234 0.680426 0.931971
Si Si7 0.166099 0.944088 0.684881
Si Si8 0.321876 0.203291 0.537671
O O1 0.750000 0.734427 0.750000
O O2 0.737821 0.737045 0.622515
O O3 0.836383 0.852863 0.688077
O O4 0.000000 0.735668 0.680564
O O5 0.500000 0.913732 0.573174
O O6 0.753640 0.959170 0.616252
O O7 0.729774 0.862087 0.511786
O O8 0.660600 0.000000 0.500000
O O9 0.500000 0.473627 0.096219
O O10 0.247943 0.539626 0.121996
O O11 0.250086 0.398709 0.081789
O O12 0.322224 0.500000 0.000000
O O13 0.750000 0.210912 0.750000
O O14 0.500000 0.220969 0.687647
O O15 0.694927 0.324599 0.673793
O O16 0.728575 0.198426 0.613239
O O17 0.250000 0.436574 0.750000
O O18 0.500000 0.428810 0.682978
O O19 0.000000 0.674626 0.927583
O O20 0.212327 0.717164 0.003013
O O21 0.250000 0.971327 0.750000
O O22 0.000000 0.971554 0.684684
O O23 0.500000 0.197333 0.539627
#
# Coordination Sequence:
#
# PCOD9417051 Si02
#       8
#     8   8   8   8   8   8   8   8
#     4  10  20  34  53  80 111 143 180 226 276 328
#     4  10  20  36  59  86 118 156 194 235 285 341
#     4  11  24  39  54  77 111 146 183 231 283 337
#     4   9  18  34  56  81 107 138 179 227 275 330
#     4  10  20  36  58  81 108 143 186 230 280 339
#     4  11  21  35  57  80 106 143 186 234 280 334
#     4  10  20  35  58  84 115 151 190 233 276 333
#     4   9  18  34  56  81 110 143 183 228 277 333
#
# _framework density 19.428804
#
# number of rings (size 3 to 8) (size 9 to 14) (size 15 to 20)
#    0.000    2.000    1.250    2.625    0.000    4.250 
#    0.000    5.000    0.000    1.500    0.000    0.000 
#    0.000    0.000    0.000    0.000    0.000    0.000 
#
# Total GULP energy -357233.848159 kJ/mol
# GULP energy per Si atom -5581.778877 kJ/mol
# Density = 1.938458 g / cm^3
# Si number density = 19.428804 Si / 1000 Ang^3
#
#
#
# Elastic Constant Matrix: (Units=GPa)
#
#
# Indices 1 2 3 4 5 6 
#
# 1 90.7251 8.9779 52.8686 0.0000 0.0000 0.0000
# 2 8.9779 10.4500 0.9705 0.0000 0.0000 0.0000
# 3 52.8686 0.9705 148.5395 0.0000 0.0000 0.0000
# 4 0.0000 0.0000 0.0000 15.1477 0.0000 0.0000
# 5 0.0000 0.0000 0.0000 0.0000 32.7970 0.0000
# 6 0.0000 0.0000 0.0000 0.0000 0.0000 13.9903
#
#
#
# Elastic Compliance Matrix: (Units=1/GPa)
#
#
# Indices 1 2 3 4 5 6 
#
# 1 0.015439 -0.012761 -0.005412 0.000000 0.000000 0.000000
# 2 -0.012761 0.106300 0.003847 0.000000 0.000000 0.000000
# 3 -0.005412 0.003847 0.008633 0.000000 0.000000 0.000000
# 4 0.000000 0.000000 0.000000 0.066016 0.000000 0.000000
# 5 0.000000 0.000000 0.000000 0.000000 0.030491 0.000000
# 6 0.000000 0.000000 0.000000 0.000000 0.000000 0.071478
#
#
# Mechanical properties :
#
#
# Convention : Reuss Voigt Hill
#
# Bulk Modulus (GPa) = 9.83083 41.70540 25.76812
# Shear Modulus (GPa) = 13.85373 24.84686 19.35029
#
# Velocity S-wave (km/s) = 2.67320 3.58000 3.15931
# Velocity P-wave (km/s) = 3.82085 6.21297 5.15751
#
# Compressibility (1/GPa) = 0.10172083
#
# Stress axis : x y z
#
# Youngs Moduli (GPa) = 64.77259 9.40738 115.83210
#
# Poissons Ratio (x) = 0.12005 0.62684
# Poissons Ratio (y) = 0.82657 -0.44566
# Poissons Ratio (z) = 0.35052 -0.03619
#
# Static dielectric constant tensor:
#      x y z
#    x 1.665000 0.000000 0.000000 
#    y 0.000000 1.694660 0.000000 
#    z 0.000000 0.000000 1.672190 
# 
# From -- ./inp_files/26878.got.cif
#   From: 2010.05.17/outbox.cif.g08.bks.cpg/sg53_14_cif.got.tgz:26878.got - 2010.06.03 12:45:16.
