data_PCOD9417746
_publ_section_title
;
Structure prediction by ZEFSAII (Michael W. Deem and Ramdas Pophale) SiO2 
 PCOD9417746
Probable space group: P M N A
;
_chemical_formula_sum "Si O2"
_cell_formula_units_Z 48
_cell_length_a 9.400210
_cell_length_b 29.297313
_cell_length_c 9.395094
_cell_angle_alpha 90.000000
_cell_angle_beta 90.000000
_cell_angle_gamma 90.000000
_cell_volume 2587.417293
_symmetry_space_group_name_H-M "P M N A"
_symmetry_group_IT_number 53
_symmetry_cell_setting 'orthorhombic'
loop_
_space_group_symop_operation_xyz
x,y,z
1/2-x,-y,1/2+z
x,-y,-z
1/2-x,y,1/2-z
-x,-y,-z
1/2+x,y,1/2-z
-x,y,z
1/2+x,-y,1/2+z
loop_
_atom_site_type_symbol
_atom_site_label
_atom_site_fract_x
_atom_site_fract_y
_atom_site_fract_z
Si Si1 0.500000 0.451915 0.421704
Si Si2 0.332184 0.297060 0.897599
Si Si3 0.829778 0.787825 0.607474
Si Si4 0.751685 0.616397 0.581684
Si Si5 0.500000 0.453627 0.086446
Si Si6 0.674918 0.116236 0.401175
Si Si7 0.668935 0.044259 0.898519
O O1 0.500000 0.500000 0.500000
O O2 0.624645 0.417039 0.453686
O O3 0.500000 0.463733 0.254328
O O4 0.250000 0.293390 0.750000
O O5 0.500000 0.305908 0.875054
O O6 0.319987 0.250410 0.987127
O O7 0.268180 0.338427 0.989924
O O8 0.750000 0.770577 0.750000
O O9 0.740472 0.833385 0.570252
O O10 0.000000 0.797509 0.632230
O O11 0.750000 0.628592 0.750000
O O12 0.874233 0.580431 0.554547
O O13 0.500000 0.500000 0.000000
O O14 0.750000 0.103085 0.250000
O O15 0.500000 0.115498 0.394580
O O16 0.740494 0.083097 0.520122
O O17 0.750000 0.035118 0.750000
O O18 0.500000 0.056086 0.877999
O O19 0.672509 0.000000 0.000000
#
# Coordination Sequence:
#
# PCOD9417746 Si02
#       7
#     4   8   8   8   4   8   8
#     4  10  22  36  58  90 114 148 194 234 287 348
#     4  11  25  41  60  88 120 154 195 246 300 353
#     4  10  21  40  64  91 122 159 203 250 302 365
#     4  10  21  40  60  85 115 153 195 235 289 348
#     4  10  20  36  60  82 118 154 186 238 283 342
#     4  11  22  39  64  94 127 165 210 258 310 369
#     4  11  24  41  63  92 127 169 215 264 318 374
#
# _framework density 18.551317999999998
#
# number of rings (size 3 to 8) (size 9 to 14) (size 15 to 20)
#    0.000    1.500    0.833    5.000    1.167    6.000 
#    0.000    1.667    0.000    0.000    0.000    0.000 
#    0.000    0.000    0.000    0.000    0.000    0.000 
#
# Total GULP energy -267585.433356 kJ/mol
# GULP energy per Si atom -5574.696528 kJ/mol
# Density = 1.850909 g / cm^3
# Si number density = 18.551318 Si / 1000 Ang^3
#
#
#
# Elastic Constant Matrix: (Units=GPa)
#
#
# Indices 1 2 3 4 5 6 
#
# 1 201.7819 63.1140 74.9070 0.0000 0.0000 0.0000
# 2 63.1140 83.6213 75.8624 0.0000 0.0000 0.0000
# 3 74.9070 75.8624 112.6561 0.0000 0.0000 0.0000
# 4 0.0000 0.0000 0.0000 41.5591 0.0000 0.0000
# 5 0.0000 0.0000 0.0000 0.0000 30.4500 0.0000
# 6 0.0000 0.0000 0.0000 0.0000 0.0000 29.6995
#
#
#
# Elastic Compliance Matrix: (Units=1/GPa)
#
#
# Indices 1 2 3 4 5 6 
#
# 1 0.006801 -0.002649 -0.002738 0.000000 0.000000 0.000000
# 2 -0.002649 0.031767 -0.019631 0.000000 0.000000 0.000000
# 3 -0.002738 -0.019631 0.023917 0.000000 0.000000 0.000000
# 4 0.000000 0.000000 0.000000 0.024062 0.000000 0.000000
# 5 0.000000 0.000000 0.000000 0.000000 0.032841 0.000000
# 6 0.000000 0.000000 0.000000 0.000000 0.000000 0.033671
#
#
# Mechanical properties :
#
#
# Convention : Reuss Voigt Hill
#
# Bulk Modulus (GPa) = 80.32787 91.75846 86.04317
# Shear Modulus (GPa) = 24.12621 32.62011 28.37316
#
# Velocity S-wave (km/s) = 3.61017 4.19784 3.91505
# Velocity P-wave (km/s) = 7.79565 8.54782 8.18038
#
# Compressibility (1/GPa) = 0.01244898
#
# Stress axis : x y z
#
# Youngs Moduli (GPa) = 147.03963 31.47909 41.81188
#
# Poissons Ratio (x) = 0.08338 0.11450
# Poissons Ratio (y) = 0.38947 0.82080
# Poissons Ratio (z) = 0.40265 0.61796
#
# Static dielectric constant tensor:
#      x y z
#    x 1.623040 0.000000 0.000000 
#    y 0.000000 1.599250 0.000000 
#    z 0.000000 0.000000 1.634050 
# 
# From -- ./inp_files/6858.got.cif
#   From: 2010.05.17/outbox.cif.g08.bks.cpg/sg53_4_cif.got.tgz:6858.got - 2010.06.03 12:45:16.
