data_PCOD9417213
_publ_section_title
;
Structure prediction by ZEFSAII (Michael W. Deem and Ramdas Pophale) SiO2 
 PCOD9417213
Probable space group: P M N A
;
_chemical_formula_sum "Si O2"
_cell_formula_units_Z 32
_cell_length_a 15.108165
_cell_length_b 7.636374
_cell_length_c 13.743629
_cell_angle_alpha 90.000000
_cell_angle_beta 90.000000
_cell_angle_gamma 90.000000
_cell_volume 1585.624445
_symmetry_space_group_name_H-M "P M N A"
_symmetry_group_IT_number 53
_symmetry_cell_setting 'orthorhombic'
loop_
_space_group_symop_operation_xyz
x,y,z
1/2-x,-y,1/2+z
x,-y,-z
1/2-x,y,1/2-z
-x,-y,-z
1/2+x,y,1/2-z
-x,y,z
1/2+x,-y,1/2+z
loop_
_atom_site_type_symbol
_atom_site_label
_atom_site_fract_x
_atom_site_fract_y
_atom_site_fract_z
Si Si1 0.394639 0.422139 0.607651
Si Si2 0.897261 0.237121 0.219596
Si Si3 0.403971 0.006915 0.883867
Si Si4 0.210623 0.934706 0.111629
O O1 0.375776 0.500000 0.500000
O O2 0.500000 0.391511 0.613321
O O3 0.370187 0.569999 0.686835
O O4 0.344697 0.241211 0.620691
O O5 0.896069 0.184055 0.333081
O O6 0.000000 0.216297 0.186218
O O7 0.836076 0.092884 0.168720
O O8 0.500000 0.079393 0.850017
O O9 0.312295 0.099653 0.857323
O O10 0.407082 0.000000 0.000000
O O11 0.212336 0.000000 0.000000
#
# Coordination Sequence:
#
# PCOD9417213 Si02
#       4
#     8   8   8   8
#     4  10  20  34  57  94 129 155 188 241 317 393
#     4  10  20  36  60  89 123 157 194 249 314 372
#     4   9  20  39  61  82 112 163 219 259 295 351
#     4  11  20  34  61  90 123 160 200 249 314 378
#
# _framework density 20.181322999999999
#
# number of rings (size 3 to 8) (size 9 to 14) (size 15 to 20)
#    0.000    2.000    2.500    1.500    0.000    1.000 
#    0.000    5.000    0.000    5.250    0.000    0.000 
#    0.000    0.000    0.000    0.000    0.000    0.000 
#
# Total GULP energy -178480.703989 kJ/mol
# GULP energy per Si atom -5577.522000 kJ/mol
# Density = 2.013539 g / cm^3
# Si number density = 20.181323 Si / 1000 Ang^3
#
#
#
# Elastic Constant Matrix: (Units=GPa)
#
#
# Indices 1 2 3 4 5 6 
#
# 1 120.2450 77.5990 17.5304 0.0000 0.0000 0.0000
# 2 77.5990 136.9944 37.4973 0.0000 0.0000 0.0000
# 3 17.5304 37.4973 86.3540 0.0000 0.0000 0.0000
# 4 0.0000 0.0000 0.0000 30.1993 0.0000 0.0000
# 5 0.0000 0.0000 0.0000 0.0000 18.6985 0.0000
# 6 0.0000 0.0000 0.0000 0.0000 0.0000 -4.7772
#
#
#
# Elastic Compliance Matrix: (Units=1/GPa)
#
#
# Indices 1 2 3 4 5 6 
#
# 1 0.013139 -0.007618 0.000641 0.000000 0.000000 0.000000
# 2 -0.007618 0.012701 -0.003969 0.000000 0.000000 0.000000
# 3 0.000641 -0.003969 0.013173 0.000000 0.000000 0.000000
# 4 0.000000 0.000000 0.000000 0.033113 0.000000 0.000000
# 5 0.000000 0.000000 0.000000 0.000000 0.053480 0.000000
# 6 0.000000 0.000000 0.000000 0.000000 0.000000 -0.209328
#
#
# Mechanical properties :
#
#
# Convention : Reuss Voigt Hill
#
# Bulk Modulus (GPa) = 58.40549 67.64964 63.02756
# Shear Modulus (GPa) = -89.09184 22.88859 -33.10163
#
# Velocity S-wave (km/s) = -6.65143 3.37136 -4.05435
# Velocity P-wave (km/s) = 5.47590 6.98201 3.06292
#
# Compressibility (1/GPa) = 0.01712168
#
# Stress axis : x y z
#
# Youngs Moduli (GPa) = 76.10912 78.73499 75.91013
#
# Poissons Ratio (x) = 0.59979 -0.04862
# Poissons Ratio (y) = 0.57978 0.30126
# Poissons Ratio (z) = -0.04875 0.31247
#
# Static dielectric constant tensor:
#      x y z
#    x 1.762790 0.000000 0.000000 
#    y 0.000000 1.648350 0.000000 
#    z 0.000000 0.000000 1.769090 
# 
# From -- ./inp_files/23157.got.cif
#   From: 2010.05.17/outbox.cif.g08.bks.cpg/sg53_12_cif.got.tgz:23157.got - 2010.06.03 12:45:16.
