data_PCOD9417900
_publ_section_title
;
Structure prediction by ZEFSAII (Michael W. Deem and Ramdas Pophale) SiO2 
 PCOD9417900
Probable space group: P M N A
;
_chemical_formula_sum "Si O2"
_cell_formula_units_Z 48
_cell_length_a 8.486292
_cell_length_b 10.126542
_cell_length_c 29.974114
_cell_angle_alpha 90.000000
_cell_angle_beta 90.000000
_cell_angle_gamma 90.000000
_cell_volume 2575.879211
_symmetry_space_group_name_H-M "P M N A"
_symmetry_group_IT_number 53
_symmetry_cell_setting 'orthorhombic'
loop_
_space_group_symop_operation_xyz
x,y,z
1/2-x,-y,1/2+z
x,-y,-z
1/2-x,y,1/2-z
-x,-y,-z
1/2+x,y,1/2-z
-x,y,z
1/2+x,-y,1/2+z
loop_
_atom_site_type_symbol
_atom_site_label
_atom_site_fract_x
_atom_site_fract_y
_atom_site_fract_z
Si Si1 0.687393 0.204421 0.877062
Si Si2 0.189249 0.988534 0.199940
Si Si3 0.310184 0.709881 0.700549
Si Si4 0.815923 0.623228 0.966757
Si Si5 0.190660 0.864264 0.025144
Si Si6 0.308165 0.503878 0.625498
O O1 0.500000 0.205307 0.875836
O O2 0.750017 0.112695 0.837059
O O3 0.743575 0.149827 0.925108
O O4 0.749045 0.354343 0.872023
O O5 0.250000 0.959096 0.250000
O O6 0.000000 0.984441 0.200466
O O7 0.239581 0.139867 0.188871
O O8 0.250000 0.681687 0.750000
O O9 0.500000 0.709863 0.700663
O O10 0.258753 0.597463 0.666217
O O11 0.749924 0.574705 0.919799
O O12 0.000000 0.656961 0.958009
O O13 0.812110 0.500000 0.000000
O O14 0.747728 0.746713 0.993390
O O15 0.000000 0.852226 0.028999
O O16 0.226116 0.000000 0.000000
O O17 0.500000 0.498288 0.624051
#
# Coordination Sequence:
#
# PCOD9417900 Si02
#       6
#     8   8   8   8   8   8
#     4  12  25  39  56  84 123 161 197 238 289 345
#     4  10  21  40  64  89 117 151 194 241 295 351
#     4   9  20  37  62  89 116 146 186 238 290 348
#     4   9  16  31  57  84 110 142 187 239 287 336
#     4  10  21  37  61  87 113 150 197 245 292 347
#     4  10  20  37  60  86 114 150 196 243 289 342
#
# _framework density 18.634414
#
# number of rings (size 3 to 8) (size 9 to 14) (size 15 to 20)
#    0.000    2.000    1.667    2.000    2.333    2.333 
#    0.000    3.333    0.000    0.000    0.000    0.000 
#    0.000    0.000    0.000    0.000    0.000    0.000 
#
# Total GULP energy -267893.833855 kJ/mol
# GULP energy per Si atom -5581.121539 kJ/mol
# Density = 1.859200 g / cm^3
# Si number density = 18.634414 Si / 1000 Ang^3
#
#
#
# Elastic Constant Matrix: (Units=GPa)
#
#
# Indices 1 2 3 4 5 6 
#
# 1 41.4068 50.5032 45.9337 0.0000 0.0000 0.0000
# 2 50.5032 126.5612 113.7877 0.0000 0.0000 0.0000
# 3 45.9337 113.7877 175.2423 0.0000 0.0000 0.0000
# 4 0.0000 0.0000 0.0000 34.6488 0.0000 0.0000
# 5 0.0000 0.0000 0.0000 0.0000 25.5838 0.0000
# 6 0.0000 0.0000 0.0000 0.0000 0.0000 1.3927
#
#
#
# Elastic Compliance Matrix: (Units=1/GPa)
#
#
# Indices 1 2 3 4 5 6 
#
# 1 0.047059 -0.018472 -0.000340 0.000000 0.000000 0.000000
# 2 -0.018472 0.026235 -0.012193 0.000000 0.000000 0.000000
# 3 -0.000340 -0.012193 0.013713 0.000000 0.000000 0.000000
# 4 0.000000 0.000000 0.000000 0.028861 0.000000 0.000000
# 5 0.000000 0.000000 0.000000 0.000000 0.039087 0.000000
# 6 0.000000 0.000000 0.000000 0.000000 0.000000 0.718008
#
#
# Mechanical properties :
#
#
# Convention : Reuss Voigt Hill
#
# Bulk Modulus (GPa) = 40.00809 84.85107 62.42958
# Shear Modulus (GPa) = 5.30051 21.19078 13.24565
#
# Velocity S-wave (km/s) = 1.68839 3.37588 2.66901
# Velocity P-wave (km/s) = 5.03165 7.79929 6.56301
#
# Compressibility (1/GPa) = 0.02499494
#
# Stress axis : x y z
#
# Youngs Moduli (GPa) = 21.25012 38.11747 72.92574
#
# Poissons Ratio (x) = 0.70412 0.02483
# Poissons Ratio (y) = 0.39254 0.88917
# Poissons Ratio (z) = 0.00723 0.46476
#
# Static dielectric constant tensor:
#      x y z
#    x 1.649970 0.000000 0.000000 
#    y 0.000000 1.641930 0.000000 
#    z 0.000000 0.000000 1.627980 
# 
# From -- ./inp_files/37757.got.cif
#   From: 2010.05.17/outbox.cif.g08.bks.cpg/sg53_19_cif.got.tgz:37757.got - 2010.06.03 12:45:16.
