data_PCOD9417284
_publ_section_title
;
Structure prediction by ZEFSAII (Michael W. Deem and Ramdas Pophale) SiO2 
 PCOD9417284
Probable space group: P M N A
;
_chemical_formula_sum "Si O2"
_cell_formula_units_Z 48
_cell_length_a 8.655515
_cell_length_b 31.758775
_cell_length_c 9.406209
_cell_angle_alpha 90.000000
_cell_angle_beta 90.000000
_cell_angle_gamma 90.000000
_cell_volume 2585.659185
_symmetry_space_group_name_H-M "P M N A"
_symmetry_group_IT_number 53
_symmetry_cell_setting 'orthorhombic'
loop_
_space_group_symop_operation_xyz
x,y,z
1/2-x,-y,1/2+z
x,-y,-z
1/2-x,y,1/2-z
-x,-y,-z
1/2+x,y,1/2-z
-x,y,z
1/2+x,-y,1/2+z
loop_
_atom_site_type_symbol
_atom_site_label
_atom_site_fract_x
_atom_site_fract_y
_atom_site_fract_z
Si Si1 0.313921 0.196168 0.090172
Si Si2 0.814132 0.708426 0.592721
Si Si3 0.185693 0.371170 0.590817
Si Si4 0.314704 0.540890 0.409402
Si Si5 0.815389 0.880310 0.090751
Si Si6 0.314838 0.958029 0.909670
O O1 0.250000 0.189014 0.250000
O O2 0.500000 0.192617 0.092964
O O3 0.270492 0.244100 0.047631
O O4 0.244658 0.162358 0.982790
O O5 0.750000 0.702121 0.750000
O O6 0.762355 0.670169 0.493915
O O7 0.000000 0.707451 0.597466
O O8 0.250000 0.368431 0.750000
O O9 0.248061 0.415340 0.529931
O O10 0.000000 0.372565 0.593762
O O11 0.271121 0.500000 0.500000
O O12 0.250000 0.536533 0.250000
O O13 0.500000 0.543866 0.403859
O O14 0.750000 0.884511 0.250000
O O15 0.000000 0.880496 0.095615
O O16 0.756293 0.918555 0.992892
O O17 0.250000 0.960938 0.750000
O O18 0.500000 0.953301 0.903198
O O19 0.279092 0.000000 0.000000
#
# Coordination Sequence:
#
# PCOD9417284 Si02
#       6
#     8   8   8   8   8   8
#     4  10  20  38  60  84 115 150 190 233 281 334
#     4   9  20  36  56  82 111 144 183 227 273 326
#     4  10  20  35  54  78 107 140 178 220 270 324
#     4  10  21  36  54  77 104 137 177 219 267 322
#     4  12  25  41  61  87 119 154 194 239 287 338
#     4  11  24  42  65  92 122 157 196 238 286 339
#
# _framework density 18.563932000000001
#
# number of rings (size 3 to 8) (size 9 to 14) (size 15 to 20)
#    0.000    1.667    0.000    5.500    0.000    7.333 
#    0.000    5.000    0.000    0.000    0.000    0.000 
#    0.000    0.000    0.000    0.000    0.000    0.000 
#
# Total GULP energy -268190.876252 kJ/mol
# GULP energy per Si atom -5587.309922 kJ/mol
# Density = 1.852168 g / cm^3
# Si number density = 18.563932 Si / 1000 Ang^3
#
#
#
# Elastic Constant Matrix: (Units=GPa)
#
#
# Indices 1 2 3 4 5 6 
#
# 1 79.9308 72.8357 52.7955 0.0000 0.0000 0.0000
# 2 72.8357 190.3296 109.3706 0.0000 0.0000 0.0000
# 3 52.7955 109.3706 123.9975 0.0000 0.0000 0.0000
# 4 0.0000 0.0000 0.0000 40.2751 0.0000 0.0000
# 5 0.0000 0.0000 0.0000 0.0000 29.0497 0.0000
# 6 0.0000 0.0000 0.0000 0.0000 0.0000 64.6123
#
#
#
# Elastic Compliance Matrix: (Units=1/GPa)
#
#
# Indices 1 2 3 4 5 6 
#
# 1 0.019960 -0.005586 -0.003571 0.000000 0.000000 0.000000
# 2 -0.005586 0.012217 -0.008398 0.000000 0.000000 0.000000
# 3 -0.003571 -0.008398 0.016993 0.000000 0.000000 0.000000
# 4 0.000000 0.000000 0.000000 0.024829 0.000000 0.000000
# 5 0.000000 0.000000 0.000000 0.000000 0.034424 0.000000
# 6 0.000000 0.000000 0.000000 0.000000 0.000000 0.015477
#
#
# Mechanical properties :
#
#
# Convention : Reuss Voigt Hill
#
# Bulk Modulus (GPa) = 71.12708 96.02904 83.57806
# Shear Modulus (GPa) = 30.54426 37.40452 33.97439
#
# Velocity S-wave (km/s) = 4.06070 4.49364 4.28264
# Velocity P-wave (km/s) = 7.77068 8.87495 8.34111
#
# Compressibility (1/GPa) = 0.01405934
#
# Stress axis : x y z
#
# Youngs Moduli (GPa) = 50.10024 81.85021 58.84938
#
# Poissons Ratio (x) = 0.45722 0.21018
# Poissons Ratio (y) = 0.27986 0.49421
# Poissons Ratio (z) = 0.17893 0.68736
#
# Static dielectric constant tensor:
#      x y z
#    x 1.623510 0.000000 0.000000 
#    y 0.000000 1.654240 0.000000 
#    z 0.000000 0.000000 1.598030 
# 
# From -- ./inp_files/6609.got.cif
#   From: 2010.05.17/outbox.cif.g08.bks.cpg/sg53_4_cif.got.tgz:6609.got - 2010.06.03 12:45:16.
