data_PCOD9417430
_publ_section_title
;
Structure prediction by ZEFSAII (Michael W. Deem and Ramdas Pophale) SiO2 
 PCOD9417430
Probable space group: P M N A
;
_chemical_formula_sum "Si O2"
_cell_formula_units_Z 64
_cell_length_a 8.495794
_cell_length_b 12.192411
_cell_length_c 32.417345
_cell_angle_alpha 90.000000
_cell_angle_beta 90.000000
_cell_angle_gamma 90.000000
_cell_volume 3357.925144
_symmetry_space_group_name_H-M "P M N A"
_symmetry_group_IT_number 53
_symmetry_cell_setting 'orthorhombic'
loop_
_space_group_symop_operation_xyz
x,y,z
1/2-x,-y,1/2+z
x,-y,-z
1/2-x,y,1/2-z
-x,-y,-z
1/2+x,y,1/2-z
-x,y,z
1/2+x,-y,1/2+z
loop_
_atom_site_type_symbol
_atom_site_label
_atom_site_fract_x
_atom_site_fract_y
_atom_site_fract_z
Si Si1 0.182078 0.854561 0.577273
Si Si2 0.679450 0.870601 0.493545
Si Si3 0.808711 0.510879 0.451340
Si Si4 0.688939 0.323863 0.205067
Si Si5 0.813047 0.347434 0.119196
Si Si6 0.688913 0.934520 0.794519
Si Si7 0.182039 0.249997 0.580909
Si Si8 0.184698 0.945691 0.125940
O O1 0.287572 0.822034 0.538346
O O2 0.220598 0.766345 0.612002
O O3 0.000000 0.851184 0.565567
O O4 0.226548 0.973962 0.593985
O O5 0.500000 0.851192 0.479890
O O6 0.796264 0.820415 0.460715
O O7 0.701569 0.000000 0.500000
O O8 0.762137 0.500000 0.500000
O O9 0.738431 0.423778 0.419080
O O10 0.763180 0.629344 0.432519
O O11 0.000000 0.501477 0.450646
O O12 0.750000 0.361413 0.250000
O O13 0.500000 0.331017 0.203886
O O14 0.761089 0.384254 0.165108
O O15 0.734993 0.194261 0.201761
O O16 0.000000 0.330528 0.118459
O O17 0.750000 0.971106 0.750000
O O18 0.500000 0.939906 0.797231
O O19 0.762760 0.009836 0.829815
O O20 0.272073 0.179422 0.615337
O O21 0.000000 0.256829 0.592754
O O22 0.000000 0.962582 0.120129
#
# Coordination Sequence:
#
# PCOD9417430 Si02
#       8
#     8   8   8   8   8   8   8   8
#     4  12  23  36  55  81 115 154 197 241 291 350
#     4  11  22  35  53  80 114 149 187 238 291 343
#     4  10  23  44  66  88 116 157 209 259 308 364
#     4  10  20  35  58  88 125 161 198 247 300 362
#     4  12  24  38  61  89 121 159 200 248 305 361
#     4  10  20  35  57  86 122 162 197 239 294 359
#     4  11  23  39  61  86 115 155 199 245 295 353
#     4  12  23  36  56  84 120 156 195 243 292 352
#
# _framework density 19.059387999999998
#
# number of rings (size 3 to 8) (size 9 to 14) (size 15 to 20)
#    0.000    1.000    2.500    5.625    0.000    3.750 
#    0.000    0.000    0.000    0.750    0.000    0.000 
#    0.000    0.000    0.000    0.000    0.000    0.000 
#
# Total GULP energy -357495.367795 kJ/mol
# GULP energy per Si atom -5585.865122 kJ/mol
# Density = 1.901601 g / cm^3
# Si number density = 19.059388 Si / 1000 Ang^3
#
#
#
# Elastic Constant Matrix: (Units=GPa)
#
#
# Indices 1 2 3 4 5 6 
#
# 1 41.9598 20.8586 4.8218 0.0000 0.0000 0.0000
# 2 20.8586 68.8249 22.4661 0.0000 0.0000 0.0000
# 3 4.8218 22.4661 120.3232 0.0000 0.0000 0.0000
# 4 0.0000 0.0000 0.0000 28.1855 0.0000 0.0000
# 5 0.0000 0.0000 0.0000 0.0000 -10.7341 0.0000
# 6 0.0000 0.0000 0.0000 0.0000 0.0000 17.6614
#
#
#
# Elastic Compliance Matrix: (Units=1/GPa)
#
#
# Indices 1 2 3 4 5 6 
#
# 1 0.028087 -0.008674 0.000494 0.000000 0.000000 0.000000
# 2 -0.008674 0.018151 -0.003041 0.000000 0.000000 0.000000
# 3 0.000494 -0.003041 0.008859 0.000000 0.000000 0.000000
# 4 0.000000 0.000000 0.000000 0.035479 0.000000 0.000000
# 5 0.000000 0.000000 0.000000 0.000000 -0.093161 0.000000
# 6 0.000000 0.000000 0.000000 0.000000 0.000000 0.056621
#
#
# Mechanical properties :
#
#
# Convention : Reuss Voigt Hill
#
# Bulk Modulus (GPa) = 30.62302 36.37786 33.50044
# Shear Modulus (GPa) = 57.23194 19.21999 38.22596
#
# Velocity S-wave (km/s) = 5.48575 3.17902 4.48328
# Velocity P-wave (km/s) = 7.49844 5.70989 6.66444
#
# Compressibility (1/GPa) = 0.03265517
#
# Stress axis : x y z
#
# Youngs Moduli (GPa) = 35.60327 55.09299 112.87899
#
# Poissons Ratio (x) = 0.47785 -0.05575
# Poissons Ratio (y) = 0.30881 0.34332
# Poissons Ratio (z) = -0.01759 0.16757
#
# Static dielectric constant tensor:
#      x y z
#    x 1.631090 0.000000 0.000000 
#    y 0.000000 1.678840 0.000000 
#    z 0.000000 0.000000 1.692860 
# 
# From -- ./inp_files/38298.got.cif
#   From: 2010.05.17/outbox.cif.g08.bks.cpg/sg53_20_cif.got.tgz:38298.got - 2010.06.03 12:45:16.
