data_PCOD9417194
_publ_section_title
;
Structure prediction by ZEFSAII (Michael W. Deem and Ramdas Pophale) SiO2 
 PCOD9417194
Probable space group: P M N A
;
_chemical_formula_sum "Si O2"
_cell_formula_units_Z 64
_cell_length_a 14.691241
_cell_length_b 13.254371
_cell_length_c 17.579882
_cell_angle_alpha 90.000000
_cell_angle_beta 90.000000
_cell_angle_gamma 90.000000
_cell_volume 3423.210152
_symmetry_space_group_name_H-M "P M N A"
_symmetry_group_IT_number 53
_symmetry_cell_setting 'orthorhombic'
loop_
_space_group_symop_operation_xyz
x,y,z
1/2-x,-y,1/2+z
x,-y,-z
1/2-x,y,1/2-z
-x,-y,-z
1/2+x,y,1/2-z
-x,y,z
1/2+x,-y,1/2+z
loop_
_atom_site_type_symbol
_atom_site_label
_atom_site_fract_x
_atom_site_fract_y
_atom_site_fract_z
Si Si1 0.717888 0.568398 0.067627
Si Si2 0.778285 0.076742 0.567672
Si Si3 0.608085 0.023775 0.203363
Si Si4 0.601231 0.132054 0.658403
Si Si5 0.891321 0.745205 0.509386
Si Si6 0.609397 0.752014 0.810822
Si Si7 0.607049 0.531233 0.795813
Si Si8 0.664651 0.345490 0.695400
O O1 0.665320 0.503959 0.131674
O O2 0.795482 0.628166 0.112870
O O3 0.755344 0.500000 0.000000
O O4 0.646167 0.644217 0.029357
O O5 0.833286 0.020288 0.634425
O O6 0.684645 0.120452 0.600853
O O7 0.842404 0.163672 0.533799
O O8 0.758044 0.000000 0.500000
O O9 0.500000 0.025667 0.182374
O O10 0.616714 0.949617 0.274904
O O11 0.638558 0.138906 0.220203
O O12 0.500000 0.114692 0.626265
O O13 0.605268 0.245209 0.692073
O O14 0.868328 0.747788 0.599166
O O15 0.000000 0.752108 0.502322
O O16 0.500000 0.753020 0.804446
O O17 0.637424 0.644983 0.774427
O O18 0.500000 0.533965 0.815864
O O19 0.621393 0.446175 0.731652
O O20 0.750000 0.320685 0.750000
#
# Coordination Sequence:
#
# PCOD9417194 Si02
#       8
#     8   8   8   8   8   8   8   8
#     4  11  21  35  57  87 122 152 192 236 292 356
#     4  12  23  38  60  89 119 152 196 242 296 354
#     4  10  21  37  60  89 122 157 192 241 297 356
#     4  11  24  42  62  83 114 158 205 248 289 336
#     4  11  21  34  56  90 127 154 182 233 300 363
#     4   9  18  34  55  86 123 152 184 228 296 368
#     4  10  20  34  56  86 119 157 194 238 290 347
#     4  10  21  38  58  85 118 152 199 246 290 342
#
# _framework density 18.695900999999999
#
# number of rings (size 3 to 8) (size 9 to 14) (size 15 to 20)
#    0.000    1.500    3.750    2.250    1.750    1.250 
#    0.000    5.000    0.000    1.500    0.000    0.000 
#    0.000    0.000    0.000    0.000    0.000    0.000 
#
# Total GULP energy -357258.947827 kJ/mol
# GULP energy per Si atom -5582.171060 kJ/mol
# Density = 1.865335 g / cm^3
# Si number density = 18.695901 Si / 1000 Ang^3
#
#
#
# Elastic Constant Matrix: (Units=GPa)
#
#
# Indices 1 2 3 4 5 6 
#
# 1 40.3564 37.7560 18.3995 0.0000 0.0000 0.0000
# 2 37.7560 146.7048 38.6117 0.0000 0.0000 0.0000
# 3 18.3995 38.6117 53.5817 0.0000 0.0000 0.0000
# 4 0.0000 0.0000 0.0000 28.2754 0.0000 0.0000
# 5 0.0000 0.0000 0.0000 0.0000 18.6687 0.0000
# 6 0.0000 0.0000 0.0000 0.0000 0.0000 36.1909
#
#
#
# Elastic Compliance Matrix: (Units=1/GPa)
#
#
# Indices 1 2 3 4 5 6 
#
# 1 0.034494 -0.007108 -0.006723 0.000000 0.000000 0.000000
# 2 -0.007108 0.009877 -0.004676 0.000000 0.000000 0.000000
# 3 -0.006723 -0.004676 0.024341 0.000000 0.000000 0.000000
# 4 0.000000 0.000000 0.000000 0.035366 0.000000 0.000000
# 5 0.000000 0.000000 0.000000 0.000000 0.053565 0.000000
# 6 0.000000 0.000000 0.000000 0.000000 0.000000 0.027631
#
#
# Mechanical properties :
#
#
# Convention : Reuss Voigt Hill
#
# Bulk Modulus (GPa) = 31.54791 47.79749 39.67270
# Shear Modulus (GPa) = 21.47250 26.35207 23.91228
#
# Velocity S-wave (km/s) = 3.39265 3.75842 3.58021
# Velocity P-wave (km/s) = 5.67958 6.66750 6.19327
#
# Compressibility (1/GPa) = 0.03169782
#
# Stress axis : x y z
#
# Youngs Moduli (GPa) = 28.99021 101.25034 41.08211
#
# Poissons Ratio (x) = 0.71969 0.27619
# Poissons Ratio (y) = 0.20606 0.19211
# Poissons Ratio (z) = 0.19490 0.47348
#
# Static dielectric constant tensor:
#      x y z
#    x 1.643870 0.000000 0.000000 
#    y 0.000000 1.690520 0.000000 
#    z 0.000000 0.000000 1.614200 
# 
# From -- ./inp_files/28527.got.cif
#   From: 2010.05.17/outbox.cif.g08.bks.cpg/sg53_15_cif.got.tgz:28527.got - 2010.06.03 12:45:16.
