data_PCOD9417216
_publ_section_title
;
Structure prediction by ZEFSAII (Michael W. Deem and Ramdas Pophale) SiO2 
 PCOD9417216
Probable space group: P M N A
;
_chemical_formula_sum "Si O2"
_cell_formula_units_Z 44
_cell_length_a 9.158895
_cell_length_b 19.117283
_cell_length_c 13.717526
_cell_angle_alpha 90.000000
_cell_angle_beta 90.000000
_cell_angle_gamma 90.000000
_cell_volume 2401.845354
_symmetry_space_group_name_H-M "P M N A"
_symmetry_group_IT_number 53
_symmetry_cell_setting 'orthorhombic'
loop_
_space_group_symop_operation_xyz
x,y,z
1/2-x,-y,1/2+z
x,-y,-z
1/2-x,y,1/2-z
-x,-y,-z
1/2+x,y,1/2-z
-x,y,z
1/2+x,-y,1/2+z
loop_
_atom_site_type_symbol
_atom_site_label
_atom_site_fract_x
_atom_site_fract_y
_atom_site_fract_z
Si Si1 0.671119 0.268811 0.653706
Si Si2 0.250000 0.011309 0.750000
Si Si3 0.664474 0.130398 0.902505
Si Si4 0.677572 0.476635 0.144849
Si Si5 0.324051 0.601137 0.477863
Si Si6 0.655073 0.069493 0.434165
O O1 0.750000 0.296896 0.750000
O O2 0.500000 0.265598 0.672815
O O3 0.730369 0.191552 0.633260
O O4 0.696784 0.321635 0.564832
O O5 0.173794 0.064728 0.672984
O O6 0.330016 0.958898 0.675263
O O7 0.500000 0.156194 0.902307
O O8 0.714941 0.109570 0.011716
O O9 0.750000 0.470626 0.250000
O O10 0.500000 0.479150 0.145593
O O11 0.747425 0.546030 0.095460
O O12 0.740554 0.413867 0.078276
O O13 0.500000 0.588068 0.484822
O O14 0.500000 0.108117 0.445118
O O15 0.646229 0.000000 0.500000
#
# Coordination Sequence:
#
# PCOD9417216 Si02
#       6
#     8   4   8   8   8   8
#     4  11  23  37  57  82 113 149 184 226 280 334
#     4  10  20  34  58  84 108 144 184 224 276 332
#     4  11  22  35  55  82 112 145 184 226 276 335
#     4  11  21  35  58  86 117 153 192 235 281 330
#     4  10  21  37  57  85 117 150 190 237 281 332
#     4   9  19  34  53  77 108 140 177 224 271 322
#
# _framework density 18.319248000000002
#
# number of rings (size 3 to 8) (size 9 to 14) (size 15 to 20)
#    0.000    1.636    0.909    5.455    0.000    9.818 
#    0.000    0.000    2.000    0.000    0.000    0.000 
#    0.000    0.000    0.000    0.000    0.000    0.000 
#
# Total GULP energy -245146.605450 kJ/mol
# GULP energy per Si atom -5571.513760 kJ/mol
# Density = 1.827755 g / cm^3
# Si number density = 18.319248 Si / 1000 Ang^3
#
#
#
# Elastic Constant Matrix: (Units=GPa)
#
#
# Indices 1 2 3 4 5 6 
#
# 1 119.3189 15.7008 50.2343 0.0000 0.0000 0.0000
# 2 15.7008 29.2580 19.8252 0.0000 0.0000 0.0000
# 3 50.2343 19.8252 131.6837 0.0000 0.0000 0.0000
# 4 0.0000 0.0000 0.0000 23.2682 0.0000 0.0000
# 5 0.0000 0.0000 0.0000 0.0000 12.9454 0.0000
# 6 0.0000 0.0000 0.0000 0.0000 0.0000 3.1231
#
#
#
# Elastic Compliance Matrix: (Units=1/GPa)
#
#
# Indices 1 2 3 4 5 6 
#
# 1 0.010242 -0.003172 -0.003430 0.000000 0.000000 0.000000
# 2 -0.003172 0.039044 -0.004668 0.000000 0.000000 0.000000
# 3 -0.003430 -0.004668 0.009605 0.000000 0.000000 0.000000
# 4 0.000000 0.000000 0.000000 0.042977 0.000000 0.000000
# 5 0.000000 0.000000 0.000000 0.000000 0.077247 0.000000
# 6 0.000000 0.000000 0.000000 0.000000 0.000000 0.320194
#
#
# Mechanical properties :
#
#
# Convention : Reuss Voigt Hill
#
# Bulk Modulus (GPa) = 27.50918 50.19789 38.85354
# Shear Modulus (GPa) = 9.36388 20.83404 15.09896
#
# Velocity S-wave (km/s) = 2.26331 3.37601 2.87403
# Velocity P-wave (km/s) = 4.67753 6.53129 5.68054
#
# Compressibility (1/GPa) = 0.03635150
#
# Stress axis : x y z
#
# Youngs Moduli (GPa) = 97.63498 25.61204 104.11229
#
# Poissons Ratio (x) = 0.08125 0.35706
# Poissons Ratio (y) = 0.30974 0.48599
# Poissons Ratio (z) = 0.33484 0.11956
#
# Static dielectric constant tensor:
#      x y z
#    x 1.662920 0.000000 0.000000 
#    y 0.000000 1.618720 0.000000 
#    z 0.000000 0.000000 1.663500 
# 
# From -- ./inp_files/20062.got.cif
#   From: 2010.05.17/outbox.cif.g08.bks.cpg/sg53_11_cif.got.tgz:20062.got - 2010.06.03 12:45:16.
