data_PCOD9417846
_publ_section_title
;
Structure prediction by ZEFSAII (Michael W. Deem and Ramdas Pophale) SiO2 
 PCOD9417846
Probable space group: P M N A
;
_chemical_formula_sum "Si O2"
_cell_formula_units_Z 64
_cell_length_a 10.792922
_cell_length_b 8.824662
_cell_length_c 33.236918
_cell_angle_alpha 90.000000
_cell_angle_beta 90.000000
_cell_angle_gamma 90.000000
_cell_volume 3165.613317
_symmetry_space_group_name_H-M "P M N A"
_symmetry_group_IT_number 53
_symmetry_cell_setting 'orthorhombic'
loop_
_space_group_symop_operation_xyz
x,y,z
1/2-x,-y,1/2+z
x,-y,-z
1/2-x,y,1/2-z
-x,-y,-z
1/2+x,y,1/2-z
-x,y,z
1/2+x,-y,1/2+z
loop_
_atom_site_type_symbol
_atom_site_label
_atom_site_fract_x
_atom_site_fract_y
_atom_site_fract_z
Si Si1 0.140550 0.161245 0.478131
Si Si2 0.779058 0.832041 0.164138
Si Si3 0.861076 0.106463 0.217971
Si Si4 0.638935 0.563801 0.388385
Si Si5 0.859450 0.338755 0.978131
Si Si6 0.638935 0.063801 0.111614
Si Si7 0.861076 0.606463 0.282029
Si Si8 0.720942 0.332041 0.164138
O O1 0.250000 0.250000 0.500000
O O2 0.173299 0.132577 0.431481
O O3 0.000000 0.228770 0.479943
O O4 0.133573 0.000000 0.500000
O O5 0.856578 0.695806 0.145049
O O6 0.669525 0.748168 0.188774
O O7 0.848557 0.949771 0.193122
O O8 0.726450 0.932247 0.127723
O O9 0.750000 0.106492 0.250000
O O10 0.830475 0.248168 0.188774
O O11 0.000000 0.119345 0.234799
O O12 0.500000 0.503613 0.392485
O O13 0.673299 0.632577 0.431481
O O14 0.726450 0.432248 0.372277
O O15 0.000000 0.271230 0.979943
O O16 0.866427 0.500000 0.000000
O O17 0.500000 0.003613 0.107515
O O18 0.643422 0.195806 0.145049
O O19 0.750000 0.606492 0.250000
O O20 0.848557 0.449771 0.306878
O O21 0.000000 0.619345 0.265201
#
# Coordination Sequence:
#
# PCOD9417846 Si02
#       8
#     8   8   8   8   8   8   8   8
#     4  10  21  37  58  86 118 152 191 234 283 338
#     4  10  22  38  59  84 113 147 191 236 281 335
#     4  11  24  40  60  86 115 149 189 234 285 341
#     4  10  20  37  59  82 113 151 189 233 282 333
#     4  10  21  37  58  86 118 152 191 234 283 338
#     4  10  20  37  59  82 113 151 189 233 282 333
#     4  11  24  40  60  86 115 149 189 234 285 341
#     4  10  22  38  59  84 113 147 191 236 281 335
#
# _framework density 20.21725
#
# number of rings (size 3 to 8) (size 9 to 14) (size 15 to 20)
#    0.000    1.750    0.000    3.750    0.000    8.500 
#    0.000    6.250    0.000    0.000    0.000    0.000 
#    0.000    0.000    0.000    0.000    0.000    0.000 
#
# Total GULP energy -357328.242941 kJ/mol
# GULP energy per Si atom -5583.253796 kJ/mol
# Density = 2.017123 g / cm^3
# Si number density = 20.217250 Si / 1000 Ang^3
#
#
#
# Elastic Constant Matrix: (Units=GPa)
#
#
# Indices 1 2 3 4 5 6 
#
# 1 109.8454 24.9052 40.2990 0.0000 0.0000 0.0000
# 2 24.9052 62.9397 2.2395 0.0000 0.0000 0.0000
# 3 40.2990 2.2395 81.6998 0.0000 0.0000 0.0000
# 4 0.0000 0.0000 0.0000 26.4209 0.0000 0.0000
# 5 0.0000 0.0000 0.0000 0.0000 -7.5789 0.0000
# 6 0.0000 0.0000 0.0000 0.0000 0.0000 -24.5190
#
#
#
# Elastic Compliance Matrix: (Units=1/GPa)
#
#
# Indices 1 2 3 4 5 6 
#
# 1 0.012352 -0.004675 -0.005965 0.000000 0.000000 0.000000
# 2 -0.004675 0.017673 0.001822 0.000000 0.000000 0.000000
# 3 -0.005965 0.001822 0.015132 0.000000 0.000000 0.000000
# 4 0.000000 0.000000 0.000000 0.037849 0.000000 0.000000
# 5 0.000000 0.000000 0.000000 0.000000 -0.131945 0.000000
# 6 0.000000 0.000000 0.000000 0.000000 0.000000 -0.040785
#
#
# Mechanical properties :
#
#
# Convention : Reuss Voigt Hill
#
# Bulk Modulus (GPa) = 36.33587 43.26359 39.79973
# Shear Modulus (GPa) = -79.47438 11.33401 -34.07018
#
# Velocity S-wave (km/s) = -6.27659 2.37029 -4.10958
# Velocity P-wave (km/s) = 5.87500 5.37930 1.67015
#
# Compressibility (1/GPa) = 0.02752102
#
# Stress axis : x y z
#
# Youngs Moduli (GPa) = 80.95873 56.58199 66.08498
#
# Poissons Ratio (x) = 0.26455 0.39417
# Poissons Ratio (y) = 0.37852 -0.12039
# Poissons Ratio (z) = 0.48288 -0.10308
#
# Static dielectric constant tensor:
#      x y z
#    x 1.750550 0.000000 0.000000 
#    y 0.000000 1.694690 0.000000 
#    z 0.000000 0.000000 1.725940 
# 
# From -- ./inp_files/38734.got.cif
#   From: 2010.05.17/outbox.cif.g08.bks.cpg/sg53_20_cif.got.tgz:38734.got - 2010.06.03 12:45:16.
