data_PCOD9417635
_publ_section_title
;
Structure prediction by ZEFSAII (Michael W. Deem and Ramdas Pophale) SiO2 
 PCOD9417635
Probable space group: P M N A
;
_chemical_formula_sum "Si O2"
_cell_formula_units_Z 56
_cell_length_a 19.285446
_cell_length_b 9.637550
_cell_length_c 16.550944
_cell_angle_alpha 90.000000
_cell_angle_beta 90.000000
_cell_angle_gamma 90.000000
_cell_volume 3076.232105
_symmetry_space_group_name_H-M "P M N A"
_symmetry_group_IT_number 53
_symmetry_cell_setting 'orthorhombic'
loop_
_space_group_symop_operation_xyz
x,y,z
1/2-x,-y,1/2+z
x,-y,-z
1/2-x,y,1/2-z
-x,-y,-z
1/2+x,y,1/2-z
-x,y,z
1/2+x,-y,1/2+z
loop_
_atom_site_type_symbol
_atom_site_label
_atom_site_fract_x
_atom_site_fract_y
_atom_site_fract_z
Si Si1 0.081574 0.635624 0.057623
Si Si2 0.422009 0.766477 0.998903
Si Si3 0.322957 0.021687 0.283427
Si Si4 0.162800 0.855827 0.952454
Si Si5 0.792227 0.297364 0.828582
Si Si6 0.922176 0.009424 0.633824
Si Si7 0.777885 0.656559 0.492893
O O1 0.137270 0.634186 0.132592
O O2 0.000000 0.648771 0.081392
O O3 0.087455 0.500000 0.000000
O O4 0.106426 0.765297 0.001674
O O5 0.500000 0.708337 0.001073
O O6 0.408853 0.852992 0.081153
O O7 0.358393 0.664936 0.986410
O O8 0.419529 0.882192 0.928843
O O9 0.250000 0.078007 0.250000
O O10 0.310978 0.862569 0.311120
O O11 0.372207 0.015376 0.207108
O O12 0.351815 0.106140 0.359791
O O13 0.232551 0.763378 0.955176
O O14 0.174177 0.000000 0.000000
O O15 0.750000 0.352965 0.750000
O O16 0.737584 0.300107 0.901380
O O17 0.000000 0.020531 0.665405
O O18 0.752155 0.500000 0.500000
#
# Coordination Sequence:
#
# PCOD9417635 Si02
#       7
#     8   8   8   8   8   8   8
#     4  10  22  42  63  85 120 165 202 236 294 364
#     4   9  18  35  57  80 111 153 192 230 290 356
#     4  11  20  32  54  88 115 143 187 247 297 339
#     4  11  21  37  58  86 113 150 195 244 293 349
#     4  10  20  36  57  86 115 147 193 247 291 341
#     4   9  19  33  54  83 113 143 179 234 293 342
#     4  11  22  37  57  81 113 156 192 233 287 351
#
# _framework density 18.204089
#
# number of rings (size 3 to 8) (size 9 to 14) (size 15 to 20)
#    0.000    1.857    2.857    5.143    2.000    1.714 
#    0.000    6.429    0.000    1.714    0.000    0.000 
#    0.000    0.000    0.000    0.000    0.000    0.000 
#
# Total GULP energy -312064.234179 kJ/mol
# GULP energy per Si atom -5572.575610 kJ/mol
# Density = 1.816266 g / cm^3
# Si number density = 18.204089 Si / 1000 Ang^3
#
#
#
# Elastic Constant Matrix: (Units=GPa)
#
#
# Indices 1 2 3 4 5 6 
#
# 1 100.2236 34.0469 28.1751 0.0000 0.0000 0.0000
# 2 34.0469 70.4026 11.3350 0.0000 0.0000 0.0000
# 3 28.1751 11.3350 95.0849 0.0000 0.0000 0.0000
# 4 0.0000 0.0000 0.0000 9.1115 0.0000 0.0000
# 5 0.0000 0.0000 0.0000 0.0000 82.6692 0.0000
# 6 0.0000 0.0000 0.0000 0.0000 0.0000 23.6301
#
#
#
# Elastic Compliance Matrix: (Units=1/GPa)
#
#
# Indices 1 2 3 4 5 6 
#
# 1 0.012782 -0.005681 -0.003110 0.000000 0.000000 0.000000
# 2 -0.005681 0.017007 -0.000344 0.000000 0.000000 0.000000
# 3 -0.003110 -0.000344 0.011480 0.000000 0.000000 0.000000
# 4 0.000000 0.000000 0.000000 0.109752 0.000000 0.000000
# 5 0.000000 0.000000 0.000000 0.000000 0.012096 0.000000
# 6 0.000000 0.000000 0.000000 0.000000 0.000000 0.042319
#
#
# Mechanical properties :
#
#
# Convention : Reuss Voigt Hill
#
# Bulk Modulus (GPa) = 43.48195 45.86947 44.67571
# Shear Modulus (GPa) = 21.61034 35.89244 28.75139
#
# Velocity S-wave (km/s) = 3.44919 4.44517 3.97847
# Velocity P-wave (km/s) = 6.30874 7.18318 6.76011
#
# Compressibility (1/GPa) = 0.02299805
#
# Stress axis : x y z
#
# Youngs Moduli (GPa) = 78.23629 58.80087 87.11141
#
# Poissons Ratio (x) = 0.33402 0.27094
# Poissons Ratio (y) = 0.44443 0.02998
# Poissons Ratio (z) = 0.24334 0.02023
#
# Static dielectric constant tensor:
#      x y z
#    x 1.656640 0.000000 0.000000 
#    y 0.000000 0.946490 0.000000 
#    z 0.000000 0.000000 1.613620 
# 
# From -- ./inp_files/24373.got.cif
#   From: 2010.05.17/outbox.cif.g08.bks.cpg/sg53_13_cif.got.tgz:24373.got - 2010.06.03 12:45:16.
