data_PCOD9417853
_publ_section_title
;
Structure prediction by ZEFSAII (Michael W. Deem and Ramdas Pophale) SiO2 
 PCOD9417853
Probable space group: P M N A
;
_chemical_formula_sum "Si O2"
_cell_formula_units_Z 48
_cell_length_a 8.526437
_cell_length_b 31.760444
_cell_length_c 9.559426
_cell_angle_alpha 90.000000
_cell_angle_beta 90.000000
_cell_angle_gamma 90.000000
_cell_volume 2588.725300
_symmetry_space_group_name_H-M "P M N A"
_symmetry_group_IT_number 53
_symmetry_cell_setting 'orthorhombic'
loop_
_space_group_symop_operation_xyz
x,y,z
1/2-x,-y,1/2+z
x,-y,-z
1/2-x,y,1/2-z
-x,-y,-z
1/2+x,y,1/2-z
-x,y,z
1/2+x,-y,1/2+z
loop_
_atom_site_type_symbol
_atom_site_label
_atom_site_fract_x
_atom_site_fract_y
_atom_site_fract_z
Si Si1 0.310518 0.538758 0.093473
Si Si2 0.311247 0.866282 0.908443
Si Si3 0.687053 0.789881 0.408164
Si Si4 0.688580 0.287735 0.091975
Si Si5 0.189322 0.366807 0.592420
Si Si6 0.189110 0.038562 0.406128
O O1 0.250000 0.533157 0.250000
O O2 0.500000 0.538093 0.093462
O O3 0.261455 0.585924 0.048322
O O4 0.253939 0.500000 0.000000
O O5 0.250000 0.859134 0.750000
O O6 0.500000 0.863191 0.907139
O O7 0.265316 0.914064 0.950668
O O8 0.242546 0.832202 0.013892
O O9 0.750000 0.787996 0.250000
O O10 0.500000 0.788174 0.405475
O O11 0.751491 0.751068 0.499323
O O12 0.750000 0.285263 0.250000
O O13 0.500000 0.286753 0.094754
O O14 0.740691 0.330712 0.014475
O O15 0.250000 0.359087 0.750000
O O16 0.000000 0.365980 0.597799
O O17 0.250000 0.032815 0.250000
O O18 0.000000 0.037593 0.405407
O O19 0.246719 0.000000 0.500000
#
# Coordination Sequence:
#
# PCOD9417853 Si02
#       6
#     8   8   8   8   8   8
#     4   9  18  33  52  76 107 141 178 220 266 317
#     4  10  20  37  59  83 113 148 186 227 273 323
#     4  12  25  41  60  83 111 143 181 224 273 326
#     4  11  23  39  58  82 111 143 181 223 271 324
#     4   9  19  35  55  78 106 141 179 221 268 319
#     4   9  19  35  55  81 112 146 184 225 269 319
#
# _framework density 18.541944000000001
#
# number of rings (size 3 to 8) (size 9 to 14) (size 15 to 20)
#    0.000    2.000    0.000    3.500    0.000    5.333 
#    0.000    1.667    0.000    0.000    0.000    0.000 
#    0.000    0.000    0.000    0.000    0.000    0.000 
#
# Total GULP energy -268016.059491 kJ/mol
# GULP energy per Si atom -5583.667906 kJ/mol
# Density = 1.849974 g / cm^3
# Si number density = 18.541944 Si / 1000 Ang^3
#
#
#
# Elastic Constant Matrix: (Units=GPa)
#
#
# Indices 1 2 3 4 5 6 
#
# 1 52.7118 47.8803 38.9374 0.0000 0.0000 0.0000
# 2 47.8803 208.0166 135.0895 0.0000 0.0000 0.0000
# 3 38.9374 135.0895 143.3480 0.0000 0.0000 0.0000
# 4 0.0000 0.0000 0.0000 43.0318 0.0000 0.0000
# 5 0.0000 0.0000 0.0000 0.0000 35.1482 0.0000
# 6 0.0000 0.0000 0.0000 0.0000 0.0000 -83.3426
#
#
#
# Elastic Compliance Matrix: (Units=1/GPa)
#
#
# Indices 1 2 3 4 5 6 
#
# 1 0.024640 -0.003415 -0.003475 0.000000 0.000000 0.000000
# 2 -0.003415 0.012863 -0.011195 0.000000 0.000000 0.000000
# 3 -0.003475 -0.011195 0.018470 0.000000 0.000000 0.000000
# 4 0.000000 0.000000 0.000000 0.023239 0.000000 0.000000
# 5 0.000000 0.000000 0.000000 0.000000 0.028451 0.000000
# 6 0.000000 0.000000 0.000000 0.000000 0.000000 -0.011999
#
#
# Mechanical properties :
#
#
# Convention : Reuss Voigt Hill
#
# Bulk Modulus (GPa) = 50.49462 94.21009 72.35235
# Shear Modulus (GPa) = 36.11844 11.11210 23.61527
#
# Velocity S-wave (km/s) = 4.41833 2.45071 3.57264
# Velocity P-wave (km/s) = 7.30209 7.67642 7.49160
#
# Compressibility (1/GPa) = 0.01980409
#
# Stress axis : x y z
#
# Youngs Moduli (GPa) = 40.58496 77.74005 54.14305
#
# Poissons Ratio (x) = 0.26548 0.18813
# Poissons Ratio (y) = 0.13860 0.60612
# Poissons Ratio (z) = 0.14102 0.87028
#
# Static dielectric constant tensor:
#      x y z
#    x 1.625350 0.000000 0.000000 
#    y 0.000000 1.663690 0.000000 
#    z 0.000000 0.000000 1.591410 
# 
# From -- ./inp_files/6666.got.cif
#   From: 2010.05.17/outbox.cif.g08.bks.cpg/sg53_4_cif.got.tgz:6666.got - 2010.06.03 12:45:16.
