data_PCOD9417957
_publ_section_title
;
Structure prediction by ZEFSAII (Michael W. Deem and Ramdas Pophale) SiO2 
 PCOD9417957
Probable space group: P M N A
;
_chemical_formula_sum "Si O2"
_cell_formula_units_Z 64
_cell_length_a 7.885949
_cell_length_b 15.298378
_cell_length_c 23.644624
_cell_angle_alpha 90.000000
_cell_angle_beta 90.000000
_cell_angle_gamma 90.000000
_cell_volume 2852.540136
_symmetry_space_group_name_H-M "P M N A"
_symmetry_group_IT_number 53
_symmetry_cell_setting 'orthorhombic'
loop_
_space_group_symop_operation_xyz
x,y,z
1/2-x,-y,1/2+z
x,-y,-z
1/2-x,y,1/2-z
-x,-y,-z
1/2+x,y,1/2-z
-x,y,z
1/2+x,-y,1/2+z
loop_
_atom_site_type_symbol
_atom_site_label
_atom_site_fract_x
_atom_site_fract_y
_atom_site_fract_z
Si Si1 0.800308 0.259375 0.922743
Si Si2 0.707653 0.556098 0.445181
Si Si3 0.798825 0.313999 0.311313
Si Si4 0.703339 0.005376 0.312754
Si Si5 0.193510 0.513412 0.184688
Si Si6 0.203959 0.806951 0.188345
Si Si7 0.796803 0.159798 0.106304
Si Si8 0.194109 0.903640 0.488994
O O1 0.737057 0.343196 0.956261
O O2 0.728014 0.255866 0.859754
O O3 0.779171 0.161352 0.945172
O O4 0.000000 0.274719 0.919627
O O5 0.765120 0.500000 0.500000
O O6 0.500000 0.546544 0.444629
O O7 0.763392 0.536868 0.379296
O O8 0.750000 0.275490 0.250000
O O9 0.709254 0.407779 0.315383
O O10 0.743894 0.247144 0.359645
O O11 0.000000 0.327995 0.313385
O O12 0.750000 0.035046 0.250000
O O13 0.500000 0.002148 0.317227
O O14 0.762791 0.075870 0.357647
O O15 0.769277 0.906516 0.319139
O O16 0.250000 0.538337 0.250000
O O17 0.000000 0.543894 0.182491
O O18 0.250000 0.776136 0.250000
O O19 0.000000 0.810973 0.184354
O O20 0.000000 0.154714 0.097575
O O21 0.706846 0.150376 0.046737
O O22 0.000000 0.916769 0.471290
O O23 0.270257 0.000000 0.500000
#
# Coordination Sequence:
#
# PCOD9417957 Si02
#       8
#     8   8   8   8   8   8   8   8
#     4  10  21  39  63  88 116 154 202 252 299 363
#     4   9  20  38  62  92 122 157 206 262 315 370
#     4  11  22  37  57  86 123 159 203 254 309 370
#     4   9  18  31  49  75 108 144 186 234 285 345
#     4  10  20  37  62  90 124 163 208 257 315 379
#     4   9  18  33  54  82 112 145 185 230 285 346
#     4  11  22  36  57  82 111 154 203 252 306 364
#     4  11  25  42  59  85 122 161 202 252 307 364
#
# _framework density 22.436145
#
# number of rings (size 3 to 8) (size 9 to 14) (size 15 to 20)
#    0.000    2.000    0.000    4.125    1.750    5.000 
#    0.000    3.750    0.000    1.875    0.000    0.000 
#    0.000    0.000    0.000    0.000    0.000    0.000 
#
# Total GULP energy -356947.274408 kJ/mol
# GULP energy per Si atom -5577.301163 kJ/mol
# Density = 2.238508 g / cm^3
# Si number density = 22.436145 Si / 1000 Ang^3
#
#
#
# Elastic Constant Matrix: (Units=GPa)
#
#
# Indices 1 2 3 4 5 6 
#
# 1 29.7284 -3.8432 -2.0193 0.0000 0.0000 0.0000
# 2 -3.8432 90.6406 43.4748 0.0000 0.0000 0.0000
# 3 -2.0193 43.4748 124.6456 0.0000 0.0000 0.0000
# 4 0.0000 0.0000 0.0000 50.3198 0.0000 0.0000
# 5 0.0000 0.0000 0.0000 0.0000 17.6039 0.0000
# 6 0.0000 0.0000 0.0000 0.0000 0.0000 48.5138
#
#
#
# Elastic Compliance Matrix: (Units=1/GPa)
#
#
# Indices 1 2 3 4 5 6 
#
# 1 0.033824 0.001407 0.000057 0.000000 0.000000 0.000000
# 2 0.001407 0.013308 -0.004619 0.000000 0.000000 0.000000
# 3 0.000057 -0.004619 0.009635 0.000000 0.000000 0.000000
# 4 0.000000 0.000000 0.000000 0.019873 0.000000 0.000000
# 5 0.000000 0.000000 0.000000 0.000000 0.056805 0.000000
# 6 0.000000 0.000000 0.000000 0.000000 0.000000 0.020613
#
#
# Mechanical properties :
#
#
# Convention : Reuss Voigt Hill
#
# Bulk Modulus (GPa) = 19.81911 35.58213 27.70062
# Shear Modulus (GPa) = 28.21906 37.11431 32.66669
#
# Velocity S-wave (km/s) = 3.55032 4.07162 3.81988
# Velocity P-wave (km/s) = 5.06549 6.16424 5.64168
#
# Compressibility (1/GPa) = 0.05045634
#
# Stress axis : x y z
#
# Youngs Moduli (GPa) = 29.56510 75.14535 103.79231
#
# Poissons Ratio (x) = -0.10570 -0.00595
# Poissons Ratio (y) = -0.04159 0.47939
# Poissons Ratio (z) = -0.00170 0.34708
#
# Static dielectric constant tensor:
#      x y z
#    x 1.841380 0.000000 0.000000 
#    y 0.000000 1.834590 0.000000 
#    z 0.000000 0.000000 1.702220 
# 
# From -- ./inp_files/34331.got.cif
#   From: 2010.05.17/outbox.cif.g08.bks.cpg/sg53_18_cif.got.tgz:34331.got - 2010.06.03 12:45:16.
