data_PCOD9417282
_publ_section_title
;
Structure prediction by ZEFSAII (Michael W. Deem and Ramdas Pophale) SiO2 
 PCOD9417282
Probable space group: P M N A
;
_chemical_formula_sum "Si O2"
_cell_formula_units_Z 56
_cell_length_a 15.191927
_cell_length_b 19.757790
_cell_length_c 6.909625
_cell_angle_alpha 90.000000
_cell_angle_beta 90.000000
_cell_angle_gamma 90.000000
_cell_volume 2073.985463
_symmetry_space_group_name_H-M "P M N A"
_symmetry_group_IT_number 53
_symmetry_cell_setting 'orthorhombic'
loop_
_space_group_symop_operation_xyz
x,y,z
1/2-x,-y,1/2+z
x,-y,-z
1/2-x,y,1/2-z
-x,-y,-z
1/2+x,y,1/2-z
-x,y,z
1/2+x,-y,1/2+z
loop_
_atom_site_type_symbol
_atom_site_label
_atom_site_fract_x
_atom_site_fract_y
_atom_site_fract_z
Si Si1 0.898112 0.981625 0.269742
Si Si2 0.104890 0.125439 0.231006
Si Si3 0.158938 0.268859 0.137046
Si Si4 0.400776 0.696252 0.242052
Si Si5 0.855341 0.555313 0.244116
Si Si6 0.837986 0.163368 0.641426
Si Si7 0.643571 0.589802 0.706523
O O1 0.865996 0.050298 0.163646
O O2 0.000000 0.976155 0.221757
O O3 0.889682 0.000000 0.500000
O O4 0.865831 0.905279 0.248481
O O5 0.114120 0.195510 0.115964
O O6 0.163072 0.139879 0.420540
O O7 0.000000 0.119259 0.281602
O O8 0.250000 0.260094 0.250000
O O9 0.111056 0.333173 0.236857
O O10 0.168030 0.295900 0.918792
O O11 0.500000 0.693574 0.321816
O O12 0.383611 0.623490 0.145167
O O13 0.393792 0.767506 0.132209
O O14 0.750000 0.551348 0.250000
O O15 0.887914 0.480548 0.300863
O O16 0.876192 0.572055 0.019449
O O17 0.750000 0.181501 0.750000
O O18 0.750000 0.593642 0.750000
#
# Coordination Sequence:
#
# PCOD9417282 Si02
#       7
#     8   8   8   8   8   8   8
#     4   8  16  33  55  76 100 132 170 210 254 308
#     4  10  20  37  59  79 104 143 181 212 258 318
#     4  10  20  35  54  78 107 139 178 220 262 310
#     4  11  22  35  51  78 113 141 170 217 271 312
#     4   9  17  32  53  75 101 137 178 213 256 315
#     4  11  21  35  56  81 105 136 178 220 260 308
#     4   8  16  31  51  77 102 132 173 220 262 303
#
# _framework density 27.001152999999999
#
# number of rings (size 3 to 8) (size 9 to 14) (size 15 to 20)
#    0.000    2.429    0.000    3.857    0.000    2.857 
#    0.000    8.571    0.000    2.571    0.000   10.000 
#    0.000    0.000    0.000    0.000    0.000    0.000 
#
# Total GULP energy -312533.978135 kJ/mol
# GULP energy per Si atom -5580.963895 kJ/mol
# Density = 2.693970 g / cm^3
# Si number density = 27.001153 Si / 1000 Ang^3
#
#
#
# Elastic Constant Matrix: (Units=GPa)
#
#
# Indices 1 2 3 4 5 6 
#
# 1 70.1036 43.5108 -7.2062 0.0000 0.0000 0.0000
# 2 43.5108 371.6397 43.1800 0.0000 0.0000 0.0000
# 3 -7.2062 43.1800 55.5655 0.0000 0.0000 0.0000
# 4 0.0000 0.0000 0.0000 44.4872 0.0000 0.0000
# 5 0.0000 0.0000 0.0000 0.0000 6.0990 0.0000
# 6 0.0000 0.0000 0.0000 0.0000 0.0000 73.7609
#
#
#
# Elastic Compliance Matrix: (Units=1/GPa)
#
#
# Indices 1 2 3 4 5 6 
#
# 1 0.016120 -0.002342 0.003910 0.000000 0.000000 0.000000
# 2 -0.002342 0.003298 -0.002867 0.000000 0.000000 0.000000
# 3 0.003910 -0.002867 0.020731 0.000000 0.000000 0.000000
# 4 0.000000 0.000000 0.000000 0.022478 0.000000 0.000000
# 5 0.000000 0.000000 0.000000 0.000000 0.163960 0.000000
# 6 0.000000 0.000000 0.000000 0.000000 0.000000 0.013557
#
#
# Mechanical properties :
#
#
# Convention : Reuss Voigt Hill
#
# Bulk Modulus (GPa) = 26.62867 72.91980 49.77423
# Shear Modulus (GPa) = 19.58795 52.72437 36.15616
#
# Velocity S-wave (km/s) = 2.69634 4.42370 3.66329
# Velocity P-wave (km/s) = 4.42460 7.29088 6.03051
#
# Compressibility (1/GPa) = 0.03755351
#
# Stress axis : x y z
#
# Youngs Moduli (GPa) = 62.03511 303.21532 48.23584
#
# Poissons Ratio (x) = 0.71001 -0.18861
# Poissons Ratio (y) = 0.14526 0.13827
# Poissons Ratio (z) = -0.24257 0.86918
#
# Static dielectric constant tensor:
#      x y z
#    x 2.092370 0.000000 0.000000 
#    y 0.000000 2.243430 0.000000 
#    z 0.000000 0.000000 2.264250 
# 
# From -- ./inp_files/8860.got.cif
#   From: 2010.05.17/outbox.cif.g08.bks.cpg/sg53_5_cif.got.tgz:8860.got - 2010.06.03 12:45:16.
