data_PCOD9417441
_publ_section_title
;
Structure prediction by ZEFSAII (Michael W. Deem and Ramdas Pophale) SiO2 
 PCOD9417441
Probable space group: P M N A
;
_chemical_formula_sum "Si O2"
_cell_formula_units_Z 64
_cell_length_a 8.415354
_cell_length_b 20.140348
_cell_length_c 19.645607
_cell_angle_alpha 90.000000
_cell_angle_beta 90.000000
_cell_angle_gamma 90.000000
_cell_volume 3329.697745
_symmetry_space_group_name_H-M "P M N A"
_symmetry_group_IT_number 53
_symmetry_cell_setting 'orthorhombic'
loop_
_space_group_symop_operation_xyz
x,y,z
1/2-x,-y,1/2+z
x,-y,-z
1/2-x,y,1/2-z
-x,-y,-z
1/2+x,y,1/2-z
-x,y,z
1/2+x,-y,1/2+z
loop_
_atom_site_type_symbol
_atom_site_label
_atom_site_fract_x
_atom_site_fract_y
_atom_site_fract_z
Si Si1 0.810064 0.151600 0.411122
Si Si2 0.690417 0.875438 0.174509
Si Si3 0.309170 0.723409 0.673272
Si Si4 0.192003 0.027168 0.325800
Si Si5 0.693462 0.591109 0.592052
Si Si6 0.689742 0.788930 0.449345
Si Si7 0.305926 0.636280 0.445796
Si Si8 0.192276 0.540086 0.172705
O O1 0.758283 0.210351 0.360673
O O2 0.752660 0.081630 0.380102
O O3 0.747173 0.170413 0.485204
O O4 0.000000 0.149204 0.414209
O O5 0.750000 0.858710 0.250000
O O6 0.500000 0.874281 0.173629
O O7 0.754805 0.825422 0.118558
O O8 0.743432 0.951527 0.159733
O O9 0.250000 0.716604 0.750000
O O10 0.500000 0.726777 0.671962
O O11 0.259789 0.659081 0.629623
O O12 0.250000 0.044908 0.250000
O O13 0.000000 0.027773 0.325149
O O14 0.500000 0.588795 0.591534
O O15 0.743949 0.595882 0.513325
O O16 0.746790 0.527491 0.634984
O O17 0.500000 0.786579 0.451167
O O18 0.747441 0.712533 0.451737
O O19 0.500000 0.636444 0.446115
O O20 0.256166 0.600445 0.376311
O O21 0.250000 0.544258 0.250000
O O22 0.000000 0.539380 0.173909
#
# Coordination Sequence:
#
# PCOD9417441 Si02
#       8
#     8   8   8   8   8   8   8   8
#     4  11  22  37  56  82 114 151 191 233 283 337
#     4  10  21  40  62  85 112 146 189 236 285 337
#     4  11  21  34  53  81 115 150 187 230 277 332
#     4   9  20  37  58  82 112 148 189 235 282 335
#     4   9  17  33  57  82 107 143 187 230 274 328
#     4  11  22  38  59  85 116 149 189 236 284 339
#     4   9  18  35  58  82 107 144 191 233 274 329
#     4  10  20  35  58  83 110 143 184 231 280 333
#
# _framework density 19.220963999999999
#
# number of rings (size 3 to 8) (size 9 to 14) (size 15 to 20)
#    0.000    2.000    1.250    2.625    0.000    5.000 
#    0.000    5.625    0.000    0.750    0.000    0.000 
#    0.000    0.000    0.000    0.000    0.000    0.000 
#
# Total GULP energy -357423.564816 kJ/mol
# GULP energy per Si atom -5584.743200 kJ/mol
# Density = 1.917722 g / cm^3
# Si number density = 19.220964 Si / 1000 Ang^3
#
#
#
# Elastic Constant Matrix: (Units=GPa)
#
#
# Indices 1 2 3 4 5 6 
#
# 1 22.3500 12.8626 16.9661 0.0000 0.0000 0.0000
# 2 12.8626 61.4190 73.2944 0.0000 0.0000 0.0000
# 3 16.9661 73.2944 167.5130 0.0000 0.0000 0.0000
# 4 0.0000 0.0000 0.0000 37.1460 0.0000 0.0000
# 5 0.0000 0.0000 0.0000 0.0000 35.7057 0.0000
# 6 0.0000 0.0000 0.0000 0.0000 0.0000 17.6748
#
#
#
# Elastic Compliance Matrix: (Units=1/GPa)
#
#
# Indices 1 2 3 4 5 6 
#
# 1 0.050959 -0.009444 -0.001029 0.000000 0.000000 0.000000
# 2 -0.009444 0.035822 -0.014717 0.000000 0.000000 0.000000
# 3 -0.001029 -0.014717 0.012513 0.000000 0.000000 0.000000
# 4 0.000000 0.000000 0.000000 0.026921 0.000000 0.000000
# 5 0.000000 0.000000 0.000000 0.000000 0.028007 0.000000
# 6 0.000000 0.000000 0.000000 0.000000 0.000000 0.056578
#
#
# Mechanical properties :
#
#
# Convention : Reuss Voigt Hill
#
# Bulk Modulus (GPa) = 20.44403 50.83645 35.64024
# Shear Modulus (GPa) = 18.01896 27.98258 23.00077
#
# Velocity S-wave (km/s) = 3.06513 3.81968 3.46302
# Velocity P-wave (km/s) = 4.81519 6.77932 5.87985
#
# Compressibility (1/GPa) = 0.04891403
#
# Stress axis : x y z
#
# Youngs Moduli (GPa) = 19.62359 27.91553 79.91419
#
# Poissons Ratio (x) = 0.26363 0.08224
# Poissons Ratio (y) = 0.18532 1.17613
# Poissons Ratio (z) = 0.02019 0.41084
#
# Static dielectric constant tensor:
#      x y z
#    x 1.670910 0.000000 0.000000 
#    y 0.000000 1.672420 0.000000 
#    z 0.000000 0.000000 1.635710 
# 
# From -- ./inp_files/27019.got.cif
#   From: 2010.05.17/outbox.cif.g08.bks.cpg/sg53_14_cif.got.tgz:27019.got - 2010.06.03 12:45:16.
