data_PCOD9417102
_publ_section_title
;
Structure prediction by ZEFSAII (Michael W. Deem and Ramdas Pophale) SiO2 
 PCOD9417102
Probable space group: P M N A
;
_chemical_formula_sum "Si O2"
_cell_formula_units_Z 56
_cell_length_a 8.028230
_cell_length_b 21.317829
_cell_length_c 13.870728
_cell_angle_alpha 90.000000
_cell_angle_beta 90.000000
_cell_angle_gamma 90.000000
_cell_volume 2373.897897
_symmetry_space_group_name_H-M "P M N A"
_symmetry_group_IT_number 53
_symmetry_cell_setting 'orthorhombic'
loop_
_space_group_symop_operation_xyz
x,y,z
1/2-x,-y,1/2+z
x,-y,-z
1/2-x,y,1/2-z
-x,-y,-z
1/2+x,y,1/2-z
-x,y,z
1/2+x,-y,1/2+z
loop_
_atom_site_type_symbol
_atom_site_label
_atom_site_fract_x
_atom_site_fract_y
_atom_site_fract_z
Si Si1 0.701222 0.535104 0.136772
Si Si2 0.686970 0.992942 0.884251
Si Si3 0.701709 0.268071 0.050028
Si Si4 0.700500 0.674283 0.139968
Si Si5 0.799132 0.600401 0.638351
Si Si6 0.196126 0.864236 0.932841
Si Si7 0.186456 0.876981 0.147458
O O1 0.750000 0.533906 0.250000
O O2 0.500000 0.535383 0.126909
O O3 0.759122 0.604503 0.106447
O O4 0.759370 0.467346 0.097378
O O5 0.500000 0.007638 0.852378
O O6 0.727197 0.920010 0.869870
O O7 0.806857 0.046920 0.846378
O O8 0.694831 0.000000 0.000000
O O9 0.500000 0.264498 0.054986
O O10 0.758297 0.333933 0.095113
O O11 0.773805 0.206539 0.099802
O O12 0.754912 0.274597 0.937809
O O13 0.750000 0.685156 0.250000
O O14 0.500000 0.672823 0.136908
O O15 0.750000 0.600651 0.750000
O O16 0.000000 0.600167 0.628359
O O17 0.000000 0.878336 0.938785
O O18 0.270425 0.864929 0.043076
O O19 0.250000 0.852530 0.250000
O O20 0.000000 0.853852 0.138514
#
# Coordination Sequence:
#
# PCOD9417102 Si02
#       7
#     8   8   8   8   8   8   8
#     4   8  14  27  48  72  97 127 165 212 267 319
#     4   9  17  32  55  78 100 128 161 200 246 293
#     4  10  21  35  51  74 104 140 180 218 261 315
#     4   9  18  32  50  73 103 137 173 216 264 317
#     4   9  18  33  53  75  99 129 169 219 271 321
#     4  10  21  36  53  74 103 139 175 211 252 302
#     4  10  20  34  54  81 109 135 168 209 252 300
#
# _framework density 23.589894000000001
#
# number of rings (size 3 to 8) (size 9 to 14) (size 15 to 20)
#    0.000    2.714    0.000    1.286    0.000    5.714 
#    0.000    6.429    0.000    1.714    0.000   11.000 
#    0.000    0.000    0.000    0.000    0.000    0.000 
#
# Total GULP energy -312374.731387 kJ/mol
# GULP energy per Si atom -5578.120203 kJ/mol
# Density = 2.353620 g / cm^3
# Si number density = 23.589894 Si / 1000 Ang^3
#
#
#
# Elastic Constant Matrix: (Units=GPa)
#
#
# Indices 1 2 3 4 5 6 
#
# 1 25.4352 -11.2042 -1.8006 0.0000 0.0000 0.0000
# 2 -11.2042 131.1595 2.2155 0.0000 0.0000 0.0000
# 3 -1.8006 2.2155 42.4164 0.0000 0.0000 0.0000
# 4 0.0000 0.0000 0.0000 10.6569 0.0000 0.0000
# 5 0.0000 0.0000 0.0000 0.0000 13.1096 0.0000
# 6 0.0000 0.0000 0.0000 0.0000 0.0000 28.5232
#
#
#
# Elastic Compliance Matrix: (Units=1/GPa)
#
#
# Indices 1 2 3 4 5 6 
#
# 1 0.040955 0.003472 0.001557 0.000000 0.000000 0.000000
# 2 0.003472 0.007925 -0.000267 0.000000 0.000000 0.000000
# 3 0.001557 -0.000267 0.023656 0.000000 0.000000 0.000000
# 4 0.000000 0.000000 0.000000 0.093836 0.000000 0.000000
# 5 0.000000 0.000000 0.000000 0.000000 0.076280 0.000000
# 6 0.000000 0.000000 0.000000 0.000000 0.000000 0.035059
#
#
# Mechanical properties :
#
#
# Convention : Reuss Voigt Hill
#
# Bulk Modulus (GPa) = 12.18584 19.71474 15.95029
# Shear Modulus (GPa) = 16.91818 24.44462 20.68140
#
# Velocity S-wave (km/s) = 2.68093 3.22255 2.96413
# Velocity P-wave (km/s) = 3.84188 4.71401 4.30011
#
# Compressibility (1/GPa) = 0.08206246
#
# Stress axis : x y z
#
# Youngs Moduli (GPa) = 24.41679 126.17628 42.27288
#
# Poissons Ratio (x) = -0.43812 -0.06583
# Poissons Ratio (y) = -0.08478 0.01127
# Poissons Ratio (z) = -0.03802 0.03363
#
# Static dielectric constant tensor:
#      x y z
#    x 1.851670 0.000000 0.000000 
#    y 0.000000 1.926910 0.000000 
#    z 0.000000 0.000000 1.915780 
# 
# From -- ./inp_files/20585.got.cif
#   From: 2010.05.17/outbox.cif.g08.bks.cpg/sg53_11_cif.got.tgz:20585.got - 2010.06.03 12:45:16.
