data_PCOD9417671
_publ_section_title
;
Structure prediction by ZEFSAII (Michael W. Deem and Ramdas Pophale) SiO2 
 PCOD9417671
Probable space group: P M N A
;
_chemical_formula_sum "Si O2"
_cell_formula_units_Z 48
_cell_length_a 9.656717
_cell_length_b 30.084604
_cell_length_c 9.185509
_cell_angle_alpha 90.000000
_cell_angle_beta 90.000000
_cell_angle_gamma 90.000000
_cell_volume 2668.560360
_symmetry_space_group_name_H-M "P M N A"
_symmetry_group_IT_number 53
_symmetry_cell_setting 'orthorhombic'
loop_
_space_group_symop_operation_xyz
x,y,z
1/2-x,-y,1/2+z
x,-y,-z
1/2-x,y,1/2-z
-x,-y,-z
1/2+x,y,1/2-z
-x,y,z
1/2+x,-y,1/2+z
loop_
_atom_site_type_symbol
_atom_site_label
_atom_site_fract_x
_atom_site_fract_y
_atom_site_fract_z
Si Si1 0.500000 0.451535 0.070997
Si Si2 0.000000 0.454212 0.084004
Si Si3 0.668232 0.129139 0.597359
Si Si4 0.165893 0.043201 0.600415
Si Si5 0.837402 0.784831 0.896909
Si Si6 0.333246 0.699448 0.400236
Si Si7 0.746472 0.611900 0.576373
O O1 0.500000 0.461481 0.243197
O O2 0.624592 0.418524 0.036230
O O3 0.500000 0.500000 0.000000
O O4 0.126289 0.422866 0.047772
O O5 0.000000 0.500000 0.000000
O O6 0.750000 0.137781 0.750000
O O7 0.500000 0.122747 0.616673
O O8 0.748920 0.085516 0.538043
O O9 0.687081 0.170638 0.490480
O O10 0.250000 0.034408 0.750000
O O11 0.000000 0.052530 0.622192
O O12 0.175176 0.000000 0.500000
O O13 0.750000 0.783930 0.750000
O O14 0.000000 0.783278 0.859358
O O15 0.807961 0.742523 0.999315
O O16 0.250000 0.703751 0.250000
O O17 0.500000 0.695739 0.377108
O O18 0.278018 0.656256 0.485766
O O19 0.750000 0.622540 0.750000
#
# Coordination Sequence:
#
# PCOD9417671 Si02
#       7
#     4   4   8   8   8   8   8
#     4  10  22  36  58  88 114 148 194 232 281 340
#     4  10  20  36  58  82 116 154 186 234 283 328
#     4  10  20  36  59  85 117 154 196 245 293 346
#     4  10  21  36  56  83 116 156 200 246 297 351
#     4  10  23  41  61  88 119 153 192 236 289 346
#     4  11  24  41  61  88 118 150 190 237 286 341
#     4  10  21  39  60  83 116 153 189 234 284 338
#
# _framework density 17.987226
#
# number of rings (size 3 to 8) (size 9 to 14) (size 15 to 20)
#    0.000    1.833    0.833    3.500    1.167    5.333 
#    0.000    3.333    0.000    0.000    0.000    0.000 
#    0.000    0.000    0.000    0.000    0.000    0.000 
#
# Total GULP energy -267603.981104 kJ/mol
# GULP energy per Si atom -5575.082940 kJ/mol
# Density = 1.794629 g / cm^3
# Si number density = 17.987226 Si / 1000 Ang^3
#
#
#
# Elastic Constant Matrix: (Units=GPa)
#
#
# Indices 1 2 3 4 5 6 
#
# 1 175.7925 101.8966 80.0815 0.0000 0.0000 0.0000
# 2 101.8966 196.4077 103.6738 0.0000 0.0000 0.0000
# 3 80.0815 103.6738 99.7833 0.0000 0.0000 0.0000
# 4 0.0000 0.0000 0.0000 39.0638 0.0000 0.0000
# 5 0.0000 0.0000 0.0000 0.0000 33.3915 0.0000
# 6 0.0000 0.0000 0.0000 0.0000 0.0000 31.4500
#
#
#
# Elastic Compliance Matrix: (Units=1/GPa)
#
#
# Indices 1 2 3 4 5 6 
#
# 1 0.009295 -0.001959 -0.005424 0.000000 0.000000 0.000000
# 2 -0.001959 0.011688 -0.010571 0.000000 0.000000 0.000000
# 3 -0.005424 -0.010571 0.025359 0.000000 0.000000 0.000000
# 4 0.000000 0.000000 0.000000 0.025599 0.000000 0.000000
# 5 0.000000 0.000000 0.000000 0.000000 0.029948 0.000000
# 6 0.000000 0.000000 0.000000 0.000000 0.000000 0.031796
#
#
# Mechanical properties :
#
#
# Convention : Reuss Voigt Hill
#
# Bulk Modulus (GPa) = 95.85875 115.92082 105.88978
# Shear Modulus (GPa) = 28.88971 33.20318 31.04644
#
# Velocity S-wave (km/s) = 4.01199 4.30109 4.15906
# Velocity P-wave (km/s) = 8.65274 9.44732 9.05875
#
# Compressibility (1/GPa) = 0.01043202
#
# Stress axis : x y z
#
# Youngs Moduli (GPa) = 107.58316 85.55851 39.43431
#
# Poissons Ratio (x) = 0.16761 0.21391
# Poissons Ratio (y) = 0.21076 0.41687
# Poissons Ratio (z) = 0.58357 0.90447
#
# Static dielectric constant tensor:
#      x y z
#    x 1.595250 0.000000 0.000000 
#    y 0.000000 1.583300 0.000000 
#    z 0.000000 0.000000 1.516860 
# 
# From -- ./inp_files/6844.got.cif
#   From: 2010.05.17/outbox.cif.g08.bks.cpg/sg53_4_cif.got.tgz:6844.got - 2010.06.03 12:45:16.
