data_PCOD9417399
_publ_section_title
;
Structure prediction by ZEFSAII (Michael W. Deem and Ramdas Pophale) SiO2 
 PCOD9417399
Probable space group: P M N A
;
_chemical_formula_sum "Si O2"
_cell_formula_units_Z 64
_cell_length_a 9.243050
_cell_length_b 16.867759
_cell_length_c 21.658745
_cell_angle_alpha 90.000000
_cell_angle_beta 90.000000
_cell_angle_gamma 90.000000
_cell_volume 3376.804966
_symmetry_space_group_name_H-M "P M N A"
_symmetry_group_IT_number 53
_symmetry_cell_setting 'orthorhombic'
loop_
_space_group_symop_operation_xyz
x,y,z
1/2-x,-y,1/2+z
x,-y,-z
1/2-x,y,1/2-z
-x,-y,-z
1/2+x,y,1/2-z
-x,y,z
1/2+x,-y,1/2+z
loop_
_atom_site_type_symbol
_atom_site_label
_atom_site_fract_x
_atom_site_fract_y
_atom_site_fract_z
Si Si1 0.667337 0.790414 0.306950
Si Si2 0.330645 0.717478 0.441805
Si Si3 0.673667 0.951922 0.366481
Si Si4 0.673603 0.270229 0.184880
Si Si5 0.329072 0.446996 0.938532
Si Si6 0.668341 0.892860 0.876909
Si Si7 0.825729 0.548209 0.683584
Si Si8 0.331029 0.128639 0.979298
O O1 0.750000 0.753848 0.250000
O O2 0.500000 0.795139 0.290742
O O3 0.681564 0.742154 0.369906
O O4 0.718703 0.879868 0.321658
O O5 0.500000 0.722363 0.458973
O O6 0.265585 0.630892 0.448296
O O7 0.236276 0.783403 0.476664
O O8 0.500000 0.952958 0.370191
O O9 0.739724 0.924587 0.432164
O O10 0.736110 0.037102 0.348762
O O11 0.750000 0.256790 0.250000
O O12 0.500000 0.268850 0.191793
O O13 0.712794 0.196222 0.141630
O O14 0.710997 0.360289 0.165514
O O15 0.500000 0.426445 0.933302
O O16 0.288279 0.492472 0.874795
O O17 0.313465 0.500000 0.000000
O O18 0.500000 0.903711 0.859181
O O19 0.677527 0.900226 0.950714
O O20 0.750000 0.531181 0.750000
O O21 0.000000 0.543548 0.692143
O O22 0.500000 0.129228 0.960632
#
# Coordination Sequence:
#
# PCOD9417399 Si02
#       8
#     8   8   8   8   8   8   8   8
#     4   9  20  37  56  78 106 145 185 226 274 328
#     4  10  22  39  56  82 117 146 179 227 281 336
#     4  10  21  36  52  77 114 146 180 230 282 329
#     4   9  19  36  55  77 107 141 181 229 275 325
#     4  10  22  38  61  89 117 151 193 238 286 341
#     4  10  21  34  54  80 106 142 187 231 274 325
#     4   9  19  37  60  83 112 151 192 235 285 340
#     4  10  20  35  57  80 107 144 187 227 270 329
#
# _framework density 18.952826999999999
#
# number of rings (size 3 to 8) (size 9 to 14) (size 15 to 20)
#    0.000    2.375    0.000    2.250    1.750    7.750 
#    0.000    5.000    0.000    0.000    0.000    0.000 
#    0.000    0.000    0.000    0.000    0.000    0.000 
#
# Total GULP energy -357001.034887 kJ/mol
# GULP energy per Si atom -5578.141170 kJ/mol
# Density = 1.890969 g / cm^3
# Si number density = 18.952827 Si / 1000 Ang^3
#
#
#
# Elastic Constant Matrix: (Units=GPa)
#
#
# Indices 1 2 3 4 5 6 
#
# 1 38.7366 27.2985 12.3913 0.0000 0.0000 0.0000
# 2 27.2985 75.7881 5.9222 0.0000 0.0000 0.0000
# 3 12.3913 5.9222 28.9595 0.0000 0.0000 0.0000
# 4 0.0000 0.0000 0.0000 4.3692 0.0000 0.0000
# 5 0.0000 0.0000 0.0000 0.0000 23.0998 0.0000
# 6 0.0000 0.0000 0.0000 0.0000 0.0000 40.6163
#
#
#
# Elastic Compliance Matrix: (Units=1/GPa)
#
#
# Indices 1 2 3 4 5 6 
#
# 1 0.039665 -0.013171 -0.014278 0.000000 0.000000 0.000000
# 2 -0.013171 0.017783 0.001999 0.000000 0.000000 0.000000
# 3 -0.014278 0.001999 0.040232 0.000000 0.000000 0.000000
# 4 0.000000 0.000000 0.000000 0.228872 0.000000 0.000000
# 5 0.000000 0.000000 0.000000 0.000000 0.043290 0.000000
# 6 0.000000 0.000000 0.000000 0.000000 0.000000 0.024621
#
#
# Mechanical properties :
#
#
# Convention : Reuss Voigt Hill
#
# Bulk Modulus (GPa) = 21.37748 26.07869 23.72808
# Shear Modulus (GPa) = 10.84701 20.14189 15.49445
#
# Velocity S-wave (km/s) = 2.39491 3.26350 2.86235
# Velocity P-wave (km/s) = 4.35330 5.29058 4.84466
#
# Compressibility (1/GPa) = 0.04677821
#
# Stress axis : x y z
#
# Youngs Moduli (GPa) = 25.21119 56.23442 24.85602
#
# Poissons Ratio (x) = 0.74068 0.35491
# Poissons Ratio (y) = 0.33207 -0.04969
# Poissons Ratio (z) = 0.35998 -0.11243
#
# Static dielectric constant tensor:
#      x y z
#    x 1.640230 0.000000 0.000000 
#    y 0.000000 1.675330 0.000000 
#    z 0.000000 0.000000 1.651150 
# 
# From -- ./inp_files/34225.got.cif
#   From: 2010.05.17/outbox.cif.g08.bks.cpg/sg53_18_cif.got.tgz:34225.got - 2010.06.03 12:45:16.
