data_PCOD9417860
_publ_section_title
;
Structure prediction by ZEFSAII (Michael W. Deem and Ramdas Pophale) SiO2 
 PCOD9417860
Probable space group: P M N A
;
_chemical_formula_sum "Si O2"
_cell_formula_units_Z 48
_cell_length_a 8.633719
_cell_length_b 19.482917
_cell_length_c 15.228467
_cell_angle_alpha 90.000000
_cell_angle_beta 90.000000
_cell_angle_gamma 90.000000
_cell_volume 2561.580901
_symmetry_space_group_name_H-M "P M N A"
_symmetry_group_IT_number 53
_symmetry_cell_setting 'orthorhombic'
loop_
_space_group_symop_operation_xyz
x,y,z
1/2-x,-y,1/2+z
x,-y,-z
1/2-x,y,1/2-z
-x,-y,-z
1/2+x,y,1/2-z
-x,y,z
1/2+x,-y,1/2+z
loop_
_atom_site_type_symbol
_atom_site_label
_atom_site_fract_x
_atom_site_fract_y
_atom_site_fract_z
Si Si1 0.813273 0.505585 0.148943
Si Si2 0.187189 0.400437 0.494143
Si Si3 0.683869 0.856714 0.842131
Si Si4 0.813167 0.759341 0.501147
Si Si5 0.180996 0.001401 0.894719
Si Si6 0.685331 0.846721 0.343385
O O1 0.750000 0.507048 0.250000
O O2 0.754910 0.440405 0.090764
O O3 0.000000 0.506463 0.151917
O O4 0.752472 0.567029 0.085022
O O5 0.227680 0.320259 0.489348
O O6 0.000000 0.408363 0.494045
O O7 0.750000 0.833350 0.750000
O O8 0.500000 0.853437 0.840544
O O9 0.732776 0.935192 0.858603
O O10 0.741867 0.806990 0.918816
O O11 0.744902 0.794153 0.415242
O O12 0.000000 0.763118 0.497344
O O13 0.000000 0.995363 0.869736
O O14 0.240759 0.075286 0.863300
O O15 0.190780 0.000000 0.000000
O O16 0.750000 0.825823 0.250000
O O17 0.500000 0.848392 0.344419
#
# Coordination Sequence:
#
# PCOD9417860 Si02
#       6
#     8   8   8   8   8   8
#     4  11  22  39  64  94 123 156 196 236 283 341
#     4  10  21  40  63  90 123 156 193 241 289 342
#     4  11  23  38  58  84 114 152 195 242 294 348
#     4  10  23  41  60  85 119 155 194 237 289 347
#     4  10  20  37  59  84 111 146 194 246 298 349
#     4  11  23  38  59  83 114 152 195 245 296 350
#
# _framework density 18.738429
#
# number of rings (size 3 to 8) (size 9 to 14) (size 15 to 20)
#    0.000    1.500    1.667    4.500    0.000    6.333 
#    0.000    1.667    0.000    0.000    0.000    0.000 
#    0.000    0.000    0.000    0.000    0.000    0.000 
#
# Total GULP energy -268100.190271 kJ/mol
# GULP energy per Si atom -5585.420631 kJ/mol
# Density = 1.869578 g / cm^3
# Si number density = 18.738429 Si / 1000 Ang^3
#
#
#
# Elastic Constant Matrix: (Units=GPa)
#
#
# Indices 1 2 3 4 5 6 
#
# 1 59.5556 31.6612 38.2968 0.0000 0.0000 0.0000
# 2 31.6612 101.7794 40.2090 0.0000 0.0000 0.0000
# 3 38.2968 40.2090 127.4504 0.0000 0.0000 0.0000
# 4 0.0000 0.0000 0.0000-1720.4753 0.0000 0.0000
# 5 0.0000 0.0000 0.0000 0.0000 38.5270 0.0000
# 6 0.0000 0.0000 0.0000 0.0000 0.0000 26.5420
#
#
#
# Elastic Compliance Matrix: (Units=1/GPa)
#
#
# Indices 1 2 3 4 5 6 
#
# 1 0.022860 -0.005024 -0.005284 0.000000 0.000000 0.000000
# 2 -0.005024 0.012328 -0.002380 0.000000 0.000000 0.000000
# 3 -0.005284 -0.002380 0.010185 0.000000 0.000000 0.000000
# 4 0.000000 0.000000 0.000000 -0.000581 0.000000 0.000000
# 5 0.000000 0.000000 0.000000 0.000000 0.025956 0.000000
# 6 0.000000 0.000000 0.000000 0.000000 0.000000 0.037676
#
#
# Mechanical properties :
#
#
# Convention : Reuss Voigt Hill
#
# Bulk Modulus (GPa) = 50.00634 56.56883 53.28759
# Shear Modulus (GPa) = 35.59632 -319.17337 -141.78852
#
# Velocity S-wave (km/s) = 4.36322 -13.06525 -8.70813
# Velocity P-wave (km/s) = 7.21997 14.04801 8.52111
#
# Compressibility (1/GPa) = 0.01999746
#
# Stress axis : x y z
#
# Youngs Moduli (GPa) = 43.74532 81.11571 98.18572
#
# Poissons Ratio (x) = 0.40749 0.51882
# Poissons Ratio (y) = 0.21976 0.23367
# Poissons Ratio (z) = 0.23115 0.19304
#
# Static dielectric constant tensor:
#      x y z
#    x 1.640020 0.000000 0.000000 
#    y 0.000000 1.641300 0.000000 
#    z 0.000000 0.000000 1.625140 
# 
# From -- ./inp_files/20253.got.cif
#   From: 2010.05.17/outbox.cif.g08.bks.cpg/sg53_11_cif.got.tgz:20253.got - 2010.06.03 12:45:16.
