data_PCOD9417874
_publ_section_title
;
Structure prediction by ZEFSAII (Michael W. Deem and Ramdas Pophale) SiO2 
 PCOD9417874
Probable space group: P M N A
;
_chemical_formula_sum "Si O2"
_cell_formula_units_Z 40
_cell_length_a 7.705719
_cell_length_b 9.983142
_cell_length_c 22.964905
_cell_angle_alpha 90.000000
_cell_angle_beta 90.000000
_cell_angle_gamma 90.000000
_cell_volume 1766.627838
_symmetry_space_group_name_H-M "P M N A"
_symmetry_group_IT_number 53
_symmetry_cell_setting 'orthorhombic'
loop_
_space_group_symop_operation_xyz
x,y,z
1/2-x,-y,1/2+z
x,-y,-z
1/2-x,y,1/2-z
-x,-y,-z
1/2+x,y,1/2-z
-x,y,z
1/2+x,-y,1/2+z
loop_
_atom_site_type_symbol
_atom_site_label
_atom_site_fract_x
_atom_site_fract_y
_atom_site_fract_z
Si Si1 0.302200 0.308383 0.593288
Si Si2 0.287841 0.151202 0.484532
Si Si3 0.791111 0.481225 0.185324
Si Si4 0.289878 0.809363 0.649062
Si Si5 0.301585 0.897405 0.184934
O O1 0.500000 0.350287 0.579802
O O2 0.223765 0.256236 0.532953
O O3 0.223086 0.425020 0.633230
O O4 0.305701 0.179362 0.635820
O O5 0.500000 0.151093 0.487423
O O6 0.239786 0.187380 0.418922
O O7 0.231719 0.000000 0.500000
O O8 0.750000 0.531097 0.250000
O O9 0.729549 0.328758 0.177729
O O10 0.000000 0.481129 0.180463
O O11 0.500000 0.814613 0.652321
O O12 0.220940 0.943680 0.678353
O O13 0.250000 0.858376 0.250000
O O14 0.500000 0.860846 0.174517
#
# Coordination Sequence:
#
# PCOD9417874 Si02
#       5
#     8   8   8   8   8
#     4  10  20  37  59  85 115 150 189 232 284 338
#     4   9  16  31  59  87 114 148 185 232 283 335
#     4  10  22  37  57  83 115 152 191 236 283 338
#     4  10  20  37  59  85 115 150 189 232 284 338
#     4  12  24  37  56  83 111 148 194 240 285 336
#
# _framework density 22.642008000000001
#
# number of rings (size 3 to 8) (size 9 to 14) (size 15 to 20)
#    0.000    1.800    2.000    3.000    0.000    5.600 
#    0.000    6.000    0.000    0.000    0.000    4.200 
#    0.000    0.000    0.000    0.000    0.000    0.000 
#
# Total GULP energy -223618.224427 kJ/mol
# GULP energy per Si atom -5590.455611 kJ/mol
# Density = 2.259047 g / cm^3
# Si number density = 22.642008 Si / 1000 Ang^3
#
#
#
# Elastic Constant Matrix: (Units=GPa)
#
#
# Indices 1 2 3 4 5 6 
#
# 1 54.2192 -5.6022 -3.5227 0.0000 0.0000 0.0000
# 2 -5.6022 80.0911 -5.0287 0.0000 0.0000 0.0000
# 3 -3.5227 -5.0287 97.7142 0.0000 0.0000 0.0000
# 4 0.0000 0.0000 0.0000 45.2838 0.0000 0.0000
# 5 0.0000 0.0000 0.0000 0.0000 12.7632 0.0000
# 6 0.0000 0.0000 0.0000 0.0000 0.0000 12.0743
#
#
#
# Elastic Compliance Matrix: (Units=1/GPa)
#
#
# Indices 1 2 3 4 5 6 
#
# 1 0.018631 0.001350 0.000741 0.000000 0.000000 0.000000
# 2 0.001350 0.012624 0.000698 0.000000 0.000000 0.000000
# 3 0.000741 0.000698 0.010297 0.000000 0.000000 0.000000
# 4 0.000000 0.000000 0.000000 0.022083 0.000000 0.000000
# 5 0.000000 0.000000 0.000000 0.000000 0.078350 0.000000
# 6 0.000000 0.000000 0.000000 0.000000 0.000000 0.082821
#
#
# Mechanical properties :
#
#
# Convention : Reuss Voigt Hill
#
# Bulk Modulus (GPa) = 21.21776 22.63526 21.92651
# Shear Modulus (GPa) = 21.28226 30.43612 25.85919
#
# Velocity S-wave (km/s) = 3.06918 3.67036 3.38315
# Velocity P-wave (km/s) = 4.68520 5.28968 4.99659
#
# Compressibility (1/GPa) = 0.04713034
#
# Stress axis : x y z
#
# Youngs Moduli (GPa) = 53.67319 79.21397 97.11957
#
# Poissons Ratio (x) = -0.10692 -0.07198
# Poissons Ratio (y) = -0.07245 -0.06782
# Poissons Ratio (z) = -0.03978 -0.05532
#
# Static dielectric constant tensor:
#      x y z
#    x 1.861610 0.000000 0.000000 
#    y 0.000000 1.828780 0.000000 
#    z 0.000000 0.000000 1.782790 
# 
# From -- ./inp_files/33610.got.cif
#   From: 2010.05.17/outbox.cif.g08.bks.cpg/sg53_17_cif.got.tgz:33610.got - 2010.06.03 12:45:16.
