data_PCOD9417457
_publ_section_title
;
Structure prediction by ZEFSAII (Michael W. Deem and Ramdas Pophale) SiO2 
 PCOD9417457
Probable space group: P M N A
;
_chemical_formula_sum "Si O2"
_cell_formula_units_Z 36
_cell_length_a 9.562862
_cell_length_b 9.522840
_cell_length_c 18.871685
_cell_angle_alpha 90.000000
_cell_angle_beta 90.000000
_cell_angle_gamma 90.000000
_cell_volume 1718.561408
_symmetry_space_group_name_H-M "P M N A"
_symmetry_group_IT_number 53
_symmetry_cell_setting 'orthorhombic'
loop_
_space_group_symop_operation_xyz
x,y,z
1/2-x,-y,1/2+z
x,-y,-z
1/2-x,y,1/2-z
-x,-y,-z
1/2+x,y,1/2-z
-x,y,z
1/2+x,-y,1/2+z
loop_
_atom_site_type_symbol
_atom_site_label
_atom_site_fract_x
_atom_site_fract_y
_atom_site_fract_z
Si Si1 0.840300 0.963371 0.132441
Si Si2 0.835694 0.278495 0.965313
Si Si3 0.663303 0.729090 0.635222
Si Si4 0.250000 0.754389 0.250000
Si Si5 0.341158 0.534613 0.138179
O O1 0.785417 0.871257 0.066716
O O2 0.834120 0.856889 0.197985
O O3 0.000000 0.998173 0.113037
O O4 0.779458 0.114830 0.151792
O O5 0.744606 0.396497 0.926842
O O6 0.000000 0.296872 0.944801
O O7 0.829980 0.280528 0.049480
O O8 0.500000 0.711892 0.657047
O O9 0.758576 0.603433 0.662585
O O10 0.337531 0.652010 0.199556
O O11 0.500000 0.501915 0.118551
#
# Coordination Sequence:
#
# PCOD9417457 Si02
#       5
#     8   8   8   4   8
#     4   9  18  35  59  81 104 140 187 233 271 320
#     4   9  18  35  59  85 113 145 181 222 272 329
#     4  10  20  35  58  87 113 141 181 228 277 326
#     4  10  22  40  56  74 106 148 190 228 276 328
#     4  11  23  37  56  82 114 150 184 223 271 325
#
# _framework density 20.947754
#
# number of rings (size 3 to 8) (size 9 to 14) (size 15 to 20)
#    0.000    2.222    0.000    2.667    0.000    9.778 
#    0.000    7.778    0.000    6.667    0.000    0.000 
#    0.000    0.000    0.000    0.000    0.000    0.000 
#
# Total GULP energy -200908.460625 kJ/mol
# GULP energy per Si atom -5580.790573 kJ/mol
# Density = 2.090008 g / cm^3
# Si number density = 20.947754 Si / 1000 Ang^3
#
#
#
# Elastic Constant Matrix: (Units=GPa)
#
#
# Indices 1 2 3 4 5 6 
#
# 1 83.0845 53.5707 11.7887 0.0000 0.0000 0.0000
# 2 53.5707 177.3800 17.8101 0.0000 0.0000 0.0000
# 3 11.7887 17.8101 57.6758 0.0000 0.0000 0.0000
# 4 0.0000 0.0000 0.0000 4.8959 0.0000 0.0000
# 5 0.0000 0.0000 0.0000 0.0000 -0.7951 0.0000
# 6 0.0000 0.0000 0.0000 0.0000 0.0000 16.3682
#
#
#
# Elastic Compliance Matrix: (Units=1/GPa)
#
#
# Indices 1 2 3 4 5 6 
#
# 1 0.015112 -0.004390 -0.001733 0.000000 0.000000 0.000000
# 2 -0.004390 0.007093 -0.001293 0.000000 0.000000 0.000000
# 3 -0.001733 -0.001293 0.018092 0.000000 0.000000 0.000000
# 4 0.000000 0.000000 0.000000 0.204252 0.000000 0.000000
# 5 0.000000 0.000000 0.000000 0.000000 -1.257772 0.000000
# 6 0.000000 0.000000 0.000000 0.000000 0.000000 0.061094
#
#
# Mechanical properties :
#
#
# Convention : Reuss Voigt Hill
#
# Bulk Modulus (GPa) = 39.26999 53.83102 46.55051
# Shear Modulus (GPa) = -5.38325 19.75854 7.18765
#
# Velocity S-wave (km/s) = -1.60481 3.07454 1.85437
# Velocity P-wave (km/s) = 3.91835 6.19332 5.18221
#
# Compressibility (1/GPa) = 0.02546473
#
# Stress axis : x y z
#
# Youngs Moduli (GPa) = 66.17039 140.97800 55.27350
#
# Poissons Ratio (x) = 0.61891 0.09581
# Poissons Ratio (y) = 0.29049 0.07147
# Poissons Ratio (z) = 0.11469 0.18229
#
# Static dielectric constant tensor:
#      x y z
#    x 1.726990 0.000000 0.000000 
#    y 0.000000 1.810830 0.000000 
#    z 0.000000 0.000000 1.767160 
# 
# From -- ./inp_files/30151.got.cif
#   From: 2010.05.17/outbox.cif.g08.bks.cpg/sg53_16_cif.got.tgz:30151.got - 2010.06.03 12:45:16.
