data_PCOD9417532
_publ_section_title
;
Structure prediction by ZEFSAII (Michael W. Deem and Ramdas Pophale) SiO2 
 PCOD9417532
Probable space group: P M N A
;
_chemical_formula_sum "Si O2"
_cell_formula_units_Z 48
_cell_length_a 8.631473
_cell_length_b 10.019579
_cell_length_c 31.439132
_cell_angle_alpha 90.000000
_cell_angle_beta 90.000000
_cell_angle_gamma 90.000000
_cell_volume 2718.973265
_symmetry_space_group_name_H-M "P M N A"
_symmetry_group_IT_number 53
_symmetry_cell_setting 'orthorhombic'
loop_
_space_group_symop_operation_xyz
x,y,z
1/2-x,-y,1/2+z
x,-y,-z
1/2-x,y,1/2-z
-x,-y,-z
1/2+x,y,1/2-z
-x,y,z
1/2+x,-y,1/2+z
loop_
_atom_site_type_symbol
_atom_site_label
_atom_site_fract_x
_atom_site_fract_y
_atom_site_fract_z
Si Si1 0.313458 0.402602 0.370315
Si Si2 0.686493 0.604058 0.296220
Si Si3 0.187199 0.094496 0.461067
Si Si4 0.813269 0.403497 0.462401
Si Si5 0.684833 0.900638 0.203718
Si Si6 0.314311 0.906700 0.631530
O O1 0.500000 0.405280 0.372379
O O2 0.264265 0.500880 0.332687
O O3 0.248407 0.443745 0.416151
O O4 0.267155 0.248621 0.362421
O O5 0.750000 0.563591 0.250000
O O6 0.500000 0.608788 0.294701
O O7 0.749666 0.752382 0.304980
O O8 0.231390 0.248788 0.469596
O O9 0.259694 0.054690 0.415887
O O10 0.000000 0.088607 0.457293
O O11 0.233984 0.000000 0.500000
O O12 0.758342 0.500000 0.500000
O O13 0.000000 0.408652 0.461484
O O14 0.750000 0.941395 0.250000
O O15 0.500000 0.895012 0.205755
O O16 0.739685 0.000719 0.167216
O O17 0.500000 0.915364 0.634269
#
# Coordination Sequence:
#
# PCOD9417532 Si02
#       6
#     8   8   8   8   8   8
#     4   9  20  36  54  77 106 138 173 214 258 307
#     4  10  20  36  55  78 106 136 172 213 258 307
#     4   9  18  33  51  73 103 137 175 217 259 306
#     4   9  18  32  50  73 101 134 172 213 256 304
#     4  11  22  37  56  79 106 138 175 215 261 310
#     4  10  20  36  55  78 108 140 176 217 261 310
#
# _framework density 17.653722999999999
#
# number of rings (size 3 to 8) (size 9 to 14) (size 15 to 20)
#    0.000    2.333    0.000    3.500    0.000    4.667 
#    0.000    3.333    0.000    0.000    0.000    0.000 
#    0.000    0.000    0.000    0.000    0.000    0.000 
#
# Total GULP energy -267894.495898 kJ/mol
# GULP energy per Si atom -5581.135331 kJ/mol
# Density = 1.761354 g / cm^3
# Si number density = 17.653723 Si / 1000 Ang^3
#
#
#
# Elastic Constant Matrix: (Units=GPa)
#
#
# Indices 1 2 3 4 5 6 
#
# 1 53.7568 36.4697 51.9759 0.0000 0.0000 0.0000
# 2 36.4697 92.8070 122.9026 0.0000 0.0000 0.0000
# 3 51.9759 122.9026 196.8014 0.0000 0.0000 0.0000
# 4 0.0000 0.0000 0.0000 44.2734 0.0000 0.0000
# 5 0.0000 0.0000 0.0000 0.0000 34.9837 0.0000
# 6 0.0000 0.0000 0.0000 0.0000 0.0000 -26.2250
#
#
#
# Elastic Compliance Matrix: (Units=1/GPa)
#
#
# Indices 1 2 3 4 5 6 
#
# 1 0.025623 -0.006401 -0.002770 0.000000 0.000000 0.000000
# 2 -0.006401 0.063888 -0.038208 0.000000 0.000000 0.000000
# 3 -0.002770 -0.038208 0.029673 0.000000 0.000000 0.000000
# 4 0.000000 0.000000 0.000000 0.022587 0.000000 0.000000
# 5 0.000000 0.000000 0.000000 0.000000 0.028585 0.000000
# 6 0.000000 0.000000 0.000000 0.000000 0.000000 -0.038131
#
#
# Mechanical properties :
#
#
# Convention : Reuss Voigt Hill
#
# Bulk Modulus (GPa) = 40.93713 85.11794 63.02753
# Shear Modulus (GPa) = 21.26544 19.40754 20.33649
#
# Velocity S-wave (km/s) = 3.47448 3.31923 3.39774
# Velocity P-wave (km/s) = 6.27179 7.93787 7.15350
#
# Compressibility (1/GPa) = 0.02442770
#
# Stress axis : x y z
#
# Youngs Moduli (GPa) = 39.02783 15.65239 33.70025
#
# Poissons Ratio (x) = 0.10019 0.09334
# Poissons Ratio (y) = 0.24982 1.28760
# Poissons Ratio (z) = 0.10809 0.59804
#
# Static dielectric constant tensor:
#      x y z
#    x 1.594360 0.000000 0.000000 
#    y 0.000000 1.593520 0.000000 
#    z 0.000000 0.000000 1.572180 
# 
# From -- ./inp_files/37791.got.cif
#   From: 2010.05.17/outbox.cif.g08.bks.cpg/sg53_19_cif.got.tgz:37791.got - 2010.06.03 12:45:16.
