data_PCOD9417326
_publ_section_title
;
Structure prediction by ZEFSAII (Michael W. Deem and Ramdas Pophale) SiO2 
 PCOD9417326
Probable space group: P M N A
;
_chemical_formula_sum "Si O2"
_cell_formula_units_Z 64
_cell_length_a 15.254577
_cell_length_b 21.057406
_cell_length_c 9.403623
_cell_angle_alpha 90.000000
_cell_angle_beta 90.000000
_cell_angle_gamma 90.000000
_cell_volume 3020.648906
_symmetry_space_group_name_H-M "P M N A"
_symmetry_group_IT_number 53
_symmetry_cell_setting 'orthorhombic'
loop_
_space_group_symop_operation_xyz
x,y,z
1/2-x,-y,1/2+z
x,-y,-z
1/2-x,y,1/2-z
-x,-y,-z
1/2+x,y,1/2-z
-x,y,z
1/2+x,-y,1/2+z
loop_
_atom_site_type_symbol
_atom_site_label
_atom_site_fract_x
_atom_site_fract_y
_atom_site_fract_z
Si Si1 0.645722 0.559977 0.919163
Si Si2 0.663481 0.673410 0.145957
Si Si3 0.392667 0.940060 0.593176
Si Si4 0.902627 0.319508 0.942389
Si Si5 0.607145 0.936308 0.918901
Si Si6 0.351414 0.443742 0.401117
Si Si7 0.106324 0.188668 0.591280
Si Si8 0.106517 0.180344 0.919094
O O1 0.610726 0.565162 0.757679
O O2 0.747876 0.543333 0.892857
O O3 0.605225 0.500000 0.000000
O O4 0.647439 0.620213 0.026081
O O5 0.750000 0.666626 0.250000
O O6 0.593199 0.670351 0.273071
O O7 0.652642 0.742977 0.075680
O O8 0.500000 0.940038 0.592349
O O9 0.365029 0.941731 0.755902
O O10 0.362421 0.875874 0.517814
O O11 0.364740 0.000000 0.500000
O O12 0.861384 0.250085 0.962701
O O13 0.000000 0.318038 0.002792
O O14 0.856477 0.377496 0.016655
O O15 0.500000 0.936247 0.922937
O O16 0.633120 0.869451 0.990228
O O17 0.635812 0.000000 0.000000
O O18 0.390148 0.500000 0.500000
O O19 0.126372 0.168832 0.754009
O O20 0.000000 0.197281 0.578810
O O21 0.000000 0.182702 0.927079
#
# Coordination Sequence:
#
# PCOD9417326 Si02
#       8
#     8   8   8   8   8   8   8   8
#     4  10  21  35  58  83 106 137 186 234 271 320
#     4  11  20  35  57  83 109 144 184 226 273 337
#     4   9  15  23  39  64  95 132 175 217 256 305
#     4  10  20  35  55  79 111 146 177 219 277 335
#     4   9  16  26  43  70 104 140 177 220 268 317
#     4  10  20  36  57  80 107 140 180 226 274 323
#     4   9  18  32  50  75 110 144 177 223 275 326
#     4   8  15  27  42  63  94 132 167 203 255 312
#
# _framework density 21.187501000000001
#
# number of rings (size 3 to 8) (size 9 to 14) (size 15 to 20)
#    0.000    2.500    1.250    2.625    1.750    4.250 
#    0.000    2.500    0.000    2.625    0.000    7.000 
#    0.000    0.000    0.000    0.000    0.000    0.000 
#
# Total GULP energy -356776.493417 kJ/mol
# GULP energy per Si atom -5574.632710 kJ/mol
# Density = 2.113928 g / cm^3
# Si number density = 21.187501 Si / 1000 Ang^3
#
#
#
# Elastic Constant Matrix: (Units=GPa)
#
#
# Indices 1 2 3 4 5 6 
#
# 1 50.0064 9.6250 5.3691 0.0000 0.0000 0.0000
# 2 9.6250 201.9069 150.1761 0.0000 0.0000 0.0000
# 3 5.3691 150.1761 170.0197 0.0000 0.0000 0.0000
# 4 0.0000 0.0000 0.0000 31.6650 0.0000 0.0000
# 5 0.0000 0.0000 0.0000 0.0000 6.6303 0.0000
# 6 0.0000 0.0000 0.0000 0.0000 0.0000 7.9366
#
#
#
# Elastic Compliance Matrix: (Units=1/GPa)
#
#
# Indices 1 2 3 4 5 6 
#
# 1 0.020205 -0.001424 0.000620 0.000000 0.000000 0.000000
# 2 -0.001424 0.014539 -0.012797 0.000000 0.000000 0.000000
# 3 0.000620 -0.012797 0.017166 0.000000 0.000000 0.000000
# 4 0.000000 0.000000 0.000000 0.031581 0.000000 0.000000
# 5 0.000000 0.000000 0.000000 0.000000 0.150824 0.000000
# 6 0.000000 0.000000 0.000000 0.000000 0.000000 0.125999
#
#
# Mechanical properties :
#
#
# Convention : Reuss Voigt Hill
#
# Bulk Modulus (GPa) = 40.47474 83.58595 62.03034
# Shear Modulus (GPa) = 12.63419 26.36389 19.49904
#
# Velocity S-wave (km/s) = 2.44458 3.53131 3.03695
# Velocity P-wave (km/s) = 5.20697 7.49420 6.45274
#
# Compressibility (1/GPa) = 0.02470677
#
# Stress axis : x y z
#
# Youngs Moduli (GPa) = 49.49267 68.78010 58.25579
#
# Poissons Ratio (x) = 0.09797 -0.03612
# Poissons Ratio (y) = 0.07050 0.74551
# Poissons Ratio (z) = -0.03069 0.88019
#
# Static dielectric constant tensor:
#      x y z
#    x 1.846630 0.000000 0.000000 
#    y 0.000000 1.739090 0.000000 
#    z 0.000000 0.000000 1.746440 
# 
# From -- ./inp_files/10243.got.cif
#   From: 2010.05.17/outbox.cif.g08.bks.cpg/sg53_6_cif.got.tgz:10243.got - 2010.06.03 12:45:16.
