data_PCOD9417230
_publ_section_title
;
Structure prediction by ZEFSAII (Michael W. Deem and Ramdas Pophale) SiO2 
 PCOD9417230
Probable space group: P M N A
;
_chemical_formula_sum "Si O2"
_cell_formula_units_Z 36
_cell_length_a 12.788806
_cell_length_b 9.279865
_cell_length_c 14.166187
_cell_angle_alpha 90.000000
_cell_angle_beta 90.000000
_cell_angle_gamma 90.000000
_cell_volume 1681.220311
_symmetry_space_group_name_H-M "P M N A"
_symmetry_group_IT_number 53
_symmetry_cell_setting 'orthorhombic'
loop_
_space_group_symop_operation_xyz
x,y,z
1/2-x,-y,1/2+z
x,-y,-z
1/2-x,y,1/2-z
-x,-y,-z
1/2+x,y,1/2-z
-x,y,z
1/2+x,-y,1/2+z
loop_
_atom_site_type_symbol
_atom_site_label
_atom_site_fract_x
_atom_site_fract_y
_atom_site_fract_z
Si Si1 0.880517 0.991690 0.306082
Si Si2 0.225347 0.506154 0.113391
Si Si3 0.750000 0.744355 0.750000
Si Si4 0.298240 0.819212 0.368774
Si Si5 0.500000 0.562899 0.606653
Si Si6 0.000000 0.829465 0.003396
O O1 0.845948 0.143004 0.259063
O O2 0.000000 0.992655 0.337709
O O3 0.861907 0.875684 0.222209
O O4 0.791915 0.940719 0.381375
O O5 0.269091 0.363536 0.162191
O O6 0.259462 0.665803 0.141359
O O7 0.105390 0.494278 0.149738
O O8 0.231621 0.500000 0.000000
O O9 0.389108 0.795566 0.446119
O O10 0.500000 0.500000 0.500000
O O11 0.500000 0.734198 0.591006
O O12 0.000000 0.000000 0.000000
#
# Coordination Sequence:
#
# PCOD9417230 Si02
#       6
#     8   8   4   8   4   4
#     4  10  23  39  59  87 131 167 214 254 308 381
#     4  11  21  39  62  95 129 156 206 262 328 379
#     4  10  24  38  62  92 122 166 208 270 316 374
#     4  10  20  37  58  90 123 162 198 251 312 377
#     4  10  20  34  58  98 127 147 191 273 326 372
#     4  12  22  32  62  96 126 155 196 261 327 375
#
# _framework density 21.413015999999999
#
# number of rings (size 3 to 8) (size 9 to 14) (size 15 to 20)
#    0.000    1.778    5.556    1.333    7.778    0.000 
#    0.000    1.111    0.000    7.333    0.000    0.000 
#    0.000    0.000    0.000    0.000    0.000    0.000 
#
# Total GULP energy -200409.938415 kJ/mol
# GULP energy per Si atom -5566.942734 kJ/mol
# Density = 2.136428 g / cm^3
# Si number density = 21.413016 Si / 1000 Ang^3
#
#
#
# Elastic Constant Matrix: (Units=GPa)
#
#
# Indices 1 2 3 4 5 6 
#
# 1 112.3509 17.7061 12.4389 0.0000 0.0000 0.0000
# 2 17.7061 170.5020 38.2016 0.0000 0.0000 0.0000
# 3 12.4389 38.2016 60.7144 0.0000 0.0000 0.0000
# 4 0.0000 0.0000 0.0000 28.4565 0.0000 0.0000
# 5 0.0000 0.0000 0.0000 0.0000 16.8120 0.0000
# 6 0.0000 0.0000 0.0000 0.0000 0.0000 19.5248
#
#
#
# Elastic Compliance Matrix: (Units=1/GPa)
#
#
# Indices 1 2 3 4 5 6 
#
# 1 0.009163 -0.000618 -0.001488 0.000000 0.000000 0.000000
# 2 -0.000618 0.006869 -0.004196 0.000000 0.000000 0.000000
# 3 -0.001488 -0.004196 0.019415 0.000000 0.000000 0.000000
# 4 0.000000 0.000000 0.000000 0.035141 0.000000 0.000000
# 5 0.000000 0.000000 0.000000 0.000000 0.059481 0.000000
# 6 0.000000 0.000000 0.000000 0.000000 0.000000 0.051217
#
#
# Mechanical properties :
#
#
# Convention : Reuss Voigt Hill
#
# Bulk Modulus (GPa) = 43.77606 53.36229 48.56917
# Shear Modulus (GPa) = 24.81326 31.30672 28.05999
#
# Velocity S-wave (km/s) = 3.40780 3.82781 3.62390
# Velocity P-wave (km/s) = 5.99768 6.67164 6.34362
#
# Compressibility (1/GPa) = 0.02284353
#
# Stress axis : x y z
#
# Youngs Moduli (GPa) = 109.13604 145.57663 51.50578
#
# Poissons Ratio (x) = 0.08998 0.07666
# Poissons Ratio (y) = 0.06745 0.21609
# Poissons Ratio (z) = 0.16244 0.61077
#
# Static dielectric constant tensor:
#      x y z
#    x 1.841820 0.000000 0.000000 
#    y 0.000000 1.855990 0.000000 
#    z 0.000000 0.000000 1.873450 
# 
# From -- ./inp_files/22338.got.cif
#   From: 2010.05.17/outbox.cif.g08.bks.cpg/sg53_12_cif.got.tgz:22338.got - 2010.06.03 12:45:16.
