data_PCOD9417320
_publ_section_title
;
Structure prediction by ZEFSAII (Michael W. Deem and Ramdas Pophale) SiO2 
 PCOD9417320
Probable space group: P M N A
;
_chemical_formula_sum "Si O2"
_cell_formula_units_Z 48
_cell_length_a 8.643156
_cell_length_b 12.094196
_cell_length_c 26.117047
_cell_angle_alpha 90.000000
_cell_angle_beta 90.000000
_cell_angle_gamma 90.000000
_cell_volume 2730.067750
_symmetry_space_group_name_H-M "P M N A"
_symmetry_group_IT_number 53
_symmetry_cell_setting 'orthorhombic'
loop_
_space_group_symop_operation_xyz
x,y,z
1/2-x,-y,1/2+z
x,-y,-z
1/2-x,y,1/2-z
-x,-y,-z
1/2+x,y,1/2-z
-x,y,z
1/2+x,-y,1/2+z
loop_
_atom_site_type_symbol
_atom_site_label
_atom_site_fract_x
_atom_site_fract_y
_atom_site_fract_z
Si Si1 0.186915 0.763207 0.596648
Si Si2 0.186572 0.376156 0.306098
Si Si3 0.314596 0.369049 0.806327
Si Si4 0.813198 0.372479 0.000752
Si Si5 0.185334 0.766162 0.099278
Si Si6 0.686954 0.003881 0.939926
O O1 0.239532 0.706920 0.649517
O O2 0.245506 0.690747 0.549309
O O3 0.000000 0.761604 0.596295
O O4 0.235416 0.889691 0.587135
O O5 0.250000 0.348551 0.250000
O O6 0.232450 0.503361 0.318152
O O7 0.000000 0.373394 0.304229
O O8 0.250000 0.343021 0.750000
O O9 0.500000 0.364695 0.805325
O O10 0.251674 0.287040 0.849241
O O11 0.765967 0.310167 0.948856
O O12 0.000000 0.369474 0.003778
O O13 0.763672 0.500000 0.000000
O O14 0.244357 0.888936 0.087298
O O15 0.000000 0.765978 0.101821
O O16 0.500000 0.011077 0.938568
O O17 0.732981 0.000000 0.000000
#
# Coordination Sequence:
#
# PCOD9417320 Si02
#       6
#     8   8   8   8   8   8
#     4  10  20  35  55  79 106 139 184 226 268 322
#     4   9  19  35  56  82 109 140 176 220 270 324
#     4  10  20  36  58  82 110 142 178 220 271 324
#     4  10  21  34  50  77 111 142 173 218 275 329
#     4  11  22  35  54  80 110 143 183 225 270 326
#     4  10  20  36  56  77 106 148 188 226 274 322
#
# _framework density 17.581982
#
# number of rings (size 3 to 8) (size 9 to 14) (size 15 to 20)
#    0.000    2.000    1.667    2.000    0.000    3.333 
#    0.000    0.833    0.000    2.000    0.000    0.000 
#    0.000    0.000    0.000    0.000    0.000    0.000 
#
# Total GULP energy -268019.395641 kJ/mol
# GULP energy per Si atom -5583.737409 kJ/mol
# Density = 1.754196 g / cm^3
# Si number density = 17.581982 Si / 1000 Ang^3
#
#
#
# Elastic Constant Matrix: (Units=GPa)
#
#
# Indices 1 2 3 4 5 6 
#
# 1 18.2875 39.6339 37.8995 0.0000 0.0000 0.0000
# 2 39.6339 186.9816 122.9528 0.0000 0.0000 0.0000
# 3 37.8995 122.9528 171.2177 0.0000 0.0000 0.0000
# 4 0.0000 0.0000 0.0000 15.2582 0.0000 0.0000
# 5 0.0000 0.0000 0.0000 0.0000 29.4568 0.0000
# 6 0.0000 0.0000 0.0000 0.0000 0.0000 24.5855
#
#
#
# Elastic Compliance Matrix: (Units=1/GPa)
#
#
# Indices 1 2 3 4 5 6 
#
# 1 0.119965 -0.015095 -0.015715 0.000000 0.000000 0.000000
# 2 -0.015095 0.012032 -0.005299 0.000000 0.000000 0.000000
# 3 -0.015715 -0.005299 0.013124 0.000000 0.000000 0.000000
# 4 0.000000 0.000000 0.000000 0.065538 0.000000 0.000000
# 5 0.000000 0.000000 0.000000 0.000000 0.033948 0.000000
# 6 0.000000 0.000000 0.000000 0.000000 0.000000 0.040674
#
#
# Mechanical properties :
#
#
# Convention : Reuss Voigt Hill
#
# Bulk Modulus (GPa) = 13.71673 86.38435 50.05054
# Shear Modulus (GPa) = 13.09581 25.59347 19.34464
#
# Velocity S-wave (km/s) = 2.73214 3.81946 3.32061
# Velocity P-wave (km/s) = 4.21560 8.28794 6.57500
#
# Compressibility (1/GPa) = 0.07290367
#
# Stress axis : x y z
#
# Youngs Moduli (GPa) = 8.33578 83.10933 76.19402
#
# Poissons Ratio (x) = 1.25454 1.19736
# Poissons Ratio (y) = 0.12583 0.40377
# Poissons Ratio (z) = 0.13099 0.44041
#
# Static dielectric constant tensor:
#      x y z
#    x 1.592050 0.000000 0.000000 
#    y 0.000000 1.586200 0.000000 
#    z 0.000000 0.000000 1.567370 
# 
# From -- ./inp_files/33836.got.cif
#   From: 2010.05.17/outbox.cif.g08.bks.cpg/sg53_17_cif.got.tgz:33836.got - 2010.06.03 12:45:16.
