data_PCOD9417149
_publ_section_title
;
Structure prediction by ZEFSAII (Michael W. Deem and Ramdas Pophale) SiO2 
 PCOD9417149
Probable space group: P M N A
;
_chemical_formula_sum "Si O2"
_cell_formula_units_Z 64
_cell_length_a 8.861317
_cell_length_b 10.749368
_cell_length_c 34.296926
_cell_angle_alpha 90.000000
_cell_angle_beta 90.000000
_cell_angle_gamma 90.000000
_cell_volume 3266.904209
_symmetry_space_group_name_H-M "P M N A"
_symmetry_group_IT_number 53
_symmetry_cell_setting 'orthorhombic'
loop_
_space_group_symop_operation_xyz
x,y,z
1/2-x,-y,1/2+z
x,-y,-z
1/2-x,y,1/2-z
-x,-y,-z
1/2+x,y,1/2-z
-x,y,z
1/2+x,-y,1/2+z
loop_
_atom_site_type_symbol
_atom_site_label
_atom_site_fract_x
_atom_site_fract_y
_atom_site_fract_z
Si Si1 0.327394 0.548924 0.056432
Si Si2 0.680089 0.434762 0.709253
Si Si3 0.677697 0.671519 0.372342
Si Si4 0.177674 0.938113 0.086700
Si Si5 0.818506 0.725904 0.791946
Si Si6 0.677102 0.700365 0.558845
Si Si7 0.675968 0.814662 0.013149
Si Si8 0.179825 0.173760 0.370352
O O1 0.500000 0.505126 0.053481
O O2 0.279516 0.587226 0.099889
O O3 0.219470 0.437198 0.044156
O O4 0.314777 0.676877 0.032532
O O5 0.750000 0.393984 0.750000
O O6 0.500000 0.431493 0.713047
O O7 0.721674 0.351592 0.672207
O O8 0.722028 0.579541 0.702193
O O9 0.500000 0.635742 0.376904
O O10 0.691242 0.812126 0.387584
O O11 0.251073 0.906359 0.044810
O O12 0.000000 0.966017 0.082027
O O13 0.259869 0.047538 0.109789
O O14 0.750000 0.762726 0.750000
O O15 0.751361 0.801889 0.828076
O O16 0.000000 0.736438 0.791272
O O17 0.500000 0.713059 0.564468
O O18 0.736674 0.799628 0.527335
O O19 0.762523 0.721444 0.599496
O O20 0.500000 0.843716 0.006784
O O21 0.000000 0.173726 0.368000
#
# Coordination Sequence:
#
# PCOD9417149 Si02
#       8
#     8   8   8   8   8   8   8   8
#     4  10  20  34  55  83 114 146 182 228 282 338
#     4   9  18  32  53  83 115 144 174 215 269 328
#     4   9  18  34  56  80 109 146 185 226 275 332
#     4  10  21  39  60  81 109 148 193 237 282 334
#     4  10  20  37  61  89 120 151 184 225 276 335
#     4  12  24  37  56  83 114 149 190 234 283 340
#     4  10  21  38  58  83 115 149 187 232 283 337
#     4  12  25  41  60  83 112 148 193 241 288 336
#
# _framework density 19.590413000000002
#
# number of rings (size 3 to 8) (size 9 to 14) (size 15 to 20)
#    0.000    1.750    0.000    4.875    0.000    6.000 
#    0.000    3.125    0.000    1.500    0.000    0.000 
#    0.000    0.000    0.000    0.000    0.000    0.000 
#
# Total GULP energy -357771.150104 kJ/mol
# GULP energy per Si atom -5590.174220 kJ/mol
# Density = 1.954582 g / cm^3
# Si number density = 19.590413 Si / 1000 Ang^3
#
#
#
# Elastic Constant Matrix: (Units=GPa)
#
#
# Indices 1 2 3 4 5 6 
#
# 1 99.9015 24.8134 28.7763 0.0000 0.0000 0.0000
# 2 24.8134 56.4821 9.8760 0.0000 0.0000 0.0000
# 3 28.7763 9.8760 90.1751 0.0000 0.0000 0.0000
# 4 0.0000 0.0000 0.0000 24.1492 0.0000 0.0000
# 5 0.0000 0.0000 0.0000 0.0000 32.1369 0.0000
# 6 0.0000 0.0000 0.0000 0.0000 0.0000-3257.9777
#
#
#
# Elastic Compliance Matrix: (Units=1/GPa)
#
#
# Indices 1 2 3 4 5 6 
#
# 1 0.012158 -0.004754 -0.003359 0.000000 0.000000 0.000000
# 2 -0.004754 0.019909 -0.000663 0.000000 0.000000 0.000000
# 3 -0.003359 -0.000663 0.012234 0.000000 0.000000 0.000000
# 4 0.000000 0.000000 0.000000 0.041409 0.000000 0.000000
# 5 0.000000 0.000000 0.000000 0.000000 0.031117 0.000000
# 6 0.000000 0.000000 0.000000 0.000000 0.000000 -0.000307
#
#
# Mechanical properties :
#
#
# Convention : Reuss Voigt Hill
#
# Bulk Modulus (GPa) = 37.38531 41.49890 39.44211
# Shear Modulus (GPa) = 34.96742 -628.13215 -296.58236
#
# Velocity S-wave (km/s) = 4.22942 -17.92564 -12.31748
# Velocity P-wave (km/s) = 6.55558 20.17941 13.49506
#
# Compressibility (1/GPa) = 0.02674847
#
# Stress axis : x y z
#
# Youngs Moduli (GPa) = 82.24864 50.22807 81.73817
#
# Poissons Ratio (x) = 0.23878 0.27458
# Poissons Ratio (y) = 0.39100 0.05423
# Poissons Ratio (z) = 0.27629 0.03332
#
# Static dielectric constant tensor:
#      x y z
#    x 1.654090 0.000000 0.000000 
#    y 0.000000 1.713430 0.000000 
#    z 0.000000 0.000000 1.673380 
# 
# From -- ./inp_files/38304.got.cif
#   From: 2010.05.17/outbox.cif.g08.bks.cpg/sg53_20_cif.got.tgz:38304.got - 2010.06.03 12:45:16.
