data_PCOD9417854
_publ_section_title
;
Structure prediction by ZEFSAII (Michael W. Deem and Ramdas Pophale) SiO2 
 PCOD9417854
Probable space group: P M N A
;
_chemical_formula_sum "Si O2"
_cell_formula_units_Z 48
_cell_length_a 8.582683
_cell_length_b 31.843759
_cell_length_c 9.261803
_cell_angle_alpha 90.000000
_cell_angle_beta 90.000000
_cell_angle_gamma 90.000000
_cell_volume 2531.296041
_symmetry_space_group_name_H-M "P M N A"
_symmetry_group_IT_number 53
_symmetry_cell_setting 'orthorhombic'
loop_
_space_group_symop_operation_xyz
x,y,z
1/2-x,-y,1/2+z
x,-y,-z
1/2-x,y,1/2-z
-x,-y,-z
1/2+x,y,1/2-z
-x,y,z
1/2+x,-y,1/2+z
loop_
_atom_site_type_symbol
_atom_site_label
_atom_site_fract_x
_atom_site_fract_y
_atom_site_fract_z
Si Si1 0.311634 0.541518 0.912729
Si Si2 0.312486 0.866018 0.913734
Si Si3 0.685915 0.787202 0.412055
Si Si4 0.687397 0.292366 0.087428
Si Si5 0.188073 0.375686 0.587415
Si Si6 0.312175 0.040118 0.088641
O O1 0.250000 0.541328 0.750000
O O2 0.500000 0.541640 0.907653
O O3 0.261819 0.500000 0.000000
O O4 0.260644 0.583093 0.999160
O O5 0.250000 0.861030 0.750000
O O6 0.500000 0.862697 0.911487
O O7 0.268434 0.913185 0.964887
O O8 0.242999 0.830224 0.014514
O O9 0.750000 0.783825 0.250000
O O10 0.500000 0.785979 0.409637
O O11 0.749247 0.748679 0.507118
O O12 0.750000 0.294412 0.250000
O O13 0.500000 0.290733 0.090602
O O14 0.735976 0.333734 0.997964
O O15 0.250000 0.375929 0.750000
O O16 0.000000 0.376156 0.592798
O O17 0.250000 0.036793 0.250000
O O18 0.500000 0.038853 0.090720
O O19 0.254804 0.000000 0.000000
#
# Coordination Sequence:
#
# PCOD9417854 Si02
#       6
#     8   8   8   8   8   8
#     4  10  21  37  57  84 116 150 191 235 281 335
#     4  10  20  37  59  83 113 149 189 231 278 332
#     4  12  25  41  60  84 114 147 186 232 283 336
#     4  11  23  40  61  86 115 149 190 232 280 336
#     4  10  22  38  58  85 116 150 189 234 282 335
#     4   9  19  35  55  81 112 146 185 228 274 327
#
# _framework density 18.962619
#
# number of rings (size 3 to 8) (size 9 to 14) (size 15 to 20)
#    0.000    1.667    0.000    4.500    0.000    5.333 
#    0.000    1.667    0.000    0.000    0.000    0.000 
#    0.000    0.000    0.000    0.000    0.000    0.000 
#
# Total GULP energy -268270.663492 kJ/mol
# GULP energy per Si atom -5588.972156 kJ/mol
# Density = 1.891946 g / cm^3
# Si number density = 18.962619 Si / 1000 Ang^3
#
#
#
# Elastic Constant Matrix: (Units=GPa)
#
#
# Indices 1 2 3 4 5 6 
#
# 1 56.8732 52.5921 42.2204 0.0000 0.0000 0.0000
# 2 52.5921 219.0781 126.3535 0.0000 0.0000 0.0000
# 3 42.2204 126.3535 178.3185 0.0000 0.0000 0.0000
# 4 0.0000 0.0000 0.0000 42.0435 0.0000 0.0000
# 5 0.0000 0.0000 0.0000 0.0000 39.3751 0.0000
# 6 0.0000 0.0000 0.0000 0.0000 0.0000 933.2229
#
#
#
# Elastic Compliance Matrix: (Units=1/GPa)
#
#
# Indices 1 2 3 4 5 6 
#
# 1 0.023306 -0.004079 -0.002628 0.000000 0.000000 0.000000
# 2 -0.004079 0.008433 -0.005010 0.000000 0.000000 0.000000
# 3 -0.002628 -0.005010 0.009780 0.000000 0.000000 0.000000
# 4 0.000000 0.000000 0.000000 0.023785 0.000000 0.000000
# 5 0.000000 0.000000 0.000000 0.000000 0.025397 0.000000
# 6 0.000000 0.000000 0.000000 0.000000 0.000000 0.001072
#
#
# Mechanical properties :
#
#
# Convention : Reuss Voigt Hill
#
# Bulk Modulus (GPa) = 55.29257 99.62241 77.45749
# Shear Modulus (GPa) = 41.24245 218.46856 129.85550
#
# Velocity S-wave (km/s) = 4.66868 10.74524 8.28423
# Velocity P-wave (km/s) = 7.63440 14.37349 11.50829
#
# Compressibility (1/GPa) = 0.01808561
#
# Stress axis : x y z
#
# Youngs Moduli (GPa) = 42.90768 118.57736 102.25006
#
# Poissons Ratio (x) = 0.48372 0.26866
# Poissons Ratio (y) = 0.17504 0.51226
# Poissons Ratio (z) = 0.11274 0.59405
#
# Static dielectric constant tensor:
#      x y z
#    x 1.639590 0.000000 0.000000 
#    y 0.000000 1.664260 0.000000 
#    z 0.000000 0.000000 1.603220 
# 
# From -- ./inp_files/6755.got.cif
#   From: 2010.05.17/outbox.cif.g08.bks.cpg/sg53_4_cif.got.tgz:6755.got - 2010.06.03 12:45:16.
