data_PCOD9417960
_publ_section_title
;
Structure prediction by ZEFSAII (Michael W. Deem and Ramdas Pophale) SiO2 
 PCOD9417960
Probable space group: P M N A
;
_chemical_formula_sum "Si O2"
_cell_formula_units_Z 48
_cell_length_a 28.752134
_cell_length_b 9.613876
_cell_length_c 9.902499
_cell_angle_alpha 90.000000
_cell_angle_beta 90.000000
_cell_angle_gamma 90.000000
_cell_volume 2737.243337
_symmetry_space_group_name_H-M "P M N A"
_symmetry_group_IT_number 53
_symmetry_cell_setting 'orthorhombic'
loop_
_space_group_symop_operation_xyz
x,y,z
1/2-x,-y,1/2+z
x,-y,-z
1/2-x,y,1/2-z
-x,-y,-z
1/2+x,y,1/2-z
-x,y,z
1/2+x,-y,1/2+z
loop_
_atom_site_type_symbol
_atom_site_label
_atom_site_fract_x
_atom_site_fract_y
_atom_site_fract_z
Si Si1 0.805364 0.137326 0.594218
Si Si2 0.594295 0.167745 0.994477
Si Si3 0.381267 0.661271 0.492550
Si Si4 0.447108 0.345489 0.761281
Si Si5 0.944952 0.330588 0.254917
Si Si6 0.701496 0.141900 0.584800
O O1 0.852541 0.209841 0.543769
O O2 0.754089 0.202486 0.576685
O O3 0.809237 0.112442 0.756125
O O4 0.803776 0.000000 0.500000
O O5 0.562404 0.238660 0.881067
O O6 0.577242 0.230490 0.134638
O O7 0.591554 0.000000 0.000000
O O8 0.367032 0.500000 0.500000
O O9 0.411663 0.683051 0.358722
O O10 0.415284 0.686554 0.618766
O O11 0.336498 0.757344 0.479442
O O12 0.500000 0.332698 0.712240
O O13 0.440836 0.507735 0.801629
O O14 0.000000 0.303464 0.235163
O O15 0.700474 0.000000 0.500000
#
# Coordination Sequence:
#
# PCOD9417960 Si02
#       6
#     8   8   8   8   8   8
#     4   9  20  37  58  85 113 144 184 223 277 336
#     4  11  22  36  56  84 114 144 182 233 280 322
#     4  10  21  37  58  84 112 143 186 235 279 319
#     4  10  20  38  59  79 108 150 190 224 277 338
#     4  10  22  38  57  80 112 151 189 225 270 336
#     4  10  20  37  63  83 110 147 187 227 275 334
#
# _framework density 17.535890999999999
#
# number of rings (size 3 to 8) (size 9 to 14) (size 15 to 20)
#    0.000    2.000    1.667    1.500    4.667    4.667 
#    0.000    1.667    0.000    3.000    0.000    0.000 
#    0.000    0.000    0.000    0.000    0.000    0.000 
#
# Total GULP energy -267541.085735 kJ/mol
# GULP energy per Si atom -5573.772619 kJ/mol
# Density = 1.749598 g / cm^3
# Si number density = 17.535891 Si / 1000 Ang^3
#
#
#
# Elastic Constant Matrix: (Units=GPa)
#
#
# Indices 1 2 3 4 5 6 
#
# 1 131.8266 53.9693 38.8067 0.0000 0.0000 0.0000
# 2 53.9693 65.3916 51.5688 0.0000 0.0000 0.0000
# 3 38.8067 51.5688 91.7964 0.0000 0.0000 0.0000
# 4 0.0000 0.0000 0.0000 11.2593 0.0000 0.0000
# 5 0.0000 0.0000 0.0000 0.0000 30.2108 0.0000
# 6 0.0000 0.0000 0.0000 0.0000 0.0000 9.7567
#
#
#
# Elastic Compliance Matrix: (Units=1/GPa)
#
#
# Indices 1 2 3 4 5 6 
#
# 1 0.011493 -0.010151 0.000844 0.000000 0.000000 0.000000
# 2 -0.010151 0.036422 -0.016170 0.000000 0.000000 0.000000
# 3 0.000844 -0.016170 0.019621 0.000000 0.000000 0.000000
# 4 0.000000 0.000000 0.000000 0.088815 0.000000 0.000000
# 5 0.000000 0.000000 0.000000 0.000000 0.033101 0.000000
# 6 0.000000 0.000000 0.000000 0.000000 0.000000 0.102493
#
#
# Mechanical properties :
#
#
# Convention : Reuss Voigt Hill
#
# Bulk Modulus (GPa) = 60.30567 64.18936 62.24751
# Shear Modulus (GPa) = 14.35025 19.89002 17.12013
#
# Velocity S-wave (km/s) = 2.86376 3.37151 3.12796
# Velocity P-wave (km/s) = 6.73790 7.20001 6.97279
#
# Compressibility (1/GPa) = 0.01658219
#
# Stress axis : x y z
#
# Youngs Moduli (GPa) = 87.00875 27.45593 50.96690
#
# Poissons Ratio (x) = 0.27871 -0.04301
# Poissons Ratio (y) = 0.88323 0.82411
# Poissons Ratio (z) = -0.07343 0.44395
#
# Static dielectric constant tensor:
#      x y z
#    x 1.623810 0.000000 0.000000 
#    y 0.000000 1.581500 0.000000 
#    z 0.000000 0.000000 1.596130 
# 
# From -- ./inp_files/12975.got.cif
#   From: 2010.05.17/outbox.cif.g08.bks.cpg/sg53_7_cif.got.tgz:12975.got - 2010.06.03 12:45:16.
