data_PCOD9417782
_publ_section_title
;
Structure prediction by ZEFSAII (Michael W. Deem and Ramdas Pophale) SiO2 
 PCOD9417782
Probable space group: P M N A
;
_chemical_formula_sum "Si O2"
_cell_formula_units_Z 24
_cell_length_a 10.686185
_cell_length_b 8.751471
_cell_length_c 10.426619
_cell_angle_alpha 90.000000
_cell_angle_beta 90.000000
_cell_angle_gamma 90.000000
_cell_volume 975.095721
_symmetry_space_group_name_H-M "P M N A"
_symmetry_group_IT_number 53
_symmetry_cell_setting 'orthorhombic'
loop_
_space_group_symop_operation_xyz
x,y,z
1/2-x,-y,1/2+z
x,-y,-z
1/2-x,y,1/2-z
-x,-y,-z
1/2+x,y,1/2-z
-x,y,z
1/2+x,-y,1/2+z
loop_
_atom_site_type_symbol
_atom_site_label
_atom_site_fract_x
_atom_site_fract_y
_atom_site_fract_z
Si Si1 0.260433 0.316278 0.989096
Si Si2 0.000000 0.356459 0.907954
Si Si3 0.000000 0.385565 0.623102
Si Si4 0.851402 0.936718 0.645943
O O1 0.310284 0.239961 0.118611
O O2 0.250982 0.500000 0.000000
O O3 0.125835 0.263853 0.939480
O O4 0.373860 0.289430 0.890772
O O5 0.000000 0.435156 0.768552
O O6 0.000000 0.500000 0.000000
O O7 0.000000 0.500000 0.500000
O O8 0.750000 0.993173 0.750000
O O9 0.000000 0.947552 0.679461
O O10 0.834210 0.000000 0.500000
#
# Coordination Sequence:
#
# PCOD9417782 Si02
#       4
#     8   4   4   8
#     4  10  22  42  66 103 143 183 235 292 357 428
#     4  10  22  36  61 100 139 184 238 290 358 426
#     4  10  20  36  61  90 139 184 226 294 352 414
#     4  11  27  51  77 108 147 194 245 303 368 438
#
# _framework density 24.612967000000001
#
# number of rings (size 3 to 8) (size 9 to 14) (size 15 to 20)
#    0.000    1.667    1.667    1.000    2.333   14.000 
#    0.000    0.000    0.000    0.000    0.000    0.000 
#    0.000    0.000    0.000    0.000    0.000    0.000 
#
# Total GULP energy -133781.930384 kJ/mol
# GULP energy per Si atom -5574.247099 kJ/mol
# Density = 2.455695 g / cm^3
# Si number density = 24.612967 Si / 1000 Ang^3
#
#
#
# Elastic Constant Matrix: (Units=GPa)
#
#
# Indices 1 2 3 4 5 6 
#
# 1 318.6639 19.6462 93.4214 0.0000 0.0000 0.0000
# 2 19.6462 58.6986 22.9149 0.0000 0.0000 0.0000
# 3 93.4214 22.9149 168.6486 0.0000 0.0000 0.0000
# 4 0.0000 0.0000 0.0000 34.9778 0.0000 0.0000
# 5 0.0000 0.0000 0.0000 0.0000 40.6245 0.0000
# 6 0.0000 0.0000 0.0000 0.0000 0.0000 3.5808
#
#
#
# Elastic Compliance Matrix: (Units=1/GPa)
#
#
# Indices 1 2 3 4 5 6 
#
# 1 0.003759 -0.000470 -0.002018 0.000000 0.000000 0.000000
# 2 -0.000470 0.018049 -0.002192 0.000000 0.000000 0.000000
# 3 -0.002018 -0.002192 0.007345 0.000000 0.000000 0.000000
# 4 0.000000 0.000000 0.000000 0.028590 0.000000 0.000000
# 5 0.000000 0.000000 0.000000 0.000000 0.024616 0.000000
# 6 0.000000 0.000000 0.000000 0.000000 0.000000 0.279266
#
#
# Mechanical properties :
#
#
# Convention : Reuss Voigt Hill
#
# Bulk Modulus (GPa) = 50.52402 90.88624 70.70513
# Shear Modulus (GPa) = 13.24211 43.17187 28.20699
#
# Velocity S-wave (km/s) = 2.32203 4.19266 3.38897
# Velocity P-wave (km/s) = 5.26888 7.77458 6.64098
#
# Compressibility (1/GPa) = 0.01979257
#
# Stress axis : x y z
#
# Youngs Moduli (GPa) = 266.04429 55.40393 136.14119
#
# Poissons Ratio (x) = 0.02605 0.27477
# Poissons Ratio (y) = 0.12508 0.29842
# Poissons Ratio (z) = 0.53695 0.12144
#
# Static dielectric constant tensor:
#      x y z
#    x 2.075240 0.000000 0.000000 
#    y 0.000000 1.232740 0.000000 
#    z 0.000000 0.000000 1.905440 
# 
# From -- ./inp_files/7158.got.cif
#   From: 2010.05.17/outbox.cif.g08.bks.cpg/sg53_4_cif.got.tgz:7158.got - 2010.06.03 12:45:16.
