data_PCOD9417886
_publ_section_title
;
Structure prediction by ZEFSAII (Michael W. Deem and Ramdas Pophale) SiO2 
 PCOD9417886
Probable space group: P M N A
;
_chemical_formula_sum "Si O2"
_cell_formula_units_Z 56
_cell_length_a 8.299711
_cell_length_b 16.794298
_cell_length_c 19.562632
_cell_angle_alpha 90.000000
_cell_angle_beta 90.000000
_cell_angle_gamma 90.000000
_cell_volume 2726.792625
_symmetry_space_group_name_H-M "P M N A"
_symmetry_group_IT_number 53
_symmetry_cell_setting 'orthorhombic'
loop_
_space_group_symop_operation_xyz
x,y,z
1/2-x,-y,1/2+z
x,-y,-z
1/2-x,y,1/2-z
-x,-y,-z
1/2+x,y,1/2-z
-x,y,z
1/2+x,-y,1/2+z
loop_
_atom_site_type_symbol
_atom_site_label
_atom_site_fract_x
_atom_site_fract_y
_atom_site_fract_z
Si Si1 0.806059 0.505059 0.327636
Si Si2 0.193881 0.684219 0.327309
Si Si3 0.810092 0.576637 0.957929
Si Si4 0.804635 0.831063 0.419209
Si Si5 0.306507 0.998373 0.578550
Si Si6 0.808951 0.249489 0.445061
Si Si7 0.691235 0.852498 0.672170
O O1 0.750000 0.493471 0.250000
O O2 0.755037 0.595204 0.348419
O O3 0.724281 0.444580 0.379261
O O4 0.000000 0.498780 0.331883
O O5 0.250000 0.696224 0.250000
O O6 0.250342 0.756189 0.374207
O O7 0.000000 0.684021 0.328921
O O8 0.730409 0.661809 0.970683
O O9 0.000000 0.583517 0.971288
O O10 0.746246 0.500000 0.000000
O O11 0.737778 0.914589 0.393599
O O12 0.750498 0.811861 0.496633
O O13 0.000000 0.833673 0.418424
O O14 0.500000 0.990311 0.575078
O O15 0.243647 0.000000 0.500000
O O16 0.244342 0.927858 0.627514
O O17 0.735061 0.225071 0.372607
O O18 0.000000 0.242208 0.439341
O O19 0.750000 0.850771 0.750000
O O20 0.500000 0.859507 0.674536
#
# Coordination Sequence:
#
# PCOD9417886 Si02
#       7
#     8   8   8   8   8   8   8
#     4  10  20  37  60  83 115 155 198 246 299 359
#     4   9  19  35  54  82 117 153 192 239 292 347
#     4  11  24  40  60  89 123 158 202 252 303 360
#     4  10  21  36  59  88 119 153 196 242 291 352
#     4  10  21  39  62  87 118 156 197 243 296 352
#     4  11  23  40  63  90 119 157 201 249 305 359
#     4  11  24  43  65  91 125 161 203 252 304 363
#
# _framework density 20.536949
#
# number of rings (size 3 to 8) (size 9 to 14) (size 15 to 20)
#    0.000    1.714    1.429    2.571    0.000    6.571 
#    0.000    5.714    0.000    0.000    0.000    0.000 
#    0.000    0.000    0.000    0.000    0.000    0.000 
#
# Total GULP energy -312821.872366 kJ/mol
# GULP energy per Si atom -5586.104864 kJ/mol
# Density = 2.049021 g / cm^3
# Si number density = 20.536949 Si / 1000 Ang^3
#
#
#
# Elastic Constant Matrix: (Units=GPa)
#
#
# Indices 1 2 3 4 5 6 
#
# 1 20.0704 0.1457 5.7179 0.0000 0.0000 0.0000
# 2 0.1457 82.6344 28.3808 0.0000 0.0000 0.0000
# 3 5.7179 28.3808 68.9113 0.0000 0.0000 0.0000
# 4 0.0000 0.0000 0.0000 34.1126 0.0000 0.0000
# 5 0.0000 0.0000 0.0000 0.0000 24.4035 0.0000
# 6 0.0000 0.0000 0.0000 0.0000 0.0000 28.7158
#
#
#
# Elastic Compliance Matrix: (Units=1/GPa)
#
#
# Indices 1 2 3 4 5 6 
#
# 1 0.051211 0.001595 -0.004906 0.000000 0.000000 0.000000
# 2 0.001595 0.014145 -0.005958 0.000000 0.000000 0.000000
# 3 -0.004906 -0.005958 0.017372 0.000000 0.000000 0.000000
# 4 0.000000 0.000000 0.000000 0.029315 0.000000 0.000000
# 5 0.000000 0.000000 0.000000 0.000000 0.040978 0.000000
# 6 0.000000 0.000000 0.000000 0.000000 0.000000 0.034824
#
#
# Mechanical properties :
#
#
# Convention : Reuss Voigt Hill
#
# Bulk Modulus (GPa) = 15.57887 26.67831 21.12859
# Shear Modulus (GPa) = 21.95113 26.60452 24.27783
#
# Velocity S-wave (km/s) = 3.27289 3.60314 3.44198
# Velocity P-wave (km/s) = 4.67810 5.50715 5.10947
#
# Compressibility (1/GPa) = 0.06418952
#
# Stress axis : x y z
#
# Youngs Moduli (GPa) = 19.52719 70.69685 57.56328
#
# Poissons Ratio (x) = -0.11274 0.28240
# Poissons Ratio (y) = -0.03114 0.34295
# Poissons Ratio (z) = 0.09580 0.42120
#
# Static dielectric constant tensor:
#      x y z
#    x 1.709440 0.000000 0.000000 
#    y 0.000000 1.741890 0.000000 
#    z 0.000000 0.000000 1.766980 
# 
# From -- ./inp_files/30723.got.cif
#   From: 2010.05.17/outbox.cif.g08.bks.cpg/sg53_16_cif.got.tgz:30723.got - 2010.06.03 12:45:16.
