data_PCOD9417081
_publ_section_title
;
Structure prediction by ZEFSAII (Michael W. Deem and Ramdas Pophale) SiO2 
 PCOD9417081
Probable space group: P M N A
;
_chemical_formula_sum "Si O2"
_cell_formula_units_Z 64
_cell_length_a 8.816473
_cell_length_b 21.339672
_cell_length_c 19.116857
_cell_angle_alpha 90.000000
_cell_angle_beta 90.000000
_cell_angle_gamma 90.000000
_cell_volume 3596.657749
_symmetry_space_group_name_H-M "P M N A"
_symmetry_group_IT_number 53
_symmetry_cell_setting 'orthorhombic'
loop_
_space_group_symop_operation_xyz
x,y,z
1/2-x,-y,1/2+z
x,-y,-z
1/2-x,y,1/2-z
-x,-y,-z
1/2+x,y,1/2-z
-x,y,z
1/2+x,-y,1/2+z
loop_
_atom_site_type_symbol
_atom_site_label
_atom_site_fract_x
_atom_site_fract_y
_atom_site_fract_z
Si Si1 0.819393 0.193012 0.536713
Si Si2 0.183374 0.503841 0.919267
Si Si3 0.181199 0.754666 0.175692
Si Si4 0.682861 0.248315 0.109521
Si Si5 0.819267 0.877250 0.825305
Si Si6 0.181859 0.062802 0.459511
Si Si7 0.682140 0.389688 0.676367
Si Si8 0.317924 0.384026 0.172385
O O1 0.736607 0.207447 0.608643
O O2 0.776170 0.239059 0.472316
O O3 0.788026 0.123488 0.507679
O O4 0.000000 0.198872 0.547672
O O5 0.227475 0.438737 0.882430
O O6 0.255463 0.561403 0.877457
O O7 0.000000 0.509994 0.915736
O O8 0.228223 0.500000 0.000000
O O9 0.250000 0.775404 0.250000
O O10 0.230654 0.682036 0.164427
O O11 0.000000 0.756465 0.180455
O O12 0.500000 0.240223 0.114386
O O13 0.759336 0.191618 0.151784
O O14 0.722986 0.315912 0.140332
O O15 0.750000 0.892948 0.750000
O O16 0.762700 0.924185 0.885945
O O17 0.000000 0.876600 0.821828
O O18 0.000000 0.060554 0.447371
O O19 0.227463 0.000000 0.500000
O O20 0.750000 0.410878 0.750000
O O21 0.500000 0.389798 0.681031
O O22 0.250000 0.390211 0.250000
O O23 0.500000 0.387758 0.176099
#
# Coordination Sequence:
#
# PCOD9417081 Si02
#       8
#     8   8   8   8   8   8   8   8
#     4   9  18  34  56  82 111 140 174 220 269 319
#     4  10  22  38  55  76 106 141 178 224 275 329
#     4  10  20  34  54  79 106 138 180 225 273 325
#     4   9  20  37  56  81 113 146 182 224 275 332
#     4  11  21  34  56  85 116 149 188 232 274 323
#     4   9  19  38  61  83 113 152 187 223 272 325
#     4   9  19  35  53  74  98 133 176 220 268 321
#     4  11  23  38  56  80 109 143 182 225 275 330
#
# _framework density 17.794298999999999
#
# number of rings (size 3 to 8) (size 9 to 14) (size 15 to 20)
#    0.000    2.250    0.000    3.375    1.750    6.500 
#    0.000    0.625    0.000    0.000    0.000    0.000 
#    0.000    0.000    0.000    0.000    0.000    0.000 
#
# Total GULP energy -357266.200322 kJ/mol
# GULP energy per Si atom -5582.284380 kJ/mol
# Density = 1.775380 g / cm^3
# Si number density = 17.794299 Si / 1000 Ang^3
#
#
#
# Elastic Constant Matrix: (Units=GPa)
#
#
# Indices 1 2 3 4 5 6 
#
# 1 43.8764 36.7362 62.5716 0.0000 0.0000 0.0000
# 2 36.7362 68.0194 74.7795 0.0000 0.0000 0.0000
# 3 62.5716 74.7795 182.9764 0.0000 0.0000 0.0000
# 4 0.0000 0.0000 0.0000 24.5507 0.0000 0.0000
# 5 0.0000 0.0000 0.0000 0.0000 31.4705 0.0000
# 6 0.0000 0.0000 0.0000 0.0000 0.0000 27.9925
#
#
#
# Elastic Compliance Matrix: (Units=1/GPa)
#
#
# Indices 1 2 3 4 5 6 
#
# 1 0.052215 -0.015562 -0.011496 0.000000 0.000000 0.000000
# 2 -0.015562 0.031335 -0.007484 0.000000 0.000000 0.000000
# 3 -0.011496 -0.007484 0.012455 0.000000 0.000000 0.000000
# 4 0.000000 0.000000 0.000000 0.040732 0.000000 0.000000
# 5 0.000000 0.000000 0.000000 0.000000 0.031776 0.000000
# 6 0.000000 0.000000 0.000000 0.000000 0.000000 0.035724
#
#
# Mechanical properties :
#
#
# Convention : Reuss Voigt Hill
#
# Bulk Modulus (GPa) = 37.14681 71.44966 54.29823
# Shear Modulus (GPa) = 17.71203 24.85506 21.28355
#
# Velocity S-wave (km/s) = 3.15838 3.74143 3.46220
# Velocity P-wave (km/s) = 5.84991 7.67494 6.82372
#
# Compressibility (1/GPa) = 0.02692021
#
# Stress axis : x y z
#
# Youngs Moduli (GPa) = 19.15162 31.91346 80.28934
#
# Poissons Ratio (x) = 0.49665 0.92297
# Poissons Ratio (y) = 0.29805 0.60090
# Poissons Ratio (z) = 0.22016 0.23885
#
# Static dielectric constant tensor:
#      x y z
#    x 1.598360 0.000000 0.000000 
#    y 0.000000 1.596890 0.000000 
#    z 0.000000 0.000000 1.549600 
# 
# From -- ./inp_files/26795.got.cif
#   From: 2010.05.17/outbox.cif.g08.bks.cpg/sg53_14_cif.got.tgz:26795.got - 2010.06.03 12:45:16.
