data_PCOD9417508
_publ_section_title
;
Structure prediction by ZEFSAII (Michael W. Deem and Ramdas Pophale) SiO2 
 PCOD9417508
Probable space group: P M N A
;
_chemical_formula_sum "Si O2"
_cell_formula_units_Z 40
_cell_length_a 18.153840
_cell_length_b 17.843779
_cell_length_c 6.142456
_cell_angle_alpha 90.000000
_cell_angle_beta 90.000000
_cell_angle_gamma 90.000000
_cell_volume 1989.744869
_symmetry_space_group_name_H-M "P M N A"
_symmetry_group_IT_number 53
_symmetry_cell_setting 'orthorhombic'
loop_
_space_group_symop_operation_xyz
x,y,z
1/2-x,-y,1/2+z
x,-y,-z
1/2-x,y,1/2-z
-x,-y,-z
1/2+x,y,1/2-z
-x,y,z
1/2+x,-y,1/2+z
loop_
_atom_site_type_symbol
_atom_site_label
_atom_site_fract_x
_atom_site_fract_y
_atom_site_fract_z
Si Si1 0.161148 0.296959 0.769250
Si Si2 0.173648 0.944005 0.171165
Si Si3 0.086762 0.158761 0.521826
Si Si4 0.324349 0.194882 0.373385
Si Si5 0.660887 0.471060 0.751428
O O1 0.250000 0.290556 0.750000
O O2 0.121742 0.236192 0.615791
O O3 0.141576 0.382939 0.739792
O O4 0.143769 0.267591 0.010589
O O5 0.250000 0.980973 0.250000
O O6 0.121257 0.913017 0.357517
O O7 0.197455 0.867987 0.047822
O O8 0.137587 0.000000 0.000000
O O9 0.114724 0.157729 0.276688
O O10 0.000000 0.160101 0.546889
O O11 0.250000 0.215073 0.250000
O O12 0.638168 0.500000 0.500000
O O13 0.750000 0.480553 0.750000
O O14 0.637775 0.500000 0.000000
#
# Coordination Sequence:
#
# PCOD9417508 Si02
#       5
#     8   8   8   8   8
#     4  10  20  35  63  89 119 162 206 256 311 379
#     4  11  23  39  65  92 117 159 205 251 306 378
#     4  11  24  40  59  91 126 158 201 258 312 367
#     4  11  19  36  61  88 116 158 214 253 305 367
#     4   9  19  32  54  93 130 159 204 270 330 378
#
# _framework density 20.103078
#
# number of rings (size 3 to 8) (size 9 to 14) (size 15 to 20)
#    0.000    1.600    4.000    1.800    2.800    4.400 
#    0.000    1.000    0.000    1.200    0.000    0.000 
#    0.000    0.000    0.000    0.000    0.000    0.000 
#
# Total GULP energy -222816.709863 kJ/mol
# GULP energy per Si atom -5570.417747 kJ/mol
# Density = 2.005732 g / cm^3
# Si number density = 20.103078 Si / 1000 Ang^3
#
#
#
# Elastic Constant Matrix: (Units=GPa)
#
#
# Indices 1 2 3 4 5 6 
#
# 1 75.2818 13.4154 21.7221 0.0000 0.0000 0.0000
# 2 13.4154 102.5003 49.7949 0.0000 0.0000 0.0000
# 3 21.7221 49.7949 116.7196 0.0000 0.0000 0.0000
# 4 0.0000 0.0000 0.0000 32.4854 0.0000 0.0000
# 5 0.0000 0.0000 0.0000 0.0000 9.4529 0.0000
# 6 0.0000 0.0000 0.0000 0.0000 0.0000 4.3713
#
#
#
# Elastic Compliance Matrix: (Units=1/GPa)
#
#
# Indices 1 2 3 4 5 6 
#
# 1 0.014079 -0.000719 -0.002314 0.000000 0.000000 0.000000
# 2 -0.000719 0.012343 -0.005132 0.000000 0.000000 0.000000
# 3 -0.002314 -0.005132 0.011188 0.000000 0.000000 0.000000
# 4 0.000000 0.000000 0.000000 0.030783 0.000000 0.000000
# 5 0.000000 0.000000 0.000000 0.000000 0.105787 0.000000
# 6 0.000000 0.000000 0.000000 0.000000 0.000000 0.228764
#
#
# Mechanical properties :
#
#
# Convention : Reuss Voigt Hill
#
# Bulk Modulus (GPa) = 46.99014 51.59631 49.29322
# Shear Modulus (GPa) = 11.72699 23.23321 17.48010
#
# Velocity S-wave (km/s) = 2.41787 3.40325 2.95197
# Velocity P-wave (km/s) = 5.58750 6.41595 6.01600
#
# Compressibility (1/GPa) = 0.02128106
#
# Stress axis : x y z
#
# Youngs Moduli (GPa) = 71.02745 81.01522 89.38478
#
# Poissons Ratio (x) = 0.05823 0.20680
# Poissons Ratio (y) = 0.05105 0.45874
# Poissons Ratio (z) = 0.16433 0.41578
#
# Static dielectric constant tensor:
#      x y z
#    x 1.679400 0.000000 0.000000 
#    y 0.000000 1.705140 0.000000 
#    z 0.000000 0.000000 1.726060 
# 
# From -- ./inp_files/2085.got.cif
#   From: 2010.05.17/outbox.cif.g08.bks.cpg/sg53_2_cif.got.tgz:2085.got - 2010.06.03 12:45:16.
