data_PCOD9417156
_publ_section_title
;
Structure prediction by ZEFSAII (Michael W. Deem and Ramdas Pophale) SiO2 
 PCOD9417156
Probable space group: P M N A
;
_chemical_formula_sum "Si O2"
_cell_formula_units_Z 56
_cell_length_a 8.854608
_cell_length_b 22.607733
_cell_length_c 14.667450
_cell_angle_alpha 90.000000
_cell_angle_beta 90.000000
_cell_angle_gamma 90.000000
_cell_volume 2936.168474
_symmetry_space_group_name_H-M "P M N A"
_symmetry_group_IT_number 53
_symmetry_cell_setting 'orthorhombic'
loop_
_space_group_symop_operation_xyz
x,y,z
1/2-x,-y,1/2+z
x,-y,-z
1/2-x,y,1/2-z
-x,-y,-z
1/2+x,y,1/2-z
-x,y,z
1/2+x,-y,1/2+z
loop_
_atom_site_type_symbol
_atom_site_label
_atom_site_fract_x
_atom_site_fract_y
_atom_site_fract_z
Si Si1 0.679898 0.899534 0.657769
Si Si2 0.820158 0.370048 0.541964
Si Si3 0.681350 0.139145 0.546170
Si Si4 0.179651 0.397370 0.343281
Si Si5 0.670945 0.020220 0.894556
Si Si6 0.681255 0.749548 0.149178
Si Si7 0.820014 0.527691 0.154651
O O1 0.750000 0.873013 0.750000
O O2 0.500000 0.898731 0.664341
O O3 0.722914 0.869516 0.561024
O O4 0.737842 0.967129 0.651055
O O5 0.790013 0.360851 0.434823
O O6 0.781813 0.312974 0.601560
O O7 0.730866 0.426966 0.577414
O O8 0.000000 0.381833 0.551631
O O9 0.500000 0.139612 0.552054
O O10 0.745458 0.082868 0.601992
O O11 0.751210 0.197851 0.588570
O O12 0.250000 0.373267 0.250000
O O13 0.250247 0.462579 0.358115
O O14 0.000000 0.403738 0.331898
O O15 0.500000 0.025105 0.858278
O O16 0.660983 0.000000 0.000000
O O17 0.750000 0.751854 0.250000
O O18 0.500000 0.754992 0.153610
O O19 0.750000 0.550346 0.250000
O O20 0.000000 0.523799 0.160698
#
# Coordination Sequence:
#
# PCOD9417156 Si02
#       7
#     8   8   8   8   8   8   8
#     4  10  20  34  55  84 117 150 185 227 274 328
#     4  10  22  39  58  81 111 147 185 229 278 326
#     4  10  21  38  58  82 113 148 187 231 278 327
#     4  10  20  36  57  82 114 148 183 225 274 328
#     4   9  17  31  53  80 110 144 181 223 272 323
#     4  11  24  42  62  83 108 141 184 230 277 329
#     4  11  21  33  54  84 116 149 185 226 274 329
#
# _framework density 19.072476000000002
#
# number of rings (size 3 to 8) (size 9 to 14) (size 15 to 20)
#    0.000    1.857    0.000    5.143    0.000    9.143 
#    0.000    3.571    0.000    3.429    0.000    0.000 
#    0.000    0.000    0.000    0.000    0.000    0.000 
#
# Total GULP energy -312774.045109 kJ/mol
# GULP energy per Si atom -5585.250806 kJ/mol
# Density = 1.902907 g / cm^3
# Si number density = 19.072476 Si / 1000 Ang^3
#
#
#
# Elastic Constant Matrix: (Units=GPa)
#
#
# Indices 1 2 3 4 5 6 
#
# 1 78.6560 25.9673 53.1382 0.0000 0.0000 0.0000
# 2 25.9673 41.5755 38.7580 0.0000 0.0000 0.0000
# 3 53.1382 38.7580 141.7365 0.0000 0.0000 0.0000
# 4 0.0000 0.0000 0.0000 23.2280 0.0000 0.0000
# 5 0.0000 0.0000 0.0000 0.0000 32.7610 0.0000
# 6 0.0000 0.0000 0.0000 0.0000 0.0000 -13.2347
#
#
#
# Elastic Compliance Matrix: (Units=1/GPa)
#
#
# Indices 1 2 3 4 5 6 
#
# 1 0.018345 -0.006773 -0.005026 0.000000 0.000000 0.000000
# 2 -0.006773 0.034782 -0.006972 0.000000 0.000000 0.000000
# 3 -0.005026 -0.006972 0.010846 0.000000 0.000000 0.000000
# 4 0.000000 0.000000 0.000000 0.043052 0.000000 0.000000
# 5 0.000000 0.000000 0.000000 0.000000 0.030524 0.000000
# 6 0.000000 0.000000 0.000000 0.000000 0.000000 -0.075559
#
#
# Mechanical properties :
#
#
# Convention : Reuss Voigt Hill
#
# Bulk Modulus (GPa) = 37.83265 55.29945 46.56605
# Shear Modulus (GPa) = 46.15045 18.15783 32.15414
#
# Velocity S-wave (km/s) = 4.92442 3.08887 4.11042
# Velocity P-wave (km/s) = 7.22583 6.46365 6.85534
#
# Compressibility (1/GPa) = 0.02643220
#
# Stress axis : x y z
#
# Youngs Moduli (GPa) = 54.51166 28.75014 92.19996
#
# Poissons Ratio (x) = 0.19472 0.46336
# Poissons Ratio (y) = 0.36920 0.64283
# Poissons Ratio (z) = 0.27395 0.20045
#
# Static dielectric constant tensor:
#      x y z
#    x 1.644840 0.000000 0.000000 
#    y 0.000000 1.623390 0.000000 
#    z 0.000000 0.000000 1.711210 
# 
# From -- ./inp_files/20458.got.cif
#   From: 2010.05.17/outbox.cif.g08.bks.cpg/sg53_11_cif.got.tgz:20458.got - 2010.06.03 12:45:16.
