data_PCOD9417296
_publ_section_title
;
Structure prediction by ZEFSAII (Michael W. Deem and Ramdas Pophale) SiO2 
 PCOD9417296
Probable space group: P M N A
;
_chemical_formula_sum "Si O2"
_cell_formula_units_Z 56
_cell_length_a 21.658762
_cell_length_b 8.301183
_cell_length_c 15.779058
_cell_angle_alpha 90.000000
_cell_angle_beta 90.000000
_cell_angle_gamma 90.000000
_cell_volume 2836.969649
_symmetry_space_group_name_H-M "P M N A"
_symmetry_group_IT_number 53
_symmetry_cell_setting 'orthorhombic'
loop_
_space_group_symop_operation_xyz
x,y,z
1/2-x,-y,1/2+z
x,-y,-z
1/2-x,y,1/2-z
-x,-y,-z
1/2+x,y,1/2-z
-x,y,z
1/2+x,-y,1/2+z
loop_
_atom_site_type_symbol
_atom_site_label
_atom_site_fract_x
_atom_site_fract_y
_atom_site_fract_z
Si Si1 0.339235 0.895301 0.920576
Si Si2 0.425630 0.394801 0.380928
Si Si3 0.810025 0.200510 0.691237
Si Si4 0.116702 0.257511 0.949389
Si Si5 0.931242 0.127757 0.788739
Si Si6 0.929576 0.768058 0.711921
Si Si7 0.745506 0.321558 0.967933
O O1 0.388609 0.787388 0.871279
O O2 0.312929 0.025647 0.854351
O O3 0.286787 0.783797 0.960074
O O4 0.365389 0.000000 0.000000
O O5 0.500000 0.395544 0.382537
O O6 0.401512 0.569055 0.408988
O O7 0.402800 0.270631 0.452905
O O8 0.405169 0.346660 0.286677
O O9 0.750000 0.210749 0.750000
O O10 0.874307 0.216613 0.741857
O O11 0.799167 0.322515 0.613574
O O12 0.082422 0.132698 0.888823
O O13 0.190012 0.238934 0.943531
O O14 0.000000 0.196637 0.773015
O O15 0.931118 0.946279 0.753954
O O16 0.000000 0.722153 0.691568
O O17 0.759162 0.500000 0.000000
#
# Coordination Sequence:
#
# PCOD9417296 Si02
#       7
#     8   8   8   8   8   8   8
#     4   9  21  39  60  83 114 151 190 242 294 345
#     4  10  20  35  54  81 118 152 189 233 287 352
#     4  10  20  39  59  84 117 153 192 243 293 340
#     4  11  20  35  54  79 116 158 189 230 293 344
#     4  10  20  36  60  86 112 147 195 240 289 349
#     4   9  20  38  59  87 114 144 192 242 288 347
#     4  11  22  39  55  84 118 151 197 238 286 348
#
# _framework density 19.739371999999999
#
# number of rings (size 3 to 8) (size 9 to 14) (size 15 to 20)
#    0.000    2.000    2.857    1.714    0.000    4.286 
#    2.571    4.286    0.000    0.857    0.000    0.000 
#    0.000    0.000    0.000    0.000    0.000    0.000 
#
# Total GULP energy -312525.846725 kJ/mol
# GULP energy per Si atom -5580.818692 kJ/mol
# Density = 1.969444 g / cm^3
# Si number density = 19.739372 Si / 1000 Ang^3
#
#
#
# Elastic Constant Matrix: (Units=GPa)
#
#
# Indices 1 2 3 4 5 6 
#
# 1 105.4971 14.7588 44.9530 0.0000 0.0000 0.0000
# 2 14.7588 13.8295 13.5705 0.0000 0.0000 0.0000
# 3 44.9530 13.5705 77.0617 0.0000 0.0000 0.0000
# 4 0.0000 0.0000 0.0000 29.2864 0.0000 0.0000
# 5 0.0000 0.0000 0.0000 0.0000 36.2015 0.0000
# 6 0.0000 0.0000 0.0000 0.0000 0.0000 24.9261
#
#
#
# Elastic Compliance Matrix: (Units=1/GPa)
#
#
# Indices 1 2 3 4 5 6 
#
# 1 0.013301 -0.007956 -0.006358 0.000000 0.000000 0.000000
# 2 -0.007956 0.092174 -0.011591 0.000000 0.000000 0.000000
# 3 -0.006358 -0.011591 0.018727 0.000000 0.000000 0.000000
# 4 0.000000 0.000000 0.000000 0.034145 0.000000 0.000000
# 5 0.000000 0.000000 0.000000 0.000000 0.027623 0.000000
# 6 0.000000 0.000000 0.000000 0.000000 0.000000 0.040119
#
#
# Mechanical properties :
#
#
# Convention : Reuss Voigt Hill
#
# Bulk Modulus (GPa) = 13.81367 38.10587 25.95977
# Shear Modulus (GPa) = 16.55471 26.28989 21.42230
#
# Velocity S-wave (km/s) = 2.89911 3.65341 3.29790
# Velocity P-wave (km/s) = 4.26845 6.09450 5.26130
#
# Compressibility (1/GPa) = 0.07239205
#
# Stress axis : x y z
#
# Youngs Moduli (GPa) = 75.18149 10.84907 53.39999
#
# Poissons Ratio (x) = 0.08632 0.33952
# Poissons Ratio (y) = 0.59814 0.61894
# Poissons Ratio (z) = 0.47800 0.12575
#
# Static dielectric constant tensor:
#      x y z
#    x 1.683010 0.000000 0.000000 
#    y 0.000000 1.709660 0.000000 
#    z 0.000000 0.000000 1.707110 
# 
# From -- ./inp_files/24363.got.cif
#   From: 2010.05.17/outbox.cif.g08.bks.cpg/sg53_13_cif.got.tgz:24363.got - 2010.06.03 12:45:16.
