data_PCOD9417927
_publ_section_title
;
Structure prediction by ZEFSAII (Michael W. Deem and Ramdas Pophale) SiO2 
 PCOD9417927
Probable space group: P M N A
;
_chemical_formula_sum "Si O2"
_cell_formula_units_Z 40
_cell_length_a 14.549054
_cell_length_b 7.279173
_cell_length_c 13.816639
_cell_angle_alpha 90.000000
_cell_angle_beta 90.000000
_cell_angle_gamma 90.000000
_cell_volume 1463.252273
_symmetry_space_group_name_H-M "P M N A"
_symmetry_group_IT_number 53
_symmetry_cell_setting 'orthorhombic'
loop_
_space_group_symop_operation_xyz
x,y,z
1/2-x,-y,1/2+z
x,-y,-z
1/2-x,y,1/2-z
-x,-y,-z
1/2+x,y,1/2-z
-x,y,z
1/2+x,-y,1/2+z
loop_
_atom_site_type_symbol
_atom_site_label
_atom_site_fract_x
_atom_site_fract_y
_atom_site_fract_z
Si Si1 0.296311 0.348148 0.847599
Si Si2 0.000000 0.028906 0.358985
Si Si3 0.500000 0.341449 0.830022
Si Si4 0.659228 0.000000 0.500000
Si Si5 0.201838 0.093387 0.347076
Si Si6 0.500000 0.046116 0.648035
Si Si7 0.842454 0.500000 0.000000
Si Si8 0.000000 0.618890 0.857871
O O1 0.250000 0.419670 0.750000
O O2 0.399130 0.416023 0.860518
O O3 0.303722 0.128079 0.836631
O O4 0.225447 0.393750 0.929915
O O5 0.000000 0.841653 0.418069
O O6 0.094783 0.137014 0.360595
O O7 0.000000 0.877222 0.258896
O O8 0.500000 0.456431 0.719572
O O9 0.729381 0.119619 0.435589
O O10 0.588560 0.082148 0.581420
O O11 0.250000 0.164542 0.250000
O O12 0.500000 0.830516 0.676405
O O13 0.912445 0.602618 0.927970
#
# Coordination Sequence:
#
# PCOD9417927 Si02
#       8
#     8   4   4   4   8   4   4   4
#     4  10  20  37  61  88 117 157 203 243 291 357
#     4  10  21  40  65  87 116 160 204 242 288 359
#     4  10  21  40  65  87 116 160 204 242 288 359
#     4  11  22  37  60  88 120 159 196 247 296 358
#     4  10  20  37  61  88 117 157 203 243 291 357
#     4  11  23  37  59  92 122 150 196 255 303 344
#     4  11  22  37  60  88 120 159 196 247 296 358
#     4  11  23  37  59  92 122 150 196 255 303 344
#
# _framework density 27.336366999999999
#
# number of rings (size 3 to 8) (size 9 to 14) (size 15 to 20)
#    0.000    1.600    4.000    1.200    0.000    4.000 
#    0.000    6.000    0.000    0.000    0.000    0.000 
#    0.000    0.000    0.000    0.000    0.000    0.000 
#
# Total GULP energy -223486.331756 kJ/mol
# GULP energy per Si atom -5587.158294 kJ/mol
# Density = 2.727415 g / cm^3
# Si number density = 27.336367 Si / 1000 Ang^3
#
#
#
# Elastic Constant Matrix: (Units=GPa)
#
#
# Indices 1 2 3 4 5 6 
#
# 1 322.5347 26.5622 72.9231 0.0000 0.0000 0.0000
# 2 26.5622 123.7126 13.7981 0.0000 0.0000 0.0000
# 3 72.9231 13.7981 106.1021 0.0000 0.0000 0.0000
# 4 0.0000 0.0000 0.0000 21.1523 0.0000 0.0000
# 5 0.0000 0.0000 0.0000 0.0000 54.8480 0.0000
# 6 0.0000 0.0000 0.0000 0.0000 0.0000 2.9619
#
#
#
# Elastic Compliance Matrix: (Units=1/GPa)
#
#
# Indices 1 2 3 4 5 6 
#
# 1 0.003703 -0.000519 -0.002478 0.000000 0.000000 0.000000
# 2 -0.000519 0.008275 -0.000720 0.000000 0.000000 0.000000
# 3 -0.002478 -0.000720 0.011221 0.000000 0.000000 0.000000
# 4 0.000000 0.000000 0.000000 0.047276 0.000000 0.000000
# 5 0.000000 0.000000 0.000000 0.000000 0.018232 0.000000
# 6 0.000000 0.000000 0.000000 0.000000 0.000000 0.337620
#
#
# Mechanical properties :
#
#
# Convention : Reuss Voigt Hill
#
# Bulk Modulus (GPa) = 63.42208 86.54624 74.98416
# Shear Modulus (GPa) = 11.38911 45.06350 28.22630
#
# Velocity S-wave (km/s) = 2.04336 4.06455 3.21683
# Velocity P-wave (km/s) = 5.36825 7.33184 6.42550
#
# Compressibility (1/GPa) = 0.01576738
#
# Stress axis : x y z
#
# Youngs Moduli (GPa) = 270.02276 120.84744 89.11498
#
# Poissons Ratio (x) = 0.06269 0.22081
# Poissons Ratio (y) = 0.14009 0.06412
# Poissons Ratio (z) = 0.66907 0.08696
#
# Static dielectric constant tensor:
#      x y z
#    x 2.027620 0.000000 0.000000 
#    y 0.000000 2.302150 0.000000 
#    z 0.000000 0.000000 3.024510 
# 
# From -- ./inp_files/22532.got.cif
#   From: 2010.05.17/outbox.cif.g08.bks.cpg/sg53_12_cif.got.tgz:22532.got - 2010.06.03 12:45:16.
