data_PCOD9417817
_publ_section_title
;
Structure prediction by ZEFSAII (Michael W. Deem and Ramdas Pophale) SiO2 
 PCOD9417817
Probable space group: P M N A
;
_chemical_formula_sum "Si O2"
_cell_formula_units_Z 56
_cell_length_a 13.035916
_cell_length_b 14.822286
_cell_length_c 12.746700
_cell_angle_alpha 90.000000
_cell_angle_beta 90.000000
_cell_angle_gamma 90.000000
_cell_volume 2462.943826
_symmetry_space_group_name_H-M "P M N A"
_symmetry_group_IT_number 53
_symmetry_cell_setting 'orthorhombic'
loop_
_space_group_symop_operation_xyz
x,y,z
1/2-x,-y,1/2+z
x,-y,-z
1/2-x,y,1/2-z
-x,-y,-z
1/2+x,y,1/2-z
-x,y,z
1/2+x,-y,1/2+z
loop_
_atom_site_type_symbol
_atom_site_label
_atom_site_fract_x
_atom_site_fract_y
_atom_site_fract_z
Si Si1 0.171628 0.272755 0.412214
Si Si2 0.615010 0.045309 0.321187
Si Si3 0.690692 0.584243 0.078588
Si Si4 0.216863 0.908107 0.505041
Si Si5 0.887926 0.248714 0.192829
Si Si6 0.880381 0.850327 0.171159
Si Si7 0.615522 0.644011 0.296217
O O1 0.146558 0.337490 0.506223
O O2 0.149638 0.172908 0.452349
O O3 0.294032 0.271464 0.382977
O O4 0.121355 0.300401 0.302413
O O5 0.500000 0.043705 0.366699
O O6 0.700064 0.056266 0.409525
O O7 0.623181 0.143683 0.269607
O O8 0.626980 0.947130 0.266856
O O9 0.632025 0.586867 0.189716
O O10 0.804841 0.610499 0.117025
O O11 0.690801 0.500000 0.000000
O O12 0.290890 0.864684 0.415093
O O13 0.152178 0.000000 0.500000
O O14 0.000000 0.259861 0.144464
O O15 0.866361 0.752220 0.223549
O O16 0.000000 0.848340 0.131485
O O17 0.500000 0.634200 0.332994
#
# Coordination Sequence:
#
# PCOD9417817 Si02
#       7
#     8   8   8   8   8   8   8
#     4  10  20  37  56  84 116 155 198 240 297 350
#     4   8  14  25  45  79 120 160 196 234 282 332
#     4  11  25  45  65  88 121 154 191 255 311 358
#     4   9  15  26  48  82 115 153 192 236 282 347
#     4   9  19  34  55  85 122 160 202 241 281 345
#     4   9  15  28  53  83 117 154 194 242 287 341
#     4  10  23  43  66  93 118 151 199 244 299 365
#
# _framework density 22.737017999999999
#
# number of rings (size 3 to 8) (size 9 to 14) (size 15 to 20)
#    0.000    2.571    1.429    0.429    0.000    6.286 
#    2.571    2.857    0.000    0.429    0.000    0.000 
#    0.000    0.000    0.000    0.000    0.000    0.000 
#
# Total GULP energy -311773.733432 kJ/mol
# GULP energy per Si atom -5567.388097 kJ/mol
# Density = 2.268527 g / cm^3
# Si number density = 22.737018 Si / 1000 Ang^3
#
#
#
# Elastic Constant Matrix: (Units=GPa)
#
#
# Indices 1 2 3 4 5 6 
#
# 1 49.0518 -6.4018 -24.8689 0.0000 0.0000 0.0000
# 2 -6.4018 69.6361 21.8003 0.0000 0.0000 0.0000
# 3 -24.8689 21.8003 51.2658 0.0000 0.0000 0.0000
# 4 0.0000 0.0000 0.0000 83.1356 0.0000 0.0000
# 5 0.0000 0.0000 0.0000 0.0000 -19.3483 0.0000
# 6 0.0000 0.0000 0.0000 0.0000 0.0000 8.9403
#
#
#
# Elastic Compliance Matrix: (Units=1/GPa)
#
#
# Indices 1 2 3 4 5 6 
#
# 1 0.027248 -0.001884 0.014019 0.000000 0.000000 0.000000
# 2 -0.001884 0.016696 -0.008014 0.000000 0.000000 0.000000
# 3 0.014019 -0.008014 0.029715 0.000000 0.000000 0.000000
# 4 0.000000 0.000000 0.000000 0.012029 0.000000 0.000000
# 5 0.000000 0.000000 0.000000 0.000000 -0.051684 0.000000
# 6 0.000000 0.000000 0.000000 0.000000 0.000000 0.111853
#
#
# Mechanical properties :
#
#
# Convention : Reuss Voigt Hill
#
# Bulk Modulus (GPa) = 12.20964 16.77920 14.49442
# Shear Modulus (GPa) = 30.31888 26.50713 28.41300
#
# Velocity S-wave (km/s) = 3.65562 3.41811 3.53885
# Velocity P-wave (km/s) = 4.81660 4.79308 4.80486
#
# Compressibility (1/GPa) = 0.08190248
#
# Stress axis : x y z
#
# Youngs Moduli (GPa) = 36.69936 59.89482 33.65348
#
# Poissons Ratio (x) = 0.11283 -0.47180
# Poissons Ratio (y) = 0.06914 0.26969
# Poissons Ratio (z) = -0.51450 0.47998
#
# Static dielectric constant tensor:
#      x y z
#    x 1.849680 0.000000 0.000000 
#    y 0.000000 1.986240 0.000000 
#    z 0.000000 0.000000 1.834480 
# 
# From -- ./inp_files/16023.got.cif
#   From: 2010.05.17/outbox.cif.g08.bks.cpg/sg53_9_cif.got.tgz:16023.got - 2010.06.03 12:45:16.
