data_PCOD9418445
_publ_section_title
;
Structure prediction by ZEFSAII (Michael W. Deem and Ramdas Pophale) SiO2 
 PCOD9418445
Probable space group: P M N A
;
_chemical_formula_sum "Si O2"
_cell_formula_units_Z 48
_cell_length_a 18.412240
_cell_length_b 15.064723
_cell_length_c 8.752989
_cell_angle_alpha 90.000000
_cell_angle_beta 90.000000
_cell_angle_gamma 90.000000
_cell_volume 2427.862910
_symmetry_space_group_name_H-M "P M N A"
_symmetry_group_IT_number 53
_symmetry_cell_setting 'orthorhombic'
loop_
_space_group_symop_operation_xyz
x,y,z
1/2-x,-y,1/2+z
x,-y,-z
1/2-x,y,1/2-z
-x,-y,-z
1/2+x,y,1/2-z
-x,y,z
1/2+x,-y,1/2+z
loop_
_atom_site_type_symbol
_atom_site_label
_atom_site_fract_x
_atom_site_fract_y
_atom_site_fract_z
Si Si1 0.086091 0.226447 0.980637
Si Si2 0.346812 0.407282 0.411856
Si Si3 0.187448 0.059462 0.631065
Si Si4 0.172956 0.401598 0.444113
Si Si5 0.415819 0.944043 0.657299
Si Si6 0.671173 0.246163 0.827930
O O1 0.121183 0.216949 0.814037
O O2 0.000000 0.213727 0.970616
O O3 0.107024 0.326001 0.024942
O O4 0.113087 0.152987 0.103794
O O5 0.363899 0.500000 0.500000
O O6 0.260769 0.391151 0.439467
O O7 0.355652 0.401725 0.229031
O O8 0.250000 0.078654 0.750000
O O9 0.168783 0.157048 0.569959
O O10 0.220240 0.000000 0.500000
O O11 0.126867 0.999813 0.714888
O O12 0.156883 0.500000 0.500000
O O13 0.147502 0.328311 0.566704
O O14 0.500000 0.934959 0.705193
O O15 0.414076 0.000000 0.500000
O O16 0.750000 0.267199 0.750000
#
# Coordination Sequence:
#
# PCOD9418445 Si02
#       6
#     8   8   8   8   8   8
#     4  11  23  40  64  89 123 166 205 251 311 375
#     4  10  21  38  62  93 123 158 206 256 309 370
#     4  11  25  38  60  92 125 158 205 261 310 361
#     4  10  21  36  63  93 122 157 202 257 307 363
#     4  10  21  41  63  85 120 166 207 243 302 376
#     4  11  22  39  60  90 123 161 204 257 305 363
#
# _framework density 19.770472999999999
#
# number of rings (size 3 to 8) (size 9 to 14) (size 15 to 20)
#    0.000    1.500    3.333    1.500    7.000    0.667 
#    0.000    0.833    0.000    2.000    0.000    0.000 
#    0.000    0.000    0.000    0.000    0.000    0.000 
#
# Total GULP energy -267622.287008 kJ/mol
# GULP energy per Si atom -5575.464313 kJ/mol
# Density = 1.972547 g / cm^3
# Si number density = 19.770473 Si / 1000 Ang^3
#
#
#
# Elastic Constant Matrix: (Units=GPa)
#
#
# Indices 1 2 3 4 5 6 
#
# 1 22.6623 12.7781 -10.5513 0.0000 0.0000 0.0000
# 2 12.7781 135.8637 26.4990 0.0000 0.0000 0.0000
# 3 -10.5513 26.4990 38.2430 0.0000 0.0000 0.0000
# 4 0.0000 0.0000 0.0000 42.4112 0.0000 0.0000
# 5 0.0000 0.0000 0.0000 0.0000 19.7524 0.0000
# 6 0.0000 0.0000 0.0000 0.0000 0.0000 17.8260
#
#
#
# Elastic Compliance Matrix: (Units=1/GPa)
#
#
# Indices 1 2 3 4 5 6 
#
# 1 0.061288 -0.010478 0.024170 0.000000 0.000000 0.000000
# 2 -0.010478 0.010302 -0.010029 0.000000 0.000000 0.000000
# 3 0.024170 -0.010029 0.039766 0.000000 0.000000 0.000000
# 4 0.000000 0.000000 0.000000 0.023579 0.000000 0.000000
# 5 0.000000 0.000000 0.000000 0.000000 0.050627 0.000000
# 6 0.000000 0.000000 0.000000 0.000000 0.000000 0.056098
#
#
# Mechanical properties :
#
#
# Convention : Reuss Voigt Hill
#
# Bulk Modulus (GPa) = 8.42599 28.24673 18.33636
# Shear Modulus (GPa) = 18.25518 27.20080 22.72799
#
# Velocity S-wave (km/s) = 3.04197 3.71324 3.39424
# Velocity P-wave (km/s) = 4.07545 5.71862 4.96547
#
# Compressibility (1/GPa) = 0.11868047
#
# Stress axis : x y z
#
# Youngs Moduli (GPa) = 16.31654 97.06917 25.14682
#
# Poissons Ratio (x) = 1.01711 -0.60779
# Poissons Ratio (y) = 0.17097 0.25220
# Poissons Ratio (z) = -0.39437 0.97353
#
# Static dielectric constant tensor:
#      x y z
#    x 1.698310 0.000000 0.000000 
#    y 0.000000 1.748290 0.000000 
#    z 0.000000 0.000000 1.753540 
# 
# From -- ./inp_files/9956.got.cif
#   From: 2010.05.17/outbox.cif.g08.bks.cpg/sg53_5_cif.got.tgz:9956.got - 2010.06.03 12:45:16.
