data_PCOD9418595
_publ_section_title
;
Structure prediction by ZEFSAII (Michael W. Deem and Ramdas Pophale) SiO2 
 PCOD9418595
Probable space group: P M N A
;
_chemical_formula_sum "Si O2"
_cell_formula_units_Z 48
_cell_length_a 17.839074
_cell_length_b 15.230121
_cell_length_c 9.797075
_cell_angle_alpha 90.000000
_cell_angle_beta 90.000000
_cell_angle_gamma 90.000000
_cell_volume 2661.779607
_symmetry_space_group_name_H-M "P M N A"
_symmetry_group_IT_number 53
_symmetry_cell_setting 'orthorhombic'
loop_
_space_group_symop_operation_xyz
x,y,z
1/2-x,-y,1/2+z
x,-y,-z
1/2-x,y,1/2-z
-x,-y,-z
1/2+x,y,1/2-z
-x,y,z
1/2+x,-y,1/2+z
loop_
_atom_site_type_symbol
_atom_site_label
_atom_site_fract_x
_atom_site_fract_y
_atom_site_fract_z
Si Si1 0.141902 0.707614 0.169850
Si Si2 0.338222 0.342079 0.215071
Si Si3 0.697174 0.747477 0.048966
Si Si4 0.270408 0.085414 0.407417
Si Si5 0.415143 0.199922 0.411933
Si Si6 0.588974 0.512104 0.337901
O O1 0.151875 0.759463 0.311257
O O2 0.223461 0.705788 0.096640
O O3 0.114803 0.609670 0.199381
O O4 0.089178 0.754499 0.060422
O O5 0.250000 0.333286 0.250000
O O6 0.384246 0.272330 0.305573
O O7 0.367193 0.437844 0.254871
O O8 0.344076 0.315916 0.057065
O O9 0.719063 0.836565 0.970058
O O10 0.250000 0.069638 0.250000
O O11 0.355390 0.121536 0.412394
O O12 0.262071 0.000000 0.500000
O O13 0.500000 0.174827 0.379657
O O14 0.603856 0.500000 0.500000
O O15 0.500000 0.501662 0.317135
#
# Coordination Sequence:
#
# PCOD9418595 Si02
#       6
#     8   8   8   8   8   8
#     4  10  21  37  60  87 124 161 204 253 298 356
#     4  12  20  38  62  87 118 163 213 250 298 354
#     4  10  21  40  59  92 119 152 205 253 306 353
#     4  11  23  41  69  97 120 152 198 254 304 369
#     4  11  21  40  64  89 125 166 201 240 304 376
#     4  11  22  36  56  87 123 162 206 253 300 349
#
# _framework density 18.033048000000001
#
# number of rings (size 3 to 8) (size 9 to 14) (size 15 to 20)
#    0.000    1.167    6.667    1.000    7.000    1.000 
#    0.000    4.167    0.000    0.500    0.000    0.000 
#    0.000    0.000    0.000    0.000    0.000    0.000 
#
# Total GULP energy -268077.858368 kJ/mol
# GULP energy per Si atom -5584.955383 kJ/mol
# Density = 1.799200 g / cm^3
# Si number density = 18.033048 Si / 1000 Ang^3
#
#
#
# Elastic Constant Matrix: (Units=GPa)
#
#
# Indices 1 2 3 4 5 6 
#
# 1 62.9229 36.8157 44.6435 0.0000 0.0000 0.0000
# 2 36.8157 100.5220 52.3347 0.0000 0.0000 0.0000
# 3 44.6435 52.3347 142.1706 0.0000 0.0000 0.0000
# 4 0.0000 0.0000 0.0000 31.7025 0.0000 0.0000
# 5 0.0000 0.0000 0.0000 0.0000 18.5897 0.0000
# 6 0.0000 0.0000 0.0000 0.0000 0.0000 5.6695
#
#
#
# Elastic Compliance Matrix: (Units=1/GPa)
#
#
# Indices 1 2 3 4 5 6 
#
# 1 0.022835 -0.005728 -0.005062 0.000000 0.000000 0.000000
# 2 -0.005728 0.013743 -0.003260 0.000000 0.000000 0.000000
# 3 -0.005062 -0.003260 0.009824 0.000000 0.000000 0.000000
# 4 0.000000 0.000000 0.000000 0.031543 0.000000 0.000000
# 5 0.000000 0.000000 0.000000 0.000000 0.053793 0.000000
# 6 0.000000 0.000000 0.000000 0.000000 0.000000 0.176383
#
#
# Mechanical properties :
#
#
# Convention : Reuss Voigt Hill
#
# Bulk Modulus (GPa) = 54.64057 63.68926 59.16491
# Shear Modulus (GPa) = 14.60607 22.64712 18.62660
#
# Velocity S-wave (km/s) = 2.84907 3.54767 3.21739
# Velocity P-wave (km/s) = 6.41786 7.22330 6.83246
#
# Compressibility (1/GPa) = 0.01830142
#
# Stress axis : x y z
#
# Youngs Moduli (GPa) = 43.79181 72.76235 101.79574
#
# Poissons Ratio (x) = 0.41677 0.51530
# Poissons Ratio (y) = 0.25083 0.33190
# Poissons Ratio (z) = 0.22168 0.23724
#
# Static dielectric constant tensor:
#      x y z
#    x 1.620750 0.000000 0.000000 
#    y 0.000000 1.603580 0.000000 
#    z 0.000000 0.000000 1.633540 
# 
# From -- ./inp_files/10021.got.cif
#   From: 2010.05.17/outbox.cif.g08.bks.cpg/sg53_6_cif.got.tgz:10021.got - 2010.06.03 12:45:16.
