data_PCOD9418340
_publ_section_title
;
Structure prediction by ZEFSAII (Michael W. Deem and Ramdas Pophale) SiO2 
 PCOD9418340
Probable space group: P M N A
;
_chemical_formula_sum "Si O2"
_cell_formula_units_Z 40
_cell_length_a 8.472411
_cell_length_b 13.779589
_cell_length_c 18.639605
_cell_angle_alpha 90.000000
_cell_angle_beta 90.000000
_cell_angle_gamma 90.000000
_cell_volume 2176.105689
_symmetry_space_group_name_H-M "P M N A"
_symmetry_group_IT_number 53
_symmetry_cell_setting 'orthorhombic'
loop_
_space_group_symop_operation_xyz
x,y,z
1/2-x,-y,1/2+z
x,-y,-z
1/2-x,y,1/2-z
-x,-y,-z
1/2+x,y,1/2-z
-x,y,z
1/2+x,-y,1/2+z
loop_
_atom_site_type_symbol
_atom_site_label
_atom_site_fract_x
_atom_site_fract_y
_atom_site_fract_z
Si Si1 0.687380 0.184405 0.168339
Si Si2 0.690505 0.402436 0.667864
Si Si3 0.308966 0.190795 0.668267
Si Si4 0.810419 0.611961 0.832373
Si Si5 0.808928 0.001005 0.917431
O O1 0.750000 0.176670 0.250000
O O2 0.500000 0.184163 0.170878
O O3 0.744721 0.287826 0.136730
O O4 0.749140 0.093559 0.123696
O O5 0.750000 0.402276 0.750000
O O6 0.500000 0.403197 0.668284
O O7 0.740979 0.297176 0.638632
O O8 0.739372 0.506982 0.635846
O O9 0.250000 0.181620 0.750000
O O10 0.500000 0.189481 0.669515
O O11 0.254717 0.099330 0.622007
O O12 0.750000 0.610678 0.750000
O O13 0.000000 0.617407 0.832383
O O14 0.000000 0.999911 0.915625
O O15 0.758320 0.000000 0.000000
#
# Coordination Sequence:
#
# PCOD9418340 Si02
#       5
#     8   8   8   8   8
#     4  11  21  33  51  74 100 128 162 201 240 285
#     4   8  14  24  41  67  96 122 149 187 233 282
#     4   9  17  30  49  73  98 124 157 196 239 286
#     4   9  15  25  43  68  97 124 152 188 234 283
#     4  10  21  36  52  70  96 130 166 205 248 292
#
# _framework density 18.381460000000001
#
# number of rings (size 3 to 8) (size 9 to 14) (size 15 to 20)
#    0.000    2.600    0.000    4.200    0.000    3.600 
#    0.000    0.000    0.000    1.200    0.000    8.400 
#    0.000    0.000    0.000    0.000    0.000    0.000 
#
# Total GULP energy -222773.444587 kJ/mol
# GULP energy per Si atom -5569.336115 kJ/mol
# Density = 1.833962 g / cm^3
# Si number density = 18.381460 Si / 1000 Ang^3
#
#
#
# Elastic Constant Matrix: (Units=GPa)
#
#
# Indices 1 2 3 4 5 6 
#
# 1 26.9118 31.3464 15.0533 0.0000 0.0000 0.0000
# 2 31.3464 250.6669 71.4312 0.0000 0.0000 0.0000
# 3 15.0533 71.4312 54.0447 0.0000 0.0000 0.0000
# 4 0.0000 0.0000 0.0000 -5.0887 0.0000 0.0000
# 5 0.0000 0.0000 0.0000 0.0000 12.6268 0.0000
# 6 0.0000 0.0000 0.0000 0.0000 0.0000 39.1625
#
#
#
# Elastic Compliance Matrix: (Units=1/GPa)
#
#
# Indices 1 2 3 4 5 6 
#
# 1 0.045704 -0.003349 -0.008304 0.000000 0.000000 0.000000
# 2 -0.003349 0.006645 -0.007850 0.000000 0.000000 0.000000
# 3 -0.008304 -0.007850 0.031192 0.000000 0.000000 0.000000
# 4 0.000000 0.000000 0.000000 -0.196516 0.000000 0.000000
# 5 0.000000 0.000000 0.000000 0.000000 0.079197 0.000000
# 6 0.000000 0.000000 0.000000 0.000000 0.000000 0.025535
#
#
# Mechanical properties :
#
#
# Convention : Reuss Voigt Hill
#
# Bulk Modulus (GPa) = 22.45417 63.03170 42.74293
# Shear Modulus (GPa) = 109.63116 23.59296 66.61206
#
# Velocity S-wave (km/s) = 7.73122 3.58651 6.02639
# Velocity P-wave (km/s) = 9.58842 7.17747 8.46918
#
# Compressibility (1/GPa) = 0.04453516
#
# Stress axis : x y z
#
# Youngs Moduli (GPa) = 21.87990 150.48471 32.05987
#
# Poissons Ratio (x) = 0.50400 0.26621
# Poissons Ratio (y) = 0.07328 0.25167
# Poissons Ratio (z) = 0.18168 1.18133
#
# Static dielectric constant tensor:
#      x y z
#    x 1.619190 0.000000 0.000000 
#    y 0.000000 1.711630 0.000000 
#    z 0.000000 0.000000 1.568510 
# 
# From -- ./inp_files/19865.got.cif
#   From: 2010.05.17/outbox.cif.g08.bks.cpg/sg53_10_cif.got.tgz:19865.got - 2010.06.03 12:45:16.
