data_PCOD9418718
_publ_section_title
;
Structure prediction by ZEFSAII (Michael W. Deem and Ramdas Pophale) SiO2 
 PCOD9418718
Probable space group: P M N A
;
_chemical_formula_sum "Si O2"
_cell_formula_units_Z 48
_cell_length_a 17.096380
_cell_length_b 9.764159
_cell_length_c 14.689577
_cell_angle_alpha 90.000000
_cell_angle_beta 90.000000
_cell_angle_gamma 90.000000
_cell_volume 2452.157128
_symmetry_space_group_name_H-M "P M N A"
_symmetry_group_IT_number 53
_symmetry_cell_setting 'orthorhombic'
loop_
_space_group_symop_operation_xyz
x,y,z
1/2-x,-y,1/2+z
x,-y,-z
1/2-x,y,1/2-z
-x,-y,-z
1/2+x,y,1/2-z
-x,y,z
1/2+x,-y,1/2+z
loop_
_atom_site_type_symbol
_atom_site_label
_atom_site_fract_x
_atom_site_fract_y
_atom_site_fract_z
Si Si1 0.592977 0.959319 0.288962
Si Si2 0.180004 0.255685 0.676603
Si Si3 0.407981 0.269733 0.241298
Si Si4 0.150441 0.606099 0.924612
Si Si5 0.168535 0.463983 0.397225
Si Si6 0.198612 0.858039 0.044101
O O1 0.500000 0.958411 0.303094
O O2 0.619220 0.858205 0.208263
O O3 0.637761 0.900321 0.376892
O O4 0.618184 0.114918 0.266139
O O5 0.250000 0.261192 0.750000
O O6 0.145560 0.405558 0.663820
O O7 0.225174 0.214598 0.585056
O O8 0.500000 0.265066 0.222743
O O9 0.392856 0.364531 0.330100
O O10 0.364652 0.331406 0.153528
O O11 0.237151 0.550218 0.900078
O O12 0.116983 0.500000 0.000000
O O13 0.159873 0.751604 0.975035
O O14 0.142803 0.500000 0.500000
O O15 0.222724 0.000000 0.000000
#
# Coordination Sequence:
#
# PCOD9418718 Si02
#       6
#     8   8   8   8   8   8
#     4  10  24  41  59  89 128 168 204 251 309 373
#     4  10  21  38  61  90 120 155 204 251 304 362
#     4  11  25  42  60  89 129 167 206 251 309 373
#     4  11  22  40  65  95 125 158 201 260 312 367
#     4  11  23  41  65  90 120 160 207 263 303 358
#     4  11  21  37  65  95 120 158 206 254 312 372
#
# _framework density 19.574601999999999
#
# number of rings (size 3 to 8) (size 9 to 14) (size 15 to 20)
#    0.000    1.333    5.000    1.500    4.667    3.667 
#    0.000    0.000    0.000    2.500    0.000    0.000 
#    0.000    0.000    0.000    0.000    0.000    0.000 
#
# Total GULP energy -268002.580963 kJ/mol
# GULP energy per Si atom -5583.387103 kJ/mol
# Density = 1.953005 g / cm^3
# Si number density = 19.574602 Si / 1000 Ang^3
#
#
#
# Elastic Constant Matrix: (Units=GPa)
#
#
# Indices 1 2 3 4 5 6 
#
# 1 23.6376 6.6138 10.0834 0.0000 0.0000 0.0000
# 2 6.6138 109.2932 22.8439 0.0000 0.0000 0.0000
# 3 10.0834 22.8439 48.9140 0.0000 0.0000 0.0000
# 4 0.0000 0.0000 0.0000 47.6951 0.0000 0.0000
# 5 0.0000 0.0000 0.0000 0.0000 -5.3926 0.0000
# 6 0.0000 0.0000 0.0000 0.0000 0.0000 18.5927
#
#
#
# Elastic Compliance Matrix: (Units=1/GPa)
#
#
# Indices 1 2 3 4 5 6 
#
# 1 0.046464 -0.000897 -0.009159 0.000000 0.000000 0.000000
# 2 -0.000897 0.010157 -0.004558 0.000000 0.000000 0.000000
# 3 -0.009159 -0.004558 0.024461 0.000000 0.000000 0.000000
# 4 0.000000 0.000000 0.000000 0.020967 0.000000 0.000000
# 5 0.000000 0.000000 0.000000 0.000000 -0.185441 0.000000
# 6 0.000000 0.000000 0.000000 0.000000 0.000000 0.053784
#
#
# Mechanical properties :
#
#
# Convention : Reuss Voigt Hill
#
# Bulk Modulus (GPa) = 19.28582 28.99189 24.13886
# Shear Modulus (GPa) = 295.76146 21.66598 158.71372
#
# Velocity S-wave (km/s) = 12.30539 3.33053 9.01429
# Velocity P-wave (km/s) = 14.55234 5.44362 10.98644
#
# Compressibility (1/GPa) = 0.05185157
#
# Stress axis : x y z
#
# Youngs Moduli (GPa) = 21.52223 98.45634 40.88126
#
# Poissons Ratio (x) = 0.08834 0.37444
# Poissons Ratio (y) = 0.01931 0.18636
# Poissons Ratio (z) = 0.19713 0.44881
#
# Static dielectric constant tensor:
#      x y z
#    x 1.647460 0.000000 0.000000 
#    y 0.000000 1.697230 0.000000 
#    z 0.000000 0.000000 1.732830 
# 
# From -- ./inp_files/23608.got.cif
#   From: 2010.05.17/outbox.cif.g08.bks.cpg/sg53_12_cif.got.tgz:23608.got - 2010.06.03 12:45:16.
