data_PCOD9418084
_publ_section_title
;
Structure prediction by ZEFSAII (Michael W. Deem and Ramdas Pophale) SiO2 
 PCOD9418084
Probable space group: P M N A
;
_chemical_formula_sum "Si O2"
_cell_formula_units_Z 56
_cell_length_a 16.079521
_cell_length_b 18.138497
_cell_length_c 9.892993
_cell_angle_alpha 90.000000
_cell_angle_beta 90.000000
_cell_angle_gamma 90.000000
_cell_volume 2885.373950
_symmetry_space_group_name_H-M "P M N A"
_symmetry_group_IT_number 53
_symmetry_cell_setting 'orthorhombic'
loop_
_space_group_symop_operation_xyz
x,y,z
1/2-x,-y,1/2+z
x,-y,-z
1/2-x,y,1/2-z
-x,-y,-z
1/2+x,y,1/2-z
-x,y,z
1/2+x,-y,1/2+z
loop_
_atom_site_type_symbol
_atom_site_label
_atom_site_fract_x
_atom_site_fract_y
_atom_site_fract_z
Si Si1 0.099200 0.087039 0.782083
Si Si2 0.406946 0.674463 0.919557
Si Si3 0.751951 0.573599 0.912308
Si Si4 0.593003 0.320238 0.404183
Si Si5 0.848552 0.172676 0.533830
Si Si6 0.401756 0.922224 0.792237
Si Si7 0.157505 0.163718 0.040918
O O1 0.140921 0.148296 0.687593
O O2 0.000000 0.091789 0.766064
O O3 0.125741 0.005870 0.733726
O O4 0.123043 0.103945 0.935622
O O5 0.500000 0.645755 0.948231
O O6 0.331859 0.618655 0.948309
O O7 0.402546 0.690429 0.758533
O O8 0.392944 0.751004 0.997277
O O9 0.750000 0.558981 0.750000
O O10 0.832703 0.624406 0.940002
O O11 0.756236 0.500000 0.000000
O O12 0.500000 0.347246 0.436888
O O13 0.608304 0.240389 0.468813
O O14 0.887264 0.107341 0.442502
O O15 0.752910 0.179207 0.492137
O O16 0.500000 0.917421 0.760993
O O17 0.353964 0.868767 0.690028
#
# Coordination Sequence:
#
# PCOD9418084 Si02
#       7
#     8   8   8   8   8   8   8
#     4  11  25  41  55  83 125 166 207 263 323 367
#     4  10  20  38  65  92 122 164 208 246 293 362
#     4  10  22  42  66  96 125 155 196 244 299 365
#     4  10  20  38  65  92 122 164 208 246 293 362
#     4  12  23  38  61  89 121 160 213 262 308 366
#     4  11  23  39  61  85 117 164 215 261 311 371
#     4  12  23  38  61  89 121 160 213 262 308 366
#
# _framework density 19.40823
#
# number of rings (size 3 to 8) (size 9 to 14) (size 15 to 20)
#    0.000    1.143    2.857    4.286    0.000    6.286 
#    2.571    0.000    0.000    0.000    0.000    0.000 
#    0.000    0.000    0.000    0.000    0.000    0.000 
#
# Total GULP energy -313098.353723 kJ/mol
# GULP energy per Si atom -5591.042031 kJ/mol
# Density = 1.936406 g / cm^3
# Si number density = 19.408230 Si / 1000 Ang^3
#
#
#
# Elastic Constant Matrix: (Units=GPa)
#
#
# Indices 1 2 3 4 5 6 
#
# 1 127.2879 37.9844 2.2767 0.0000 0.0000 0.0000
# 2 37.9844 102.9087 11.9812 0.0000 0.0000 0.0000
# 3 2.2767 11.9812 27.8157 0.0000 0.0000 0.0000
# 4 0.0000 0.0000 0.0000 32.6499 0.0000 0.0000
# 5 0.0000 0.0000 0.0000 0.0000 -20.3976 0.0000
# 6 0.0000 0.0000 0.0000 0.0000 0.0000 -220.8522
#
#
#
# Elastic Compliance Matrix: (Units=1/GPa)
#
#
# Indices 1 2 3 4 5 6 
#
# 1 0.008842 -0.003347 0.000718 0.000000 0.000000 0.000000
# 2 -0.003347 0.011498 -0.004678 0.000000 0.000000 0.000000
# 3 0.000718 -0.004678 0.037907 0.000000 0.000000 0.000000
# 4 0.000000 0.000000 0.000000 0.030628 0.000000 0.000000
# 5 0.000000 0.000000 0.000000 0.000000 -0.049025 0.000000
# 6 0.000000 0.000000 0.000000 0.000000 0.000000 -0.004528
#
#
# Mechanical properties :
#
#
# Convention : Reuss Voigt Hill
#
# Bulk Modulus (GPa) = 22.91907 40.27742 31.59824
# Shear Modulus (GPa) = 77.54202 -28.00198 24.77002
#
# Velocity S-wave (km/s) = 6.32771 -3.80253 3.57636
# Velocity P-wave (km/s) = 8.07596 1.23242 5.77668
#
# Compressibility (1/GPa) = 0.04363179
#
# Stress axis : x y z
#
# Youngs Moduli (GPa) = 113.09333 86.97496 26.38011
#
# Poissons Ratio (x) = 0.29113 -0.01894
# Poissons Ratio (y) = 0.37856 0.12342
# Poissons Ratio (z) = -0.08121 0.40691
#
# Static dielectric constant tensor:
#      x y z
#    x 1.688240 0.000000 0.000000 
#    y 0.000000 1.644840 0.000000 
#    z 0.000000 0.000000 1.640130 
# 
# From -- ./inp_files/8863.got.cif
#   From: 2010.05.17/outbox.cif.g08.bks.cpg/sg53_5_cif.got.tgz:8863.got - 2010.06.03 12:45:16.
