data_PCOD9418181
_publ_section_title
;
Structure prediction by ZEFSAII (Michael W. Deem and Ramdas Pophale) SiO2 
 PCOD9418181
Probable space group: P M N A
;
_chemical_formula_sum "Si O2"
_cell_formula_units_Z 48
_cell_length_a 15.237198
_cell_length_b 17.093340
_cell_length_c 9.707515
_cell_angle_alpha 90.000000
_cell_angle_beta 90.000000
_cell_angle_gamma 90.000000
_cell_volume 2528.366995
_symmetry_space_group_name_H-M "P M N A"
_symmetry_group_IT_number 53
_symmetry_cell_setting 'orthorhombic'
loop_
_space_group_symop_operation_xyz
x,y,z
1/2-x,-y,1/2+z
x,-y,-z
1/2-x,y,1/2-z
-x,-y,-z
1/2+x,y,1/2-z
-x,y,z
1/2+x,-y,1/2+z
loop_
_atom_site_type_symbol
_atom_site_label
_atom_site_fract_x
_atom_site_fract_y
_atom_site_fract_z
Si Si1 0.352967 0.277764 0.766757
Si Si2 0.102093 0.700272 0.707840
Si Si3 0.893410 0.588842 0.471076
Si Si4 0.597142 0.157130 0.003855
Si Si5 0.730648 0.925056 0.585353
Si Si6 0.897279 0.221874 0.032313
O O1 0.250000 0.264083 0.750000
O O2 0.366956 0.363587 0.833621
O O3 0.392753 0.258857 0.618608
O O4 0.391553 0.215195 0.874706
O O5 0.141083 0.639885 0.599923
O O6 0.104149 0.784802 0.634602
O O7 0.000000 0.677013 0.723529
O O8 0.138199 0.713752 0.859013
O O9 0.866166 0.500000 0.500000
O O10 0.000000 0.590603 0.470180
O O11 0.500000 0.121782 0.001090
O O12 0.676607 0.098024 0.016020
O O13 0.750000 0.936057 0.750000
O O14 0.663262 0.853936 0.555938
O O15 0.697631 0.000000 0.500000
O O16 0.000000 0.204133 0.063248
#
# Coordination Sequence:
#
# PCOD9418181 Si02
#       6
#     8   8   8   8   8   8
#     4  11  21  36  62  92 121 159 207 257 300 358
#     4   8  16  33  60  85 108 154 204 239 291 355
#     4   9  18  36  60  88 123 162 204 247 298 365
#     4  10  20  40  64  85 116 161 208 244 293 372
#     4  12  27  42  62  91 125 160 197 253 317 371
#     4  11  22  40  63  88 120 159 206 256 306 361
#
# _framework density 18.984584999999999
#
# number of rings (size 3 to 8) (size 9 to 14) (size 15 to 20)
#    0.000    1.833    3.333    2.500    2.333    0.667 
#    0.000    2.500    0.000    4.000    0.000    0.000 
#    0.000    0.000    0.000    0.000    0.000    0.000 
#
# Total GULP energy -267573.118049 kJ/mol
# GULP energy per Si atom -5574.439959 kJ/mol
# Density = 1.894138 g / cm^3
# Si number density = 18.984585 Si / 1000 Ang^3
#
#
#
# Elastic Constant Matrix: (Units=GPa)
#
#
# Indices 1 2 3 4 5 6 
#
# 1 79.6798 20.1511 7.2658 0.0000 0.0000 0.0000
# 2 20.1511 85.6214 47.6758 0.0000 0.0000 0.0000
# 3 7.2658 47.6758 151.9621 0.0000 0.0000 0.0000
# 4 0.0000 0.0000 0.0000 15.1339 0.0000 0.0000
# 5 0.0000 0.0000 0.0000 0.0000 21.5614 0.0000
# 6 0.0000 0.0000 0.0000 0.0000 0.0000 22.2506
#
#
#
# Elastic Compliance Matrix: (Units=1/GPa)
#
#
# Indices 1 2 3 4 5 6 
#
# 1 0.013367 -0.003381 0.000421 0.000000 0.000000 0.000000
# 2 -0.003381 0.015006 -0.004546 0.000000 0.000000 0.000000
# 3 0.000421 -0.004546 0.007987 0.000000 0.000000 0.000000
# 4 0.000000 0.000000 0.000000 0.066077 0.000000 0.000000
# 5 0.000000 0.000000 0.000000 0.000000 0.046379 0.000000
# 6 0.000000 0.000000 0.000000 0.000000 0.000000 0.044943
#
#
# Mechanical properties :
#
#
# Convention : Reuss Voigt Hill
#
# Bulk Modulus (GPa) = 46.84052 51.93874 49.38963
# Shear Modulus (GPa) = 23.16039 27.93389 25.54714
#
# Velocity S-wave (km/s) = 3.49658 3.84004 3.67233
# Velocity P-wave (km/s) = 6.40530 6.86141 6.63728
#
# Compressibility (1/GPa) = 0.02134904
#
# Stress axis : x y z
#
# Youngs Moduli (GPa) = 74.81251 66.63786 125.20653
#
# Poissons Ratio (x) = 0.22527 -0.05277
# Poissons Ratio (y) = 0.25291 0.56924
# Poissons Ratio (z) = -0.03153 0.30296
#
# Static dielectric constant tensor:
#      x y z
#    x 1.693680 0.000000 0.000000 
#    y 0.000000 1.649810 0.000000 
#    z 0.000000 0.000000 1.697920 
# 
# From -- ./inp_files/8624.got.cif
#   From: 2010.05.17/outbox.cif.g08.bks.cpg/sg53_5_cif.got.tgz:8624.got - 2010.06.03 12:45:16.
