data_PCOD9418008
_publ_section_title
;
Structure prediction by ZEFSAII (Michael W. Deem and Ramdas Pophale) SiO2 
 PCOD9418008
Probable space group: P M N A
;
_chemical_formula_sum "Si O2"
_cell_formula_units_Z 28
_cell_length_a 20.487798
_cell_length_b 13.229184
_cell_length_c 5.202130
_cell_angle_alpha 90.000000
_cell_angle_beta 90.000000
_cell_angle_gamma 90.000000
_cell_volume 1409.968926
_symmetry_space_group_name_H-M "P M N A"
_symmetry_group_IT_number 53
_symmetry_cell_setting 'orthorhombic'
loop_
_space_group_symop_operation_xyz
x,y,z
1/2-x,-y,1/2+z
x,-y,-z
1/2-x,y,1/2-z
-x,-y,-z
1/2+x,y,1/2-z
-x,y,z
1/2+x,-y,1/2+z
loop_
_atom_site_type_symbol
_atom_site_label
_atom_site_fract_x
_atom_site_fract_y
_atom_site_fract_z
Si Si1 0.851949 0.284288 0.416889
Si Si2 0.706997 0.500000 0.000000
Si Si3 0.250000 0.860397 0.750000
Si Si4 0.923056 0.796727 0.094934
Si Si5 0.357447 0.000000 0.500000
O O1 0.833811 0.401419 0.422798
O O2 0.785627 0.216782 0.446036
O O3 0.899905 0.258677 0.648650
O O4 0.884601 0.250773 0.147891
O O5 0.750000 0.473288 0.750000
O O6 0.191934 0.935098 0.827598
O O7 0.000000 0.789233 0.053560
O O8 0.901996 0.914195 0.126699
#
# Coordination Sequence:
#
# PCOD9418008 Si02
#       5
#     8   4   4   8   4
#     4  11  24  41  66  95 129 162 211 268 321 374
#     4  12  24  42  69 100 127 160 204 262 332 392
#     4  10  20  38  60 100 126 164 202 270 328 370
#     4  11  24  43  63  91 130 176 217 255 302 374
#     4  10  21  36  64  92 129 170 212 260 312 380
#
# _framework density 19.858595000000001
#
# number of rings (size 3 to 8) (size 9 to 14) (size 15 to 20)
#    0.000    1.143    1.429    4.714    4.000    3.429 
#    0.000   11.429    0.000    0.000    0.000    0.000 
#    0.000    0.000    0.000    0.000    0.000    0.000 
#
# Total GULP energy -156354.696255 kJ/mol
# GULP energy per Si atom -5584.096295 kJ/mol
# Density = 1.981340 g / cm^3
# Si number density = 19.858595 Si / 1000 Ang^3
#
#
#
# Elastic Constant Matrix: (Units=GPa)
#
#
# Indices 1 2 3 4 5 6 
#
# 1 97.1011 49.9707 18.3193 0.0000 0.0000 0.0000
# 2 49.9707 165.3322 23.7761 0.0000 0.0000 0.0000
# 3 18.3193 23.7761 68.5495 0.0000 0.0000 0.0000
# 4 0.0000 0.0000 0.0000 22.8675 0.0000 0.0000
# 5 0.0000 0.0000 0.0000 0.0000 35.6672 0.0000
# 6 0.0000 0.0000 0.0000 0.0000 0.0000 -0.4676
#
#
#
# Elastic Compliance Matrix: (Units=1/GPa)
#
#
# Indices 1 2 3 4 5 6 
#
# 1 0.012485 -0.003467 -0.002134 0.000000 0.000000 0.000000
# 2 -0.003467 0.007329 -0.001615 0.000000 0.000000 0.000000
# 3 -0.002134 -0.001615 0.015719 0.000000 0.000000 0.000000
# 4 0.000000 0.000000 0.000000 0.043730 0.000000 0.000000
# 5 0.000000 0.000000 0.000000 0.000000 0.028037 0.000000
# 6 0.000000 0.000000 0.000000 0.000000 0.000000 -2.138497
#
#
# Mechanical properties :
#
#
# Convention : Reuss Voigt Hill
#
# Bulk Modulus (GPa) = 47.39374 57.23501 52.31437
# Shear Modulus (GPa) = -2.48789 27.54119 12.52665
#
# Velocity S-wave (km/s) = -1.12050 3.72810 2.51428
# Velocity P-wave (km/s) = 4.71629 6.88589 5.90165
#
# Compressibility (1/GPa) = 0.02109983
#
# Stress axis : x y z
#
# Youngs Moduli (GPa) = 80.09468 136.45315 63.61878
#
# Poissons Ratio (x) = 0.47304 0.13577
# Poissons Ratio (y) = 0.27766 0.10277
# Poissons Ratio (z) = 0.17094 0.22043
#
# Static dielectric constant tensor:
#      x y z
#    x 1.701480 0.000000 0.000000 
#    y 0.000000 1.688220 0.000000 
#    z 0.000000 0.000000 1.714570 
# 
# From -- ./inp_files/2575.got.cif
#   From: 2010.05.17/outbox.cif.g08.bks.cpg/sg53_2_cif.got.tgz:2575.got - 2010.06.03 12:45:16.
