data_PCOD9418567
_publ_section_title
;
Structure prediction by ZEFSAII (Michael W. Deem and Ramdas Pophale) SiO2 
 PCOD9418567
Probable space group: P M N A
;
_chemical_formula_sum "Si O2"
_cell_formula_units_Z 56
_cell_length_a 21.261467
_cell_length_b 8.919515
_cell_length_c 15.879390
_cell_angle_alpha 90.000000
_cell_angle_beta 90.000000
_cell_angle_gamma 90.000000
_cell_volume 3011.398863
_symmetry_space_group_name_H-M "P M N A"
_symmetry_group_IT_number 53
_symmetry_cell_setting 'orthorhombic'
loop_
_space_group_symop_operation_xyz
x,y,z
1/2-x,-y,1/2+z
x,-y,-z
1/2-x,y,1/2-z
-x,-y,-z
1/2+x,y,1/2-z
-x,y,z
1/2+x,-y,1/2+z
loop_
_atom_site_type_symbol
_atom_site_label
_atom_site_fract_x
_atom_site_fract_y
_atom_site_fract_z
Si Si1 0.930143 0.692679 0.690351
Si Si2 0.354300 0.098326 0.076796
Si Si3 0.664051 0.808960 0.179583
Si Si4 0.688143 0.666542 0.692095
Si Si5 0.571607 0.403736 0.919574
Si Si6 0.282870 0.173463 0.476442
Si Si7 0.304091 0.685229 0.350502
O O1 0.907040 0.795297 0.613433
O O2 0.874923 0.700560 0.757409
O O3 0.931535 0.524705 0.655173
O O4 0.000000 0.735014 0.719037
O O5 0.292981 0.184061 0.039814
O O6 0.333278 0.981805 0.150381
O O7 0.378930 0.000000 0.000000
O O8 0.614100 0.727005 0.118864
O O9 0.731474 0.733378 0.162735
O O10 0.655707 0.775324 0.279455
O O11 0.750000 0.691117 0.750000
O O12 0.689994 0.771969 0.611305
O O13 0.688910 0.491420 0.665463
O O14 0.500000 0.355278 0.940351
O O15 0.596078 0.500000 0.000000
O O16 0.312282 0.269285 0.552404
O O17 0.292842 0.000000 0.500000
#
# Coordination Sequence:
#
# PCOD9418567 Si02
#       7
#     8   8   8   8   8   8   8
#     4  11  24  41  62  91 128 169 211 255 309 379
#     4  11  22  37  57  93 127 169 197 252 315 377
#     4  11  21  35  59  86 127 155 204 248 313 365
#     4  12  22  39  66  92 121 162 212 260 319 366
#     4  10  21  37  59  85 120 163 204 249 298 367
#     4  11  24  38  60  93 125 157 204 263 318 369
#     4  11  22  38  58  92 118 160 200 263 305 365
#
# _framework density 18.596008999999999
#
# number of rings (size 3 to 8) (size 9 to 14) (size 15 to 20)
#    0.000    1.000    7.143    1.286    2.000    0.857 
#    0.000    0.000    0.000    3.000    0.000    0.000 
#    0.000    0.000    0.000    0.000    0.000    0.000 
#
# Total GULP energy -312519.613827 kJ/mol
# GULP energy per Si atom -5580.707390 kJ/mol
# Density = 1.855368 g / cm^3
# Si number density = 18.596009 Si / 1000 Ang^3
#
#
#
# Elastic Constant Matrix: (Units=GPa)
#
#
# Indices 1 2 3 4 5 6 
#
# 1 83.5785 34.7156 46.5347 0.0000 0.0000 0.0000
# 2 34.7156 39.1089 23.2370 0.0000 0.0000 0.0000
# 3 46.5347 23.2370 131.6398 0.0000 0.0000 0.0000
# 4 0.0000 0.0000 0.0000 39.8008 0.0000 0.0000
# 5 0.0000 0.0000 0.0000 0.0000 27.9836 0.0000
# 6 0.0000 0.0000 0.0000 0.0000 0.0000 8.1725
#
#
#
# Elastic Compliance Matrix: (Units=1/GPa)
#
#
# Indices 1 2 3 4 5 6 
#
# 1 0.021247 -0.016084 -0.004671 0.000000 0.000000 0.000000
# 2 -0.016084 0.040742 -0.001506 0.000000 0.000000 0.000000
# 3 -0.004671 -0.001506 0.009514 0.000000 0.000000 0.000000
# 4 0.000000 0.000000 0.000000 0.025125 0.000000 0.000000
# 5 0.000000 0.000000 0.000000 0.000000 0.035735 0.000000
# 6 0.000000 0.000000 0.000000 0.000000 0.000000 0.122362
#
#
# Mechanical properties :
#
#
# Convention : Reuss Voigt Hill
#
# Bulk Modulus (GPa) = 37.06622 51.47798 44.27210
# Shear Modulus (GPa) = 16.22110 25.18071 20.70091
#
# Velocity S-wave (km/s) = 2.95666 3.68379 3.34007
# Velocity P-wave (km/s) = 5.62418 6.77024 6.22365
#
# Compressibility (1/GPa) = 0.02697874
#
# Stress axis : x y z
#
# Youngs Moduli (GPa) = 47.06633 24.54481 105.11171
#
# Poissons Ratio (x) = 0.39478 0.49103
# Poissons Ratio (y) = 0.75703 0.15829
# Poissons Ratio (z) = 0.21987 0.03696
#
# Static dielectric constant tensor:
#      x y z
#    x 1.645500 0.000000 0.000000 
#    y 0.000000 1.667710 0.000000 
#    z 0.000000 0.000000 1.742280 
# 
# From -- ./inp_files/24315.got.cif
#   From: 2010.05.17/outbox.cif.g08.bks.cpg/sg53_13_cif.got.tgz:24315.got - 2010.06.03 12:45:16.
