data_PCOD9418801
_publ_section_title
;
Structure prediction by ZEFSAII (Michael W. Deem and Ramdas Pophale) SiO2 
 PCOD9418801
Probable space group: P M N A
;
_chemical_formula_sum "Si O2"
_cell_formula_units_Z 24
_cell_length_a 14.552211
_cell_length_b 16.233446
_cell_length_c 5.108303
_cell_angle_alpha 90.000000
_cell_angle_beta 90.000000
_cell_angle_gamma 90.000000
_cell_volume 1206.747349
_symmetry_space_group_name_H-M "P M N A"
_symmetry_group_IT_number 53
_symmetry_cell_setting 'orthorhombic'
loop_
_space_group_symop_operation_xyz
x,y,z
1/2-x,-y,1/2+z
x,-y,-z
1/2-x,y,1/2-z
-x,-y,-z
1/2+x,y,1/2-z
-x,y,z
1/2+x,-y,1/2+z
loop_
_atom_site_type_symbol
_atom_site_label
_atom_site_fract_x
_atom_site_fract_y
_atom_site_fract_z
Si Si1 0.500000 0.699918 0.813160
Si Si2 0.188096 0.900973 0.005056
Si Si3 0.000000 0.810676 0.168039
Si Si4 0.859018 0.443891 0.254522
O O1 0.500000 0.733687 0.521177
O O2 0.588036 0.640384 0.813430
O O3 0.500000 0.772666 0.035032
O O4 0.250000 0.878307 0.750000
O O5 0.250000 0.878196 0.250000
O O6 0.089836 0.861364 0.073749
O O7 0.175835 0.000000 0.000000
O O8 0.880819 0.500000 0.500000
O O9 0.750000 0.427930 0.250000
O O10 0.882788 0.500000 0.000000
#
# Coordination Sequence:
#
# PCOD9418801 Si02
#       4
#     4   8   4   8
#     4  12  24  37  59  90 125 158 191 248 313 363
#     4  10  22  42  66  89 119 164 212 253 296 359
#     4  12  25  39  60  94 129 160 195 250 316 367
#     4  10  21  39  61  83 112 157 208 250 291 353
#
# _framework density 19.888173999999999
#
# number of rings (size 3 to 8) (size 9 to 14) (size 15 to 20)
#    0.000    1.333    0.000    5.500    0.000    4.000 
#    0.000    6.667    0.000    0.000    0.000    0.000 
#    0.000    0.000    0.000    0.000    0.000    0.000 
#
# Total GULP energy -133744.535236 kJ/mol
# GULP energy per Si atom -5572.688968 kJ/mol
# Density = 1.984291 g / cm^3
# Si number density = 19.888174 Si / 1000 Ang^3
#
#
#
# Elastic Constant Matrix: (Units=GPa)
#
#
# Indices 1 2 3 4 5 6 
#
# 1 140.1418 42.6236 27.2980 0.0000 0.0000 0.0000
# 2 42.6236 32.0849 8.9956 0.0000 0.0000 0.0000
# 3 27.2980 8.9956 132.8493 0.0000 0.0000 0.0000
# 4 0.0000 0.0000 0.0000 -22.7407 0.0000 0.0000
# 5 0.0000 0.0000 0.0000 0.0000 113.1408 0.0000
# 6 0.0000 0.0000 0.0000 0.0000 0.0000 -105.6502
#
#
#
# Elastic Compliance Matrix: (Units=1/GPa)
#
#
# Indices 1 2 3 4 5 6 
#
# 1 0.012238 -0.015854 -0.001441 0.000000 0.000000 0.000000
# 2 -0.015854 0.052308 -0.000284 0.000000 0.000000 0.000000
# 3 -0.001441 -0.000284 0.007843 0.000000 0.000000 0.000000
# 4 0.000000 0.000000 0.000000 -0.043974 0.000000 0.000000
# 5 0.000000 0.000000 0.000000 0.000000 0.008839 0.000000
# 6 0.000000 0.000000 0.000000 0.000000 0.000000 -0.009465
#
#
# Mechanical properties :
#
#
# Convention : Reuss Voigt Hill
#
# Bulk Modulus (GPa) = 26.85970 51.43449 39.14710
# Shear Modulus (GPa) = 66.34986 12.02724 39.18855
#
# Velocity S-wave (km/s) = 5.78220 2.46182 4.44378
# Velocity P-wave (km/s) = 7.62320 5.83084 6.78645
#
# Compressibility (1/GPa) = 0.03723049
#
# Stress axis : x y z
#
# Youngs Moduli (GPa) = 81.71066 19.11735 127.50686
#
# Poissons Ratio (x) = 0.30309 0.18377
# Poissons Ratio (y) = 1.29544 0.03624
# Poissons Ratio (z) = 0.11776 0.00543
#
# Static dielectric constant tensor:
#      x y z
#    x 1.770270 0.000000 0.000000 
#    y 0.000000 1.592220 0.000000 
#    z 0.000000 0.000000 1.722250 
# 
# From -- ./inp_files/1117.got.cif
#   From: 2010.05.17/outbox.cif.g08.bks.cpg/sg53_1_cif.got.tgz:1117.got - 2010.06.03 12:45:16.
