data_PCOD9418175
_publ_section_title
;
Structure prediction by ZEFSAII (Michael W. Deem and Ramdas Pophale) SiO2 
 PCOD9418175
Probable space group: P M N A
;
_chemical_formula_sum "Si O2"
_cell_formula_units_Z 40
_cell_length_a 19.144433
_cell_length_b 7.280731
_cell_length_c 12.121741
_cell_angle_alpha 90.000000
_cell_angle_beta 90.000000
_cell_angle_gamma 90.000000
_cell_volume 1689.594528
_symmetry_space_group_name_H-M "P M N A"
_symmetry_group_IT_number 53
_symmetry_cell_setting 'orthorhombic'
loop_
_space_group_symop_operation_xyz
x,y,z
1/2-x,-y,1/2+z
x,-y,-z
1/2-x,y,1/2-z
-x,-y,-z
1/2+x,y,1/2-z
-x,y,z
1/2+x,-y,1/2+z
loop_
_atom_site_type_symbol
_atom_site_label
_atom_site_fract_x
_atom_site_fract_y
_atom_site_fract_z
Si Si1 0.333317 0.343120 0.759517
Si Si2 0.193205 0.127299 0.100267
Si Si3 0.666213 0.239516 0.173213
Si Si4 0.921728 0.291843 0.957791
Si Si5 0.920216 0.719154 0.470918
O O1 0.250000 0.315499 0.750000
O O2 0.348451 0.563222 0.771669
O O3 0.373354 0.280880 0.649794
O O4 0.368022 0.257948 0.868715
O O5 0.176999 0.091229 0.229555
O O6 0.258845 0.265037 0.112741
O O7 0.119197 0.190730 0.054206
O O8 0.218890 0.000000 0.000000
O O9 0.609466 0.189996 0.082116
O O10 0.000000 0.225256 0.936469
O O11 0.925398 0.500000 0.000000
O O12 0.919637 0.500000 0.500000
O O13 0.000000 0.770315 0.445561
#
# Coordination Sequence:
#
# PCOD9418175 Si02
#       5
#     8   8   8   8   8
#     4  11  18  34  63  93 129 160 207 265 324 378
#     4  11  23  42  62  89 130 170 218 262 316 390
#     4  10  20  40  62  87 122 171 216 261 318 380
#     4  11  22  37  62  97 130 163 209 268 328 385
#     4   9  19  33  57  92 124 157 203 259 321 380
#
# _framework density 23.674320000000002
#
# number of rings (size 3 to 8) (size 9 to 14) (size 15 to 20)
#    0.000    1.600    4.000    1.800    0.000    3.600 
#   10.800    0.000    0.000    0.600    0.000    0.000 
#    0.000    0.000    0.000    0.000    0.000    0.000 
#
# Total GULP energy -223431.735619 kJ/mol
# GULP energy per Si atom -5585.793390 kJ/mol
# Density = 2.362044 g / cm^3
# Si number density = 23.674320 Si / 1000 Ang^3
#
#
#
# Elastic Constant Matrix: (Units=GPa)
#
#
# Indices 1 2 3 4 5 6 
#
# 1 190.9122 8.9393 101.8857 0.0000 0.0000 0.0000
# 2 8.9393 44.6274 24.4857 0.0000 0.0000 0.0000
# 3 101.8857 24.4857 194.5344 0.0000 0.0000 0.0000
# 4 0.0000 0.0000 0.0000 33.9747 0.0000 0.0000
# 5 0.0000 0.0000 0.0000 0.0000 52.5300 0.0000
# 6 0.0000 0.0000 0.0000 0.0000 0.0000 17.0154
#
#
#
# Elastic Compliance Matrix: (Units=1/GPa)
#
#
# Indices 1 2 3 4 5 6 
#
# 1 0.007289 0.000682 -0.003904 0.000000 0.000000 0.000000
# 2 0.000682 0.024134 -0.003395 0.000000 0.000000 0.000000
# 3 -0.003904 -0.003395 0.007612 0.000000 0.000000 0.000000
# 4 0.000000 0.000000 0.000000 0.029434 0.000000 0.000000
# 5 0.000000 0.000000 0.000000 0.000000 0.019037 0.000000
# 6 0.000000 0.000000 0.000000 0.000000 0.000000 0.058770
#
#
# Mechanical properties :
#
#
# Convention : Reuss Voigt Hill
#
# Bulk Modulus (GPa) = 38.75646 77.85504 58.30575
# Shear Modulus (GPa) = 29.74245 40.35491 35.04868
#
# Velocity S-wave (km/s) = 3.54830 4.13314 3.85184
# Velocity P-wave (km/s) = 5.76138 7.46555 6.66813
#
# Compressibility (1/GPa) = 0.02580215
#
# Stress axis : x y z
#
# Youngs Moduli (GPa) = 137.18725 41.43574 131.36833
#
# Poissons Ratio (x) = -0.02824 0.51280
# Poissons Ratio (y) = -0.09351 0.44595
# Poissons Ratio (z) = 0.53551 0.14066
#
# Static dielectric constant tensor:
#      x y z
#    x 1.848540 0.000000 0.000000 
#    y 0.000000 2.115700 0.000000 
#    z 0.000000 0.000000 1.572520 
# 
# From -- ./inp_files/16679.got.cif
#   From: 2010.05.17/outbox.cif.g08.bks.cpg/sg53_9_cif.got.tgz:16679.got - 2010.06.03 12:45:16.
