data_PCOD9418665
_publ_section_title
;
Structure prediction by ZEFSAII (Michael W. Deem and Ramdas Pophale) SiO2 
 PCOD9418665
Probable space group: P M N A
;
_chemical_formula_sum "Si O2"
_cell_formula_units_Z 64
_cell_length_a 8.823362
_cell_length_b 13.028072
_cell_length_c 29.120570
_cell_angle_alpha 90.000000
_cell_angle_beta 90.000000
_cell_angle_gamma 90.000000
_cell_volume 3347.450157
_symmetry_space_group_name_H-M "P M N A"
_symmetry_group_IT_number 53
_symmetry_cell_setting 'orthorhombic'
loop_
_space_group_symop_operation_xyz
x,y,z
1/2-x,-y,1/2+z
x,-y,-z
1/2-x,y,1/2-z
-x,-y,-z
1/2+x,y,1/2-z
-x,y,z
1/2+x,-y,1/2+z
loop_
_atom_site_type_symbol
_atom_site_label
_atom_site_fract_x
_atom_site_fract_y
_atom_site_fract_z
Si Si1 0.182035 0.052748 0.453256
Si Si2 0.819614 0.490020 0.054110
Si Si3 0.817736 0.010746 0.648959
Si Si4 0.327042 0.259824 0.429953
Si Si5 0.827588 0.194438 0.176535
Si Si6 0.316585 0.779053 0.198759
Si Si7 0.182325 0.584896 0.796597
Si Si8 0.681097 0.581640 0.137677
O O1 0.231083 0.171281 0.453667
O O2 0.000000 0.046103 0.452909
O O3 0.238387 0.000000 0.500000
O O4 0.234569 0.003450 0.404388
O O5 0.766749 0.374851 0.066400
O O6 0.736582 0.573971 0.085277
O O7 0.000000 0.496290 0.063862
O O8 0.796772 0.500000 0.000000
O O9 0.767904 0.115512 0.673504
O O10 0.000000 0.010824 0.647966
O O11 0.763043 0.911197 0.677272
O O12 0.500000 0.259923 0.448010
O O13 0.333459 0.228027 0.376772
O O14 0.763624 0.296999 0.199695
O O15 0.000000 0.176915 0.192677
O O16 0.250000 0.770706 0.250000
O O17 0.500000 0.779874 0.202228
O O18 0.274152 0.683024 0.166190
O O19 0.250000 0.539610 0.750000
O O20 0.242423 0.515686 0.837658
O O21 0.000000 0.585343 0.796711
O O22 0.500000 0.573115 0.139587
#
# Coordination Sequence:
#
# PCOD9418665 Si02
#       8
#     8   8   8   8   8   8   8   8
#     4   9  18  32  53  81 110 146 188 232 288 348
#     4  10  21  38  59  84 116 155 194 238 295 352
#     4   9  19  36  56  79 111 147 187 236 288 345
#     4   9  17  33  53  75 106 144 183 228 280 335
#     4   9  18  34  55  78 108 144 181 227 283 338
#     4  10  23  41  59  82 114 155 197 246 299 350
#     4  11  22  37  57  84 116 148 186 234 287 343
#     4  11  23  39  60  85 115 151 195 244 294 348
#
# _framework density 19.119031
#
# number of rings (size 3 to 8) (size 9 to 14) (size 15 to 20)
#    0.000    2.250    1.250    1.125    0.000    6.000 
#    0.000    3.750    0.000    0.000    0.000    0.000 
#    0.000    0.000    0.000    0.000    0.000    0.000 
#
# Total GULP energy -356922.114005 kJ/mol
# GULP energy per Si atom -5576.908031 kJ/mol
# Density = 1.907552 g / cm^3
# Si number density = 19.119031 Si / 1000 Ang^3
#
#
#
# Elastic Constant Matrix: (Units=GPa)
#
#
# Indices 1 2 3 4 5 6 
#
# 1 20.1298 29.6193 25.3473 0.0000 0.0000 0.0000
# 2 29.6193 134.2985 51.1854 0.0000 0.0000 0.0000
# 3 25.3473 51.1854 66.1338 0.0000 0.0000 0.0000
# 4 0.0000 0.0000 0.0000 24.8830 0.0000 0.0000
# 5 0.0000 0.0000 0.0000 0.0000 43.2910 0.0000
# 6 0.0000 0.0000 0.0000 0.0000 0.0000 15.9289
#
#
#
# Elastic Compliance Matrix: (Units=1/GPa)
#
#
# Indices 1 2 3 4 5 6 
#
# 1 0.106855 -0.011287 -0.032219 0.000000 0.000000 0.000000
# 2 -0.011287 0.011754 -0.004771 0.000000 0.000000 0.000000
# 3 -0.032219 -0.004771 0.031162 0.000000 0.000000 0.000000
# 4 0.000000 0.000000 0.000000 0.040188 0.000000 0.000000
# 5 0.000000 0.000000 0.000000 0.000000 0.023099 0.000000
# 6 0.000000 0.000000 0.000000 0.000000 0.000000 0.062779
#
#
# Mechanical properties :
#
#
# Convention : Reuss Voigt Hill
#
# Bulk Modulus (GPa) = 18.79098 48.09623 33.44361
# Shear Modulus (GPa) = 12.81626 24.44794 18.63210
#
# Velocity S-wave (km/s) = 2.59190 3.57980 3.12514
# Velocity P-wave (km/s) = 4.33671 6.50365 5.52741
#
# Compressibility (1/GPa) = 0.05321703
#
# Stress axis : x y z
#
# Youngs Moduli (GPa) = 9.35851 85.07844 32.09034
#
# Poissons Ratio (x) = 0.96029 1.03391
# Poissons Ratio (y) = 0.10563 0.15311
# Poissons Ratio (z) = 0.30152 0.40592
#
# Static dielectric constant tensor:
#      x y z
#    x 1.659040 0.000000 0.000000 
#    y 0.000000 1.660700 0.000000 
#    z 0.000000 0.000000 1.740120 
# 
# From -- ./inp_files/38299.got.cif
#   From: 2010.05.17/outbox.cif.g08.bks.cpg/sg53_20_cif.got.tgz:38299.got - 2010.06.03 12:45:16.
