data_PCOD9418909
_publ_section_title
;
Structure prediction by ZEFSAII (Michael W. Deem and Ramdas Pophale) SiO2 
 PCOD9418909
Probable space group: P M N A
;
_chemical_formula_sum "Si O2"
_cell_formula_units_Z 56
_cell_length_a 15.134902
_cell_length_b 9.743073
_cell_length_c 18.875878
_cell_angle_alpha 90.000000
_cell_angle_beta 90.000000
_cell_angle_gamma 90.000000
_cell_volume 2783.445559
_symmetry_space_group_name_H-M "P M N A"
_symmetry_group_IT_number 53
_symmetry_cell_setting 'orthorhombic'
loop_
_space_group_symop_operation_xyz
x,y,z
1/2-x,-y,1/2+z
x,-y,-z
1/2-x,y,1/2-z
-x,-y,-z
1/2+x,y,1/2-z
-x,y,z
1/2+x,-y,1/2+z
loop_
_atom_site_type_symbol
_atom_site_label
_atom_site_fract_x
_atom_site_fract_y
_atom_site_fract_z
Si Si1 0.650210 0.986634 0.778117
Si Si2 0.604536 0.896589 0.066515
Si Si3 0.272476 0.620401 0.595913
Si Si4 0.261522 0.302209 0.554937
Si Si5 0.594610 0.709249 0.836160
Si Si6 0.351186 0.500734 0.725567
Si Si7 0.597162 0.788763 0.335731
O O1 0.750000 0.969319 0.750000
O O2 0.639056 0.042701 0.858477
O O3 0.608852 0.094406 0.723223
O O4 0.605395 0.838463 0.784151
O O5 0.500000 0.868396 0.073472
O O6 0.665561 0.765445 0.052234
O O7 0.616051 0.000000 0.000000
O O8 0.252872 0.459093 0.581381
O O9 0.303724 0.686902 0.523058
O O10 0.182893 0.698474 0.617462
O O11 0.340146 0.608701 0.660900
O O12 0.324484 0.216306 0.606976
O O13 0.500000 0.721830 0.874142
O O14 0.598918 0.572613 0.789281
O O15 0.250000 0.472704 0.750000
O O16 0.394021 0.359605 0.701724
O O17 0.500000 0.800545 0.368432
#
# Coordination Sequence:
#
# PCOD9418909 Si02
#       7
#     8   8   8   8   8   8   8
#     4  12  23  40  62  88 123 166 206 258 314 366
#     4  11  24  40  61  91 126 163 207 255 313 378
#     4   9  20  38  61  83 121 164 204 246 312 376
#     4  10  21  40  61  88 121 165 208 254 307 373
#     4  11  22  36  58  91 123 155 201 255 311 372
#     4   9  19  37  59  87 120 162 205 253 310 366
#     4  11  22  38  62  91 121 158 211 262 306 362
#
# _framework density 20.118949000000001
#
# number of rings (size 3 to 8) (size 9 to 14) (size 15 to 20)
#    0.000    1.571    1.429    4.286    4.000    2.286 
#    0.000    7.857    0.000    0.429    0.000    0.000 
#    0.000    0.000    0.000    0.000    0.000    0.000 
#
# Total GULP energy -312560.289031 kJ/mol
# GULP energy per Si atom -5581.433733 kJ/mol
# Density = 2.007316 g / cm^3
# Si number density = 20.118949 Si / 1000 Ang^3
#
#
#
# Elastic Constant Matrix: (Units=GPa)
#
#
# Indices 1 2 3 4 5 6 
#
# 1 88.2049 21.9520 17.5313 0.0000 0.0000 0.0000
# 2 21.9520 32.8827 9.6116 0.0000 0.0000 0.0000
# 3 17.5313 9.6116 93.0011 0.0000 0.0000 0.0000
# 4 0.0000 0.0000 0.0000 24.0475 0.0000 0.0000
# 5 0.0000 0.0000 0.0000 0.0000 15.6739 0.0000
# 6 0.0000 0.0000 0.0000 0.0000 0.0000 42.1985
#
#
#
# Elastic Compliance Matrix: (Units=1/GPa)
#
#
# Indices 1 2 3 4 5 6 
#
# 1 0.013854 -0.008750 -0.001707 0.000000 0.000000 0.000000
# 2 -0.008750 0.036885 -0.002163 0.000000 0.000000 0.000000
# 3 -0.001707 -0.002163 0.011298 0.000000 0.000000 0.000000
# 4 0.000000 0.000000 0.000000 0.041584 0.000000 0.000000
# 5 0.000000 0.000000 0.000000 0.000000 0.063800 0.000000
# 6 0.000000 0.000000 0.000000 0.000000 0.000000 0.023698
#
#
# Mechanical properties :
#
#
# Convention : Reuss Voigt Hill
#
# Bulk Modulus (GPa) = 27.17598 34.69759 30.93679
# Shear Modulus (GPa) = 21.86996 27.38356 24.62676
#
# Velocity S-wave (km/s) = 3.30059 3.69329 3.50245
# Velocity P-wave (km/s) = 5.29738 5.95574 5.63618
#
# Compressibility (1/GPa) = 0.03679720
#
# Stress axis : x y z
#
# Youngs Moduli (GPa) = 72.18038 27.11164 88.51195
#
# Poissons Ratio (x) = 0.23722 0.15112
# Poissons Ratio (y) = 0.63156 0.19142
# Poissons Ratio (z) = 0.12323 0.05863
#
# Static dielectric constant tensor:
#      x y z
#    x 1.774740 0.000000 0.000000 
#    y 0.000000 1.704250 0.000000 
#    z 0.000000 0.000000 1.752730 
# 
# From -- ./inp_files/32467.got.cif
#   From: 2010.05.17/outbox.cif.g08.bks.cpg/sg53_17_cif.got.tgz:32467.got - 2010.06.03 12:45:16.
