data_PCOD9418252
_publ_section_title
;
Structure prediction by ZEFSAII (Michael W. Deem and Ramdas Pophale) SiO2 
 PCOD9418252
Probable space group: P M N A
;
_chemical_formula_sum "Si O2"
_cell_formula_units_Z 48
_cell_length_a 18.515346
_cell_length_b 13.220026
_cell_length_c 11.556608
_cell_angle_alpha 90.000000
_cell_angle_beta 90.000000
_cell_angle_gamma 90.000000
_cell_volume 2828.749719
_symmetry_space_group_name_H-M "P M N A"
_symmetry_group_IT_number 53
_symmetry_cell_setting 'orthorhombic'
loop_
_space_group_symop_operation_xyz
x,y,z
1/2-x,-y,1/2+z
x,-y,-z
1/2-x,y,1/2-z
-x,-y,-z
1/2+x,y,1/2-z
-x,y,z
1/2+x,-y,1/2+z
loop_
_atom_site_type_symbol
_atom_site_label
_atom_site_fract_x
_atom_site_fract_y
_atom_site_fract_z
Si Si1 0.716155 0.115090 0.962863
Si Si2 0.915140 0.895396 0.850218
Si Si3 0.414730 0.384912 0.023246
Si Si4 0.418279 0.792196 0.155914
Si Si5 0.373406 0.871753 0.385299
Si Si6 0.179688 0.247891 0.315904
O O1 0.642609 0.133267 0.893535
O O2 0.787436 0.143765 0.891810
O O3 0.709825 0.180575 0.078629
O O4 0.725139 0.000000 0.000000
O O5 0.867708 0.824919 0.766741
O O6 0.000000 0.889197 0.821649
O O7 0.890795 0.013033 0.845339
O O8 0.902898 0.863463 0.984036
O O9 0.500000 0.384285 0.051816
O O10 0.369909 0.332882 0.125586
O O11 0.392610 0.500000 0.000000
O O12 0.405957 0.314261 0.909202
O O13 0.500000 0.824578 0.127166
O O14 0.408398 0.795860 0.293535
O O15 0.250000 0.288400 0.250000
#
# Coordination Sequence:
#
# PCOD9418252 Si02
#       6
#     8   8   8   8   8   8
#     4  11  20  33  52  75 111 150 180 212 258 306
#     4  11  21  33  53  78 111 151 182 211 251 307
#     4   9  20  40  62  80  99 132 177 228 280 321
#     4  10  21  34  54  79 104 135 179 226 265 313
#     4  11  19  34  49  79 113 149 180 208 250 311
#     4  11  20  35  54  80 110 138 177 221 265 315
#
# _framework density 16.968627999999999
#
# number of rings (size 3 to 8) (size 9 to 14) (size 15 to 20)
#    0.000    1.500    3.333    4.000    0.000    1.000 
#    0.000    3.333    0.000    0.000    0.000    4.667 
#    0.000    0.000    0.000    0.000    0.000    0.000 
#
# Total GULP energy -267895.706550 kJ/mol
# GULP energy per Si atom -5581.160553 kJ/mol
# Density = 1.693001 g / cm^3
# Si number density = 16.968628 Si / 1000 Ang^3
#
#
#
# Elastic Constant Matrix: (Units=GPa)
#
#
# Indices 1 2 3 4 5 6 
#
# 1 123.2192 37.1069 44.4585 0.0000 0.0000 0.0000
# 2 37.1069 62.9620 42.0520 0.0000 0.0000 0.0000
# 3 44.4585 42.0520 93.6238 0.0000 0.0000 0.0000
# 4 0.0000 0.0000 0.0000 15.5760 0.0000 0.0000
# 5 0.0000 0.0000 0.0000 0.0000 15.6258 0.0000
# 6 0.0000 0.0000 0.0000 0.0000 0.0000 9.7607
#
#
#
# Elastic Compliance Matrix: (Units=1/GPa)
#
#
# Indices 1 2 3 4 5 6 
#
# 1 0.010477 -0.004074 -0.003145 0.000000 0.000000 0.000000
# 2 -0.004074 0.024273 -0.008968 0.000000 0.000000 0.000000
# 3 -0.003145 -0.008968 0.016203 0.000000 0.000000 0.000000
# 4 0.000000 0.000000 0.000000 0.064201 0.000000 0.000000
# 5 0.000000 0.000000 0.000000 0.000000 0.063997 0.000000
# 6 0.000000 0.000000 0.000000 0.000000 0.000000 0.102452
#
#
# Mechanical properties :
#
#
# Convention : Reuss Voigt Hill
#
# Bulk Modulus (GPa) = 53.82558 58.56000 56.19279
# Shear Modulus (GPa) = 15.61664 18.60500 17.11082
#
# Velocity S-wave (km/s) = 3.03698 3.31484 3.17894
# Velocity P-wave (km/s) = 6.63981 7.01687 6.83095
#
# Compressibility (1/GPa) = 0.01857853
#
# Stress axis : x y z
#
# Youngs Moduli (GPa) = 95.44350 41.19747 61.71798
#
# Poissons Ratio (x) = 0.16784 0.19413
# Poissons Ratio (y) = 0.38884 0.55348
# Poissons Ratio (z) = 0.30021 0.36946
#
# Static dielectric constant tensor:
#      x y z
#    x 1.590290 0.000000 0.000000 
#    y 0.000000 1.533600 0.000000 
#    z 0.000000 0.000000 1.594310 
# 
# From -- ./inp_files/16898.got.cif
#   From: 2010.05.17/outbox.cif.g08.bks.cpg/sg53_9_cif.got.tgz:16898.got - 2010.06.03 12:45:16.
