data_PCOD9418576
_publ_section_title
;
Structure prediction by ZEFSAII (Michael W. Deem and Ramdas Pophale) SiO2 
 PCOD9418576
Probable space group: P M N A
;
_chemical_formula_sum "Si O2"
_cell_formula_units_Z 64
_cell_length_a 17.926607
_cell_length_b 32.516679
_cell_length_c 5.443712
_cell_angle_alpha 90.000000
_cell_angle_beta 90.000000
_cell_angle_gamma 90.000000
_cell_volume 3173.214442
_symmetry_space_group_name_H-M "P M N A"
_symmetry_group_IT_number 53
_symmetry_cell_setting 'orthorhombic'
loop_
_space_group_symop_operation_xyz
x,y,z
1/2-x,-y,1/2+z
x,-y,-z
1/2-x,y,1/2-z
-x,-y,-z
1/2+x,y,1/2-z
-x,y,z
1/2+x,-y,1/2+z
loop_
_atom_site_type_symbol
_atom_site_label
_atom_site_fract_x
_atom_site_fract_y
_atom_site_fract_z
Si Si1 0.417200 0.110389 0.841092
Si Si2 0.585405 0.750100 0.198113
Si Si3 0.918371 0.812099 0.702038
Si Si4 0.840110 0.385693 0.250282
Si Si5 0.823726 0.827584 0.089242
Si Si6 0.160062 0.338029 0.749909
Si Si7 0.909981 0.475983 0.250008
Si Si8 0.296139 0.048760 0.000945
O O1 0.500000 0.096775 0.768510
O O2 0.368362 0.129626 0.622603
O O3 0.370489 0.075689 0.978794
O O4 0.424271 0.150984 0.007817
O O5 0.500000 0.746778 0.280938
O O6 0.629007 0.787362 0.327730
O O7 0.626070 0.707314 0.234601
O O8 0.583040 0.767207 0.919754
O O9 0.000000 0.815465 0.838433
O O10 0.834912 0.819977 0.803098
O O11 0.750000 0.388673 0.250000
O O12 0.862105 0.362764 0.503209
O O13 0.874678 0.430924 0.246975
O O14 0.862016 0.360953 0.002788
O O15 0.750000 0.829338 0.250000
O O16 0.250000 0.334965 0.750000
O O17 0.888067 0.500000 0.500000
O O18 0.000000 0.472568 0.251385
O O19 0.888593 0.500000 0.000000
O O20 0.250000 0.056977 0.750000
O O21 0.250000 0.058189 0.250000
O O22 0.312596 0.000000 0.000000
#
# Coordination Sequence:
#
# PCOD9418576 Si02
#       8
#     8   8   8   8   8   8   8   8
#     4  10  22  37  59  90 123 162 206 257 313 370
#     4  10  22  38  57  83 115 157 205 251 306 366
#     4   9  20  38  57  84 121 155 199 258 309 367
#     4  10  22  39  60  86 120 154 199 246 297 358
#     4  11  22  36  58  87 119 159 205 257 309 371
#     4  10  22  40  58  85 117 157 199 250 298 355
#     4  10  21  37  59  88 120 153 192 243 298 355
#     4  10  23  43  66  93 127 165 207 256 310 373
#
# _framework density 20.168824999999998
#
# number of rings (size 3 to 8) (size 9 to 14) (size 15 to 20)
#    0.000    2.000    0.000    3.375    5.250    3.250 
#    2.250    0.000    0.000    2.250    0.000    0.000 
#    0.000    0.000    0.000    0.000    0.000    0.000 
#
# Total GULP energy -356579.624084 kJ/mol
# GULP energy per Si atom -5571.556626 kJ/mol
# Density = 2.012292 g / cm^3
# Si number density = 20.168825 Si / 1000 Ang^3
#
#
#
# Elastic Constant Matrix: (Units=GPa)
#
#
# Indices 1 2 3 4 5 6 
#
# 1 56.8591 47.6806 27.3046 0.0000 0.0000 0.0000
# 2 47.6806 131.8498 44.2379 0.0000 0.0000 0.0000
# 3 27.3046 44.2379 101.2210 0.0000 0.0000 0.0000
# 4 0.0000 0.0000 0.0000 20.3844 0.0000 0.0000
# 5 0.0000 0.0000 0.0000 0.0000 15.1394 0.0000
# 6 0.0000 0.0000 0.0000 0.0000 0.0000 -11.1148
#
#
#
# Elastic Compliance Matrix: (Units=1/GPa)
#
#
# Indices 1 2 3 4 5 6 
#
# 1 0.026222 -0.008331 -0.003432 0.000000 0.000000 0.000000
# 2 -0.008331 0.011534 -0.002794 0.000000 0.000000 0.000000
# 3 -0.003432 -0.002794 0.012026 0.000000 0.000000 0.000000
# 4 0.000000 0.000000 0.000000 0.049057 0.000000 0.000000
# 5 0.000000 0.000000 0.000000 0.000000 0.066053 0.000000
# 6 0.000000 0.000000 0.000000 0.000000 0.000000 -0.089970
#
#
# Mechanical properties :
#
#
# Convention : Reuss Voigt Hill
#
# Bulk Modulus (GPa) = 48.38329 58.70843 53.54586
# Shear Modulus (GPa) = 45.07524 16.26226 30.66875
#
# Velocity S-wave (km/s) = 4.73260 2.84263 3.90372
# Velocity P-wave (km/s) = 7.34197 6.32027 6.85019
#
# Compressibility (1/GPa) = 0.02066829
#
# Stress axis : x y z
#
# Youngs Moduli (GPa) = 38.13639 86.69707 83.15132
#
# Poissons Ratio (x) = 0.72226 0.28541
# Poissons Ratio (y) = 0.31771 0.23231
# Poissons Ratio (z) = 0.13090 0.24221
#
# Static dielectric constant tensor:
#      x y z
#    x 1.789220 0.000000 0.000000 
#    y 0.000000 1.655500 0.000000 
#    z 0.000000 0.000000 1.933160 
# 
# From -- ./inp_files/2312.got.cif
#   From: 2010.05.17/outbox.cif.g08.bks.cpg/sg53_2_cif.got.tgz:2312.got - 2010.06.03 12:45:16.
