data_PCOD9418125
_publ_section_title
;
Structure prediction by ZEFSAII (Michael W. Deem and Ramdas Pophale) SiO2 
 PCOD9418125
Probable space group: P M N A
;
_chemical_formula_sum "Si O2"
_cell_formula_units_Z 48
_cell_length_a 17.538775
_cell_length_b 13.525979
_cell_length_c 8.977069
_cell_angle_alpha 90.000000
_cell_angle_beta 90.000000
_cell_angle_gamma 90.000000
_cell_volume 2129.622020
_symmetry_space_group_name_H-M "P M N A"
_symmetry_group_IT_number 53
_symmetry_cell_setting 'orthorhombic'
loop_
_space_group_symop_operation_xyz
x,y,z
1/2-x,-y,1/2+z
x,-y,-z
1/2-x,y,1/2-z
-x,-y,-z
1/2+x,y,1/2-z
-x,y,z
1/2+x,-y,1/2+z
loop_
_atom_site_type_symbol
_atom_site_label
_atom_site_fract_x
_atom_site_fract_y
_atom_site_fract_z
Si Si1 0.270956 0.189587 0.089433
Si Si2 0.321866 0.913036 0.348922
Si Si3 0.500000 0.453877 0.236556
Si Si4 0.084385 0.056412 0.341501
Si Si5 0.655977 0.288068 0.825672
Si Si6 0.500000 0.339806 0.947872
Si Si7 0.827793 0.497258 0.174132
O O1 0.250000 0.230382 0.250000
O O2 0.349582 0.134314 0.126139
O O3 0.210706 0.111074 0.014508
O O4 0.285556 0.269734 0.960971
O O5 0.250000 0.948680 0.250000
O O6 0.339832 0.804311 0.284098
O O7 0.389758 0.983960 0.294190
O O8 0.500000 0.556674 0.143689
O O9 0.585226 0.452231 0.310513
O O10 0.500000 0.365660 0.119615
O O11 0.000000 0.096738 0.310004
O O12 0.080960 0.000000 0.500000
O O13 0.574207 0.283469 0.900425
O O14 0.665014 0.393131 0.746725
O O15 0.750000 0.454987 0.250000
O O16 0.812054 0.500000 0.000000
#
# Coordination Sequence:
#
# PCOD9418125 Si02
#       7
#     8   8   4   8   8   4   8
#     4  11  24  41  65  95 136 182 225 280 346 409
#     4  10  20  39  60  93 131 173 222 278 333 398
#     4   9  21  44  64 100 130 171 222 275 349 413
#     4  11  22  36  67  98 130 175 237 280 337 413
#     4  10  22  41  66  94 131 172 222 278 340 413
#     4   9  20  38  70  89 130 169 213 275 341 416
#     4  11  24  43  71 102 134 176 228 286 349 426
#
# _framework density 22.539211000000002
#
# number of rings (size 3 to 8) (size 9 to 14) (size 15 to 20)
#    0.000    1.667    3.333    2.250    7.000    0.000 
#    6.000    1.667    0.000    0.000    0.000    0.000 
#    0.000    0.000    0.000    0.000    0.000    0.000 
#
# Total GULP energy -267821.752926 kJ/mol
# GULP energy per Si atom -5579.619853 kJ/mol
# Density = 2.248791 g / cm^3
# Si number density = 22.539211 Si / 1000 Ang^3
#
#
#
# Elastic Constant Matrix: (Units=GPa)
#
#
# Indices 1 2 3 4 5 6 
#
# 1 168.3927 37.8789 66.1792 0.0000 0.0000 0.0000
# 2 37.8789 62.2874 39.6729 0.0000 0.0000 0.0000
# 3 66.1792 39.6729 147.5098 0.0000 0.0000 0.0000
# 4 0.0000 0.0000 0.0000 30.0349 0.0000 0.0000
# 5 0.0000 0.0000 0.0000 0.0000 69.1628 0.0000
# 6 0.0000 0.0000 0.0000 0.0000 0.0000 -27.5973
#
#
#
# Elastic Compliance Matrix: (Units=1/GPa)
#
#
# Indices 1 2 3 4 5 6 
#
# 1 0.007640 -0.002972 -0.002628 0.000000 0.000000 0.000000
# 2 -0.002972 0.020530 -0.004188 0.000000 0.000000 0.000000
# 3 -0.002628 -0.004188 0.009085 0.000000 0.000000 0.000000
# 4 0.000000 0.000000 0.000000 0.033295 0.000000 0.000000
# 5 0.000000 0.000000 0.000000 0.000000 0.014459 0.000000
# 6 0.000000 0.000000 0.000000 0.000000 0.000000 -0.036235
#
#
# Mechanical properties :
#
#
# Convention : Reuss Voigt Hill
#
# Bulk Modulus (GPa) = 56.56919 73.96133 65.26526
# Shear Modulus (GPa) = 67.34794 29.95066 48.64930
#
# Velocity S-wave (km/s) = 5.47222 3.64926 4.65093
# Velocity P-wave (km/s) = 8.06719 7.11631 7.60662
#
# Compressibility (1/GPa) = 0.01767747
#
# Stress axis : x y z
#
# Youngs Moduli (GPa) = 130.89051 48.71033 110.07462
#
# Poissons Ratio (x) = 0.14477 0.28931
# Poissons Ratio (y) = 0.38902 0.46100
# Poissons Ratio (z) = 0.34402 0.20400
#
# Static dielectric constant tensor:
#      x y z
#    x 1.901790 0.000000 0.000000 
#    y 0.000000 1.869760 0.000000 
#    z 0.000000 0.000000 1.866140 
# 
# From -- ./inp_files/10067.got.cif
#   From: 2010.05.17/outbox.cif.g08.bks.cpg/sg53_6_cif.got.tgz:10067.got - 2010.06.03 12:45:16.
