data_PCOD9418583
_publ_section_title
;
Structure prediction by ZEFSAII (Michael W. Deem and Ramdas Pophale) SiO2 
 PCOD9418583
Probable space group: P M N A
;
_chemical_formula_sum "Si O2"
_cell_formula_units_Z 64
_cell_length_a 14.091231
_cell_length_b 12.257481
_cell_length_c 18.777717
_cell_angle_alpha 90.000000
_cell_angle_beta 90.000000
_cell_angle_gamma 90.000000
_cell_volume 3243.343543
_symmetry_space_group_name_H-M "P M N A"
_symmetry_group_IT_number 53
_symmetry_cell_setting 'orthorhombic'
loop_
_space_group_symop_operation_xyz
x,y,z
1/2-x,-y,1/2+z
x,-y,-z
1/2-x,y,1/2-z
-x,-y,-z
1/2+x,y,1/2-z
-x,y,z
1/2+x,-y,1/2+z
loop_
_atom_site_type_symbol
_atom_site_label
_atom_site_fract_x
_atom_site_fract_y
_atom_site_fract_z
Si Si1 0.808717 0.473562 0.914684
Si Si2 0.613335 0.749114 0.854325
Si Si3 0.613052 0.868779 0.710957
Si Si4 0.112603 0.973966 0.582077
Si Si5 0.606911 0.509463 0.914090
Si Si6 0.612205 0.701058 0.585027
Si Si7 0.271851 0.912374 0.325264
Si Si8 0.610822 0.751753 0.425395
O O1 0.700895 0.442511 0.893922
O O2 0.842870 0.589591 0.885450
O O3 0.875205 0.372019 0.897831
O O4 0.811825 0.500000 0.000000
O O5 0.500000 0.744925 0.847167
O O6 0.646751 0.795642 0.778156
O O7 0.634506 0.631101 0.887035
O O8 0.637405 0.846960 0.907273
O O9 0.500000 0.890378 0.720453
O O10 0.625772 0.796014 0.641248
O O11 0.667192 0.981466 0.698455
O O12 0.177978 0.044827 0.634185
O O13 0.000000 0.988472 0.598138
O O14 0.128591 0.000000 0.500000
O O15 0.500000 0.482594 0.887934
O O16 0.601940 0.500000 0.000000
O O17 0.500000 0.678558 0.576213
O O18 0.646000 0.741329 0.507416
O O19 0.250000 0.854707 0.250000
O O20 0.330243 0.836495 0.378910
O O21 0.500000 0.782044 0.425388
#
# Coordination Sequence:
#
# PCOD9418583 Si02
#       8
#     8   8   8   8   8   8   8   8
#     4   9  18  34  59  84 115 155 198 244 304 367
#     4   9  18  36  58  83 120 158 199 253 315 369
#     4  10  21  37  59  90 124 158 194 253 323 381
#     4  10  23  40  59  84 118 163 212 257 304 369
#     4   9  18  32  55  86 119 156 202 255 306 354
#     4   9  19  35  60  91 118 148 196 249 312 380
#     4  12  25  39  61  87 120 163 209 254 316 379
#     4  10  22  40  61  88 121 160 201 255 315 375
#
# _framework density 19.732723
#
# number of rings (size 3 to 8) (size 9 to 14) (size 15 to 20)
#    0.000    2.250    1.250    0.750    3.500    4.000 
#    0.000    5.000    0.000    1.500    0.000    0.000 
#    0.000    0.000    0.000    0.000    0.000    0.000 
#
# Total GULP energy -356784.851158 kJ/mol
# GULP energy per Si atom -5574.763299 kJ/mol
# Density = 1.968781 g / cm^3
# Si number density = 19.732723 Si / 1000 Ang^3
#
#
#
# Elastic Constant Matrix: (Units=GPa)
#
#
# Indices 1 2 3 4 5 6 
#
# 1 73.6927 22.7264 33.5842 0.0000 0.0000 0.0000
# 2 22.7264 47.3990 34.0290 0.0000 0.0000 0.0000
# 3 33.5842 34.0290 91.4309 0.0000 0.0000 0.0000
# 4 0.0000 0.0000 0.0000 23.9492 0.0000 0.0000
# 5 0.0000 0.0000 0.0000 0.0000 14.5011 0.0000
# 6 0.0000 0.0000 0.0000 0.0000 0.0000 -17.2616
#
#
#
# Elastic Compliance Matrix: (Units=1/GPa)
#
#
# Indices 1 2 3 4 5 6 
#
# 1 0.017139 -0.005046 -0.004417 0.000000 0.000000 0.000000
# 2 -0.005046 0.030276 -0.009415 0.000000 0.000000 0.000000
# 3 -0.004417 -0.009415 0.016064 0.000000 0.000000 0.000000
# 4 0.000000 0.000000 0.000000 0.041755 0.000000 0.000000
# 5 0.000000 0.000000 0.000000 0.000000 0.068960 0.000000
# 6 0.000000 0.000000 0.000000 0.000000 0.000000 -0.057932
#
#
# Mechanical properties :
#
#
# Convention : Reuss Voigt Hill
#
# Bulk Modulus (GPa) = 38.87669 43.68909 41.28289
# Shear Modulus (GPa) = 30.75160 12.38329 21.56745
#
# Velocity S-wave (km/s) = 3.95195 2.50781 3.30961
# Velocity P-wave (km/s) = 6.36932 5.52938 5.96415
#
# Compressibility (1/GPa) = 0.02572235
#
# Stress axis : x y z
#
# Youngs Moduli (GPa) = 58.34548 33.02929 62.25190
#
# Poissons Ratio (x) = 0.16668 0.27499
# Poissons Ratio (y) = 0.29444 0.58608
# Poissons Ratio (z) = 0.25773 0.31096
#
# Static dielectric constant tensor:
#      x y z
#    x 1.741180 0.000000 0.000000 
#    y 0.000000 1.677320 0.000000 
#    z 0.000000 0.000000 1.681160 
# 
# From -- ./inp_files/28588.got.cif
#   From: 2010.05.17/outbox.cif.g08.bks.cpg/sg53_15_cif.got.tgz:28588.got - 2010.06.03 12:45:16.
