data_PCOD9418248
_publ_section_title
;
Structure prediction by ZEFSAII (Michael W. Deem and Ramdas Pophale) SiO2 
 PCOD9418248
Probable space group: P M N A
;
_chemical_formula_sum "Si O2"
_cell_formula_units_Z 56
_cell_length_a 26.013512
_cell_length_b 22.024656
_cell_length_c 5.016104
_cell_angle_alpha 90.000000
_cell_angle_beta 90.000000
_cell_angle_gamma 90.000000
_cell_volume 2873.919870
_symmetry_space_group_name_H-M "P M N A"
_symmetry_group_IT_number 53
_symmetry_cell_setting 'orthorhombic'
loop_
_space_group_symop_operation_xyz
x,y,z
1/2-x,-y,1/2+z
x,-y,-z
1/2-x,y,1/2-z
-x,-y,-z
1/2+x,y,1/2-z
-x,y,z
1/2+x,-y,1/2+z
loop_
_atom_site_type_symbol
_atom_site_label
_atom_site_fract_x
_atom_site_fract_y
_atom_site_fract_z
Si Si1 0.558626 0.041105 0.261923
Si Si2 0.665401 0.435878 0.403842
Si Si3 0.784672 0.658711 0.517937
Si Si4 0.061091 0.161936 0.503832
Si Si5 0.617422 0.657699 0.211309
Si Si6 0.556258 0.565216 0.861054
Si Si7 0.939073 0.762070 0.002439
O O1 0.500000 0.056547 0.356956
O O2 0.582982 0.103306 0.150174
O O3 0.581565 0.000000 0.500000
O O4 0.555194 0.000000 0.000000
O O5 0.686920 0.500000 0.500000
O O6 0.655812 0.389602 0.644083
O O7 0.606156 0.443903 0.317819
O O8 0.697105 0.404341 0.166685
O O9 0.750000 0.655783 0.250000
O O10 0.839929 0.690579 0.471559
O O11 0.750000 0.688535 0.750000
O O12 0.078087 0.184059 0.794637
O O13 0.000000 0.148609 0.532887
O O14 0.066841 0.217815 0.300975
O O15 0.591243 0.702130 0.418657
O O16 0.574098 0.619614 0.056027
O O17 0.500000 0.578939 0.739493
O O18 0.551679 0.500000 0.000000
O O19 0.000000 0.752569 0.050515
#
# Coordination Sequence:
#
# PCOD9418248 Si02
#       7
#     8   8   8   8   8   8   8
#     4   9  15  24  42  65  93 132 179 228 263 286
#     4  11  23  41  59  82 110 134 170 227 270 341
#     4  11  24  45  63  84 103 130 167 220 281 343
#     4   9  18  31  45  69 102 138 183 225 259 295
#     4  11  23  39  57  77 106 136 182 218 270 332
#     4  10  21  35  54  80 109 141 173 216 268 317
#     4  10  21  34  51  73 105 144 180 221 259 306
#
# _framework density 19.485582999999998
#
# number of rings (size 3 to 8) (size 9 to 14) (size 15 to 20)
#    0.000    1.857    2.857    1.286    4.000    4.857 
#    2.571    0.000    0.000    0.000    0.000    0.000 
#    0.000    0.000    0.000    0.000    0.000   40.000 
#
# Total GULP energy -312027.304746 kJ/mol
# GULP energy per Si atom -5571.916156 kJ/mol
# Density = 1.944123 g / cm^3
# Si number density = 19.485583 Si / 1000 Ang^3
#
#
#
# Elastic Constant Matrix: (Units=GPa)
#
#
# Indices 1 2 3 4 5 6 
#
# 1 70.5745 -6.1149 3.5600 0.0000 0.0000 0.0000
# 2 -6.1149 32.8327 -9.5307 0.0000 0.0000 0.0000
# 3 3.5600 -9.5307 73.2591 0.0000 0.0000 0.0000
# 4 0.0000 0.0000 0.0000 28.1815 0.0000 0.0000
# 5 0.0000 0.0000 0.0000 0.0000 23.7219 0.0000
# 6 0.0000 0.0000 0.0000 0.0000 0.0000 6.0521
#
#
#
# Elastic Compliance Matrix: (Units=1/GPa)
#
#
# Indices 1 2 3 4 5 6 
#
# 1 0.014411 0.002578 -0.000365 0.000000 0.000000 0.000000
# 2 0.002578 0.032114 0.004053 0.000000 0.000000 0.000000
# 3 -0.000365 0.004053 0.014195 0.000000 0.000000 0.000000
# 4 0.000000 0.000000 0.000000 0.035484 0.000000 0.000000
# 5 0.000000 0.000000 0.000000 0.000000 0.042155 0.000000
# 6 0.000000 0.000000 0.000000 0.000000 0.000000 0.165231
#
#
# Mechanical properties :
#
#
# Convention : Reuss Voigt Hill
#
# Bulk Modulus (GPa) = 13.65153 16.94390 15.29772
# Shear Modulus (GPa) = 15.84905 24.17458 20.01181
#
# Velocity S-wave (km/s) = 2.85506 3.52609 3.20817
# Velocity P-wave (km/s) = 4.22962 5.02914 4.64661
#
# Compressibility (1/GPa) = 0.07325187
#
# Stress axis : x y z
#
# Youngs Moduli (GPa) = 69.39048 31.13909 70.44664
#
# Poissons Ratio (x) = -0.08028 0.02571
# Poissons Ratio (y) = -0.17889 -0.28549
# Poissons Ratio (z) = 0.02532 -0.12619
#
# Static dielectric constant tensor:
#      x y z
#    x 1.758910 0.000000 0.000000 
#    y 0.000000 2.041030 0.000000 
#    z 0.000000 0.000000 1.808740 
# 
# From -- ./inp_files/4661.got.cif
#   From: 2010.05.17/outbox.cif.g08.bks.cpg/sg53_3_cif.got.tgz:4661.got - 2010.06.03 12:45:16.
