data_PCOD9418653
_publ_section_title
;
Structure prediction by ZEFSAII (Michael W. Deem and Ramdas Pophale) SiO2 
 PCOD9418653
Probable space group: P M N A
;
_chemical_formula_sum "Si O2"
_cell_formula_units_Z 64
_cell_length_a 8.751755
_cell_length_b 13.229500
_cell_length_c 28.797808
_cell_angle_alpha 90.000000
_cell_angle_beta 90.000000
_cell_angle_gamma 90.000000
_cell_volume 3334.248879
_symmetry_space_group_name_H-M "P M N A"
_symmetry_group_IT_number 53
_symmetry_cell_setting 'orthorhombic'
loop_
_space_group_symop_operation_xyz
x,y,z
1/2-x,-y,1/2+z
x,-y,-z
1/2-x,y,1/2-z
-x,-y,-z
1/2+x,y,1/2-z
-x,y,z
1/2+x,-y,1/2+z
loop_
_atom_site_type_symbol
_atom_site_label
_atom_site_fract_x
_atom_site_fract_y
_atom_site_fract_z
Si Si1 0.818068 0.236362 0.801680
Si Si2 0.183848 0.357547 0.363938
Si Si3 0.682314 0.414663 0.863610
Si Si4 0.684340 0.960833 0.950102
Si Si5 0.182142 0.739725 0.952966
Si Si6 0.816250 0.405130 0.966593
Si Si7 0.184623 0.040896 0.647459
Si Si8 0.183934 0.831873 0.698639
O O1 0.750000 0.241673 0.750000
O O2 0.762802 0.331171 0.832205
O O3 0.759485 0.134688 0.826751
O O4 0.000000 0.234890 0.798935
O O5 0.220065 0.470803 0.347841
O O6 0.260663 0.336331 0.413359
O O7 0.233054 0.268002 0.329476
O O8 0.000000 0.350934 0.369564
O O9 0.500000 0.400808 0.860803
O O10 0.734339 0.406542 0.917227
O O11 0.500000 0.958262 0.950230
O O12 0.730330 0.029880 0.906521
O O13 0.742865 0.847463 0.943531
O O14 0.738277 0.000000 0.000000
O O15 0.000000 0.747683 0.950582
O O16 0.222776 0.694012 0.003182
O O17 0.000000 0.408303 0.959325
O O18 0.777314 0.500000 0.000000
O O19 0.000000 0.051205 0.649796
O O20 0.226750 0.934767 0.671913
O O21 0.250000 0.832487 0.750000
O O22 0.000000 0.829933 0.700823
#
# Coordination Sequence:
#
# PCOD9418653 Si02
#       8
#     8   8   8   8   8   8   8   8
#     4  12  27  47  69  92 126 166 215 271 324 380
#     4  10  21  40  62  89 124 162 205 254 309 371
#     4  11  24  41  66  95 125 166 219 265 315 379
#     4  10  22  40  62  90 126 167 204 249 308 372
#     4  11  22  36  59  88 124 165 205 251 306 371
#     4  10  21  38  58  88 129 166 204 251 308 366
#     4  10  21  41  66  93 126 162 207 255 308 373
#     4  10  21  38  61  89 121 152 191 248 306 364
#
# _framework density 19.194728999999999
#
# number of rings (size 3 to 8) (size 9 to 14) (size 15 to 20)
#    0.000    1.500    2.500    2.250    1.750    5.000 
#    0.000    1.250    0.000    0.000    0.000    0.000 
#    0.000    0.000    0.000    0.000    0.000    0.000 
#
# Total GULP energy -357689.024179 kJ/mol
# GULP energy per Si atom -5588.891003 kJ/mol
# Density = 1.915104 g / cm^3
# Si number density = 19.194729 Si / 1000 Ang^3
#
#
#
# Elastic Constant Matrix: (Units=GPa)
#
#
# Indices 1 2 3 4 5 6 
#
# 1 37.4903 46.8403 50.4911 0.0000 0.0000 0.0000
# 2 46.8403 138.7032 88.2123 0.0000 0.0000 0.0000
# 3 50.4911 88.2123 156.4214 0.0000 0.0000 0.0000
# 4 0.0000 0.0000 0.0000 27.3006 0.0000 0.0000
# 5 0.0000 0.0000 0.0000 0.0000 21.3057 0.0000
# 6 0.0000 0.0000 0.0000 0.0000 0.0000 -1.2322
#
#
#
# Elastic Compliance Matrix: (Units=1/GPa)
#
#
# Indices 1 2 3 4 5 6 
#
# 1 0.057470 -0.011865 -0.011859 0.000000 0.000000 0.000000
# 2 -0.011865 0.013691 -0.003891 0.000000 0.000000 0.000000
# 3 -0.011859 -0.003891 0.012415 0.000000 0.000000 0.000000
# 4 0.000000 0.000000 0.000000 0.036629 0.000000 0.000000
# 5 0.000000 0.000000 0.000000 0.000000 0.046936 0.000000
# 6 0.000000 0.000000 0.000000 0.000000 0.000000 -0.811589
#
#
# Mechanical properties :
#
#
# Convention : Reuss Voigt Hill
#
# Bulk Modulus (GPa) = 35.27937 78.18914 56.73426
# Shear Modulus (GPa) = -8.62416 19.27958 5.32771
#
# Velocity S-wave (km/s) = -2.12196 3.17270 1.66782
# Velocity P-wave (km/s) = 3.52363 7.36508 5.77323
#
# Compressibility (1/GPa) = 0.02834518
#
# Stress axis : x y z
#
# Youngs Moduli (GPa) = 17.40031 73.03964 80.54565
#
# Poissons Ratio (x) = 0.86665 0.95522
# Poissons Ratio (y) = 0.20646 0.31340
# Poissons Ratio (z) = 0.20636 0.28419
#
# Static dielectric constant tensor:
#      x y z
#    x 1.642610 0.000000 0.000000 
#    y 0.000000 1.676210 0.000000 
#    z 0.000000 0.000000 1.649310 
# 
# From -- ./inp_files/38165.got.cif
#   From: 2010.05.17/outbox.cif.g08.bks.cpg/sg53_20_cif.got.tgz:38165.got - 2010.06.03 12:45:16.
