data_PCOD9418662
_publ_section_title
;
Structure prediction by ZEFSAII (Michael W. Deem and Ramdas Pophale) SiO2 
 PCOD9418662
Probable space group: P M N A
;
_chemical_formula_sum "Si O2"
_cell_formula_units_Z 64
_cell_length_a 7.544211
_cell_length_b 12.621416
_cell_length_c 28.046229
_cell_angle_alpha 90.000000
_cell_angle_beta 90.000000
_cell_angle_gamma 90.000000
_cell_volume 2670.523374
_symmetry_space_group_name_H-M "P M N A"
_symmetry_group_IT_number 53
_symmetry_cell_setting 'orthorhombic'
loop_
_space_group_symop_operation_xyz
x,y,z
1/2-x,-y,1/2+z
x,-y,-z
1/2-x,y,1/2-z
-x,-y,-z
1/2+x,y,1/2-z
-x,y,z
1/2+x,-y,1/2+z
loop_
_atom_site_type_symbol
_atom_site_label
_atom_site_fract_x
_atom_site_fract_y
_atom_site_fract_z
Si Si1 0.202394 0.587722 0.382341
Si Si2 0.284846 0.812358 0.936621
Si Si3 0.714468 0.019758 0.675228
Si Si4 0.292208 0.045609 0.936050
Si Si5 0.782718 0.276519 0.532487
Si Si6 0.204426 0.790794 0.826012
Si Si7 0.788652 0.249361 0.802002
Si Si8 0.198359 0.558969 0.696388
O O1 0.281152 0.632144 0.431751
O O2 0.204389 0.687085 0.345623
O O3 0.289382 0.496412 0.349376
O O4 0.000000 0.556107 0.394794
O O5 0.500000 0.814604 0.932991
O O6 0.226987 0.930525 0.954096
O O7 0.214182 0.793255 0.883749
O O8 0.236047 0.726359 0.976584
O O9 0.500000 0.015919 0.677603
O O10 0.769611 0.032683 0.620469
O O11 0.778651 0.904055 0.691335
O O12 0.776868 0.127853 0.698982
O O13 0.500000 0.049835 0.948556
O O14 0.220167 0.161070 0.948853
O O15 0.000000 0.277593 0.535098
O O16 0.296084 0.684922 0.808864
O O17 0.000000 0.782121 0.811285
O O18 0.750000 0.296019 0.750000
O O19 0.000000 0.250204 0.809792
O O20 0.250000 0.533138 0.750000
O O21 0.000000 0.518924 0.692597
#
# Coordination Sequence:
#
# PCOD9418662 Si02
#       8
#     8   8   8   8   8   8   8   8
#     4  10  21  38  59  84 113 146 186 232 280 332
#     4   9  17  30  52  84 117 152 192 232 275 327
#     4   9  19  34  51  77 111 145 179 223 276 332
#     4   9  15  26  49  78 111 150 189 227 265 317
#     4   9  16  29  52  82 116 151 190 230 273 327
#     4  10  21  39  60  82 114 149 188 237 284 332
#     4  11  22  35  53  78 110 144 179 222 278 341
#     4  11  24  42  64  86 107 138 186 237 288 340
#
# _framework density 23.965337999999999
#
# number of rings (size 3 to 8) (size 9 to 14) (size 15 to 20)
#    0.000    2.250    1.250    1.875    0.000    5.000 
#    0.000    3.125    0.000    6.750    0.000    0.000 
#    0.000    0.000    0.000    0.000    0.000    0.000 
#
# Total GULP energy -357224.405709 kJ/mol
# GULP energy per Si atom -5581.631339 kJ/mol
# Density = 2.391079 g / cm^3
# Si number density = 23.965338 Si / 1000 Ang^3
#
#
#
# Elastic Constant Matrix: (Units=GPa)
#
#
# Indices 1 2 3 4 5 6 
#
# 1 64.0488 0.5442 -8.4556 0.0000 0.0000 0.0000
# 2 0.5442 95.3734 1.1074 0.0000 0.0000 0.0000
# 3 -8.4556 1.1074 45.2765 0.0000 0.0000 0.0000
# 4 0.0000 0.0000 0.0000 32.4960 0.0000 0.0000
# 5 0.0000 0.0000 0.0000 0.0000 15.3241 0.0000
# 6 0.0000 0.0000 0.0000 0.0000 0.0000 9.7982
#
#
#
# Elastic Compliance Matrix: (Units=1/GPa)
#
#
# Indices 1 2 3 4 5 6 
#
# 1 0.016009 -0.000126 0.002993 0.000000 0.000000 0.000000
# 2 -0.000126 0.010489 -0.000280 0.000000 0.000000 0.000000
# 3 0.002993 -0.000280 0.022652 0.000000 0.000000 0.000000
# 4 0.000000 0.000000 0.000000 0.030773 0.000000 0.000000
# 5 0.000000 0.000000 0.000000 0.000000 0.065257 0.000000
# 6 0.000000 0.000000 0.000000 0.000000 0.000000 0.102059
#
#
# Mechanical properties :
#
#
# Convention : Reuss Voigt Hill
#
# Bulk Modulus (GPa) = 18.40806 21.23231 19.82019
# Shear Modulus (GPa) = 19.21789 25.62385 22.42087
#
# Velocity S-wave (km/s) = 2.83486 3.27342 3.06200
# Velocity P-wave (km/s) = 4.29104 4.81309 4.55954
#
# Compressibility (1/GPa) = 0.05432403
#
# Stress axis : x y z
#
# Youngs Moduli (GPa) = 62.46374 95.33728 44.14563
#
# Poissons Ratio (x) = 0.01202 -0.13212
# Poissons Ratio (y) = 0.00788 0.01237
# Poissons Ratio (z) = -0.18695 0.02670
#
# Static dielectric constant tensor:
#      x y z
#    x 1.920870 0.000000 0.000000 
#    y 0.000000 2.045930 0.000000 
#    z 0.000000 0.000000 1.928030 
# 
# From -- ./inp_files/38130.got.cif
#   From: 2010.05.17/outbox.cif.g08.bks.cpg/sg53_20_cif.got.tgz:38130.got - 2010.06.03 12:45:16.
