data_PCOD9418838
_publ_section_title
;
Structure prediction by ZEFSAII (Michael W. Deem and Ramdas Pophale) SiO2 
 PCOD9418838
Probable space group: P M N A
;
_chemical_formula_sum "Si O2"
_cell_formula_units_Z 28
_cell_length_a 20.697712
_cell_length_b 13.054179
_cell_length_c 5.057578
_cell_angle_alpha 90.000000
_cell_angle_beta 90.000000
_cell_angle_gamma 90.000000
_cell_volume 1366.515281
_symmetry_space_group_name_H-M "P M N A"
_symmetry_group_IT_number 53
_symmetry_cell_setting 'orthorhombic'
loop_
_space_group_symop_operation_xyz
x,y,z
1/2-x,-y,1/2+z
x,-y,-z
1/2-x,y,1/2-z
-x,-y,-z
1/2+x,y,1/2-z
-x,y,z
1/2+x,-y,1/2+z
loop_
_atom_site_type_symbol
_atom_site_label
_atom_site_fract_x
_atom_site_fract_y
_atom_site_fract_z
Si Si1 0.000000 0.923950 0.248168
Si Si2 0.825885 0.427109 0.747359
Si Si3 0.319797 0.103455 0.368345
Si Si4 0.127553 0.207242 0.660987
O O1 0.061741 0.848929 0.254617
O O2 0.000000 0.000000 0.500000
O O3 0.000000 0.000000 0.000000
O O4 0.832815 0.500000 0.500000
O O5 0.750000 0.393972 0.750000
O O6 0.871109 0.329314 0.691534
O O7 0.838423 0.500000 0.000000
O O8 0.250000 0.077392 0.250000
O O9 0.319138 0.175806 0.621088
O O10 0.347884 0.000000 0.500000
O O11 0.355997 0.160535 0.127816
#
# Coordination Sequence:
#
# PCOD9418838 Si02
#       4
#     4   8   8   8
#     4  12  26  44  64  88 126 174 218 256 299 368
#     4  10  21  39  63  92 124 158 203 261 322 380
#     4  12  23  37  60  92 126 159 203 263 325 385
#     4  12  24  41  63  90 125 170 212 256 314 375
#
# _framework density 20.490075000000001
#
# number of rings (size 3 to 8) (size 9 to 14) (size 15 to 20)
#    0.000    0.571    0.000   11.143    0.000    2.286 
#    0.000    1.429    0.000    0.000    0.000    0.000 
#    0.000    0.000    0.000    0.000    0.000    0.000 
#
# Total GULP energy -156306.187051 kJ/mol
# GULP energy per Si atom -5582.363823 kJ/mol
# Density = 2.044344 g / cm^3
# Si number density = 20.490075 Si / 1000 Ang^3
#
#
#
# Elastic Constant Matrix: (Units=GPa)
#
#
# Indices 1 2 3 4 5 6 
#
# 1 102.5825 74.4959 41.3354 0.0000 0.0000 0.0000
# 2 74.4959 189.3553 79.5742 0.0000 0.0000 0.0000
# 3 41.3354 79.5742 184.3046 0.0000 0.0000 0.0000
# 4 0.0000 0.0000 0.0000 -30.5465 0.0000 0.0000
# 5 0.0000 0.0000 0.0000 0.0000 11.6165 0.0000
# 6 0.0000 0.0000 0.0000 0.0000 0.0000 55.3505
#
#
#
# Elastic Compliance Matrix: (Units=1/GPa)
#
#
# Indices 1 2 3 4 5 6 
#
# 1 0.013773 -0.005034 -0.000916 0.000000 0.000000 0.000000
# 2 -0.005034 0.008291 -0.002451 0.000000 0.000000 0.000000
# 3 -0.000916 -0.002451 0.006689 0.000000 0.000000 0.000000
# 4 0.000000 0.000000 0.000000 -0.032737 0.000000 0.000000
# 5 0.000000 0.000000 0.000000 0.000000 0.086085 0.000000
# 6 0.000000 0.000000 0.000000 0.000000 0.000000 0.018067
#
#
# Mechanical properties :
#
#
# Convention : Reuss Voigt Hill
#
# Bulk Modulus (GPa) = 83.66058 96.33928 89.99993
# Shear Modulus (GPa) = 41.33861 26.00657 33.67259
#
# Velocity S-wave (km/s) = 4.49653 3.56649 4.05824
# Velocity P-wave (km/s) = 8.23874 8.00496 8.12269
#
# Compressibility (1/GPa) = 0.01195306
#
# Stress axis : x y z
#
# Youngs Moduli (GPa) = 72.60770 120.60742 149.49181
#
# Poissons Ratio (x) = 0.60710 0.13687
# Poissons Ratio (y) = 0.36548 0.36639
# Poissons Ratio (z) = 0.06648 0.29560
#
# Static dielectric constant tensor:
#      x y z
#    x 1.790370 0.000000 0.000000 
#    y 0.000000 1.852730 0.000000 
#    z 0.000000 0.000000 1.309930 
# 
# From -- ./inp_files/2544.got.cif
#   From: 2010.05.17/outbox.cif.g08.bks.cpg/sg53_2_cif.got.tgz:2544.got - 2010.06.03 12:45:16.
