data_PCOD9418471
_publ_section_title
;
Structure prediction by ZEFSAII (Michael W. Deem and Ramdas Pophale) SiO2 
 PCOD9418471
Probable space group: P M N A
;
_chemical_formula_sum "Si O2"
_cell_formula_units_Z 48
_cell_length_a 8.828699
_cell_length_b 21.743751
_cell_length_c 14.496934
_cell_angle_alpha 90.000000
_cell_angle_beta 90.000000
_cell_angle_gamma 90.000000
_cell_volume 2782.962397
_symmetry_space_group_name_H-M "P M N A"
_symmetry_group_IT_number 53
_symmetry_cell_setting 'orthorhombic'
loop_
_space_group_symop_operation_xyz
x,y,z
1/2-x,-y,1/2+z
x,-y,-z
1/2-x,y,1/2-z
-x,-y,-z
1/2+x,y,1/2-z
-x,y,z
1/2+x,-y,1/2+z
loop_
_atom_site_type_symbol
_atom_site_label
_atom_site_fract_x
_atom_site_fract_y
_atom_site_fract_z
Si Si1 0.682696 0.500000 0.851236
Si Si2 0.317795 0.837280 0.351833
Si Si3 0.182409 0.399851 0.500000
Si Si4 0.818569 0.072407 0.500000
Si Si5 0.681398 0.735121 0.500000
Si Si6 0.182205 0.837280 0.851833
O O1 0.750000 0.500000 0.750000
O O2 0.500000 0.500000 0.846434
O O3 0.728567 0.559788 0.910956
O O4 0.728567 0.440212 0.910956
O O5 0.250000 0.835607 0.250000
O O6 0.500000 0.841591 0.348838
O O7 0.251934 0.893812 0.411122
O O8 0.277006 0.776258 0.410845
O O9 0.246259 0.331671 0.500000
O O10 0.000000 0.397270 0.500000
O O11 0.748066 0.106188 0.411122
O O12 0.000000 0.080783 0.500000
O O13 0.785542 0.000000 0.500000
O O14 0.500000 0.728843 0.500000
O O15 0.722994 0.776258 0.589155
O O16 0.250000 0.835608 0.750000
O O17 0.000000 0.841591 0.848838
#
# Coordination Sequence:
#
# PCOD9418471 Si02
#       6
#     8   8   8   8   8   8
#     4   9  19  35  52  74 102 133 171 211 254 306
#     4  10  21  37  56  79 108 141 177 218 262 312
#     4   9  19  35  53  73 102 137 170 208 257 311
#     4  10  21  37  57  81 108 139 176 218 264 313
#     4   9  20  36  53  77 106 135 173 217 259 307
#     4  10  21  37  56  79 108 141 177 218 262 312
#
# _framework density 17.247807999999999
#
# number of rings (size 3 to 8) (size 9 to 14) (size 15 to 20)
#    0.000    2.500    0.000    3.500    0.000    8.667 
#    0.000    8.333    0.000    0.000    0.000    0.000 
#    0.000    0.000    0.000    0.000    0.000    0.000 
#
# Total GULP energy -267820.965159 kJ/mol
# GULP energy per Si atom -5579.603441 kJ/mol
# Density = 1.720855 g / cm^3
# Si number density = 17.247808 Si / 1000 Ang^3
#
#
#
# Elastic Constant Matrix: (Units=GPa)
#
#
# Indices 1 2 3 4 5 6 
#
# 1 52.2043 67.6000 62.7271 0.0000 0.0000 0.0000
# 2 67.6000 188.5814 108.9710 0.0000 0.0000 0.0000
# 3 62.7271 108.9710 202.5827 0.0000 0.0000 0.0000
# 4 0.0000 0.0000 0.0000 5.2369 0.0000 0.0000
# 5 0.0000 0.0000 0.0000 0.0000 33.5879 0.0000
# 6 0.0000 0.0000 0.0000 0.0000 0.0000 35.6001
#
#
#
# Elastic Compliance Matrix: (Units=1/GPa)
#
#
# Indices 1 2 3 4 5 6 
#
# 1 0.041735 -0.010873 -0.007074 0.000000 0.000000 0.000000
# 2 -0.010873 0.010527 -0.002296 0.000000 0.000000 0.000000
# 3 -0.007074 -0.002296 0.008362 0.000000 0.000000 0.000000
# 4 0.000000 0.000000 0.000000 0.190951 0.000000 0.000000
# 5 0.000000 0.000000 0.000000 0.000000 0.029773 0.000000
# 6 0.000000 0.000000 0.000000 0.000000 0.000000 0.028090
#
#
# Mechanical properties :
#
#
# Convention : Reuss Voigt Hill
#
# Bulk Modulus (GPa) = 49.65779 102.44050 76.04914
# Shear Modulus (GPa) = 14.01994 28.48970 21.25482
#
# Velocity S-wave (km/s) = 2.85415 4.06863 3.51425
# Velocity P-wave (km/s) = 6.30197 9.03294 7.78809
#
# Compressibility (1/GPa) = 0.02013783
#
# Stress axis : x y z
#
# Youngs Moduli (GPa) = 23.96087 94.99421 119.59374
#
# Poissons Ratio (x) = 1.03285 0.84601
# Poissons Ratio (y) = 0.26052 0.27458
# Poissons Ratio (z) = 0.16950 0.21810
#
# Static dielectric constant tensor:
#      x y z
#    x 1.579140 0.000000 0.000000 
#    y 0.000000 1.564910 0.000000 
#    z 0.000000 0.000000 1.562990 
# 
# From -- ./inp_files/20355.got.cif
#   From: 2010.05.17/outbox.cif.g08.bks.cpg/sg53_11_cif.got.tgz:20355.got - 2010.06.03 12:45:16.
