data_PCOD9418369
_publ_section_title
;
Structure prediction by ZEFSAII (Michael W. Deem and Ramdas Pophale) SiO2 
 PCOD9418369
Probable space group: P M N A
;
_chemical_formula_sum "Si O2"
_cell_formula_units_Z 56
_cell_length_a 16.310919
_cell_length_b 33.062317
_cell_length_c 5.192982
_cell_angle_alpha 90.000000
_cell_angle_beta 90.000000
_cell_angle_gamma 90.000000
_cell_volume 2800.454583
_symmetry_space_group_name_H-M "P M N A"
_symmetry_group_IT_number 53
_symmetry_cell_setting 'orthorhombic'
loop_
_space_group_symop_operation_xyz
x,y,z
1/2-x,-y,1/2+z
x,-y,-z
1/2-x,y,1/2-z
-x,-y,-z
1/2+x,y,1/2-z
-x,y,z
1/2+x,-y,1/2+z
loop_
_atom_site_type_symbol
_atom_site_label
_atom_site_fract_x
_atom_site_fract_y
_atom_site_fract_z
Si Si1 0.400993 0.674824 0.606430
Si Si2 0.807460 0.544858 0.499146
Si Si3 0.095715 0.886018 0.674532
Si Si4 0.196435 0.755312 0.006169
Si Si5 0.151672 0.022965 0.252706
Si Si6 0.098595 0.373879 0.605264
Si Si7 0.596414 0.166536 0.689917
O O1 0.500000 0.677244 0.599192
O O2 0.363803 0.718819 0.565504
O O3 0.374405 0.643974 0.380206
O O4 0.375412 0.656898 0.880864
O O5 0.846982 0.500000 0.500000
O O6 0.750000 0.549291 0.750000
O O7 0.868078 0.582200 0.466831
O O8 0.750000 0.545562 0.250000
O O9 0.134697 0.929703 0.716490
O O10 0.128108 0.857890 0.441032
O O11 0.000000 0.892800 0.611929
O O12 0.100980 0.862373 0.942513
O O13 0.250000 0.741482 0.250000
O O14 0.147173 0.793972 0.113660
O O15 0.250000 0.764864 0.750000
O O16 0.250000 0.018251 0.250000
O O17 0.117736 0.000000 0.500000
O O18 0.119618 0.000000 0.000000
O O19 0.000000 0.375319 0.607771
O O20 0.500000 0.176991 0.734658
#
# Coordination Sequence:
#
# PCOD9418369 Si02
#       7
#     8   8   8   8   8   8   8
#     4  10  22  40  59  82 115 152 187 231 291 346
#     4  10  21  36  55  81 114 151 188 231 288 345
#     4  10  21  37  60  85 108 145 192 230 271 326
#     4  12  25  39  59  89 116 145 191 237 281 335
#     4  10  21  36  54  80 114 149 182 223 280 334
#     4  10  21  37  59  84 110 147 193 235 281 340
#     4  10  22  41  60  81 114 151 185 227 282 335
#
# _framework density 19.996755
#
# number of rings (size 3 to 8) (size 9 to 14) (size 15 to 20)
#    0.000    1.714    0.000    3.857    0.000    6.000 
#    0.000    5.714    0.000    5.143    0.000    0.000 
#    0.000    0.000    0.000    0.000    0.000    0.000 
#
# Total GULP energy -312858.153115 kJ/mol
# GULP energy per Si atom -5586.752734 kJ/mol
# Density = 1.995124 g / cm^3
# Si number density = 19.996755 Si / 1000 Ang^3
#
#
#
# Elastic Constant Matrix: (Units=GPa)
#
#
# Indices 1 2 3 4 5 6 
#
# 1 10.1019 17.0265 18.0661 0.0000 0.0000 0.0000
# 2 17.0265 98.1456 10.7547 0.0000 0.0000 0.0000
# 3 18.0661 10.7547 111.3428 0.0000 0.0000 0.0000
# 4 0.0000 0.0000 0.0000 34.0698 0.0000 0.0000
# 5 0.0000 0.0000 0.0000 0.0000 173.5785 0.0000
# 6 0.0000 0.0000 0.0000 0.0000 0.0000 34.7242
#
#
#
# Elastic Compliance Matrix: (Units=1/GPa)
#
#
# Indices 1 2 3 4 5 6 
#
# 1 0.209828 -0.033020 -0.030856 0.000000 0.000000 0.000000
# 2 -0.033020 0.015494 0.003861 0.000000 0.000000 0.000000
# 3 -0.030856 0.003861 0.013615 0.000000 0.000000 0.000000
# 4 0.000000 0.000000 0.000000 0.029352 0.000000 0.000000
# 5 0.000000 0.000000 0.000000 0.000000 0.005761 0.000000
# 6 0.000000 0.000000 0.000000 0.000000 0.000000 0.028798
#
#
# Mechanical properties :
#
#
# Convention : Reuss Voigt Hill
#
# Bulk Modulus (GPa) = 8.40999 34.58720 21.49860
# Shear Modulus (GPa) = 10.81048 60.05737 35.43393
#
# Velocity S-wave (km/s) = 2.32763 5.48623 4.21406
# Velocity P-wave (km/s) = 3.38210 7.58061 5.86959
#
# Compressibility (1/GPa) = 0.11890624
#
# Stress axis : x y z
#
# Youngs Moduli (GPa) = 4.76581 64.54022 73.44852
#
# Poissons Ratio (x) = 2.13112 2.26636
# Poissons Ratio (y) = 0.15737 -0.28359
# Poissons Ratio (z) = 0.14706 -0.24920
#
# Static dielectric constant tensor:
#      x y z
#    x 1.708150 0.000000 0.000000 
#    y 0.000000 1.686230 0.000000 
#    z 0.000000 0.000000 1.692900 
# 
# From -- ./inp_files/1471.got.cif
#   From: 2010.05.17/outbox.cif.g08.bks.cpg/sg53_1_cif.got.tgz:1471.got - 2010.06.03 12:45:16.
