data_PCOD9418344
_publ_section_title
;
Structure prediction by ZEFSAII (Michael W. Deem and Ramdas Pophale) SiO2 
 PCOD9418344
Probable space group: P M N A
;
_chemical_formula_sum "Si O2"
_cell_formula_units_Z 36
_cell_length_a 25.800846
_cell_length_b 13.712257
_cell_length_c 5.129301
_cell_angle_alpha 90.000000
_cell_angle_beta 90.000000
_cell_angle_gamma 90.000000
_cell_volume 1814.684276
_symmetry_space_group_name_H-M "P M N A"
_symmetry_group_IT_number 53
_symmetry_cell_setting 'orthorhombic'
loop_
_space_group_symop_operation_xyz
x,y,z
1/2-x,-y,1/2+z
x,-y,-z
1/2-x,y,1/2-z
-x,-y,-z
1/2+x,y,1/2-z
-x,y,z
1/2+x,-y,1/2+z
loop_
_atom_site_type_symbol
_atom_site_label
_atom_site_fract_x
_atom_site_fract_y
_atom_site_fract_z
Si Si1 0.385079 0.500000 0.000000
Si Si2 0.620423 0.756009 0.554112
Si Si3 0.690711 0.069146 0.251994
Si Si4 0.561546 0.693984 0.072752
Si Si5 0.198549 0.399889 0.129414
O O1 0.420349 0.582354 0.135151
O O2 0.345574 0.439937 0.178807
O O3 0.649451 0.846449 0.689688
O O4 0.587608 0.764328 0.289027
O O5 0.666865 0.681004 0.473115
O O6 0.582611 0.716535 0.782373
O O7 0.750000 0.108104 0.250000
O O8 0.688047 0.000000 0.500000
O O9 0.681975 0.000000 0.000000
O O10 0.500000 0.701144 0.081395
O O11 0.250000 0.354401 0.250000
O O12 0.217479 0.500000 0.000000
#
# Coordination Sequence:
#
# PCOD9418344 Si02
#       5
#     4   8   8   8   8
#     4  10  21  36  52  82 118 162 205 242 294 342
#     4  11  23  39  62  89 119 160 200 246 306 359
#     4  10  21  40  65  95 124 154 195 246 303 369
#     4  11  23  39  60  84 118 159 210 257 295 345
#     4  11  20  34  53  84 125 159 191 232 289 368
#
# _framework density 19.838163000000002
#
# number of rings (size 3 to 8) (size 9 to 14) (size 15 to 20)
#    0.000    1.333    3.333    3.000    0.000    0.000 
#    0.000    6.667    0.000   13.333    0.000    0.000 
#    0.000    0.000    0.000    0.000    0.000    0.000 
#
# Total GULP energy -200630.923620 kJ/mol
# GULP energy per Si atom -5573.081212 kJ/mol
# Density = 1.979301 g / cm^3
# Si number density = 19.838163 Si / 1000 Ang^3
#
#
#
# Elastic Constant Matrix: (Units=GPa)
#
#
# Indices 1 2 3 4 5 6 
#
# 1 128.4566 32.6914 18.6773 0.0000 0.0000 0.0000
# 2 32.6914 57.0365 3.7555 0.0000 0.0000 0.0000
# 3 18.6773 3.7555 83.7910 0.0000 0.0000 0.0000
# 4 0.0000 0.0000 0.0000 37.2247 0.0000 0.0000
# 5 0.0000 0.0000 0.0000 0.0000 30.9526 0.0000
# 6 0.0000 0.0000 0.0000 0.0000 0.0000 32.1033
#
#
#
# Elastic Compliance Matrix: (Units=1/GPa)
#
#
# Indices 1 2 3 4 5 6 
#
# 1 0.009394 -0.005262 -0.001858 0.000000 0.000000 0.000000
# 2 -0.005262 0.020532 0.000253 0.000000 0.000000 0.000000
# 3 -0.001858 0.000253 0.012337 0.000000 0.000000 0.000000
# 4 0.000000 0.000000 0.000000 0.026864 0.000000 0.000000
# 5 0.000000 0.000000 0.000000 0.000000 0.032308 0.000000
# 6 0.000000 0.000000 0.000000 0.000000 0.000000 0.031149
#
#
# Mechanical properties :
#
#
# Convention : Reuss Voigt Hill
#
# Bulk Modulus (GPa) = 35.05268 42.17024 38.61146
# Shear Modulus (GPa) = 32.08654 34.33344 33.20999
#
# Velocity S-wave (km/s) = 4.02607 4.16465 4.09595
# Velocity P-wave (km/s) = 6.27057 6.66551 6.47105
#
# Compressibility (1/GPa) = 0.02852849
#
# Stress axis : x y z
#
# Youngs Moduli (GPa) = 106.45044 48.70446 81.05490
#
# Poissons Ratio (x) = 0.25628 0.15061
# Poissons Ratio (y) = 0.56014 -0.02048
# Poissons Ratio (z) = 0.19780 -0.01231
#
# Static dielectric constant tensor:
#      x y z
#    x 1.727820 0.000000 0.000000 
#    y 0.000000 1.719620 0.000000 
#    z 0.000000 0.000000 1.744280 
# 
# From -- ./inp_files/3472.got.cif
#   From: 2010.05.17/outbox.cif.g08.bks.cpg/sg53_2_cif.got.tgz:3472.got - 2010.06.03 12:45:16.
