data_PCOD9418239
_publ_section_title
;
Structure prediction by ZEFSAII (Michael W. Deem and Ramdas Pophale) SiO2 
 PCOD9418239
Probable space group: P M N A
;
_chemical_formula_sum "Si O2"
_cell_formula_units_Z 56
_cell_length_a 20.538926
_cell_length_b 8.768425
_cell_length_c 15.563799
_cell_angle_alpha 90.000000
_cell_angle_beta 90.000000
_cell_angle_gamma 90.000000
_cell_volume 2802.947318
_symmetry_space_group_name_H-M "P M N A"
_symmetry_group_IT_number 53
_symmetry_cell_setting 'orthorhombic'
loop_
_space_group_symop_operation_xyz
x,y,z
1/2-x,-y,1/2+z
x,-y,-z
1/2-x,y,1/2-z
-x,-y,-z
1/2+x,y,1/2-z
-x,y,z
1/2+x,-y,1/2+z
loop_
_atom_site_type_symbol
_atom_site_label
_atom_site_fract_x
_atom_site_fract_y
_atom_site_fract_z
Si Si1 0.893665 0.669518 0.967009
Si Si2 0.926284 0.373267 0.224408
Si Si3 0.691263 0.799375 0.816080
Si Si4 0.244763 0.316828 0.492035
Si Si5 0.798397 0.165516 0.670366
Si Si6 0.928389 0.916848 0.082205
Si Si7 0.421866 0.734842 0.256313
O O1 0.921720 0.686976 0.872767
O O2 0.818972 0.721526 0.967284
O O3 0.892203 0.500000 0.000000
O O4 0.934184 0.753386 0.038920
O O5 0.873795 0.277451 0.277949
O O6 0.912476 0.556209 0.219247
O O7 0.000000 0.355222 0.257179
O O8 0.750000 0.757578 0.750000
O O9 0.702518 0.734974 0.911198
O O10 0.693339 0.982695 0.825477
O O11 0.238937 0.500000 0.500000
O O12 0.229592 0.230339 0.580990
O O13 0.750000 0.209422 0.750000
O O14 0.870341 0.236656 0.681425
O O15 0.900909 0.866755 0.173936
O O16 0.000000 0.987230 0.095031
O O17 0.895690 0.000000 0.000000
O O18 0.500000 0.754981 0.242286
#
# Coordination Sequence:
#
# PCOD9418239 Si02
#       7
#     8   8   8   8   8   8   8
#     4  11  21  35  60  92 126 167 210 264 323 389
#     4  11  23  39  64  94 131 172 217 270 325 388
#     4  11  24  44  64  95 131 171 217 271 322 388
#     4  11  24  41  67  94 124 168 214 271 325 383
#     4  11  25  41  66  97 129 172 218 272 327 388
#     4  10  21  33  51  82 125 170 208 253 314 384
#     4  10  22  40  60  89 130 173 216 270 325 384
#
# _framework density 19.978967999999998
#
# number of rings (size 3 to 8) (size 9 to 14) (size 15 to 20)
#    0.000    1.286    2.857    2.571    4.000    3.429 
#    0.000    0.714    0.000    4.286    0.000    0.000 
#    0.000    0.000    0.000    0.000    0.000    0.000 
#
# Total GULP energy -312162.028314 kJ/mol
# GULP energy per Si atom -5574.321934 kJ/mol
# Density = 1.993350 g / cm^3
# Si number density = 19.978968 Si / 1000 Ang^3
#
#
#
# Elastic Constant Matrix: (Units=GPa)
#
#
# Indices 1 2 3 4 5 6 
#
# 1 90.0145 46.0506 39.0477 0.0000 0.0000 0.0000
# 2 46.0506 67.5614 33.8591 0.0000 0.0000 0.0000
# 3 39.0477 33.8591 102.0987 0.0000 0.0000 0.0000
# 4 0.0000 0.0000 0.0000 34.6533 0.0000 0.0000
# 5 0.0000 0.0000 0.0000 0.0000 30.3515 0.0000
# 6 0.0000 0.0000 0.0000 0.0000 0.0000 28.9008
#
#
#
# Elastic Compliance Matrix: (Units=1/GPa)
#
#
# Indices 1 2 3 4 5 6 
#
# 1 0.017976 -0.010563 -0.003372 0.000000 0.000000 0.000000
# 2 -0.010563 0.023958 -0.003906 0.000000 0.000000 0.000000
# 3 -0.003372 -0.003906 0.012379 0.000000 0.000000 0.000000
# 4 0.000000 0.000000 0.000000 0.028857 0.000000 0.000000
# 5 0.000000 0.000000 0.000000 0.000000 0.032947 0.000000
# 6 0.000000 0.000000 0.000000 0.000000 0.000000 0.034601
#
#
# Mechanical properties :
#
#
# Convention : Reuss Voigt Hill
#
# Bulk Modulus (GPa) = 53.66838 55.28773 54.47806
# Shear Modulus (GPa) = 25.95913 28.16225 27.06069
#
# Velocity S-wave (km/s) = 3.60852 3.75853 3.68429
# Velocity P-wave (km/s) = 6.65452 6.82411 6.73985
#
# Compressibility (1/GPa) = 0.01863295
#
# Stress axis : x y z
#
# Youngs Moduli (GPa) = 55.63044 41.73927 80.78013
#
# Poissons Ratio (x) = 0.44087 0.27239
# Poissons Ratio (y) = 0.58760 0.31550
# Poissons Ratio (z) = 0.18758 0.16302
#
# Static dielectric constant tensor:
#      x y z
#    x 1.795070 0.000000 0.000000 
#    y 0.000000 1.869580 0.000000 
#    z 0.000000 0.000000 1.692720 
# 
# From -- ./inp_files/24321.got.cif
#   From: 2010.05.17/outbox.cif.g08.bks.cpg/sg53_13_cif.got.tgz:24321.got - 2010.06.03 12:45:16.
