data_PCOD9418839
_publ_section_title
;
Structure prediction by ZEFSAII (Michael W. Deem and Ramdas Pophale) SiO2 
 PCOD9418839
Probable space group: P M N A
;
_chemical_formula_sum "Si O2"
_cell_formula_units_Z 64
_cell_length_a 14.551725
_cell_length_b 9.033383
_cell_length_c 22.467694
_cell_angle_alpha 90.000000
_cell_angle_beta 90.000000
_cell_angle_gamma 90.000000
_cell_volume 2953.407702
_symmetry_space_group_name_H-M "P M N A"
_symmetry_group_IT_number 53
_symmetry_cell_setting 'orthorhombic'
loop_
_space_group_symop_operation_xyz
x,y,z
1/2-x,-y,1/2+z
x,-y,-z
1/2-x,y,1/2-z
-x,-y,-z
1/2+x,y,1/2-z
-x,y,z
1/2+x,-y,1/2+z
loop_
_atom_site_type_symbol
_atom_site_label
_atom_site_fract_x
_atom_site_fract_y
_atom_site_fract_z
Si Si1 0.603682 0.455650 0.822412
Si Si2 0.745491 0.747945 0.357597
Si Si3 0.104405 0.798863 0.960499
Si Si4 0.604178 0.008177 0.339141
Si Si5 0.712350 0.841789 0.017801
Si Si6 0.107400 0.511202 0.888083
Si Si7 0.398016 0.614427 0.946032
Si Si8 0.645920 0.295530 0.270967
O O1 0.500000 0.392369 0.823014
O O2 0.684032 0.335014 0.812807
O O3 0.625390 0.527016 0.886595
O O4 0.603836 0.594884 0.778071
O O5 0.806096 0.801434 0.414152
O O6 0.674561 0.627013 0.384187
O O7 0.683151 0.883932 0.334404
O O8 0.117408 0.898997 0.900980
O O9 0.117187 0.626590 0.942310
O O10 0.000000 0.818612 0.980842
O O11 0.178004 0.840781 0.009413
O O12 0.500000 0.946284 0.340042
O O13 0.609200 0.132554 0.287151
O O14 0.674612 0.732156 0.967895
O O15 0.674741 0.000000 0.000000
O O16 0.132974 0.610664 0.830988
O O17 0.000000 0.468248 0.884955
O O18 0.500000 0.680464 0.937877
O O19 0.402670 0.500000 0.000000
O O20 0.750000 0.277299 0.250000
#
# Coordination Sequence:
#
# PCOD9418839 Si02
#       8
#     8   8   8   8   8   8   8   8
#     4  11  23  42  71  99 127 169 225 277 324 384
#     4  12  23  39  64 100 128 169 217 264 322 385
#     4   9  20  37  59  89 127 173 213 250 307 384
#     4  10  22  42  65  93 134 173 210 261 327 391
#     4  12  24  37  60  91 133 173 212 261 319 380
#     4  10  21  39  63  92 127 165 208 263 324 380
#     4  10  22  41  66  94 125 166 214 269 326 378
#     4  11  22  42  71  95 124 165 218 267 323 391
#
# _framework density 21.669882000000001
#
# number of rings (size 3 to 8) (size 9 to 14) (size 15 to 20)
#    0.000    1.375    3.750    3.000    1.750    1.500 
#    2.250    1.250    0.000    1.500    0.000    0.000 
#    0.000    0.000    0.000    0.000    0.000    0.000 
#
# Total GULP energy -357561.732099 kJ/mol
# GULP energy per Si atom -5586.902064 kJ/mol
# Density = 2.162056 g / cm^3
# Si number density = 21.669882 Si / 1000 Ang^3
#
#
#
# Elastic Constant Matrix: (Units=GPa)
#
#
# Indices 1 2 3 4 5 6 
#
# 1 103.7549 52.3905 0.7913 0.0000 0.0000 0.0000
# 2 52.3905 112.4975 15.8983 0.0000 0.0000 0.0000
# 3 0.7913 15.8983 54.1690 0.0000 0.0000 0.0000
# 4 0.0000 0.0000 0.0000 25.2102 0.0000 0.0000
# 5 0.0000 0.0000 0.0000 0.0000 22.9982 0.0000
# 6 0.0000 0.0000 0.0000 0.0000 0.0000 -16.2930
#
#
#
# Elastic Compliance Matrix: (Units=1/GPa)
#
#
# Indices 1 2 3 4 5 6 
#
# 1 0.012737 -0.006161 0.001622 0.000000 0.000000 0.000000
# 2 -0.006161 0.012254 -0.003506 0.000000 0.000000 0.000000
# 3 0.001622 -0.003506 0.019466 0.000000 0.000000 0.000000
# 4 0.000000 0.000000 0.000000 0.039667 0.000000 0.000000
# 5 0.000000 0.000000 0.000000 0.000000 0.043482 0.000000
# 6 0.000000 0.000000 0.000000 0.000000 0.000000 -0.061376
#
#
# Mechanical properties :
#
#
# Convention : Reuss Voigt Hill
#
# Bulk Modulus (GPa) = 35.25301 45.39795 40.32548
# Shear Modulus (GPa) = 54.48170 19.80583 37.14376
#
# Velocity S-wave (km/s) = 5.01959 3.02649 4.14463
# Velocity P-wave (km/s) = 7.06389 5.76265 6.44619
#
# Compressibility (1/GPa) = 0.02836637
#
# Stress axis : x y z
#
# Youngs Moduli (GPa) = 78.51429 81.60819 51.37117
#
# Poissons Ratio (x) = 0.50276 -0.08333
# Poissons Ratio (y) = 0.48370 0.18013
# Poissons Ratio (z) = -0.12736 0.28615
#
# Static dielectric constant tensor:
#      x y z
#    x 1.829350 0.000000 0.000000 
#    y 0.000000 1.806080 0.000000 
#    z 0.000000 0.000000 1.724610 
# 
# From -- ./inp_files/35376.got.cif
#   From: 2010.05.17/outbox.cif.g08.bks.cpg/sg53_18_cif.got.tgz:35376.got - 2010.06.03 12:45:16.
