data_PCOD9418169
_publ_section_title
;
Structure prediction by ZEFSAII (Michael W. Deem and Ramdas Pophale) SiO2 
 PCOD9418169
Probable space group: P M N A
;
_chemical_formula_sum "Si O2"
_cell_formula_units_Z 60
_cell_length_a 27.054935
_cell_length_b 11.130871
_cell_length_c 9.515281
_cell_angle_alpha 90.000000
_cell_angle_beta 90.000000
_cell_angle_gamma 90.000000
_cell_volume 2865.479215
_symmetry_space_group_name_H-M "P M N A"
_symmetry_group_IT_number 53
_symmetry_cell_setting 'orthorhombic'
loop_
_space_group_symop_operation_xyz
x,y,z
1/2-x,-y,1/2+z
x,-y,-z
1/2-x,y,1/2-z
-x,-y,-z
1/2+x,y,1/2-z
-x,y,z
1/2+x,-y,1/2+z
loop_
_atom_site_type_symbol
_atom_site_label
_atom_site_fract_x
_atom_site_fract_y
_atom_site_fract_z
Si Si1 0.866227 0.529459 0.339967
Si Si2 0.554812 0.537307 0.649064
Si Si3 0.857266 0.050775 0.228334
Si Si4 0.366873 0.774599 0.317977
Si Si5 0.220698 0.178316 0.026102
Si Si6 0.943030 0.805591 0.934415
Si Si7 0.212502 0.568872 0.855304
Si Si8 0.195202 0.000000 0.500000
O O1 0.854248 0.500000 0.500000
O O2 0.921916 0.505816 0.292977
O O3 0.859713 0.667490 0.292188
O O4 0.837525 0.438864 0.233889
O O5 0.580264 0.500000 0.500000
O O6 0.500000 0.484934 0.640297
O O7 0.553840 0.680343 0.647318
O O8 0.811091 0.090793 0.129534
O O9 0.905368 0.110014 0.154525
O O10 0.866625 0.909179 0.237632
O O11 0.838164 0.070445 0.386338
O O12 0.318984 0.772158 0.416600
O O13 0.415371 0.771974 0.418908
O O14 0.233605 0.299360 0.110366
O O15 0.265789 0.105724 0.957008
O O16 0.000000 0.849446 0.952875
O O17 0.250000 0.503229 0.750000
O O18 0.206900 0.500000 0.000000
#
# Coordination Sequence:
#
# PCOD9418169 Si02
#       8
#     8   8   8   8   8   8   8   4
#     4  12  25  42  65  98 143 178 218 288 353 411
#     4  10  20  39  70  98 127 177 228 274 339 414
#     4  11  24  39  63  97 132 168 227 276 344 417
#     4  11  22  40  64  94 131 176 222 282 341 410
#     4  11  22  42  67  91 124 175 232 285 337 409
#     4  10  21  41  71  99 128 172 229 285 340 411
#     4  12  25  42  63  90 128 179 230 280 339 412
#     4  12  24  42  65  92 129 178 216 286 350 408
#
# _framework density 20.938907
#
# number of rings (size 3 to 8) (size 9 to 14) (size 15 to 20)
#    0.000    0.933    4.000    4.800    0.000    5.600 
#    0.000    0.333    0.000    0.000    0.000    0.000 
#    0.000    0.000    0.000    0.000    0.000    0.000 
#
# Total GULP energy -334431.242605 kJ/mol
# GULP energy per Si atom -5573.854043 kJ/mol
# Density = 2.089125 g / cm^3
# Si number density = 20.938907 Si / 1000 Ang^3
#
#
#
# Elastic Constant Matrix: (Units=GPa)
#
#
# Indices 1 2 3 4 5 6 
#
# 1 63.7125 -11.0280 33.1644 0.0000 0.0000 0.0000
# 2 -11.0280 82.5012 18.8701 0.0000 0.0000 0.0000
# 3 33.1644 18.8701 114.0127 0.0000 0.0000 0.0000
# 4 0.0000 0.0000 0.0000 27.9765 0.0000 0.0000
# 5 0.0000 0.0000 0.0000 0.0000 20.8331 0.0000
# 6 0.0000 0.0000 0.0000 0.0000 0.0000 14.1343
#
#
#
# Elastic Compliance Matrix: (Units=1/GPa)
#
#
# Indices 1 2 3 4 5 6 
#
# 1 0.019752 0.004110 -0.006426 0.000000 0.000000 0.000000
# 2 0.004110 0.013453 -0.003422 0.000000 0.000000 0.000000
# 3 -0.006426 -0.003422 0.011206 0.000000 0.000000 0.000000
# 4 0.000000 0.000000 0.000000 0.035744 0.000000 0.000000
# 5 0.000000 0.000000 0.000000 0.000000 0.048000 0.000000
# 6 0.000000 0.000000 0.000000 0.000000 0.000000 0.070750
#
#
# Mechanical properties :
#
#
# Convention : Reuss Voigt Hill
#
# Bulk Modulus (GPa) = 30.36231 38.02661 34.19446
# Shear Modulus (GPa) = 22.58763 27.20345 24.89554
#
# Velocity S-wave (km/s) = 3.28798 3.60833 3.45187
# Velocity P-wave (km/s) = 5.38018 5.96324 5.67920
#
# Compressibility (1/GPa) = 0.03293557
#
# Stress axis : x y z
#
# Youngs Moduli (GPa) = 50.62860 74.33208 89.23417
#
# Poissons Ratio (x) = -0.30550 0.57339
# Poissons Ratio (y) = -0.20808 0.30537
# Poissons Ratio (z) = 0.32532 0.25437
#
# Static dielectric constant tensor:
#      x y z
#    x 2.057710 0.000000 0.000000 
#    y 0.000000 1.828840 0.000000 
#    z 0.000000 0.000000 1.820590 
# 
# From -- ./inp_files/12555.got.cif
#   From: 2010.05.17/outbox.cif.g08.bks.cpg/sg53_7_cif.got.tgz:12555.got - 2010.06.03 12:45:16.
