data_PCOD9418096
_publ_section_title
;
Structure prediction by ZEFSAII (Michael W. Deem and Ramdas Pophale) SiO2 
 PCOD9418096
Probable space group: P M N A
;
_chemical_formula_sum "Si O2"
_cell_formula_units_Z 64
_cell_length_a 14.527844
_cell_length_b 17.124423
_cell_length_c 11.917578
_cell_angle_alpha 90.000000
_cell_angle_beta 90.000000
_cell_angle_gamma 90.000000
_cell_volume 2964.866328
_symmetry_space_group_name_H-M "P M N A"
_symmetry_group_IT_number 53
_symmetry_cell_setting 'orthorhombic'
loop_
_space_group_symop_operation_xyz
x,y,z
1/2-x,-y,1/2+z
x,-y,-z
1/2-x,y,1/2-z
-x,-y,-z
1/2+x,y,1/2-z
-x,y,z
1/2+x,-y,1/2+z
loop_
_atom_site_type_symbol
_atom_site_label
_atom_site_fract_x
_atom_site_fract_y
_atom_site_fract_z
Si Si1 0.607919 0.347282 0.681793
Si Si2 0.681498 0.179679 0.660067
Si Si3 0.293691 0.631410 0.548288
Si Si4 0.228771 0.198932 0.094626
Si Si5 0.401292 0.412536 0.044752
Si Si6 0.891001 0.118448 0.264845
Si Si7 0.605042 0.980578 0.378237
Si Si8 0.107911 0.519961 0.787328
O O1 0.500000 0.340148 0.699045
O O2 0.649990 0.263120 0.709203
O O3 0.633337 0.358677 0.550844
O O4 0.635140 0.430112 0.737692
O O5 0.750000 0.144376 0.750000
O O6 0.727884 0.193176 0.539264
O O7 0.608053 0.111786 0.639864
O O8 0.284098 0.709642 0.620883
O O9 0.191549 0.623056 0.497832
O O10 0.325590 0.557621 0.620856
O O11 0.319634 0.158494 0.147612
O O12 0.138014 0.159939 0.148033
O O13 0.500000 0.373333 0.020831
O O14 0.389597 0.425048 0.178179
O O15 0.406887 0.500000 0.000000
O O16 0.000000 0.126709 0.292550
O O17 0.864264 0.029375 0.231762
O O18 0.500000 0.008268 0.388057
O O19 0.650880 0.000000 0.500000
O O20 0.000000 0.518369 0.824694
#
# Coordination Sequence:
#
# PCOD9418096 Si02
#       8
#     8   8   8   8   8   8   8   8
#     4  10  22  41  62  87 122 159 210 266 312 366
#     4  11  24  39  63  95 129 169 208 262 316 378
#     4  11  22  36  59  89 119 154 204 264 312 369
#     4  10  24  40  59  98 128 162 213 254 323 380
#     4  10  22  37  53  79 114 160 207 247 302 376
#     4  10  22  41  66  91 127 165 202 258 317 376
#     4  10  20  38  66  96 122 162 212 259 315 373
#     4  10  21  36  58  84 114 158 205 257 316 366
#
# _framework density 21.586134999999999
#
# number of rings (size 3 to 8) (size 9 to 14) (size 15 to 20)
#    0.000    1.750    1.250    2.250    5.250    7.000 
#    0.000    1.250    0.000    2.250    0.000    0.000 
#    0.000    0.000    0.000    0.000    0.000    0.000 
#
# Total GULP energy -356773.196143 kJ/mol
# GULP energy per Si atom -5574.581190 kJ/mol
# Density = 2.153700 g / cm^3
# Si number density = 21.586135 Si / 1000 Ang^3
#
#
#
# Elastic Constant Matrix: (Units=GPa)
#
#
# Indices 1 2 3 4 5 6 
#
# 1 91.1796 24.6506 8.6236 0.0000 0.0000 0.0000
# 2 24.6506 105.5969 -3.8106 0.0000 0.0000 0.0000
# 3 8.6236 -3.8106 45.2697 0.0000 0.0000 0.0000
# 4 0.0000 0.0000 0.0000 21.4787 0.0000 0.0000
# 5 0.0000 0.0000 0.0000 0.0000 17.3658 0.0000
# 6 0.0000 0.0000 0.0000 0.0000 0.0000 5.5549
#
#
#
# Elastic Compliance Matrix: (Units=1/GPa)
#
#
# Indices 1 2 3 4 5 6 
#
# 1 0.011988 -0.002890 -0.002527 0.000000 0.000000 0.000000
# 2 -0.002890 0.010195 0.001409 0.000000 0.000000 0.000000
# 3 -0.002527 0.001409 0.022690 0.000000 0.000000 0.000000
# 4 0.000000 0.000000 0.000000 0.046558 0.000000 0.000000
# 5 0.000000 0.000000 0.000000 0.000000 0.057584 0.000000
# 6 0.000000 0.000000 0.000000 0.000000 0.000000 0.180020
#
#
# Mechanical properties :
#
#
# Convention : Reuss Voigt Hill
#
# Bulk Modulus (GPa) = 27.13172 33.44149 30.28660
# Shear Modulus (GPa) = 14.31288 23.05207 18.68248
#
# Velocity S-wave (km/s) = 2.57779 3.27144 2.94510
# Velocity P-wave (km/s) = 4.63210 5.45852 5.06220
#
# Compressibility (1/GPa) = 0.03685723
#
# Stress axis : x y z
#
# Youngs Moduli (GPa) = 83.41996 98.08398 44.07277
#
# Poissons Ratio (x) = 0.28342 0.11136
# Poissons Ratio (y) = 0.24105 -0.06208
# Poissons Ratio (z) = 0.21078 -0.13816
#
# Static dielectric constant tensor:
#      x y z
#    x 1.801370 0.000000 0.000000 
#    y 0.000000 1.837000 0.000000 
#    z 0.000000 0.000000 1.824230 
# 
# From -- ./inp_files/16212.got.cif
#   From: 2010.05.17/outbox.cif.g08.bks.cpg/sg53_9_cif.got.tgz:16212.got - 2010.06.03 12:45:16.
