data_PCOD9418511
_publ_section_title
;
Structure prediction by ZEFSAII (Michael W. Deem and Ramdas Pophale) SiO2 
 PCOD9418511
Probable space group: P M N A
;
_chemical_formula_sum "Si O2"
_cell_formula_units_Z 40
_cell_length_a 8.634115
_cell_length_b 26.365654
_cell_length_c 9.131783
_cell_angle_alpha 90.000000
_cell_angle_beta 90.000000
_cell_angle_gamma 90.000000
_cell_volume 2078.796419
_symmetry_space_group_name_H-M "P M N A"
_symmetry_group_IT_number 53
_symmetry_cell_setting 'orthorhombic'
loop_
_space_group_symop_operation_xyz
x,y,z
1/2-x,-y,1/2+z
x,-y,-z
1/2-x,y,1/2-z
-x,-y,-z
1/2+x,y,1/2-z
-x,y,z
1/2+x,-y,1/2+z
loop_
_atom_site_type_symbol
_atom_site_label
_atom_site_fract_x
_atom_site_fract_y
_atom_site_fract_z
Si Si1 0.314879 0.148922 0.414425
Si Si2 0.312763 0.449318 0.914195
Si Si3 0.813571 0.753732 0.414522
Si Si4 0.313180 0.348318 0.085945
Si Si5 0.814271 0.948158 0.414247
O O1 0.250000 0.147755 0.250000
O O2 0.500000 0.150100 0.410885
O O3 0.251784 0.198437 0.497276
O O4 0.257759 0.099387 0.501005
O O5 0.250000 0.449120 0.750000
O O6 0.500000 0.449081 0.908821
O O7 0.263479 0.500000 0.000000
O O8 0.261915 0.399096 0.001567
O O9 0.750000 0.754033 0.250000
O O10 0.766924 0.701830 0.496402
O O11 0.000000 0.756468 0.411575
O O12 0.250000 0.346992 0.250000
O O13 0.500000 0.349025 0.092238
O O14 0.750000 0.950397 0.250000
O O15 0.000000 0.942599 0.410425
O O16 0.776733 0.000000 0.500000
#
# Coordination Sequence:
#
# PCOD9418511 Si02
#       5
#     8   8   8   8   8
#     4  12  25  42  64  90 122 158 199 246 297 352
#     4  10  21  37  57  84 116 150 192 239 289 347
#     4  11  23  40  61  87 119 155 198 244 295 352
#     4  10  22  38  58  85 116 152 194 241 292 349
#     4  11  24  42  65  93 125 161 201 245 295 350
#
# _framework density 19.241904999999999
#
# number of rings (size 3 to 8) (size 9 to 14) (size 15 to 20)
#    0.000    1.200    0.000    6.000    0.000    7.600 
#    0.000    0.000    0.000    0.000    0.000    0.000 
#    0.000    0.000    0.000    0.000    0.000    0.000 
#
# Total GULP energy -223839.685846 kJ/mol
# GULP energy per Si atom -5595.992146 kJ/mol
# Density = 1.919811 g / cm^3
# Si number density = 19.241905 Si / 1000 Ang^3
#
#
#
# Elastic Constant Matrix: (Units=GPa)
#
#
# Indices 1 2 3 4 5 6 
#
# 1 71.9979 78.6229 67.6286 0.0000 0.0000 0.0000
# 2 78.6229 230.8569 142.0372 0.0000 0.0000 0.0000
# 3 67.6286 142.0372 240.9462 0.0000 0.0000 0.0000
# 4 0.0000 0.0000 0.0000 37.8150 0.0000 0.0000
# 5 0.0000 0.0000 0.0000 0.0000 43.4925 0.0000
# 6 0.0000 0.0000 0.0000 0.0000 0.0000 -15.1870
#
#
#
# Elastic Compliance Matrix: (Units=1/GPa)
#
#
# Indices 1 2 3 4 5 6 
#
# 1 0.023361 -0.006154 -0.002929 0.000000 0.000000 0.000000
# 2 -0.006154 0.008418 -0.003235 0.000000 0.000000 0.000000
# 3 -0.002929 -0.003235 0.006880 0.000000 0.000000 0.000000
# 4 0.000000 0.000000 0.000000 0.026445 0.000000 0.000000
# 5 0.000000 0.000000 0.000000 0.000000 0.022992 0.000000
# 6 0.000000 0.000000 0.000000 0.000000 0.000000 -0.065846
#
#
# Mechanical properties :
#
#
# Convention : Reuss Voigt Hill
#
# Bulk Modulus (GPa) = 71.31628 124.48651 97.90140
# Shear Modulus (GPa) = 96.97500 30.25824 63.61662
#
# Velocity S-wave (km/s) = 7.10684 3.96980 5.75615
# Velocity P-wave (km/s) = 10.22186 9.26544 9.75538
#
# Compressibility (1/GPa) = 0.01402204
#
# Stress axis : x y z
#
# Youngs Moduli (GPa) = 42.80679 118.79467 145.35758
#
# Poissons Ratio (x) = 0.73103 0.42580
# Poissons Ratio (y) = 0.26342 0.47025
# Poissons Ratio (z) = 0.12539 0.38431
#
# Static dielectric constant tensor:
#      x y z
#    x 1.649440 0.000000 0.000000 
#    y 0.000000 1.651010 0.000000 
#    z 0.000000 0.000000 1.612500 
# 
# From -- ./inp_files/6249.got.cif
#   From: 2010.05.17/outbox.cif.g08.bks.cpg/sg53_4_cif.got.tgz:6249.got - 2010.06.03 12:45:16.
