data_PCOD9418353
_publ_section_title
;
Structure prediction by ZEFSAII (Michael W. Deem and Ramdas Pophale) SiO2 
 PCOD9418353
Probable space group: P M N A
;
_chemical_formula_sum "Si O2"
_cell_formula_units_Z 64
_cell_length_a 8.922384
_cell_length_b 21.250016
_cell_length_c 19.070345
_cell_angle_alpha 90.000000
_cell_angle_beta 90.000000
_cell_angle_gamma 90.000000
_cell_volume 3615.752721
_symmetry_space_group_name_H-M "P M N A"
_symmetry_group_IT_number 53
_symmetry_cell_setting 'orthorhombic'
loop_
_space_group_symop_operation_xyz
x,y,z
1/2-x,-y,1/2+z
x,-y,-z
1/2-x,y,1/2-z
-x,-y,-z
1/2+x,y,1/2-z
-x,y,z
1/2+x,-y,1/2+z
loop_
_atom_site_type_symbol
_atom_site_label
_atom_site_fract_x
_atom_site_fract_y
_atom_site_fract_z
Si Si1 0.822349 0.193275 0.537877
Si Si2 0.319557 0.495238 0.918598
Si Si3 0.178335 0.755708 0.176494
Si Si4 0.680941 0.248433 0.109374
Si Si5 0.820857 0.876725 0.825215
Si Si6 0.179168 0.062951 0.458613
Si Si7 0.678849 0.391425 0.676367
Si Si8 0.319454 0.383692 0.173186
O O1 0.736299 0.207723 0.608811
O O2 0.782105 0.239243 0.472885
O O3 0.794286 0.123519 0.507931
O O4 0.000000 0.199861 0.550819
O O5 0.500000 0.489140 0.913456
O O6 0.243903 0.435060 0.883804
O O7 0.275062 0.557933 0.876015
O O8 0.279936 0.500000 0.000000
O O9 0.250000 0.776855 0.250000
O O10 0.219378 0.681920 0.166612
O O11 0.000000 0.759986 0.181874
O O12 0.500000 0.240109 0.115751
O O13 0.760102 0.192199 0.151517
O O14 0.722282 0.316632 0.138874
O O15 0.750000 0.892346 0.750000
O O16 0.764507 0.923767 0.886177
O O17 0.000000 0.876018 0.821278
O O18 0.000000 0.060693 0.444216
O O19 0.221929 0.000000 0.500000
O O20 0.750000 0.412533 0.750000
O O21 0.500000 0.396445 0.679982
O O22 0.250000 0.389685 0.250000
O O23 0.500000 0.384446 0.178869
#
# Coordination Sequence:
#
# PCOD9418353 Si02
#       8
#     8   8   8   8   8   8   8   8
#     4   9  18  33  57  84 110 141 174 219 270 317
#     4  10  22  37  55  77 103 138 181 225 272 327
#     4  10  21  36  55  80 108 140 181 227 274 325
#     4   9  19  35  55  80 110 142 180 221 271 328
#     4  11  21  34  55  83 115 148 187 229 270 318
#     4   9  19  38  61  84 113 149 186 223 268 322
#     4  10  21  37  56  77 102 136 178 225 274 325
#     4  10  21  36  53  77 105 138 176 218 269 325
#
# _framework density 17.700323999999998
#
# number of rings (size 3 to 8) (size 9 to 14) (size 15 to 20)
#    0.000    2.250    0.000    3.375    1.750    7.000 
#    0.000    0.625    0.000    0.000    0.000    0.000 
#    0.000    0.000    0.000    0.000    0.000    0.000 
#
# Total GULP energy -357314.307754 kJ/mol
# GULP energy per Si atom -5583.036059 kJ/mol
# Density = 1.766004 g / cm^3
# Si number density = 17.700324 Si / 1000 Ang^3
#
#
#
# Elastic Constant Matrix: (Units=GPa)
#
#
# Indices 1 2 3 4 5 6 
#
# 1 46.9244 33.3598 62.0850 0.0000 0.0000 0.0000
# 2 33.3598 59.5458 60.6898 0.0000 0.0000 0.0000
# 3 62.0850 60.6898 163.4238 0.0000 0.0000 0.0000
# 4 0.0000 0.0000 0.0000 24.7656 0.0000 0.0000
# 5 0.0000 0.0000 0.0000 0.0000 36.2588 0.0000
# 6 0.0000 0.0000 0.0000 0.0000 0.0000 26.1729
#
#
#
# Elastic Compliance Matrix: (Units=1/GPa)
#
#
# Indices 1 2 3 4 5 6 
#
# 1 0.048853 -0.013602 -0.013508 0.000000 0.000000 0.000000
# 2 -0.013602 0.030808 -0.006274 0.000000 0.000000 0.000000
# 3 -0.013508 -0.006274 0.013581 0.000000 0.000000 0.000000
# 4 0.000000 0.000000 0.000000 0.040379 0.000000 0.000000
# 5 0.000000 0.000000 0.000000 0.000000 0.027579 0.000000
# 6 0.000000 0.000000 0.000000 0.000000 0.000000 0.038207
#
#
# Mechanical properties :
#
#
# Convention : Reuss Voigt Hill
#
# Bulk Modulus (GPa) = 37.77172 64.68479 51.22825
# Shear Modulus (GPa) = 18.18180 25.02343 21.60261
#
# Velocity S-wave (km/s) = 3.20848 3.76404 3.49730
# Velocity P-wave (km/s) = 5.92551 7.45080 6.73149
#
# Compressibility (1/GPa) = 0.02647484
#
# Stress axis : x y z
#
# Youngs Moduli (GPa) = 20.46945 32.45879 73.63360
#
# Poissons Ratio (x) = 0.44149 0.99466
# Poissons Ratio (y) = 0.27842 0.46196
# Poissons Ratio (z) = 0.27651 0.20364
#
# Static dielectric constant tensor:
#      x y z
#    x 1.594780 0.000000 0.000000 
#    y 0.000000 1.592680 0.000000 
#    z 0.000000 0.000000 1.539680 
# 
# From -- ./inp_files/26935.got.cif
#   From: 2010.05.17/outbox.cif.g08.bks.cpg/sg53_14_cif.got.tgz:26935.got - 2010.06.03 12:45:16.
