data_PCOD9418854
_publ_section_title
;
Structure prediction by ZEFSAII (Michael W. Deem and Ramdas Pophale) SiO2 
 PCOD9418854
Probable space group: P M N A
;
_chemical_formula_sum "Si O2"
_cell_formula_units_Z 58
_cell_length_a 19.574590
_cell_length_b 17.553372
_cell_length_c 7.920147
_cell_angle_alpha 90.000000
_cell_angle_beta 90.000000
_cell_angle_gamma 90.000000
_cell_volume 2721.362985
_symmetry_space_group_name_H-M "P M N A"
_symmetry_group_IT_number 53
_symmetry_cell_setting 'orthorhombic'
loop_
_space_group_symop_operation_xyz
x,y,z
1/2-x,-y,1/2+z
x,-y,-z
1/2-x,y,1/2-z
-x,-y,-z
1/2+x,y,1/2-z
-x,y,z
1/2+x,-y,1/2+z
loop_
_atom_site_type_symbol
_atom_site_label
_atom_site_fract_x
_atom_site_fract_y
_atom_site_fract_z
Si Si1 0.673001 0.597938 0.194464
Si Si2 0.921394 0.263673 0.808603
Si Si3 0.108788 0.013366 0.186773
Si Si4 0.500000 0.000000 0.000000
Si Si5 0.078365 0.289229 0.203277
Si Si6 0.324947 0.160474 0.191048
Si Si7 0.322182 0.132467 0.807185
Si Si8 0.671992 0.576537 0.792359
O O1 0.750000 0.619668 0.250000
O O2 0.619958 0.660848 0.256120
O O3 0.661668 0.511544 0.259127
O O4 0.666785 0.589168 0.993037
O O5 0.883000 0.190074 0.737593
O O6 0.000000 0.266765 0.751220
O O7 0.920963 0.259652 0.011527
O O8 0.058647 0.007169 0.348052
O O9 0.143745 0.095955 0.189520
O O10 0.164475 0.947335 0.216651
O O11 0.078347 0.000000 0.000000
O O12 0.123398 0.231228 0.312512
O O13 0.116637 0.369666 0.206933
O O14 0.000000 0.294097 0.261018
O O15 0.250000 0.185403 0.250000
O O16 0.319755 0.123938 0.007263
O O17 0.250000 0.166510 0.750000
O O18 0.750000 0.597489 0.750000
#
# Coordination Sequence:
#
# PCOD9418854 Si02
#       8
#     8   8   8   2   8   8   8   8
#     4  10  21  39  64  92 123 163 210 262 321 387
#     4  11  25  42  62  92 128 170 214 265 329 391
#     4  12  26  46  72 103 139 178 228 278 330 401
#     4  12  26  48  68 110 136 184 218 276 344 398
#     4  11  25  42  62  92 128 170 214 265 329 391
#     4  12  25  45  69  98 132 173 224 275 333 394
#     4  12  25  45  69  98 132 173 224 275 333 394
#     4  10  21  39  64  92 123 163 210 262 321 387
#
# _framework density 21.312850000000001
#
# number of rings (size 3 to 8) (size 9 to 14) (size 15 to 20)
#    0.000    0.828    1.379    5.586    1.931    4.414 
#    0.000    2.759    0.000    0.000    0.000    0.000 
#    0.000    0.000    0.000    0.000    0.000    0.000 
#
# Total GULP energy -323976.838745 kJ/mol
# GULP energy per Si atom -5585.807565 kJ/mol
# Density = 2.126434 g / cm^3
# Si number density = 21.312850 Si / 1000 Ang^3
#
#
#
# Elastic Constant Matrix: (Units=GPa)
#
#
# Indices 1 2 3 4 5 6 
#
# 1 141.2708 48.9455 -0.6157 0.0000 0.0000 0.0000
# 2 48.9455 84.1934 -17.5091 0.0000 0.0000 0.0000
# 3 -0.6157 -17.5091 63.3692 0.0000 0.0000 0.0000
# 4 0.0000 0.0000 0.0000 27.2800 0.0000 0.0000
# 5 0.0000 0.0000 0.0000 0.0000 12.6450 0.0000
# 6 0.0000 0.0000 0.0000 0.0000 0.0000 -143.1541
#
#
#
# Elastic Compliance Matrix: (Units=1/GPa)
#
#
# Indices 1 2 3 4 5 6 
#
# 1 0.008986 -0.005523 -0.001439 0.000000 0.000000 0.000000
# 2 -0.005523 0.015996 0.004366 0.000000 0.000000 0.000000
# 3 -0.001439 0.004366 0.016973 0.000000 0.000000 0.000000
# 4 0.000000 0.000000 0.000000 0.036657 0.000000 0.000000
# 5 0.000000 0.000000 0.000000 0.000000 0.079083 0.000000
# 6 0.000000 0.000000 0.000000 0.000000 0.000000 -0.006985
#
#
# Mechanical properties :
#
#
# Convention : Reuss Voigt Hill
#
# Bulk Modulus (GPa) = 27.20080 38.94164 33.07122
# Shear Modulus (GPa) = 29.73444 -3.44497 13.14473
#
# Velocity S-wave (km/s) = 3.73921 -1.27275 2.48614
# Velocity P-wave (km/s) = 5.60648 4.01886 4.87770
#
# Compressibility (1/GPa) = 0.03676363
#
# Stress axis : x y z
#
# Youngs Moduli (GPa) = 111.28545 62.51467 58.91737
#
# Poissons Ratio (x) = 0.34528 0.08477
# Poissons Ratio (y) = 0.61464 -0.25724
# Poissons Ratio (z) = 0.16011 -0.27295
#
# Static dielectric constant tensor:
#      x y z
#    x 1.744790 0.000000 0.000000 
#    y 0.000000 1.747490 0.000000 
#    z 0.000000 0.000000 1.779260 
# 
# From -- ./inp_files/10175.got.cif
#   From: 2010.05.17/outbox.cif.g08.bks.cpg/sg53_6_cif.got.tgz:10175.got - 2010.06.03 12:45:16.
