data_PCOD9418276
_publ_section_title
;
Structure prediction by ZEFSAII (Michael W. Deem and Ramdas Pophale) SiO2 
 PCOD9418276
Probable space group: P M N A
;
_chemical_formula_sum "Si O2"
_cell_formula_units_Z 40
_cell_length_a 14.040886
_cell_length_b 11.503220
_cell_length_c 12.482220
_cell_angle_alpha 90.000000
_cell_angle_beta 90.000000
_cell_angle_gamma 90.000000
_cell_volume 2016.070764
_symmetry_space_group_name_H-M "P M N A"
_symmetry_group_IT_number 53
_symmetry_cell_setting 'orthorhombic'
loop_
_space_group_symop_operation_xyz
x,y,z
1/2-x,-y,1/2+z
x,-y,-z
1/2-x,y,1/2-z
-x,-y,-z
1/2+x,y,1/2-z
-x,y,z
1/2+x,-y,1/2+z
loop_
_atom_site_type_symbol
_atom_site_label
_atom_site_fract_x
_atom_site_fract_y
_atom_site_fract_z
Si Si1 0.314413 0.312291 0.450097
Si Si2 0.500000 0.911095 0.342102
Si Si3 0.607851 0.625241 0.940850
Si Si4 0.896361 0.524026 0.792086
Si Si5 0.500000 0.835682 0.592397
Si Si6 0.849613 0.272703 0.802125
O O1 0.200093 0.292119 0.457324
O O2 0.322610 0.430049 0.379933
O O3 0.398646 0.232719 0.396034
O O4 0.345603 0.310458 0.573341
O O5 0.500000 0.878812 0.468737
O O6 0.588384 0.842073 0.293359
O O7 0.500000 0.049234 0.334715
O O8 0.500000 0.665558 0.971128
O O9 0.606615 0.601387 0.813615
O O10 0.622306 0.500000 0.000000
O O11 0.885595 0.392567 0.751001
O O12 0.000000 0.532292 0.845093
O O13 0.750000 0.247948 0.750000
#
# Coordination Sequence:
#
# PCOD9418276 Si02
#       6
#     8   4   8   8   4   8
#     4  11  20  35  56  84 118 150 192 239 295 348
#     4   9  20  39  57  81 109 141 200 246 297 344
#     4  10  21  35  50  78 127 163 187 223 286 365
#     4  11  20  32  54  85 118 149 191 235 289 352
#     4   9  20  37  61  83 105 145 192 262 302 324
#     4  11  21  34  56  84 114 153 186 236 293 352
#
# _framework density 19.840572000000002
#
# number of rings (size 3 to 8) (size 9 to 14) (size 15 to 20)
#    0.000    1.600    2.000    4.800    0.000    0.800 
#    1.800    2.000    0.000    0.000    0.000    2.800 
#    0.000    0.200    0.000    0.000    0.000    0.000 
#
# Total GULP energy -222688.786839 kJ/mol
# GULP energy per Si atom -5567.219671 kJ/mol
# Density = 1.979541 g / cm^3
# Si number density = 19.840572 Si / 1000 Ang^3
#
#
#
# Elastic Constant Matrix: (Units=GPa)
#
#
# Indices 1 2 3 4 5 6 
#
# 1 145.7212 41.5865 -6.9404 0.0000 0.0000 0.0000
# 2 41.5865 82.9619 -7.3835 0.0000 0.0000 0.0000
# 3 -6.9404 -7.3835 35.0322 0.0000 0.0000 0.0000
# 4 0.0000 0.0000 0.0000 10.7149 0.0000 0.0000
# 5 0.0000 0.0000 0.0000 0.0000 38.4572 0.0000
# 6 0.0000 0.0000 0.0000 0.0000 0.0000 24.7783
#
#
#
# Elastic Compliance Matrix: (Units=1/GPa)
#
#
# Indices 1 2 3 4 5 6 
#
# 1 0.008028 -0.003957 0.000756 0.000000 0.000000 0.000000
# 2 -0.003957 0.014234 0.002216 0.000000 0.000000 0.000000
# 3 0.000756 0.002216 0.029162 0.000000 0.000000 0.000000
# 4 0.000000 0.000000 0.000000 0.093328 0.000000 0.000000
# 5 0.000000 0.000000 0.000000 0.000000 0.026003 0.000000
# 6 0.000000 0.000000 0.000000 0.000000 0.000000 0.040358
#
#
# Mechanical properties :
#
#
# Convention : Reuss Voigt Hill
#
# Bulk Modulus (GPa) = 20.22002 35.36007 27.79004
# Shear Modulus (GPa) = 21.78018 30.55359 26.16688
#
# Velocity S-wave (km/s) = 3.31684 3.92848 3.63555
# Velocity P-wave (km/s) = 4.98818 6.19985 5.62672
#
# Compressibility (1/GPa) = 0.04945595
#
# Stress axis : x y z
#
# Youngs Moduli (GPa) = 124.56978 70.25263 34.29109
#
# Poissons Ratio (x) = 0.27797 -0.02594
# Poissons Ratio (y) = 0.49289 -0.07600
# Poissons Ratio (z) = -0.09423 -0.15569
#
# Static dielectric constant tensor:
#      x y z
#    x 1.805540 0.000000 0.000000 
#    y 0.000000 1.721150 0.000000 
#    z 0.000000 0.000000 1.699830 
# 
# From -- ./inp_files/15813.got.cif
#   From: 2010.05.17/outbox.cif.g08.bks.cpg/sg53_8_cif.got.tgz:15813.got - 2010.06.03 12:45:16.
