data_PCOD9418859
_publ_section_title
;
Structure prediction by ZEFSAII (Michael W. Deem and Ramdas Pophale) SiO2 
 PCOD9418859
Probable space group: P M N A
;
_chemical_formula_sum "Si O2"
_cell_formula_units_Z 24
_cell_length_a 15.590190
_cell_length_b 13.459684
_cell_length_c 5.029212
_cell_angle_alpha 90.000000
_cell_angle_beta 90.000000
_cell_angle_gamma 90.000000
_cell_volume 1055.324972
_symmetry_space_group_name_H-M "P M N A"
_symmetry_group_IT_number 53
_symmetry_cell_setting 'orthorhombic'
loop_
_space_group_symop_operation_xyz
x,y,z
1/2-x,-y,1/2+z
x,-y,-z
1/2-x,y,1/2-z
-x,-y,-z
1/2+x,y,1/2-z
-x,y,z
1/2+x,-y,1/2+z
loop_
_atom_site_type_symbol
_atom_site_label
_atom_site_fract_x
_atom_site_fract_y
_atom_site_fract_z
Si Si1 0.403017 0.293050 0.187240
Si Si2 0.353430 0.932513 0.754516
Si Si3 0.655891 0.594008 0.344429
O O1 0.500000 0.317574 0.272279
O O2 0.393882 0.174625 0.188407
O O3 0.339219 0.326950 0.419581
O O4 0.386097 0.352409 0.911710
O O5 0.250000 0.918111 0.750000
O O6 0.376886 0.000000 0.500000
O O7 0.376610 0.000000 0.000000
O O8 0.614550 0.500000 0.500000
O O9 0.750000 0.562099 0.250000
#
# Coordination Sequence:
#
# PCOD9418859 Si02
#       3
#     8   8   8
#     4  12  26  42  66 101 138 173 214 276 344 400
#     4  10  21  39  64  93 128 173 222 269 320 389
#     4  12  25  45  70  95 128 175 229 276 327 398
#
# _framework density 22.741809
#
# number of rings (size 3 to 8) (size 9 to 14) (size 15 to 20)
#    0.000    0.667    0.000    9.000    0.000    8.000 
#    0.000    0.000    0.000    0.000    0.000    0.000 
#    0.000    0.000    0.000    0.000    0.000    0.000 
#
# Total GULP energy -134045.429738 kJ/mol
# GULP energy per Si atom -5585.226239 kJ/mol
# Density = 2.269005 g / cm^3
# Si number density = 22.741809 Si / 1000 Ang^3
#
#
#
# Elastic Constant Matrix: (Units=GPa)
#
#
# Indices 1 2 3 4 5 6 
#
# 1 53.6887 21.3178 27.0099 0.0000 0.0000 0.0000
# 2 21.3178 139.1932 55.3071 0.0000 0.0000 0.0000
# 3 27.0099 55.3071 187.1187 0.0000 0.0000 0.0000
# 4 0.0000 0.0000 0.0000 12.3461 0.0000 0.0000
# 5 0.0000 0.0000 0.0000 0.0000 13.4296 0.0000
# 6 0.0000 0.0000 0.0000 0.0000 0.0000 -24.8892
#
#
#
# Elastic Compliance Matrix: (Units=1/GPa)
#
#
# Indices 1 2 3 4 5 6 
#
# 1 0.020686 -0.002245 -0.002322 0.000000 0.000000 0.000000
# 2 -0.002245 0.008384 -0.002154 0.000000 0.000000 0.000000
# 3 -0.002322 -0.002154 0.006316 0.000000 0.000000 0.000000
# 4 0.000000 0.000000 0.000000 0.080997 0.000000 0.000000
# 5 0.000000 0.000000 0.000000 0.000000 0.074462 0.000000
# 6 0.000000 0.000000 0.000000 0.000000 0.000000 -0.040178
#
#
# Mechanical properties :
#
#
# Convention : Reuss Voigt Hill
#
# Bulk Modulus (GPa) = 45.57334 65.25224 55.41279
# Shear Modulus (GPa) = 29.16731 18.60169 23.88450
#
# Velocity S-wave (km/s) = 3.58514 2.86309 3.24427
# Velocity P-wave (km/s) = 6.10087 6.29957 6.20102
#
# Compressibility (1/GPa) = 0.02194266
#
# Stress axis : x y z
#
# Youngs Moduli (GPa) = 48.34249 119.27477 158.32653
#
# Poissons Ratio (x) = 0.26781 0.36767
# Poissons Ratio (y) = 0.10855 0.34103
# Poissons Ratio (z) = 0.11226 0.25691
#
# Static dielectric constant tensor:
#      x y z
#    x 1.786440 0.000000 0.000000 
#    y 0.000000 1.742450 0.000000 
#    z 0.000000 0.000000 1.806910 
# 
# From -- ./inp_files/1107.got.cif
#   From: 2010.05.17/outbox.cif.g08.bks.cpg/sg53_1_cif.got.tgz:1107.got - 2010.06.03 12:45:16.
