data_PCOD9418392
_publ_section_title
;
Structure prediction by ZEFSAII (Michael W. Deem and Ramdas Pophale) SiO2 
 PCOD9418392
Probable space group: P M N A
;
_chemical_formula_sum "Si O2"
_cell_formula_units_Z 48
_cell_length_a 9.637259
_cell_length_b 30.212111
_cell_length_c 9.076527
_cell_angle_alpha 90.000000
_cell_angle_beta 90.000000
_cell_angle_gamma 90.000000
_cell_volume 2642.739197
_symmetry_space_group_name_H-M "P M N A"
_symmetry_group_IT_number 53
_symmetry_cell_setting 'orthorhombic'
loop_
_space_group_symop_operation_xyz
x,y,z
1/2-x,-y,1/2+z
x,-y,-z
1/2-x,y,1/2-z
-x,-y,-z
1/2+x,y,1/2-z
-x,y,z
1/2+x,-y,1/2+z
loop_
_atom_site_type_symbol
_atom_site_label
_atom_site_fract_x
_atom_site_fract_y
_atom_site_fract_z
Si Si1 0.500000 0.049987 0.066908
Si Si2 0.743405 0.898751 0.428736
Si Si3 0.167213 0.726001 0.596107
Si Si4 0.170061 0.798078 0.095000
Si Si5 0.000000 0.952684 0.922922
Si Si6 0.663073 0.625461 0.899501
Si Si7 0.835000 0.457281 0.601125
O O1 0.500000 0.046014 0.245032
O O2 0.624442 0.079334 0.003616
O O3 0.500000 0.000000 0.000000
O O4 0.750000 0.903831 0.250000
O O5 0.711116 0.847268 0.459847
O O6 0.626539 0.926506 0.508397
O O7 0.250000 0.725733 0.750000
O O8 0.254291 0.760882 0.501497
O O9 0.178573 0.675365 0.539167
O O10 0.000000 0.735993 0.608219
O O11 0.250000 0.794507 0.250000
O O12 0.000000 0.794236 0.103499
O O13 0.000000 0.000000 0.000000
O O14 0.750000 0.621483 0.750000
O O15 0.500000 0.619609 0.864185
O O16 0.703071 0.587303 0.013140
O O17 0.808216 0.500000 0.500000
O O18 0.750000 0.460674 0.750000
O O19 0.000000 0.455846 0.631341
#
# Coordination Sequence:
#
# PCOD9418392 Si02
#       7
#     4   8   8   8   4   8   8
#     4  12  26  42  66  98 126 166 204 252 307 362
#     4  11  24  43  66  91 125 164 205 251 307 368
#     4  10  21  38  61  89 124 162 203 253 305 362
#     4  11  24  42  65  91 122 161 204 251 309 368
#     4  12  24  44  66  92 128 160 206 252 301 366
#     4   9  19  36  57  84 117 156 201 248 301 358
#     4  10  21  36  55  82 116 153 198 249 302 362
#
# _framework density 18.162972
#
# number of rings (size 3 to 8) (size 9 to 14) (size 15 to 20)
#    0.000    1.500    0.833    4.000    4.667    3.667 
#    0.000    1.667    0.000    0.000    0.000    0.000 
#    0.000    0.000    0.000    0.000    0.000    0.000 
#
# Total GULP energy -267609.569648 kJ/mol
# GULP energy per Si atom -5575.199368 kJ/mol
# Density = 1.812163 g / cm^3
# Si number density = 18.162972 Si / 1000 Ang^3
#
#
#
# Elastic Constant Matrix: (Units=GPa)
#
#
# Indices 1 2 3 4 5 6 
#
# 1 161.1147 91.9056 68.8089 0.0000 0.0000 0.0000
# 2 91.9056 176.6323 100.8978 0.0000 0.0000 0.0000
# 3 68.8089 100.8978 124.4505 0.0000 0.0000 0.0000
# 4 0.0000 0.0000 0.0000 34.9940 0.0000 0.0000
# 5 0.0000 0.0000 0.0000 0.0000 36.8555 0.0000
# 6 0.0000 0.0000 0.0000 0.0000 0.0000 30.4088
#
#
#
# Elastic Compliance Matrix: (Units=1/GPa)
#
#
# Indices 1 2 3 4 5 6 
#
# 1 0.009148 -0.003484 -0.002233 0.000000 0.000000 0.000000
# 2 -0.003484 0.011872 -0.007699 0.000000 0.000000 0.000000
# 3 -0.002233 -0.007699 0.015512 0.000000 0.000000 0.000000
# 4 0.000000 0.000000 0.000000 0.028576 0.000000 0.000000
# 5 0.000000 0.000000 0.000000 0.000000 0.027133 0.000000
# 6 0.000000 0.000000 0.000000 0.000000 0.000000 0.032885
#
#
# Mechanical properties :
#
#
# Convention : Reuss Voigt Hill
#
# Bulk Modulus (GPa) = 103.09743 109.49137 106.29440
# Shear Modulus (GPa) = 32.21801 33.82401 33.02101
#
# Velocity S-wave (km/s) = 4.21625 4.32006 4.26847
# Velocity P-wave (km/s) = 8.97708 9.23567 9.10729
#
# Compressibility (1/GPa) = 0.00969956
#
# Stress axis : x y z
#
# Youngs Moduli (GPa) = 109.31304 84.22942 64.46663
#
# Poissons Ratio (x) = 0.29348 0.14396
# Poissons Ratio (y) = 0.38088 0.49633
# Poissons Ratio (z) = 0.24410 0.64848
#
# Static dielectric constant tensor:
#      x y z
#    x 1.563940 0.000000 0.000000 
#    y 0.000000 1.769400 0.000000 
#    z 0.000000 0.000000 1.551070 
# 
# From -- ./inp_files/6801.got.cif
#   From: 2010.05.17/outbox.cif.g08.bks.cpg/sg53_4_cif.got.tgz:6801.got - 2010.06.03 12:45:16.
