data_PCOD9418085
_publ_section_title
;
Structure prediction by ZEFSAII (Michael W. Deem and Ramdas Pophale) SiO2 
 PCOD9418085
Probable space group: P M N A
;
_chemical_formula_sum "Si O2"
_cell_formula_units_Z 40
_cell_length_a 9.302480
_cell_length_b 9.771677
_cell_length_c 22.549449
_cell_angle_alpha 90.000000
_cell_angle_beta 90.000000
_cell_angle_gamma 90.000000
_cell_volume 2049.763627
_symmetry_space_group_name_H-M "P M N A"
_symmetry_group_IT_number 53
_symmetry_cell_setting 'orthorhombic'
loop_
_space_group_symop_operation_xyz
x,y,z
1/2-x,-y,1/2+z
x,-y,-z
1/2-x,y,1/2-z
-x,-y,-z
1/2+x,y,1/2-z
-x,y,z
1/2+x,-y,1/2+z
loop_
_atom_site_type_symbol
_atom_site_label
_atom_site_fract_x
_atom_site_fract_y
_atom_site_fract_z
Si Si1 0.170805 0.839173 0.009462
Si Si2 0.830009 0.514640 0.811687
Si Si3 0.832937 0.797230 0.147972
Si Si4 0.666104 0.054826 0.194125
Si Si5 0.331460 0.709339 0.902023
O O1 0.196929 0.799411 0.077601
O O2 0.000000 0.823945 0.997161
O O3 0.260540 0.745897 0.964680
O O4 0.206477 0.000000 0.000000
O O5 0.750000 0.545429 0.750000
O O6 0.815226 0.353322 0.825546
O O7 0.755769 0.596303 0.865281
O O8 0.000000 0.547362 0.807671
O O9 0.733858 0.908809 0.178876
O O10 0.000000 0.838564 0.155361
O O11 0.750000 0.115321 0.250000
O O12 0.500000 0.040808 0.209438
O O13 0.679604 0.153480 0.137851
O O14 0.500000 0.673606 0.907339
#
# Coordination Sequence:
#
# PCOD9418085 Si02
#       5
#     8   8   8   8   8
#     4  10  20  38  65  92 123 162 203 252 305 361
#     4  11  24  42  63  88 123 161 203 252 304 366
#     4  10  22  40  63  91 121 159 203 249 305 363
#     4  11  23  37  58  87 118 155 201 252 302 359
#     4  11  24  40  61  90 123 162 205 251 305 360
#
# _framework density 19.514444999999998
#
# number of rings (size 3 to 8) (size 9 to 14) (size 15 to 20)
#    0.000    1.400    2.000    3.000    0.000    9.200 
#    0.000    4.000    0.000    0.000    0.000    0.000 
#    0.000    0.000    0.000    0.000    0.000    0.000 
#
# Total GULP energy -223705.352968 kJ/mol
# GULP energy per Si atom -5592.633824 kJ/mol
# Density = 1.947003 g / cm^3
# Si number density = 19.514445 Si / 1000 Ang^3
#
#
#
# Elastic Constant Matrix: (Units=GPa)
#
#
# Indices 1 2 3 4 5 6 
#
# 1 98.1847 37.1725 37.1883 0.0000 0.0000 0.0000
# 2 37.1725 46.3382 4.2617 0.0000 0.0000 0.0000
# 3 37.1883 4.2617 72.7142 0.0000 0.0000 0.0000
# 4 0.0000 0.0000 0.0000 -137.8629 0.0000 0.0000
# 5 0.0000 0.0000 0.0000 0.0000 37.2706 0.0000
# 6 0.0000 0.0000 0.0000 0.0000 0.0000 32.7740
#
#
#
# Elastic Compliance Matrix: (Units=1/GPa)
#
#
# Indices 1 2 3 4 5 6 
#
# 1 0.019013 -0.014435 -0.008878 0.000000 0.000000 0.000000
# 2 -0.014435 0.032658 0.005469 0.000000 0.000000 0.000000
# 3 -0.008878 0.005469 0.017972 0.000000 0.000000 0.000000
# 4 0.000000 0.000000 0.000000 -0.007254 0.000000 0.000000
# 5 0.000000 0.000000 0.000000 0.000000 0.026831 0.000000
# 6 0.000000 0.000000 0.000000 0.000000 0.000000 0.030512
#
#
# Mechanical properties :
#
#
# Convention : Reuss Voigt Hill
#
# Bulk Modulus (GPa) = 29.45178 41.60913 35.53046
# Shear Modulus (GPa) = 29.98715 -4.32267 12.83224
#
# Velocity S-wave (km/s) = 3.92428 -1.48994 2.56711
# Velocity P-wave (km/s) = 5.97147 4.29053 5.19938
#
# Compressibility (1/GPa) = 0.03395381
#
# Stress axis : x y z
#
# Youngs Moduli (GPa) = 52.59680 30.62074 55.64142
#
# Poissons Ratio (x) = 0.44202 0.49396
# Poissons Ratio (y) = 0.75926 -0.30429
# Poissons Ratio (z) = 0.46693 -0.16746
#
# Static dielectric constant tensor:
#      x y z
#    x 1.658980 0.000000 0.000000 
#    y 0.000000 1.664830 0.000000 
#    z 0.000000 0.000000 1.710290 
# 
# From -- ./inp_files/33628.got.cif
#   From: 2010.05.17/outbox.cif.g08.bks.cpg/sg53_17_cif.got.tgz:33628.got - 2010.06.03 12:45:16.
