data_PCOD9418960
_publ_section_title
;
Structure prediction by ZEFSAII (Michael W. Deem and Ramdas Pophale) SiO2 
 PCOD9418960
Probable space group: P M N A
;
_chemical_formula_sum "Si O2"
_cell_formula_units_Z 64
_cell_length_a 15.359243
_cell_length_b 22.660916
_cell_length_c 9.426924
_cell_angle_alpha 90.000000
_cell_angle_beta 90.000000
_cell_angle_gamma 90.000000
_cell_volume 3281.083465
_symmetry_space_group_name_H-M "P M N A"
_symmetry_group_IT_number 53
_symmetry_cell_setting 'orthorhombic'
loop_
_space_group_symop_operation_xyz
x,y,z
1/2-x,-y,1/2+z
x,-y,-z
1/2-x,y,1/2-z
-x,-y,-z
1/2+x,y,1/2-z
-x,y,z
1/2+x,-y,1/2+z
loop_
_atom_site_type_symbol
_atom_site_label
_atom_site_fract_x
_atom_site_fract_y
_atom_site_fract_z
Si Si1 0.102778 0.437317 0.920320
Si Si2 0.251225 0.775247 0.919713
Si Si3 0.651660 0.922304 0.225088
Si Si4 0.396648 0.051355 0.314959
Si Si5 0.601050 0.866466 0.950163
Si Si6 0.750777 0.364476 0.421515
Si Si7 0.397980 0.437576 0.918473
Si Si8 0.401653 0.145584 0.528448
O O1 0.122616 0.441967 0.750822
O O2 0.000000 0.421851 0.933023
O O3 0.115108 0.500000 0.000000
O O4 0.165934 0.392071 0.001553
O O5 0.250000 0.783728 0.750000
O O6 0.334488 0.811947 0.973424
O O7 0.254594 0.705673 0.945307
O O8 0.165056 0.803822 0.987797
O O9 0.750000 0.903263 0.250000
O O10 0.596625 0.873389 0.309222
O O11 0.643579 0.989194 0.277210
O O12 0.621293 0.916589 0.065002
O O13 0.500000 0.040010 0.324994
O O14 0.380777 0.101360 0.198146
O O15 0.368430 0.084252 0.457286
O O16 0.500000 0.849250 0.953817
O O17 0.750000 0.375506 0.250000
O O18 0.833472 0.394013 0.499029
O O19 0.500000 0.420274 0.929421
O O20 0.388650 0.500000 0.000000
O O21 0.500000 0.157787 0.477405
#
# Coordination Sequence:
#
# PCOD9418960 Si02
#       8
#     8   8   8   8   8   8   8   8
#     4  10  21  40  67 100 136 172 210 255 309 367
#     4  11  24  43  64  88 116 160 219 254 297 364
#     4  12  24  36  60  93 119 152 191 249 319 381
#     4  10  22  38  62  88 114 151 195 246 312 383
#     4  11  23  42  62  84 119 156 198 253 310 371
#     4  11  24  40  63  92 128 170 216 269 310 363
#     4  10  21  40  67 100 136 172 210 255 309 367
#     4  11  23  42  62  84 119 156 198 253 310 371
#
# _framework density 19.505751
#
# number of rings (size 3 to 8) (size 9 to 14) (size 15 to 20)
#    0.000    1.250    2.500    3.375    1.750    5.500 
#    4.500    2.500    0.000    0.000    0.000    0.000 
#    0.000    0.000    0.000    0.000    0.000    0.000 
#
# Total GULP energy -357393.613158 kJ/mol
# GULP energy per Si atom -5584.275206 kJ/mol
# Density = 1.946136 g / cm^3
# Si number density = 19.505751 Si / 1000 Ang^3
#
#
#
# Elastic Constant Matrix: (Units=GPa)
#
#
# Indices 1 2 3 4 5 6 
#
# 1 121.2134 80.9324 49.8497 0.0000 0.0000 0.0000
# 2 80.9324 113.9673 38.0840 0.0000 0.0000 0.0000
# 3 49.8497 38.0840 78.9639 0.0000 0.0000 0.0000
# 4 0.0000 0.0000 0.0000 35.3275 0.0000 0.0000
# 5 0.0000 0.0000 0.0000 0.0000 27.2875 0.0000
# 6 0.0000 0.0000 0.0000 0.0000 0.0000 16.9756
#
#
#
# Elastic Compliance Matrix: (Units=1/GPa)
#
#
# Indices 1 2 3 4 5 6 
#
# 1 0.017893 -0.010648 -0.006160 0.000000 0.000000 0.000000
# 2 -0.010648 0.016797 -0.001379 0.000000 0.000000 0.000000
# 3 -0.006160 -0.001379 0.017218 0.000000 0.000000 0.000000
# 4 0.000000 0.000000 0.000000 0.028307 0.000000 0.000000
# 5 0.000000 0.000000 0.000000 0.000000 0.036647 0.000000
# 6 0.000000 0.000000 0.000000 0.000000 0.000000 0.058908
#
#
# Mechanical properties :
#
#
# Convention : Reuss Voigt Hill
#
# Bulk Modulus (GPa) = 64.37775 72.43075 68.40425
# Shear Modulus (GPa) = 23.00746 25.60334 24.30540
#
# Velocity S-wave (km/s) = 3.43814 3.62692 3.53379
# Velocity P-wave (km/s) = 6.98837 7.39953 7.19688
#
# Compressibility (1/GPa) = 0.01553332
#
# Stress axis : x y z
#
# Youngs Moduli (GPa) = 55.88879 59.53576 58.07843
#
# Poissons Ratio (x) = 0.63392 0.35778
# Poissons Ratio (y) = 0.59509 0.08009
# Poissons Ratio (z) = 0.34429 0.08210
#
# Static dielectric constant tensor:
#      x y z
#    x 1.687890 0.000000 0.000000 
#    y 0.000000 1.636420 0.000000 
#    z 0.000000 0.000000 1.684270 
# 
# From -- ./inp_files/8982.got.cif
#   From: 2010.05.17/outbox.cif.g08.bks.cpg/sg53_5_cif.got.tgz:8982.got - 2010.06.03 12:45:16.
