data_PCOD9418704
_publ_section_title
;
Structure prediction by ZEFSAII (Michael W. Deem and Ramdas Pophale) SiO2 
 PCOD9418704
Probable space group: P M N A
;
_chemical_formula_sum "Si O2"
_cell_formula_units_Z 24
_cell_length_a 14.059675
_cell_length_b 5.047489
_cell_length_c 16.735998
_cell_angle_alpha 90.000000
_cell_angle_beta 90.000000
_cell_angle_gamma 90.000000
_cell_volume 1187.687753
_symmetry_space_group_name_H-M "P M N A"
_symmetry_group_IT_number 53
_symmetry_cell_setting 'orthorhombic'
loop_
_space_group_symop_operation_xyz
x,y,z
1/2-x,-y,1/2+z
x,-y,-z
1/2-x,y,1/2-z
-x,-y,-z
1/2+x,y,1/2-z
-x,y,z
1/2+x,-y,1/2+z
loop_
_atom_site_type_symbol
_atom_site_label
_atom_site_fract_x
_atom_site_fract_y
_atom_site_fract_z
Si Si1 0.395002 0.752820 0.056989
Si Si2 0.783253 0.596643 0.160421
Si Si3 0.887651 0.918046 0.907410
O O1 0.500000 0.789623 0.094244
O O2 0.311063 0.705102 0.117696
O O3 0.398684 0.500000 0.000000
O O4 0.375810 0.000000 0.000000
O O5 0.750000 0.535854 0.250000
O O6 0.858707 0.834386 0.148475
O O7 0.826081 0.336914 0.117691
O O8 0.000000 0.858554 0.900305
O O9 0.869518 0.000000 0.000000
#
# Coordination Sequence:
#
# PCOD9418704 Si02
#       3
#     8   8   8
#     4  10  21  38  61  86 115 158 206 249 298 362
#     4  12  24  40  63  95 130 163 203 260 323 373
#     4  11  24  43  67  92 124 169 216 258 306 375
#
# _framework density 20.207331
#
# number of rings (size 3 to 8) (size 9 to 14) (size 15 to 20)
#    0.000    1.000    0.000    8.000    0.000    5.333 
#    0.000    3.333    0.000    0.000    0.000    0.000 
#    0.000    0.000    0.000    0.000    0.000    0.000 
#
# Total GULP energy -134217.938157 kJ/mol
# GULP energy per Si atom -5592.414090 kJ/mol
# Density = 2.016134 g / cm^3
# Si number density = 20.207331 Si / 1000 Ang^3
#
#
#
# Elastic Constant Matrix: (Units=GPa)
#
#
# Indices 1 2 3 4 5 6 
#
# 1 160.6395 54.7241 77.3419 0.0000 0.0000 0.0000
# 2 54.7241 161.7882 51.6072 0.0000 0.0000 0.0000
# 3 77.3419 51.6072 89.6199 0.0000 0.0000 0.0000
# 4 0.0000 0.0000 0.0000 21.7370 0.0000 0.0000
# 5 0.0000 0.0000 0.0000 0.0000 3.2350 0.0000
# 6 0.0000 0.0000 0.0000 0.0000 0.0000 4.3399
#
#
#
# Elastic Compliance Matrix: (Units=1/GPa)
#
#
# Indices 1 2 3 4 5 6 
#
# 1 0.010740 -0.000828 -0.008792 0.000000 0.000000 0.000000
# 2 -0.000828 0.007636 -0.003682 0.000000 0.000000 0.000000
# 3 -0.008792 -0.003682 0.020866 0.000000 0.000000 0.000000
# 4 0.000000 0.000000 0.000000 0.046005 0.000000 0.000000
# 5 0.000000 0.000000 0.000000 0.000000 0.309115 0.000000
# 6 0.000000 0.000000 0.000000 0.000000 0.000000 0.230419
#
#
# Mechanical properties :
#
#
# Convention : Reuss Voigt Hill
#
# Bulk Modulus (GPa) = 79.13118 86.59933 82.86525
# Shear Modulus (GPa) = 7.62663 21.08735 14.35699
#
# Velocity S-wave (km/s) = 1.94484 3.23391 2.66838
# Velocity P-wave (km/s) = 6.65491 7.54272 7.11268
#
# Compressibility (1/GPa) = 0.01263724
#
# Stress axis : x y z
#
# Youngs Moduli (GPa) = 93.10767 130.96516 47.92531
#
# Poissons Ratio (x) = 0.10850 0.42135
# Poissons Ratio (y) = 0.07713 0.17646
# Poissons Ratio (z) = 0.81858 0.48221
#
# Static dielectric constant tensor:
#      x y z
#    x 1.752030 0.000000 0.000000 
#    y 0.000000 1.688150 0.000000 
#    z 0.000000 0.000000 1.826850 
# 
# From -- ./inp_files/21987.got.cif
#   From: 2010.05.17/outbox.cif.g08.bks.cpg/sg53_11_cif.got.tgz:21987.got - 2010.06.03 12:45:16.
