data_PCOD9418715
_publ_section_title
;
Structure prediction by ZEFSAII (Michael W. Deem and Ramdas Pophale) SiO2 
 PCOD9418715
Probable space group: P M N A
;
_chemical_formula_sum "Si O2"
_cell_formula_units_Z 48
_cell_length_a 17.721151
_cell_length_b 7.926528
_cell_length_c 14.158143
_cell_angle_alpha 90.000000
_cell_angle_beta 90.000000
_cell_angle_gamma 90.000000
_cell_volume 1988.754699
_symmetry_space_group_name_H-M "P M N A"
_symmetry_group_IT_number 53
_symmetry_cell_setting 'orthorhombic'
loop_
_space_group_symop_operation_xyz
x,y,z
1/2-x,-y,1/2+z
x,-y,-z
1/2-x,y,1/2-z
-x,-y,-z
1/2+x,y,1/2-z
-x,y,z
1/2+x,-y,1/2+z
loop_
_atom_site_type_symbol
_atom_site_label
_atom_site_fract_x
_atom_site_fract_y
_atom_site_fract_z
Si Si1 0.857536 0.661256 0.436415
Si Si2 0.413821 0.815446 0.549240
Si Si3 0.911413 0.845541 0.609298
Si Si4 0.832327 0.971475 0.776019
Si Si5 0.085608 0.491973 0.264085
Si Si6 0.682943 0.672532 0.384629
O O1 0.879330 0.500000 0.500000
O O2 0.872338 0.812573 0.509057
O O3 0.905327 0.640143 0.341739
O O4 0.770159 0.644033 0.407848
O O5 0.500000 0.755934 0.557184
O O6 0.376534 0.854180 0.649937
O O7 0.363558 0.700735 0.480969
O O8 0.416162 0.000000 0.500000
O O9 0.875741 0.985015 0.677136
O O10 0.901179 0.677723 0.675341
O O11 0.000000 0.870020 0.594678
O O12 0.750000 0.902160 0.750000
O O13 0.822141 0.151685 0.826440
O O14 0.144344 0.532123 0.181138
O O15 0.000000 0.491614 0.227936
#
# Coordination Sequence:
#
# PCOD9418715 Si02
#       6
#     8   8   8   8   8   8
#     4  10  21  39  63  89 121 160 204 249 300 362
#     4   9  19  35  54  77 110 152 191 230 286 353
#     4  10  22  40  63  90 120 159 205 251 302 360
#     4  11  22  37  58  85 120 157 198 247 301 359
#     4  10  21  38  61  89 121 157 200 251 302 354
#     4  11  22  38  61  90 121 156 198 247 304 359
#
# _framework density 24.135705999999999
#
# number of rings (size 3 to 8) (size 9 to 14) (size 15 to 20)
#    0.000    1.833    0.000    4.000    0.000    8.000 
#    0.000    2.500    0.000    9.000    0.000    0.000 
#    0.000    0.000    0.000    0.000    0.000    0.000 
#
# Total GULP energy -268820.171169 kJ/mol
# GULP energy per Si atom -5600.420233 kJ/mol
# Density = 2.408077 g / cm^3
# Si number density = 24.135706 Si / 1000 Ang^3
#
#
#
# Elastic Constant Matrix: (Units=GPa)
#
#
# Indices 1 2 3 4 5 6 
#
# 1 105.3546 -17.6046 36.4330 0.0000 0.0000 0.0000
# 2 -17.6046 47.4579 9.9802 0.0000 0.0000 0.0000
# 3 36.4330 9.9802 154.9009 0.0000 0.0000 0.0000
# 4 0.0000 0.0000 0.0000 44.9908 0.0000 0.0000
# 5 0.0000 0.0000 0.0000 0.0000 30.8033 0.0000
# 6 0.0000 0.0000 0.0000 0.0000 0.0000 3.4742
#
#
#
# Elastic Compliance Matrix: (Units=1/GPa)
#
#
# Indices 1 2 3 4 5 6 
#
# 1 0.011327 0.004828 -0.002975 0.000000 0.000000 0.000000
# 2 0.004828 0.023418 -0.002644 0.000000 0.000000 0.000000
# 3 -0.002975 -0.002644 0.007326 0.000000 0.000000 0.000000
# 4 0.000000 0.000000 0.000000 0.022227 0.000000 0.000000
# 5 0.000000 0.000000 0.000000 0.000000 0.032464 0.000000
# 6 0.000000 0.000000 0.000000 0.000000 0.000000 0.287839
#
#
# Mechanical properties :
#
#
# Convention : Reuss Voigt Hill
#
# Bulk Modulus (GPa) = 24.69897 40.59228 32.64562
# Shear Modulus (GPa) = 12.50999 34.44732 23.47865
#
# Velocity S-wave (km/s) = 2.27913 3.78197 3.12232
# Velocity P-wave (km/s) = 4.14506 5.99383 5.15303
#
# Compressibility (1/GPa) = 0.04048752
#
# Stress axis : x y z
#
# Youngs Moduli (GPa) = 88.28217 42.70182 136.50214
#
# Poissons Ratio (x) = -0.20615 0.40613
# Poissons Ratio (y) = -0.42619 0.36095
# Poissons Ratio (z) = 0.26266 0.11292
#
# Static dielectric constant tensor:
#      x y z
#    x 1.835650 0.000000 0.000000 
#    y 0.000000 2.015790 0.000000 
#    z 0.000000 0.000000 1.868020 
# 
# From -- ./inp_files/23634.got.cif
#   From: 2010.05.17/outbox.cif.g08.bks.cpg/sg53_12_cif.got.tgz:23634.got - 2010.06.03 12:45:16.
