data_PCOD9418780
_publ_section_title
;
Structure prediction by ZEFSAII (Michael W. Deem and Ramdas Pophale) SiO2 
 PCOD9418780
Probable space group: P M N A
;
_chemical_formula_sum "Si O2"
_cell_formula_units_Z 64
_cell_length_a 19.350076
_cell_length_b 9.293935
_cell_length_c 17.587566
_cell_angle_alpha 90.000000
_cell_angle_beta 90.000000
_cell_angle_gamma 90.000000
_cell_volume 3162.918825
_symmetry_space_group_name_H-M "P M N A"
_symmetry_group_IT_number 53
_symmetry_cell_setting 'orthorhombic'
loop_
_space_group_symop_operation_xyz
x,y,z
1/2-x,-y,1/2+z
x,-y,-z
1/2-x,y,1/2-z
-x,-y,-z
1/2+x,y,1/2-z
-x,y,z
1/2+x,-y,1/2+z
loop_
_atom_site_type_symbol
_atom_site_label
_atom_site_fract_x
_atom_site_fract_y
_atom_site_fract_z
Si Si1 0.719402 0.326780 0.500424
Si Si2 0.580080 0.978629 0.663751
Si Si3 0.918545 0.797442 0.045610
Si Si4 0.080985 0.846540 0.308989
Si Si5 0.801805 0.092308 0.578508
Si Si6 0.422290 0.592031 0.305933
Si Si7 0.640954 0.705170 0.718782
Si Si8 0.783571 0.794509 0.644565
O O1 0.715170 0.500000 0.500000
O O2 0.641473 0.262743 0.490773
O O3 0.750899 0.229287 0.569433
O O4 0.774397 0.283545 0.435803
O O5 0.500000 0.021931 0.664126
O O6 0.603578 0.050063 0.584498
O O7 0.608966 0.050131 0.740892
O O8 0.588171 0.810630 0.676545
O O9 0.915439 0.687872 0.118089
O O10 0.000000 0.802467 0.019319
O O11 0.126333 0.857416 0.384333
O O12 0.084998 0.692776 0.267587
O O13 0.000000 0.879571 0.323575
O O14 0.809074 0.000000 0.500000
O O15 0.777161 0.965655 0.634645
O O16 0.500000 0.533007 0.306535
O O17 0.372049 0.459194 0.299494
O O18 0.714236 0.746986 0.685367
O O19 0.649819 0.743193 0.808056
#
# Coordination Sequence:
#
# PCOD9418780 Si02
#       8
#     8   8   8   8   8   8   8   8
#     4  11  23  38  57  80 116 155 196 236 288 347
#     4   9  17  32  58  85 108 142 187 232 284 346
#     4   9  19  38  59  84 117 154 198 240 286 354
#     4   9  18  35  57  82 110 144 190 236 288 348
#     4  10  21  39  57  78 114 153 189 242 293 342
#     4   9  19  34  56  86 117 146 184 243 301 348
#     4  11  19  34  57  80 119 142 189 240 286 340
#     4  10  23  36  52  82 111 153 192 237 282 343
#
# _framework density 20.234473999999999
#
# number of rings (size 3 to 8) (size 9 to 14) (size 15 to 20)
#    0.000    2.250    1.250    3.375    1.750    0.500 
#    0.000    1.250    0.000    5.250    0.000    0.000 
#    0.000    0.000    0.000    0.000    0.000    0.000 
#
# Total GULP energy -356500.108622 kJ/mol
# GULP energy per Si atom -5570.314197 kJ/mol
# Density = 2.018842 g / cm^3
# Si number density = 20.234474 Si / 1000 Ang^3
#
#
#
# Elastic Constant Matrix: (Units=GPa)
#
#
# Indices 1 2 3 4 5 6 
#
# 1 60.1674 26.7379 23.0017 0.0000 0.0000 0.0000
# 2 26.7379 93.5882 17.1896 0.0000 0.0000 0.0000
# 3 23.0017 17.1896 40.8858 0.0000 0.0000 0.0000
# 4 0.0000 0.0000 0.0000 13.1103 0.0000 0.0000
# 5 0.0000 0.0000 0.0000 0.0000 22.5585 0.0000
# 6 0.0000 0.0000 0.0000 0.0000 0.0000 43.8450
#
#
#
# Elastic Compliance Matrix: (Units=1/GPa)
#
#
# Indices 1 2 3 4 5 6 
#
# 1 0.022803 -0.004506 -0.010934 0.000000 0.000000 0.000000
# 2 -0.004506 0.012470 -0.002707 0.000000 0.000000 0.000000
# 3 -0.010934 -0.002707 0.031748 0.000000 0.000000 0.000000
# 4 0.000000 0.000000 0.000000 0.076276 0.000000 0.000000
# 5 0.000000 0.000000 0.000000 0.000000 0.044329 0.000000
# 6 0.000000 0.000000 0.000000 0.000000 0.000000 0.022808
#
#
# Mechanical properties :
#
#
# Convention : Reuss Voigt Hill
#
# Bulk Modulus (GPa) = 32.54672 36.49999 34.52335
# Shear Modulus (GPa) = 19.45746 24.41690 21.93718
#
# Velocity S-wave (km/s) = 3.10433 3.47752 3.29621
# Velocity P-wave (km/s) = 5.38227 5.84824 5.62009
#
# Compressibility (1/GPa) = 0.03072506
#
# Stress axis : x y z
#
# Youngs Moduli (GPa) = 43.85403 80.19327 31.49813
#
# Poissons Ratio (x) = 0.36139 0.34440
# Poissons Ratio (y) = 0.19763 0.08528
# Poissons Ratio (z) = 0.47950 0.21712
#
# Static dielectric constant tensor:
#      x y z
#    x 1.715720 0.000000 0.000000 
#    y 0.000000 1.730200 0.000000 
#    z 0.000000 0.000000 2.655440 
# 
# From -- ./inp_files/29389.got.cif
#   From: 2010.05.17/outbox.cif.g08.bks.cpg/sg53_15_cif.got.tgz:29389.got - 2010.06.03 12:45:16.
