data_PCOD9418135
_publ_section_title
;
Structure prediction by ZEFSAII (Michael W. Deem and Ramdas Pophale) SiO2 
 PCOD9418135
Probable space group: P M N A
;
_chemical_formula_sum "Si O2"
_cell_formula_units_Z 64
_cell_length_a 30.521359
_cell_length_b 8.060974
_cell_length_c 11.900134
_cell_angle_alpha 90.000000
_cell_angle_beta 90.000000
_cell_angle_gamma 90.000000
_cell_volume 2927.812356
_symmetry_space_group_name_H-M "P M N A"
_symmetry_group_IT_number 53
_symmetry_cell_setting 'orthorhombic'
loop_
_space_group_symop_operation_xyz
x,y,z
1/2-x,-y,1/2+z
x,-y,-z
1/2-x,y,1/2-z
-x,-y,-z
1/2+x,y,1/2-z
-x,y,z
1/2+x,-y,1/2+z
loop_
_atom_site_type_symbol
_atom_site_label
_atom_site_fract_x
_atom_site_fract_y
_atom_site_fract_z
Si Si1 0.669273 0.713598 0.252360
Si Si2 0.912258 0.899794 0.181835
Si Si3 0.600643 0.758803 0.554929
Si Si4 0.698569 0.199776 0.503678
Si Si5 0.206950 0.694685 0.485598
Si Si6 0.047914 0.295091 0.625037
Si Si7 0.904846 0.429829 0.258475
Si Si8 0.884887 0.181240 0.448320
O O1 0.634931 0.867187 0.259600
O O2 0.693128 0.722804 0.371652
O O3 0.701305 0.730882 0.147274
O O4 0.638193 0.550753 0.237143
O O5 0.945389 0.846655 0.279212
O O6 0.914362 0.075077 0.120418
O O7 0.912732 0.775285 0.074637
O O8 0.653856 0.749780 0.558304
O O9 0.584745 0.609416 0.629907
O O10 0.746008 0.258686 0.464284
O O11 0.698111 0.000000 0.500000
O O12 0.199598 0.500000 0.500000
O O13 0.166815 0.790949 0.541322
O O14 0.055817 0.467482 0.687844
O O15 0.086712 0.290323 0.534889
O O16 0.000000 0.279721 0.573780
O O17 0.897363 0.258927 0.327673
O O18 0.894977 0.000000 0.500000
#
# Coordination Sequence:
#
# PCOD9418135 Si02
#       8
#     8   8   8   8   8   8   8   8
#     4  10  20  39  63  85 129 174 218 276 330 391
#     4   9  18  40  69  92 127 171 215 274 338 399
#     4  10  20  40  66  93 131 173 220 272 335 402
#     4  11  23  40  62  95 129 177 235 276 323 394
#     4  12  23  41  62  93 136 179 225 278 335 394
#     4  11  24  44  70  98 130 171 221 276 340 419
#     4  11  23  39  66  97 128 177 220 267 340 407
#     4  12  24  43  68  94 133 176 220 279 344 401
#
# _framework density 21.859323
#
# number of rings (size 3 to 8) (size 9 to 14) (size 15 to 20)
#    0.000    1.250    6.250    1.875    1.750    5.250 
#    0.000    5.000    0.000    0.000    0.000    0.000 
#    0.000    0.000    0.000    0.000    0.000    0.000 
#
# Total GULP energy -357153.173486 kJ/mol
# GULP energy per Si atom -5580.518336 kJ/mol
# Density = 2.180957 g / cm^3
# Si number density = 21.859323 Si / 1000 Ang^3
#
#
#
# Elastic Constant Matrix: (Units=GPa)
#
#
# Indices 1 2 3 4 5 6 
#
# 1 39.5174 -13.2280 -2.8529 0.0000 0.0000 0.0000
# 2 -13.2280 61.2523 8.4923 0.0000 0.0000 0.0000
# 3 -2.8529 8.4923 78.3392 0.0000 0.0000 0.0000
# 4 0.0000 0.0000 0.0000 39.5399 0.0000 0.0000
# 5 0.0000 0.0000 0.0000 0.0000 -9.6630 0.0000
# 6 0.0000 0.0000 0.0000 0.0000 0.0000 15.4620
#
#
#
# Elastic Compliance Matrix: (Units=1/GPa)
#
#
# Indices 1 2 3 4 5 6 
#
# 1 0.027287 0.005843 0.000360 0.000000 0.000000 0.000000
# 2 0.005843 0.017826 -0.001720 0.000000 0.000000 0.000000
# 3 0.000360 -0.001720 0.012965 0.000000 0.000000 0.000000
# 4 0.000000 0.000000 0.000000 0.025291 0.000000 0.000000
# 5 0.000000 0.000000 0.000000 0.000000 -0.103487 0.000000
# 6 0.000000 0.000000 0.000000 0.000000 0.000000 0.064675
#
#
# Mechanical properties :
#
#
# Convention : Reuss Voigt Hill
#
# Bulk Modulus (GPa) = 14.91532 18.21463 16.56498
# Shear Modulus (GPa) = 86.30046 21.51428 53.90737
#
# Velocity S-wave (km/s) = 6.29012 3.14062 4.97138
# Velocity P-wave (km/s) = 7.71961 4.63704 6.36767
#
# Compressibility (1/GPa) = 0.06704514
#
# Stress axis : x y z
#
# Youngs Moduli (GPa) = 36.64729 56.09727 77.13344
#
# Poissons Ratio (x) = -0.32777 -0.02779
# Poissons Ratio (y) = -0.21413 0.13264
# Poissons Ratio (z) = -0.01320 0.09647
#
# Static dielectric constant tensor:
#      x y z
#    x 1.794600 0.000000 0.000000 
#    y 0.000000 1.844020 0.000000 
#    z 0.000000 0.000000 1.801370 
# 
# From -- ./inp_files/19030.got.cif
#   From: 2010.05.17/outbox.cif.g08.bks.cpg/sg53_10_cif.got.tgz:19030.got - 2010.06.03 12:45:16.
