data_PCOD9418394
_publ_section_title
;
Structure prediction by ZEFSAII (Michael W. Deem and Ramdas Pophale) SiO2 
 PCOD9418394
Probable space group: P M N A
;
_chemical_formula_sum "Si O2"
_cell_formula_units_Z 48
_cell_length_a 10.111854
_cell_length_b 29.961120
_cell_length_c 8.787725
_cell_angle_alpha 90.000000
_cell_angle_beta 90.000000
_cell_angle_gamma 90.000000
_cell_volume 2662.350881
_symmetry_space_group_name_H-M "P M N A"
_symmetry_group_IT_number 53
_symmetry_cell_setting 'orthorhombic'
loop_
_space_group_symop_operation_xyz
x,y,z
1/2-x,-y,1/2+z
x,-y,-z
1/2-x,y,1/2-z
-x,-y,-z
1/2+x,y,1/2-z
-x,y,z
1/2+x,-y,1/2+z
loop_
_atom_site_type_symbol
_atom_site_label
_atom_site_fract_x
_atom_site_fract_y
_atom_site_fract_z
Si Si1 0.754617 0.899959 0.432156
Si Si2 0.346817 0.285010 0.107685
Si Si3 0.500000 0.048601 0.072462
Si Si4 0.655252 0.629763 0.105223
Si Si5 0.500000 0.050746 0.436147
Si Si6 0.842210 0.800644 0.394623
Si Si7 0.654993 0.456788 0.105120
O O1 0.750000 0.906971 0.250000
O O2 0.873904 0.925839 0.508986
O O3 0.624461 0.921022 0.504642
O O4 0.782857 0.847413 0.454387
O O5 0.250000 0.287058 0.250000
O O6 0.500000 0.289306 0.157149
O O7 0.319954 0.325430 0.991269
O O8 0.332896 0.238572 0.017389
O O9 0.500000 0.047334 0.254219
O O10 0.500000 0.000000 0.000000
O O11 0.750000 0.627639 0.250000
O O12 0.500000 0.629684 0.150845
O O13 0.676845 0.587308 0.996072
O O14 0.500000 0.000000 0.500000
O O15 0.750000 0.788900 0.250000
O O16 0.000000 0.806418 0.356030
O O17 0.750000 0.457112 0.250000
O O18 0.500000 0.457369 0.151516
O O19 0.678577 0.500000 0.000000
#
# Coordination Sequence:
#
# PCOD9418394 Si02
#       7
#     8   8   4   8   4   8   8
#     4  11  23  42  64  90 121 156 197 243 292 351
#     4  10  22  39  58  87 121 155 196 244 294 349
#     4  12  24  42  64  88 124 156 194 246 289 348
#     4  10  21  37  58  84 116 154 200 250 299 357
#     4  12  26  42  64  94 120 160 200 238 297 350
#     4  10  22  40  63  89 118 153 193 237 288 347
#     4  10  21  36  55  83 117 154 199 249 300 359
#
# _framework density 18.02918
#
# number of rings (size 3 to 8) (size 9 to 14) (size 15 to 20)
#    0.000    1.500    0.833    4.000    3.500    3.667 
#    0.000    0.000    0.000    0.000    0.000    0.000 
#    0.000    0.000    0.000    0.000    0.000    0.000 
#
# Total GULP energy -268164.388608 kJ/mol
# GULP energy per Si atom -5586.758096 kJ/mol
# Density = 1.798814 g / cm^3
# Si number density = 18.029180 Si / 1000 Ang^3
#
#
#
# Elastic Constant Matrix: (Units=GPa)
#
#
# Indices 1 2 3 4 5 6 
#
# 1 170.7716 86.9156 111.5824 0.0000 0.0000 0.0000
# 2 86.9156 131.8243 98.9611 0.0000 0.0000 0.0000
# 3 111.5824 98.9611 155.1603 0.0000 0.0000 0.0000
# 4 0.0000 0.0000 0.0000 19.5683 0.0000 0.0000
# 5 0.0000 0.0000 0.0000 0.0000 48.9097 0.0000
# 6 0.0000 0.0000 0.0000 0.0000 0.0000 26.6797
#
#
#
# Elastic Compliance Matrix: (Units=1/GPa)
#
#
# Indices 1 2 3 4 5 6 
#
# 1 0.011505 -0.002637 -0.006592 0.000000 0.000000 0.000000
# 2 -0.002637 0.015159 -0.007772 0.000000 0.000000 0.000000
# 3 -0.006592 -0.007772 0.016142 0.000000 0.000000 0.000000
# 4 0.000000 0.000000 0.000000 0.051103 0.000000 0.000000
# 5 0.000000 0.000000 0.000000 0.000000 0.020446 0.000000
# 6 0.000000 0.000000 0.000000 0.000000 0.000000 0.037482
#
#
# Mechanical properties :
#
#
# Convention : Reuss Voigt Hill
#
# Bulk Modulus (GPa) = 113.57631 116.96383 115.27007
# Shear Modulus (GPa) = 26.48671 29.71799 28.10235
#
# Velocity S-wave (km/s) = 3.83705 4.06436 3.95234
# Velocity P-wave (km/s) = 9.09742 9.32958 9.21423
#
# Compressibility (1/GPa) = 0.00880465
#
# Stress axis : x y z
#
# Youngs Moduli (GPa) = 86.91816 65.96737 61.94871
#
# Poissons Ratio (x) = 0.17396 0.40836
# Poissons Ratio (y) = 0.22921 0.48146
# Poissons Ratio (z) = 0.57295 0.51270
#
# Static dielectric constant tensor:
#      x y z
#    x 1.608840 0.000000 0.000000 
#    y 0.000000 1.615870 0.000000 
#    z 0.000000 0.000000 1.573640 
# 
# From -- ./inp_files/6833.got.cif
#   From: 2010.05.17/outbox.cif.g08.bks.cpg/sg53_4_cif.got.tgz:6833.got - 2010.06.03 12:45:16.
