data_PCOD9418325
_publ_section_title
;
Structure prediction by ZEFSAII (Michael W. Deem and Ramdas Pophale) SiO2 
 PCOD9418325
Probable space group: P M N A
;
_chemical_formula_sum "Si O2"
_cell_formula_units_Z 48
_cell_length_a 24.546402
_cell_length_b 6.815771
_cell_length_c 13.694683
_cell_angle_alpha 90.000000
_cell_angle_beta 90.000000
_cell_angle_gamma 90.000000
_cell_volume 2291.156824
_symmetry_space_group_name_H-M "P M N A"
_symmetry_group_IT_number 53
_symmetry_cell_setting 'orthorhombic'
loop_
_space_group_symop_operation_xyz
x,y,z
1/2-x,-y,1/2+z
x,-y,-z
1/2-x,y,1/2-z
-x,-y,-z
1/2+x,y,1/2-z
-x,y,z
1/2+x,-y,1/2+z
loop_
_atom_site_type_symbol
_atom_site_label
_atom_site_fract_x
_atom_site_fract_y
_atom_site_fract_z
Si Si1 0.829905 0.614142 0.593692
Si Si2 0.151245 0.440640 0.179165
Si Si3 0.642373 0.138646 0.590597
Si Si4 0.761028 0.891893 0.861948
Si Si5 0.439960 0.815878 0.932386
Si Si6 0.938161 0.118060 0.205388
O O1 0.806800 0.500000 0.500000
O O2 0.830790 0.526355 0.705584
O O3 0.795755 0.816014 0.597657
O O4 0.891866 0.661921 0.567934
O O5 0.143488 0.629519 0.110591
O O6 0.197212 0.293702 0.136456
O O7 0.094955 0.317314 0.180829
O O8 0.622748 0.000000 0.500000
O O9 0.705443 0.073894 0.598020
O O10 0.602117 0.054904 0.673209
O O11 0.750000 0.939351 0.750000
O O12 0.500000 0.740215 0.959555
O O13 0.442306 0.889389 0.821460
O O14 0.427199 0.000000 0.000000
O O15 0.000000 0.110427 0.165092
#
# Coordination Sequence:
#
# PCOD9418325 Si02
#       6
#     8   8   8   8   8   8
#     4  10  21  35  59  91 117 155 204 250 303 374
#     4   9  21  41  58  82 124 160 197 251 309 361
#     4  11  24  38  61  89 118 161 202 253 314 366
#     4   9  21  41  55  80 121 156 198 248 300 362
#     4   9  19  37  58  84 122 160 194 246 309 363
#     4   9  20  40  62  85 120 158 202 255 303 367
#
# _framework density 20.950118
#
# number of rings (size 3 to 8) (size 9 to 14) (size 15 to 20)
#    0.000    2.500    0.000    1.000    4.667    6.000 
#    0.000    0.833    0.000    0.000    0.000    0.000 
#    0.000    0.000    0.000    0.000    0.000    0.000 
#
# Total GULP energy -267289.458936 kJ/mol
# GULP energy per Si atom -5568.530394 kJ/mol
# Density = 2.090243 g / cm^3
# Si number density = 20.950118 Si / 1000 Ang^3
#
#
#
# Elastic Constant Matrix: (Units=GPa)
#
#
# Indices 1 2 3 4 5 6 
#
# 1 49.5206 -8.8784 10.2714 0.0000 0.0000 0.0000
# 2 -8.8784 62.6238 30.8085 0.0000 0.0000 0.0000
# 3 10.2714 30.8085 34.5708 0.0000 0.0000 0.0000
# 4 0.0000 0.0000 0.0000 26.2235 0.0000 0.0000
# 5 0.0000 0.0000 0.0000 0.0000 -15.3608 0.0000
# 6 0.0000 0.0000 0.0000 0.0000 0.0000 0.7383
#
#
#
# Elastic Compliance Matrix: (Units=1/GPa)
#
#
# Indices 1 2 3 4 5 6 
#
# 1 0.026865 0.013775 -0.020258 0.000000 0.000000 0.000000
# 2 0.013775 0.035498 -0.035727 0.000000 0.000000 0.000000
# 3 -0.020258 -0.035727 0.066784 0.000000 0.000000 0.000000
# 4 0.000000 0.000000 0.000000 0.038134 0.000000 0.000000
# 5 0.000000 0.000000 0.000000 0.000000 -0.065101 0.000000
# 6 0.000000 0.000000 0.000000 0.000000 0.000000 1.354383
#
#
# Mechanical properties :
#
#
# Convention : Reuss Voigt Hill
#
# Bulk Modulus (GPa) = 22.35805 23.45758 22.90782
# Shear Modulus (GPa) = 3.21359 9.95447 6.58403
#
# Velocity S-wave (km/s) = 1.23986 2.18216 1.77469
# Velocity P-wave (km/s) = 3.57000 4.19169 3.89327
#
# Compressibility (1/GPa) = 0.04472661
#
# Stress axis : x y z
#
# Youngs Moduli (GPa) = 37.22313 28.17093 14.97368
#
# Poissons Ratio (x) = -0.38805 0.30333
# Poissons Ratio (y) = -0.51274 0.53497
# Poissons Ratio (z) = 0.75405 1.00646
#
# Static dielectric constant tensor:
#      x y z
#    x 1.779750 0.000000 0.000000 
#    y 0.000000 1.736740 0.000000 
#    z 0.000000 0.000000 1.828150 
# 
# From -- ./inp_files/24916.got.cif
#   From: 2010.05.17/outbox.cif.g08.bks.cpg/sg53_13_cif.got.tgz:24916.got - 2010.06.03 12:45:16.
