data_PCOD9418521
_publ_section_title
;
Structure prediction by ZEFSAII (Michael W. Deem and Ramdas Pophale) SiO2 
 PCOD9418521
Probable space group: P M N A
;
_chemical_formula_sum "Si O2"
_cell_formula_units_Z 32
_cell_length_a 23.956953
_cell_length_b 10.206301
_cell_length_c 4.942115
_cell_angle_alpha 90.000000
_cell_angle_beta 90.000000
_cell_angle_gamma 90.000000
_cell_volume 1208.405797
_symmetry_space_group_name_H-M "P M N A"
_symmetry_group_IT_number 53
_symmetry_cell_setting 'orthorhombic'
loop_
_space_group_symop_operation_xyz
x,y,z
1/2-x,-y,1/2+z
x,-y,-z
1/2-x,y,1/2-z
-x,-y,-z
1/2+x,y,1/2-z
-x,y,z
1/2+x,-y,1/2+z
loop_
_atom_site_type_symbol
_atom_site_label
_atom_site_fract_x
_atom_site_fract_y
_atom_site_fract_z
Si Si1 0.832141 0.914916 0.233058
Si Si2 0.710589 0.635811 0.488330
Si Si3 0.435988 0.640346 0.972997
Si Si4 0.937150 0.190001 0.991433
O O1 0.898487 0.908487 0.175754
O O2 0.823266 0.000000 0.500000
O O3 0.815134 0.765762 0.155644
O O4 0.804093 0.000000 0.000000
O O5 0.673901 0.500000 0.500000
O O6 0.750000 0.673413 0.750000
O O7 0.750000 0.586745 0.250000
O O8 0.500000 0.621725 0.867780
O O9 0.410848 0.747399 0.765522
O O10 0.407896 0.500000 0.000000
O O11 0.440707 0.694184 0.273283
O O12 0.000000 0.143522 0.050548
#
# Coordination Sequence:
#
# PCOD9418521 Si02
#       4
#     8   8   8   8
#     4  12  26  43  66 101 140 180 228 279 341 412
#     4  10  23  46  74 102 132 170 220 281 352 426
#     4   9  17  31  53  82 118 165 224 286 341 389
#     4  10  21  37  57  87 131 182 232 280 332 398
#
# _framework density 26.481168
#
# number of rings (size 3 to 8) (size 9 to 14) (size 15 to 20)
#    0.000    1.750    0.000    3.750    0.000    8.000 
#    0.000    2.500    0.000    0.000    0.000    0.000 
#    0.000    0.000    0.000    0.000    0.000    0.000 
#
# Total GULP energy -178224.841534 kJ/mol
# GULP energy per Si atom -5569.526298 kJ/mol
# Density = 2.642090 g / cm^3
# Si number density = 26.481168 Si / 1000 Ang^3
#
#
#
# Elastic Constant Matrix: (Units=GPa)
#
#
# Indices 1 2 3 4 5 6 
#
# 1 82.5326 20.9833 16.6327 0.0000 0.0000 0.0000
# 2 20.9833 188.5327 51.8980 0.0000 0.0000 0.0000
# 3 16.6327 51.8980 175.3464 0.0000 0.0000 0.0000
# 4 0.0000 0.0000 0.0000 37.2742 0.0000 0.0000
# 5 0.0000 0.0000 0.0000 0.0000 18.5003 0.0000
# 6 0.0000 0.0000 0.0000 0.0000 0.0000 -163.8307
#
#
#
# Elastic Compliance Matrix: (Units=1/GPa)
#
#
# Indices 1 2 3 4 5 6 
#
# 1 0.012584 -0.001167 -0.000848 0.000000 0.000000 0.000000
# 2 -0.001167 0.005883 -0.001630 0.000000 0.000000 0.000000
# 3 -0.000848 -0.001630 0.006266 0.000000 0.000000 0.000000
# 4 0.000000 0.000000 0.000000 0.026828 0.000000 0.000000
# 5 0.000000 0.000000 0.000000 0.000000 0.054053 0.000000
# 6 0.000000 0.000000 0.000000 0.000000 0.000000 -0.006104
#
#
# Mechanical properties :
#
#
# Convention : Reuss Voigt Hill
#
# Bulk Modulus (GPa) = 57.33495 69.49329 63.41412
# Shear Modulus (GPa) = 44.39877 2.18195 23.29036
#
# Velocity S-wave (km/s) = 4.09909 0.90871 2.96887
# Velocity P-wave (km/s) = 6.64091 5.23455 5.97922
#
# Compressibility (1/GPa) = 0.01744137
#
# Stress axis : x y z
#
# Youngs Moduli (GPa) = 79.46542 169.98609 159.59058
#
# Poissons Ratio (x) = 0.19839 0.13537
# Poissons Ratio (y) = 0.09274 0.26021
# Poissons Ratio (z) = 0.06741 0.27716
#
# Static dielectric constant tensor:
#      x y z
#    x 2.231910 0.000000 0.000000 
#    y 0.000000 2.300270 0.000000 
#    z 0.000000 0.000000 2.030030 
# 
# From -- ./inp_files/4950.got.cif
#   From: 2010.05.17/outbox.cif.g08.bks.cpg/sg53_3_cif.got.tgz:4950.got - 2010.06.03 12:45:16.
