data_PCOD9418197
_publ_section_title
;
Structure prediction by ZEFSAII (Michael W. Deem and Ramdas Pophale) SiO2 
 PCOD9418197
Probable space group: P M N A
;
_chemical_formula_sum "Si O2"
_cell_formula_units_Z 40
_cell_length_a 9.320910
_cell_length_b 9.688088
_cell_length_c 22.586216
_cell_angle_alpha 90.000000
_cell_angle_beta 90.000000
_cell_angle_gamma 90.000000
_cell_volume 2039.575877
_symmetry_space_group_name_H-M "P M N A"
_symmetry_group_IT_number 53
_symmetry_cell_setting 'orthorhombic'
loop_
_space_group_symop_operation_xyz
x,y,z
1/2-x,-y,1/2+z
x,-y,-z
1/2-x,y,1/2-z
-x,-y,-z
1/2+x,y,1/2-z
-x,y,z
1/2+x,-y,1/2+z
loop_
_atom_site_type_symbol
_atom_site_label
_atom_site_fract_x
_atom_site_fract_y
_atom_site_fract_z
Si Si1 0.165471 0.303485 0.899284
Si Si2 0.332398 0.504445 0.188979
Si Si3 0.165653 0.937987 0.195161
Si Si4 0.328630 0.157953 0.479647
Si Si5 0.331642 0.194019 0.143003
O O1 0.265072 0.410691 0.865388
O O2 0.000000 0.352841 0.898631
O O3 0.170225 0.162934 0.860889
O O4 0.203734 0.260559 0.965931
O O5 0.250000 0.533621 0.250000
O O6 0.500000 0.538444 0.195934
O O7 0.318329 0.342843 0.173343
O O8 0.250000 0.872467 0.250000
O O9 0.245551 0.078724 0.179068
O O10 0.000000 0.962635 0.210502
O O11 0.500000 0.165797 0.466958
O O12 0.238031 0.194833 0.422103
O O13 0.300052 0.000000 0.500000
O O14 0.500000 0.158319 0.139773
#
# Coordination Sequence:
#
# PCOD9418197 Si02
#       5
#     8   8   8   8   8
#     4  10  22  40  64  91 121 160 203 249 307 363
#     4  11  25  43  62  88 125 163 206 254 304 364
#     4  11  22  38  60  89 121 156 204 257 305 365
#     4  10  20  40  65  92 125 160 203 254 303 361
#     4  11  24  40  61  91 123 163 206 251 307 361
#
# _framework density 19.611920000000001
#
# number of rings (size 3 to 8) (size 9 to 14) (size 15 to 20)
#    0.000    1.400    2.000    3.000    0.000   10.000 
#    0.000    4.000    0.000    0.000    0.000    0.000 
#    0.000    0.000    0.000    0.000    0.000    0.000 
#
# Total GULP energy -223695.243460 kJ/mol
# GULP energy per Si atom -5592.381087 kJ/mol
# Density = 1.956728 g / cm^3
# Si number density = 19.611920 Si / 1000 Ang^3
#
#
#
# Elastic Constant Matrix: (Units=GPa)
#
#
# Indices 1 2 3 4 5 6 
#
# 1 106.7029 37.0495 45.1396 0.0000 0.0000 0.0000
# 2 37.0495 41.8631 -4.4239 0.0000 0.0000 0.0000
# 3 45.1396 -4.4239 92.8387 0.0000 0.0000 0.0000
# 4 0.0000 0.0000 0.0000 70.4140 0.0000 0.0000
# 5 0.0000 0.0000 0.0000 0.0000 17.5396 0.0000
# 6 0.0000 0.0000 0.0000 0.0000 0.0000 27.7785
#
#
#
# Elastic Compliance Matrix: (Units=1/GPa)
#
#
# Indices 1 2 3 4 5 6 
#
# 1 0.020893 -0.019663 -0.011096 0.000000 0.000000 0.000000
# 2 -0.019663 0.042514 0.011586 0.000000 0.000000 0.000000
# 3 -0.011096 0.011586 0.016718 0.000000 0.000000 0.000000
# 4 0.000000 0.000000 0.000000 0.014202 0.000000 0.000000
# 5 0.000000 0.000000 0.000000 0.000000 0.057014 0.000000
# 6 0.000000 0.000000 0.000000 0.000000 0.000000 0.035999
#
#
# Mechanical properties :
#
#
# Convention : Reuss Voigt Hill
#
# Bulk Modulus (GPa) = 23.93445 44.10389 34.01917
# Shear Modulus (GPa) = 20.86706 34.05573 27.46140
#
# Velocity S-wave (km/s) = 3.26544 4.17163 3.74604
# Velocity P-wave (km/s) = 5.14276 6.76317 6.00785
#
# Compressibility (1/GPa) = 0.04178078
#
# Stress axis : x y z
#
# Youngs Moduli (GPa) = 47.86237 23.52157 59.81459
#
# Poissons Ratio (x) = 0.46251 0.66368
# Poissons Ratio (y) = 0.94114 -0.69304
# Poissons Ratio (z) = 0.53106 -0.27253
#
# Static dielectric constant tensor:
#      x y z
#    x 1.658880 0.000000 0.000000 
#    y 0.000000 1.680330 0.000000 
#    z 0.000000 0.000000 1.469650 
# 
# From -- ./inp_files/33612.got.cif
#   From: 2010.05.17/outbox.cif.g08.bks.cpg/sg53_17_cif.got.tgz:33612.got - 2010.06.03 12:45:16.
