data_PCOD9418783
_publ_section_title
;
Structure prediction by ZEFSAII (Michael W. Deem and Ramdas Pophale) SiO2 
 PCOD9418783
Probable space group: P M N A
;
_chemical_formula_sum "Si O2"
_cell_formula_units_Z 48
_cell_length_a 15.650744
_cell_length_b 14.723157
_cell_length_c 9.521346
_cell_angle_alpha 90.000000
_cell_angle_beta 90.000000
_cell_angle_gamma 90.000000
_cell_volume 2193.988154
_symmetry_space_group_name_H-M "P M N A"
_symmetry_group_IT_number 53
_symmetry_cell_setting 'orthorhombic'
loop_
_space_group_symop_operation_xyz
x,y,z
1/2-x,-y,1/2+z
x,-y,-z
1/2-x,y,1/2-z
-x,-y,-z
1/2+x,y,1/2-z
-x,y,z
1/2+x,-y,1/2+z
loop_
_atom_site_type_symbol
_atom_site_label
_atom_site_fract_x
_atom_site_fract_y
_atom_site_fract_z
Si Si1 0.821926 0.958902 0.645314
Si Si2 0.857114 0.233420 0.384669
Si Si3 0.400530 0.690297 0.161940
Si Si4 0.897696 0.871825 0.186718
Si Si5 0.101084 0.421560 0.901553
Si Si6 0.654173 0.241226 0.435400
O O1 0.750000 0.919919 0.750000
O O2 0.879019 0.873566 0.596794
O O3 0.787789 0.000000 0.500000
O O4 0.863514 0.037759 0.739169
O O5 0.897168 0.301810 0.495606
O O6 0.756421 0.244224 0.420333
O O7 0.878859 0.248955 0.223049
O O8 0.500000 0.693186 0.201489
O O9 0.363784 0.785273 0.222598
O O10 0.364695 0.603236 0.245230
O O11 0.000000 0.875535 0.190637
O O12 0.870479 0.847413 0.027218
O O13 0.000000 0.442853 0.888339
O O14 0.139648 0.500000 0.000000
O O15 0.116169 0.326660 0.981337
#
# Coordination Sequence:
#
# PCOD9418783 Si02
#       6
#     8   8   8   8   8   8
#     4  12  23  37  59  81 117 164 212 262 305 361
#     4  11  22  37  55  85 119 160 201 250 306 358
#     4   9  19  36  58  87 117 151 196 242 303 369
#     4  10  22  37  57  84 114 159 211 255 306 362
#     4   9  19  39  66  90 115 151 193 242 304 379
#     4  10  21  39  58  83 124 157 203 247 307 372
#
# _framework density 21.877966000000001
#
# number of rings (size 3 to 8) (size 9 to 14) (size 15 to 20)
#    0.000    1.833    3.333    2.500    0.000    4.333 
#    0.000    5.000    0.000    3.000    0.000    0.000 
#    0.000    0.000    0.000    0.000    0.000    0.000 
#
# Total GULP energy -267548.800352 kJ/mol
# GULP energy per Si atom -5573.933341 kJ/mol
# Density = 2.182817 g / cm^3
# Si number density = 21.877966 Si / 1000 Ang^3
#
#
#
# Elastic Constant Matrix: (Units=GPa)
#
#
# Indices 1 2 3 4 5 6 
#
# 1 26.6409 -3.7950 3.7944 0.0000 0.0000 0.0000
# 2 -3.7950 72.6333 39.9043 0.0000 0.0000 0.0000
# 3 3.7944 39.9043 168.6539 0.0000 0.0000 0.0000
# 4 0.0000 0.0000 0.0000 45.8197 0.0000 0.0000
# 5 0.0000 0.0000 0.0000 0.0000 22.5360 0.0000
# 6 0.0000 0.0000 0.0000 0.0000 0.0000 17.7547
#
#
#
# Elastic Compliance Matrix: (Units=1/GPa)
#
#
# Indices 1 2 3 4 5 6 
#
# 1 0.038158 0.002834 -0.001529 0.000000 0.000000 0.000000
# 2 0.002834 0.016035 -0.003858 0.000000 0.000000 0.000000
# 3 -0.001529 -0.003858 0.006876 0.000000 0.000000 0.000000
# 4 0.000000 0.000000 0.000000 0.021825 0.000000 0.000000
# 5 0.000000 0.000000 0.000000 0.000000 0.044373 0.000000
# 6 0.000000 0.000000 0.000000 0.000000 0.000000 0.056323
#
#
# Mechanical properties :
#
#
# Convention : Reuss Voigt Hill
#
# Bulk Modulus (GPa) = 17.86884 38.63727 28.25306
# Shear Modulus (GPa) = 24.11367 32.42370 28.26869
#
# Velocity S-wave (km/s) = 3.32353 3.85388 3.59849
# Velocity P-wave (km/s) = 4.78675 6.12388 5.49613
#
# Compressibility (1/GPa) = 0.05596334
#
# Stress axis : x y z
#
# Youngs Moduli (GPa) = 26.20708 62.36250 145.42352
#
# Poissons Ratio (x) = -0.17672 0.22234
# Poissons Ratio (y) = -0.07426 0.56101
# Poissons Ratio (z) = 0.04007 0.24058
#
# Static dielectric constant tensor:
#      x y z
#    x 1.825760 0.000000 0.000000 
#    y 0.000000 1.837170 0.000000 
#    z 0.000000 0.000000 1.863460 
# 
# From -- ./inp_files/9926.got.cif
#   From: 2010.05.17/outbox.cif.g08.bks.cpg/sg53_5_cif.got.tgz:9926.got - 2010.06.03 12:45:16.
