data_PCOD9418616
_publ_section_title
;
Structure prediction by ZEFSAII (Michael W. Deem and Ramdas Pophale) SiO2 
 PCOD9418616
Probable space group: P M N A
;
_chemical_formula_sum "Si O2"
_cell_formula_units_Z 64
_cell_length_a 14.657711
_cell_length_b 10.149255
_cell_length_c 17.221592
_cell_angle_alpha 90.000000
_cell_angle_beta 90.000000
_cell_angle_gamma 90.000000
_cell_volume 2561.967493
_symmetry_space_group_name_H-M "P M N A"
_symmetry_group_IT_number 53
_symmetry_cell_setting 'orthorhombic'
loop_
_space_group_symop_operation_xyz
x,y,z
1/2-x,-y,1/2+z
x,-y,-z
1/2-x,y,1/2-z
-x,-y,-z
1/2+x,y,1/2-z
-x,y,z
1/2+x,-y,1/2+z
loop_
_atom_site_type_symbol
_atom_site_label
_atom_site_fract_x
_atom_site_fract_y
_atom_site_fract_z
Si Si1 0.150109 0.434205 0.077970
Si Si2 0.641117 0.421442 0.073008
Si Si3 0.854811 0.484296 0.254144
Si Si4 0.889122 0.226440 0.789942
Si Si5 0.388047 0.051950 0.222621
Si Si6 0.110814 0.878806 0.554263
Si Si7 0.603083 0.815360 0.638461
Si Si8 0.895269 0.907646 0.064967
O O1 0.255478 0.475256 0.081346
O O2 0.109698 0.456683 0.165092
O O3 0.148922 0.274169 0.073815
O O4 0.109909 0.500000 0.000000
O O5 0.605194 0.434076 0.162730
O O6 0.641193 0.270922 0.043841
O O7 0.599317 0.500000 0.000000
O O8 0.750000 0.440828 0.250000
O O9 0.859097 0.643193 0.253769
O O10 0.000000 0.227787 0.793795
O O11 0.860035 0.096304 0.743723
O O12 0.858738 0.209351 0.880833
O O13 0.500000 0.055838 0.221531
O O14 0.352880 0.081201 0.137960
O O15 0.357124 0.175471 0.275784
O O16 0.000000 0.874264 0.553927
O O17 0.137068 0.000000 0.500000
O O18 0.500000 0.768038 0.639464
O O19 0.595878 0.971623 0.625508
O O20 0.000000 0.873732 0.037898
O O21 0.848858 0.000000 0.000000
#
# Coordination Sequence:
#
# PCOD9418616 Si02
#       8
#     8   8   8   8   8   8   8   8
#     4  10  22  38  55  78 114 155 194 238 287 339
#     4  10  23  42  60  81 118 159 190 234 298 358
#     4  10  22  39  57  79 112 157 197 239 286 341
#     4   9  18  32  55  84 113 150 191 236 292 348
#     4   8  16  33  54  81 117 146 177 238 304 344
#     4  10  21  37  62  91 114 141 187 247 301 352
#     4   9  17  31  53  77 107 146 188 231 279 335
#     4   8  15  28  47  75 112 145 173 222 283 337
#
# _framework density 24.980799999999999
#
# number of rings (size 3 to 8) (size 9 to 14) (size 15 to 20)
#    0.000    2.750    0.000    2.250    3.500    1.500 
#    0.000    3.125    0.000    0.000    0.000    0.000 
#    0.000    0.000    0.000    0.000    0.000    0.000 
#
# Total GULP energy -356344.973638 kJ/mol
# GULP energy per Si atom -5567.890213 kJ/mol
# Density = 2.492394 g / cm^3
# Si number density = 24.980800 Si / 1000 Ang^3
#
#
#
# Elastic Constant Matrix: (Units=GPa)
#
#
# Indices 1 2 3 4 5 6 
#
# 1 70.3207 4.3130 12.1603 0.0000 0.0000 0.0000
# 2 4.3130 131.8227 53.1674 0.0000 0.0000 0.0000
# 3 12.1603 53.1674 158.7235 0.0000 0.0000 0.0000
# 4 0.0000 0.0000 0.0000 50.8059 0.0000 0.0000
# 5 0.0000 0.0000 0.0000 0.0000 1.0021 0.0000
# 6 0.0000 0.0000 0.0000 0.0000 0.0000 -0.7478
#
#
#
# Elastic Compliance Matrix: (Units=1/GPa)
#
#
# Indices 1 2 3 4 5 6 
#
# 1 0.014412 -0.000030 -0.001094 0.000000 0.000000 0.000000
# 2 -0.000030 0.008771 -0.002936 0.000000 0.000000 0.000000
# 3 -0.001094 -0.002936 0.007367 0.000000 0.000000 0.000000
# 4 0.000000 0.000000 0.000000 0.019683 0.000000 0.000000
# 5 0.000000 0.000000 0.000000 0.000000 0.997921 0.000000
# 6 0.000000 0.000000 0.000000 0.000000 0.000000 -1.337289
#
#
# Mechanical properties :
#
#
# Convention : Reuss Voigt Hill
#
# Bulk Modulus (GPa) = 44.58294 55.57205 50.07750
# Shear Modulus (GPa) = -18.27894 29.62712 5.67409
#
# Velocity S-wave (km/s) = -2.70797 3.44757 1.50875
# Velocity P-wave (km/s) = 2.84749 6.17591 4.80885
#
# Compressibility (1/GPa) = 0.02243011
#
# Stress axis : x y z
#
# Youngs Moduli (GPa) = 69.38859 114.01244 135.73241
#
# Poissons Ratio (x) = 0.00345 0.14849
# Poissons Ratio (y) = 0.00210 0.39847
# Poissons Ratio (z) = 0.07591 0.33470
#
# Static dielectric constant tensor:
#      x y z
#    x 1.976420 0.000000 0.000000 
#    y 0.000000 2.091520 0.000000 
#    z 0.000000 0.000000 2.315220 
# 
# From -- ./inp_files/29387.got.cif
#   From: 2010.05.17/outbox.cif.g08.bks.cpg/sg53_15_cif.got.tgz:29387.got - 2010.06.03 12:45:16.
