data_PCOD9418964
_publ_section_title
;
Structure prediction by ZEFSAII (Michael W. Deem and Ramdas Pophale) SiO2 
 PCOD9418964
Probable space group: P M N A
;
_chemical_formula_sum "Si O2"
_cell_formula_units_Z 56
_cell_length_a 30.074265
_cell_length_b 13.204046
_cell_length_c 5.947806
_cell_angle_alpha 90.000000
_cell_angle_beta 90.000000
_cell_angle_gamma 90.000000
_cell_volume 2361.885530
_symmetry_space_group_name_H-M "P M N A"
_symmetry_group_IT_number 53
_symmetry_cell_setting 'orthorhombic'
loop_
_space_group_symop_operation_xyz
x,y,z
1/2-x,-y,1/2+z
x,-y,-z
1/2-x,y,1/2-z
-x,-y,-z
1/2+x,y,1/2-z
-x,y,z
1/2+x,-y,1/2+z
loop_
_atom_site_type_symbol
_atom_site_label
_atom_site_fract_x
_atom_site_fract_y
_atom_site_fract_z
Si Si1 0.726886 0.825554 0.005327
Si Si2 0.451778 0.837640 0.603877
Si Si3 0.452380 0.615042 0.829793
Si Si4 0.915971 0.727149 0.285220
Si Si5 0.707197 0.609244 0.902112
Si Si6 0.127461 0.108369 0.401541
Si Si7 0.866118 0.601822 0.920554
O O1 0.750000 0.828075 0.750000
O O2 0.718457 0.705703 0.054107
O O3 0.750000 0.862076 0.250000
O O4 0.680629 0.881343 0.939660
O O5 0.500000 0.888773 0.649277
O O6 0.453929 0.728296 0.726451
O O7 0.447765 0.803720 0.346745
O O8 0.404286 0.884797 0.678262
O O9 0.500000 0.566695 0.789319
O O10 0.410067 0.566670 0.712513
O O11 0.442248 0.638189 0.088741
O O12 0.890153 0.796870 0.456953
O O13 0.881505 0.675258 0.115667
O O14 0.750000 0.587721 0.750000
O O15 0.667388 0.652285 0.749562
O O16 0.693307 0.500000 0.000000
O O17 0.114909 0.000000 0.500000
O O18 0.842562 0.500000 0.000000
#
# Coordination Sequence:
#
# PCOD9418964 Si02
#       7
#     8   8   8   8   8   8   8
#     4  11  27  48  77 106 146 189 241 302 369 436
#     4   9  19  39  66  99 134 179 233 292 364 432
#     4   9  19  38  62  91 129 178 232 281 343 414
#     4  10  21  40  67  92 133 178 228 297 351 425
#     4  11  24  42  68 102 135 174 227 279 353 423
#     4  11  26  44  69 101 139 185 237 295 363 439
#     4  11  25  38  63  97 136 178 228 284 353 425
#
# _framework density 23.709871
#
# number of rings (size 3 to 8) (size 9 to 14) (size 15 to 20)
#    0.000    1.714    0.000    3.857   10.000    2.857 
#    0.000    1.429    0.000    0.000    0.000    0.000 
#    0.000    0.000    0.000    0.000    0.000    0.000 
#
# Total GULP energy -311994.615246 kJ/mol
# GULP energy per Si atom -5571.332415 kJ/mol
# Density = 2.365591 g / cm^3
# Si number density = 23.709871 Si / 1000 Ang^3
#
#
#
# Elastic Constant Matrix: (Units=GPa)
#
#
# Indices 1 2 3 4 5 6 
#
# 1 113.0767 -4.1905 49.5865 0.0000 0.0000 0.0000
# 2 -4.1905 42.0274 0.2724 0.0000 0.0000 0.0000
# 3 49.5865 0.2724 93.3808 0.0000 0.0000 0.0000
# 4 0.0000 0.0000 0.0000 10.1678 0.0000 0.0000
# 5 0.0000 0.0000 0.0000 0.0000 -7.9054 0.0000
# 6 0.0000 0.0000 0.0000 0.0000 0.0000 -34.3564
#
#
#
# Elastic Compliance Matrix: (Units=1/GPa)
#
#
# Indices 1 2 3 4 5 6 
#
# 1 0.011588 0.001195 -0.006157 0.000000 0.000000 0.000000
# 2 0.001195 0.023918 -0.000704 0.000000 0.000000 0.000000
# 3 -0.006157 -0.000704 0.013980 0.000000 0.000000 0.000000
# 4 0.000000 0.000000 0.000000 0.098349 0.000000 0.000000
# 5 0.000000 0.000000 0.000000 0.000000 -0.126495 0.000000
# 6 0.000000 0.000000 0.000000 0.000000 0.000000 -0.029107
#
#
# Mechanical properties :
#
#
# Convention : Reuss Voigt Hill
#
# Bulk Modulus (GPa) = 26.20970 37.75796 31.98383
# Shear Modulus (GPa) = 307.07386 7.10229 157.08808
#
# Velocity S-wave (km/s) = 11.39273 1.73263 8.14850
# Velocity P-wave (km/s) = 13.56972 4.46791 10.10197
#
# Compressibility (1/GPa) = 0.03815382
#
# Stress axis : x y z
#
# Youngs Moduli (GPa) = 86.29844 41.80998 71.52977
#
# Poissons Ratio (x) = -0.04998 0.44039
# Poissons Ratio (y) = -0.10315 0.05039
# Poissons Ratio (z) = 0.53131 0.02945
#
# Static dielectric constant tensor:
#      x y z
#    x 2.027760 0.000000 0.000000 
#    y 0.000000 1.872270 0.000000 
#    z 0.000000 0.000000 2.029270 
# 
# From -- ./inp_files/5354.got.cif
#   From: 2010.05.17/outbox.cif.g08.bks.cpg/sg53_3_cif.got.tgz:5354.got - 2010.06.03 12:45:16.
