data_PCOD9418064
_publ_section_title
;
Structure prediction by ZEFSAII (Michael W. Deem and Ramdas Pophale) SiO2 
 PCOD9418064
Probable space group: P M N A
;
_chemical_formula_sum "Si O2"
_cell_formula_units_Z 28
_cell_length_a 25.643957
_cell_length_b 8.699161
_cell_length_c 5.703578
_cell_angle_alpha 90.000000
_cell_angle_beta 90.000000
_cell_angle_gamma 90.000000
_cell_volume 1272.359374
_symmetry_space_group_name_H-M "P M N A"
_symmetry_group_IT_number 53
_symmetry_cell_setting 'orthorhombic'
loop_
_space_group_symop_operation_xyz
x,y,z
1/2-x,-y,1/2+z
x,-y,-z
1/2-x,y,1/2-z
-x,-y,-z
1/2+x,y,1/2-z
-x,y,z
1/2+x,-y,1/2+z
loop_
_atom_site_type_symbol
_atom_site_label
_atom_site_fract_x
_atom_site_fract_y
_atom_site_fract_z
Si Si1 0.129904 0.000000 0.500000
Si Si2 0.220316 0.500000 0.000000
Si Si3 0.647070 0.745540 0.326635
Si Si4 0.439872 0.768638 0.698034
Si Si5 0.402015 0.500000 0.000000
O O1 0.161998 0.099048 0.690652
O O2 0.091735 0.116553 0.365585
O O3 0.250000 0.495360 0.750000
O O4 0.186211 0.342087 0.999861
O O5 0.592427 0.773059 0.458247
O O6 0.634852 0.617257 0.134438
O O7 0.500000 0.810309 0.670191
O O8 0.435000 0.599897 0.815771
#
# Coordination Sequence:
#
# PCOD9418064 Si02
#       5
#     4   4   8   8   4
#     4  10  25  40  68  94 150 182 234 282 361 418
#     4  12  27  48  84 106 133 181 248 309 376 440
#     4  11  23  44  69 102 137 181 232 298 357 425
#     4  11  22  38  64 100 143 193 235 280 347 430
#     4  10  20  38  63  96 144 179 234 287 347 406
#
# _framework density 22.006360000000001
#
# number of rings (size 3 to 8) (size 9 to 14) (size 15 to 20)
#    0.000    1.143    2.857    2.571    4.000    9.143 
#    0.000    0.000    6.286    0.000    0.000    0.000 
#    0.000    0.000    0.000    0.000    0.000    0.000 
#
# Total GULP energy -156435.765075 kJ/mol
# GULP energy per Si atom -5586.991610 kJ/mol
# Density = 2.195627 g / cm^3
# Si number density = 22.006360 Si / 1000 Ang^3
#
#
#
# Elastic Constant Matrix: (Units=GPa)
#
#
# Indices 1 2 3 4 5 6 
#
# 1 53.9028 12.6176 11.8621 0.0000 0.0000 0.0000
# 2 12.6176 115.3893 27.1276 0.0000 0.0000 0.0000
# 3 11.8621 27.1276 81.9056 0.0000 0.0000 0.0000
# 4 0.0000 0.0000 0.0000 45.4339 0.0000 0.0000
# 5 0.0000 0.0000 0.0000 0.0000 37.0421 0.0000
# 6 0.0000 0.0000 0.0000 0.0000 0.0000 52.3236
#
#
#
# Elastic Compliance Matrix: (Units=1/GPa)
#
#
# Indices 1 2 3 4 5 6 
#
# 1 0.019427 -0.001586 -0.002288 0.000000 0.000000 0.000000
# 2 -0.001586 0.009528 -0.002926 0.000000 0.000000 0.000000
# 3 -0.002288 -0.002926 0.013510 0.000000 0.000000 0.000000
# 4 0.000000 0.000000 0.000000 0.022010 0.000000 0.000000
# 5 0.000000 0.000000 0.000000 0.000000 0.026996 0.000000
# 6 0.000000 0.000000 0.000000 0.000000 0.000000 0.019112
#
#
# Mechanical properties :
#
#
# Convention : Reuss Voigt Hill
#
# Bulk Modulus (GPa) = 34.64595 39.37914 37.01254
# Shear Modulus (GPa) = 37.36810 40.26595 38.81703
#
# Velocity S-wave (km/s) = 4.12522 4.28219 4.20444
# Velocity P-wave (km/s) = 6.20224 6.51021 6.35809
#
# Compressibility (1/GPa) = 0.02886341
#
# Stress axis : x y z
#
# Youngs Moduli (GPa) = 51.47530 104.95782 74.02134
#
# Poissons Ratio (x) = 0.16650 0.16937
# Poissons Ratio (y) = 0.08166 0.21658
# Poissons Ratio (z) = 0.11778 0.30709
#
# Static dielectric constant tensor:
#      x y z
#    x 1.794730 0.000000 0.000000 
#    y 0.000000 1.855780 0.000000 
#    z 0.000000 0.000000 1.905720 
# 
# From -- ./inp_files/4161.got.cif
#   From: 2010.05.17/outbox.cif.g08.bks.cpg/sg53_3_cif.got.tgz:4161.got - 2010.06.03 12:45:16.
