data_PCOD9418600
_publ_section_title
;
Structure prediction by ZEFSAII (Michael W. Deem and Ramdas Pophale) SiO2 
 PCOD9418600
Probable space group: P M N A
;
_chemical_formula_sum "Si O2"
_cell_formula_units_Z 40
_cell_length_a 19.174784
_cell_length_b 9.416265
_cell_length_c 10.084355
_cell_angle_alpha 90.000000
_cell_angle_beta 90.000000
_cell_angle_gamma 90.000000
_cell_volume 1820.779179
_symmetry_space_group_name_H-M "P M N A"
_symmetry_group_IT_number 53
_symmetry_cell_setting 'orthorhombic'
loop_
_space_group_symop_operation_xyz
x,y,z
1/2-x,-y,1/2+z
x,-y,-z
1/2-x,y,1/2-z
-x,-y,-z
1/2+x,y,1/2-z
-x,y,z
1/2+x,-y,1/2+z
loop_
_atom_site_type_symbol
_atom_site_label
_atom_site_fract_x
_atom_site_fract_y
_atom_site_fract_z
Si Si1 0.647031 0.334147 0.531766
Si Si2 0.208877 0.713250 0.367687
Si Si3 0.419314 0.754765 0.737414
Si Si4 0.310974 0.026682 0.155205
Si Si5 0.580045 0.423122 0.807234
O O1 0.657370 0.500000 0.500000
O O2 0.725699 0.270452 0.535553
O O3 0.606473 0.254449 0.415008
O O4 0.601389 0.346586 0.667275
O O5 0.250000 0.629578 0.250000
O O6 0.139414 0.632490 0.407063
O O7 0.182012 0.861191 0.304617
O O8 0.500000 0.794533 0.742603
O O9 0.374559 0.867893 0.819956
O O10 0.413114 0.592001 0.787284
O O11 0.250000 0.082871 0.250000
O O12 0.297458 0.000000 0.000000
O O13 0.500000 0.391012 0.842969
#
# Coordination Sequence:
#
# PCOD9418600 Si02
#       5
#     8   8   8   8   8
#     4   9  17  33  61  90 119 158 215 274 322 375
#     4   9  19  34  54  82 115 154 200 252 309 368
#     4  10  21  37  60  91 125 164 209 260 323 387
#     4  11  24  41  62  88 125 170 217 266 318 379
#     4   9  18  34  57  88 123 158 202 260 323 387
#
# _framework density 21.968616000000001
#
# number of rings (size 3 to 8) (size 9 to 14) (size 15 to 20)
#    0.000    2.400    0.000    1.800    0.000    9.200 
#    0.000    0.000    0.000   15.600    0.000    0.000 
#    0.000    0.000    0.000    0.000    0.000    0.000 
#
# Total GULP energy -222837.843837 kJ/mol
# GULP energy per Si atom -5570.946096 kJ/mol
# Density = 2.191861 g / cm^3
# Si number density = 21.968616 Si / 1000 Ang^3
#
#
#
# Elastic Constant Matrix: (Units=GPa)
#
#
# Indices 1 2 3 4 5 6 
#
# 1 210.6623 65.8912 46.2216 0.0000 0.0000 0.0000
# 2 65.8912 64.6059 22.8361 0.0000 0.0000 0.0000
# 3 46.2216 22.8361 97.4087 0.0000 0.0000 0.0000
# 4 0.0000 0.0000 0.0000 20.0206 0.0000 0.0000
# 5 0.0000 0.0000 0.0000 0.0000 24.8864 0.0000
# 6 0.0000 0.0000 0.0000 0.0000 0.0000 -250.5487
#
#
#
# Elastic Compliance Matrix: (Units=1/GPa)
#
#
# Indices 1 2 3 4 5 6 
#
# 1 0.007269 -0.006754 -0.001866 0.000000 0.000000 0.000000
# 2 -0.006754 0.023153 -0.002223 0.000000 0.000000 0.000000
# 3 -0.001866 -0.002223 0.011672 0.000000 0.000000 0.000000
# 4 0.000000 0.000000 0.000000 0.049948 0.000000 0.000000
# 5 0.000000 0.000000 0.000000 0.000000 0.040183 0.000000
# 6 0.000000 0.000000 0.000000 0.000000 0.000000 -0.003991
#
#
# Mechanical properties :
#
#
# Convention : Reuss Voigt Hill
#
# Bulk Modulus (GPa) = 48.99920 71.39720 60.19820
# Shear Modulus (GPa) = 31.90367 -25.27981 3.31193
#
# Velocity S-wave (km/s) = 3.81496 -3.39591 1.22916
# Velocity P-wave (km/s) = 6.46203 4.14655 5.42917
#
# Compressibility (1/GPa) = 0.02040850
#
# Stress axis : x y z
#
# Youngs Moduli (GPa) = 137.57418 43.19185 85.67148
#
# Poissons Ratio (x) = 0.29171 0.15984
# Poissons Ratio (y) = 0.92917 0.19044
# Poissons Ratio (z) = 0.25668 0.09601
#
# Static dielectric constant tensor:
#      x y z
#    x 1.821840 0.000000 0.000000 
#    y 0.000000 1.842360 0.000000 
#    z 0.000000 0.000000 2.016450 
# 
# From -- ./inp_files/17654.got.cif
#   From: 2010.05.17/outbox.cif.g08.bks.cpg/sg53_9_cif.got.tgz:17654.got - 2010.06.03 12:45:16.
