data_PCOD9418302
_publ_section_title
;
Structure prediction by ZEFSAII (Michael W. Deem and Ramdas Pophale) SiO2 
 PCOD9418302
Probable space group: P M N A
;
_chemical_formula_sum "Si O2"
_cell_formula_units_Z 40
_cell_length_a 8.588882
_cell_length_b 7.733463
_cell_length_c 30.877522
_cell_angle_alpha 90.000000
_cell_angle_beta 90.000000
_cell_angle_gamma 90.000000
_cell_volume 2050.940627
_symmetry_space_group_name_H-M "P M N A"
_symmetry_group_IT_number 53
_symmetry_cell_setting 'orthorhombic'
loop_
_space_group_symop_operation_xyz
x,y,z
1/2-x,-y,1/2+z
x,-y,-z
1/2-x,y,1/2-z
-x,-y,-z
1/2+x,y,1/2-z
-x,y,z
1/2+x,-y,1/2+z
loop_
_atom_site_type_symbol
_atom_site_label
_atom_site_fract_x
_atom_site_fract_y
_atom_site_fract_z
Si Si1 0.185466 0.747852 0.201460
Si Si2 0.311711 0.448004 0.141565
Si Si3 0.312295 0.559295 0.953088
Si Si4 0.186553 0.959919 0.638456
Si Si5 0.313484 0.943500 0.548036
O O1 0.250000 0.749929 0.250000
O O2 0.240161 0.573260 0.177146
O O3 0.000000 0.754266 0.202051
O O4 0.249272 0.912995 0.174959
O O5 0.500000 0.454593 0.144475
O O6 0.266359 0.519097 0.093430
O O7 0.267275 0.243514 0.145137
O O8 0.500000 0.553518 0.954534
O O9 0.252289 0.752053 0.948881
O O10 0.252680 0.500000 0.000000
O O11 0.245635 0.027598 0.591522
O O12 0.000000 0.964229 0.638190
O O13 0.500000 0.951022 0.549896
O O14 0.263510 0.000000 0.500000
#
# Coordination Sequence:
#
# PCOD9418302 Si02
#       5
#     8   8   8   8   8
#     4  12  26  43  66  94 124 160 205 255 312 370
#     4   9  20  40  63  90 124 161 204 253 305 363
#     4   9  19  35  56  85 117 159 206 245 296 361
#     4  10  22  42  66  90 122 163 207 256 308 367
#     4  10  21  35  53  85 123 159 201 247 301 361
#
# _framework density 19.503247999999999
#
# number of rings (size 3 to 8) (size 9 to 14) (size 15 to 20)
#    0.000    2.000    0.000    4.200    2.800    6.800 
#    0.000    0.000    0.000    0.000    0.000    0.000 
#    0.000    0.000    0.000    0.000    0.000    0.000 
#
# Total GULP energy -223029.730317 kJ/mol
# GULP energy per Si atom -5575.743258 kJ/mol
# Density = 1.945886 g / cm^3
# Si number density = 19.503248 Si / 1000 Ang^3
#
#
#
# Elastic Constant Matrix: (Units=GPa)
#
#
# Indices 1 2 3 4 5 6 
#
# 1 62.6578 39.0864 60.2306 0.0000 0.0000 0.0000
# 2 39.0864 99.0224 86.6705 0.0000 0.0000 0.0000
# 3 60.2306 86.6705 227.1118 0.0000 0.0000 0.0000
# 4 0.0000 0.0000 0.0000 40.3339 0.0000 0.0000
# 5 0.0000 0.0000 0.0000 0.0000 35.0322 0.0000
# 6 0.0000 0.0000 0.0000 0.0000 0.0000 29.8332
#
#
#
# Elastic Compliance Matrix: (Units=1/GPa)
#
#
# Indices 1 2 3 4 5 6 
#
# 1 0.023390 -0.005711 -0.004024 0.000000 0.000000 0.000000
# 2 -0.005711 0.016558 -0.004804 0.000000 0.000000 0.000000
# 3 -0.004024 -0.004804 0.007304 0.000000 0.000000 0.000000
# 4 0.000000 0.000000 0.000000 0.024793 0.000000 0.000000
# 5 0.000000 0.000000 0.000000 0.000000 0.028545 0.000000
# 6 0.000000 0.000000 0.000000 0.000000 0.000000 0.033520
#
#
# Mechanical properties :
#
#
# Convention : Reuss Voigt Hill
#
# Bulk Modulus (GPa) = 55.02389 84.52969 69.77679
# Shear Modulus (GPa) = 29.54295 34.56015 32.05155
#
# Velocity S-wave (km/s) = 3.89623 4.21410 4.05828
# Velocity P-wave (km/s) = 6.96525 8.19229 7.60356
#
# Compressibility (1/GPa) = 0.01817393
#
# Stress axis : x y z
#
# Youngs Moduli (GPa) = 42.75335 60.39398 136.91753
#
# Poissons Ratio (x) = 0.34489 0.55092
# Poissons Ratio (y) = 0.24415 0.65780
# Poissons Ratio (z) = 0.17203 0.29015
#
# Static dielectric constant tensor:
#      x y z
#    x 1.650590 0.000000 0.000000 
#    y 0.000000 1.636330 0.000000 
#    z 0.000000 0.000000 1.748480 
# 
# From -- ./inp_files/36030.got.cif
#   From: 2010.05.17/outbox.cif.g08.bks.cpg/sg53_19_cif.got.tgz:36030.got - 2010.06.03 12:45:16.
