data_PCOD9418279
_publ_section_title
;
Structure prediction by ZEFSAII (Michael W. Deem and Ramdas Pophale) SiO2 
 PCOD9418279
Probable space group: P M N A
;
_chemical_formula_sum "Si O2"
_cell_formula_units_Z 48
_cell_length_a 14.629039
_cell_length_b 15.652463
_cell_length_c 9.679678
_cell_angle_alpha 90.000000
_cell_angle_beta 90.000000
_cell_angle_gamma 90.000000
_cell_volume 2216.457428
_symmetry_space_group_name_H-M "P M N A"
_symmetry_group_IT_number 53
_symmetry_cell_setting 'orthorhombic'
loop_
_space_group_symop_operation_xyz
x,y,z
1/2-x,-y,1/2+z
x,-y,-z
1/2-x,y,1/2-z
-x,-y,-z
1/2+x,y,1/2-z
-x,y,z
1/2+x,-y,1/2+z
loop_
_atom_site_type_symbol
_atom_site_label
_atom_site_fract_x
_atom_site_fract_y
_atom_site_fract_z
Si Si1 0.396067 0.801312 0.370139
Si Si2 0.887976 0.665070 0.650037
Si Si3 0.336394 0.985439 0.339406
Si Si4 0.611507 0.507284 0.658031
Si Si5 0.390256 0.823604 0.676112
Si Si6 0.611691 0.342052 0.835758
O O1 0.500000 0.769787 0.387684
O O2 0.398552 0.901529 0.332572
O O3 0.353177 0.798597 0.523534
O O4 0.358088 0.741988 0.248912
O O5 0.860265 0.591430 0.757551
O O6 0.859159 0.756650 0.709856
O O7 0.855481 0.652504 0.493398
O O8 0.000000 0.663281 0.647059
O O9 0.250000 0.962148 0.250000
O O10 0.314251 0.000000 0.500000
O O11 0.370987 0.077729 0.290429
O O12 0.643928 0.500000 0.500000
O O13 0.500000 0.509169 0.652676
O O14 0.637383 0.424392 0.746376
O O15 0.500000 0.817117 0.667205
O O16 0.500000 0.340923 0.844637
#
# Coordination Sequence:
#
# PCOD9418279 Si02
#       6
#     8   8   8   8   8   8
#     4   9  17  31  50  70  93 124 162 199 235 279
#     4   9  16  25  39  63  94 124 154 192 237 279
#     4  10  21  35  51  71  95 124 158 198 242 286
#     4   9  15  23  37  59  90 127 160 189 226 275
#     4   9  17  31  50  70  93 124 162 199 235 279
#     4   9  16  25  39  63  94 124 154 192 237 279
#
# _framework density 21.656179999999999
#
# number of rings (size 3 to 8) (size 9 to 14) (size 15 to 20)
#    0.000    2.833    0.000    2.000    0.000    9.333 
#    0.000    0.000    0.000    5.000    0.000    1.167 
#    0.000    0.000    0.000    0.000    0.000    0.000 
#
# Total GULP energy -267841.274614 kJ/mol
# GULP energy per Si atom -5580.026554 kJ/mol
# Density = 2.160689 g / cm^3
# Si number density = 21.656180 Si / 1000 Ang^3
#
#
#
# Elastic Constant Matrix: (Units=GPa)
#
#
# Indices 1 2 3 4 5 6 
#
# 1 40.3480 -14.0729 6.3911 0.0000 0.0000 0.0000
# 2 -14.0729 93.9029 64.2980 0.0000 0.0000 0.0000
# 3 6.3911 64.2980 118.8561 0.0000 0.0000 0.0000
# 4 0.0000 0.0000 0.0000 10.2454 0.0000 0.0000
# 5 0.0000 0.0000 0.0000 0.0000 1.7408 0.0000
# 6 0.0000 0.0000 0.0000 0.0000 0.0000 -49.3588
#
#
#
# Elastic Compliance Matrix: (Units=1/GPa)
#
#
# Indices 1 2 3 4 5 6 
#
# 1 0.028731 0.008519 -0.006154 0.000000 0.000000 0.000000
# 2 0.008519 0.019441 -0.010975 0.000000 0.000000 0.000000
# 3 -0.006154 -0.010975 0.014682 0.000000 0.000000 0.000000
# 4 0.000000 0.000000 0.000000 0.097605 0.000000 0.000000
# 5 0.000000 0.000000 0.000000 0.000000 0.574445 0.000000
# 6 0.000000 0.000000 0.000000 0.000000 0.000000 -0.020260
#
#
# Mechanical properties :
#
#
# Convention : Reuss Voigt Hill
#
# Bulk Modulus (GPa) = 21.91334 40.70436 31.30885
# Shear Modulus (GPa) = 6.69278 5.62488 6.15883
#
# Velocity S-wave (km/s) = 1.75988 1.61338 1.68822
# Velocity P-wave (km/s) = 3.77760 4.72305 4.27653
#
# Compressibility (1/GPa) = 0.04563429
#
# Stress axis : x y z
#
# Youngs Moduli (GPa) = 34.80620 51.43748 68.11198
#
# Poissons Ratio (x) = -0.43821 0.41913
# Poissons Ratio (y) = -0.29652 0.74754
# Poissons Ratio (z) = 0.21418 0.56454
#
# Static dielectric constant tensor:
#      x y z
#    x 1.831080 0.000000 0.000000 
#    y 0.000000 1.786060 0.000000 
#    z 0.000000 0.000000 1.765000 
# 
# From -- ./inp_files/9943.got.cif
#   From: 2010.05.17/outbox.cif.g08.bks.cpg/sg53_5_cif.got.tgz:9943.got - 2010.06.03 12:45:16.
