data_PCOD9418906
_publ_section_title
;
Structure prediction by ZEFSAII (Michael W. Deem and Ramdas Pophale) SiO2 
 PCOD9418906
Probable space group: P M N A
;
_chemical_formula_sum "Si O2"
_cell_formula_units_Z 64
_cell_length_a 15.457578
_cell_length_b 18.443486
_cell_length_c 8.902993
_cell_angle_alpha 90.000000
_cell_angle_beta 90.000000
_cell_angle_gamma 90.000000
_cell_volume 2538.168728
_symmetry_space_group_name_H-M "P M N A"
_symmetry_group_IT_number 53
_symmetry_cell_setting 'orthorhombic'
loop_
_space_group_symop_operation_xyz
x,y,z
1/2-x,-y,1/2+z
x,-y,-z
1/2-x,y,1/2-z
-x,-y,-z
1/2+x,y,1/2-z
-x,y,z
1/2+x,-y,1/2+z
loop_
_atom_site_type_symbol
_atom_site_label
_atom_site_fract_x
_atom_site_fract_y
_atom_site_fract_z
Si Si1 0.895945 0.888875 0.570452
Si Si2 0.098350 0.860377 0.034093
Si Si3 0.098350 0.639623 0.965907
Si Si4 0.155044 0.236300 0.229389
Si Si5 0.605795 0.032460 0.768692
Si Si6 0.655044 0.736300 0.270611
Si Si7 0.394205 0.467540 0.231308
Si Si8 0.604055 0.388875 0.929548
O O1 0.870481 0.809773 0.625755
O O2 0.866472 0.916513 0.407775
O O3 0.000000 0.891081 0.567218
O O4 0.867974 0.951248 0.688940
O O5 0.133287 0.932387 0.112235
O O6 0.095439 0.800289 0.167551
O O7 0.000000 0.871392 0.976659
O O8 0.153478 0.823379 0.904507
O O9 0.095439 0.699711 0.832449
O O10 0.133287 0.567613 0.887765
O O11 0.000000 0.628608 0.023340
O O12 0.153478 0.676621 0.095493
O O13 0.250000 0.267066 0.250000
O O14 0.500000 0.033869 0.763944
O O15 0.750000 0.767066 0.250000
O O16 0.629519 0.690227 0.125755
O O17 0.500000 0.466131 0.236056
O O18 0.367974 0.548752 0.188940
O O19 0.366472 0.416513 0.092225
O O20 0.500000 0.391081 0.932782
#
# Coordination Sequence:
#
# PCOD9418906 Si02
#       8
#     8   8   8   8   8   8   8   8
#     4   9  17  35  58  82 110 143 183 230 276 331
#     4  10  21  40  61  83 111 151 196 238 281 338
#     4  10  21  40  61  83 111 151 196 238 281 338
#     4  11  23  36  52  80 114 148 186 233 285 337
#     4   8  17  33  58  85 108 138 185 233 274 324
#     4  11  23  36  52  80 114 148 186 233 285 337
#     4   8  17  33  58  85 108 138 185 233 274 324
#     4   9  17  35  58  82 110 143 183 230 276 331
#
# _framework density 25.215029999999999
#
# number of rings (size 3 to 8) (size 9 to 14) (size 15 to 20)
#    0.000    2.500    0.000    4.500    0.000    6.000 
#    0.000   13.750    0.000    0.000    0.000    0.000 
#    0.000    0.000    0.000    0.000    0.000    0.000 
#
# Total GULP energy -357975.651435 kJ/mol
# GULP energy per Si atom -5593.369554 kJ/mol
# Density = 2.515764 g / cm^3
# Si number density = 25.215030 Si / 1000 Ang^3
#
#
#
# Elastic Constant Matrix: (Units=GPa)
#
#
# Indices 1 2 3 4 5 6 
#
# 1 56.7561 -10.8331 13.1201 0.0000 0.0000 0.0000
# 2 -10.8331 83.4300 64.1276 0.0000 0.0000 0.0000
# 3 13.1201 64.1276 46.4398 0.0000 0.0000 0.0000
# 4 0.0000 0.0000 0.0000 67.0041 0.0000 0.0000
# 5 0.0000 0.0000 0.0000 0.0000 17.4735 0.0000
# 6 0.0000 0.0000 0.0000 0.0000 0.0000 88.1752
#
#
#
# Elastic Compliance Matrix: (Units=1/GPa)
#
#
# Indices 1 2 3 4 5 6 
#
# 1 0.004615 -0.026085 0.034716 0.000000 0.000000 0.000000
# 2 -0.026085 -0.047799 0.073374 0.000000 0.000000 0.000000
# 3 0.034716 0.073374 -0.089595 0.000000 0.000000 0.000000
# 4 0.000000 0.000000 0.000000 0.014924 0.000000 0.000000
# 5 0.000000 0.000000 0.000000 0.000000 0.057229 0.000000
# 6 0.000000 0.000000 0.000000 0.000000 0.000000 0.011341
#
#
# Mechanical properties :
#
#
# Convention : Reuss Voigt Hill
#
# Bulk Modulus (GPa) = 32.01889 35.49501 33.75695
# Shear Modulus (GPa) = -24.64468 42.54464 8.94998
#
# Velocity S-wave (km/s) = -3.12970 4.11210 1.88605
# Velocity P-wave (km/s) = 0.57804 6.05420 4.26141
#
# Compressibility (1/GPa) = 0.03123157
#
# Stress axis : x y z
#
# Youngs Moduli (GPa) = 216.67839 -20.92095 -11.16135
#
# Poissons Ratio (x) = -0.54572 0.38748
# Poissons Ratio (y) = 5.65206 0.81895
# Poissons Ratio (z) = -7.52227 1.53505
#
# Static dielectric constant tensor:
#      x y z
#    x 1.901860 0.000000 0.000000 
#    y 0.000000 1.976360 0.000000 
#    z 0.000000 0.000000 2.057480 
# 
# From -- ./inp_files/8949.got.cif
#   From: 2010.05.17/outbox.cif.g08.bks.cpg/sg53_5_cif.got.tgz:8949.got - 2010.06.03 12:45:16.
