data_PCOD9418630
_publ_section_title
;
Structure prediction by ZEFSAII (Michael W. Deem and Ramdas Pophale) SiO2 
 PCOD9418630
Probable space group: P M N A
;
_chemical_formula_sum "Si O2"
_cell_formula_units_Z 64
_cell_length_a 15.669686
_cell_length_b 18.191307
_cell_length_c 11.581653
_cell_angle_alpha 90.000000
_cell_angle_beta 90.000000
_cell_angle_gamma 90.000000
_cell_volume 3301.374146
_symmetry_space_group_name_H-M "P M N A"
_symmetry_group_IT_number 53
_symmetry_cell_setting 'orthorhombic'
loop_
_space_group_symop_operation_xyz
x,y,z
1/2-x,-y,1/2+z
x,-y,-z
1/2-x,y,1/2-z
-x,-y,-z
1/2+x,y,1/2-z
-x,y,z
1/2+x,-y,1/2+z
loop_
_atom_site_type_symbol
_atom_site_label
_atom_site_fract_x
_atom_site_fract_y
_atom_site_fract_z
Si Si1 0.263085 0.825552 0.988509
Si Si2 0.217377 0.027627 0.375841
Si Si3 0.599008 0.586794 0.487722
Si Si4 0.904934 0.588255 0.496742
Si Si5 0.595091 0.905063 0.139826
Si Si6 0.095562 0.812588 0.140197
Si Si7 0.753969 0.333475 0.385881
Si Si8 0.147136 0.341708 0.749235
O O1 0.334137 0.854371 0.078247
O O2 0.170370 0.824227 0.048565
O O3 0.272711 0.885369 0.887292
O O4 0.276183 0.743361 0.946582
O O5 0.250000 0.003453 0.250000
O O6 0.256928 0.000000 0.500000
O O7 0.124983 0.988821 0.376492
O O8 0.615278 0.500000 0.500000
O O9 0.500000 0.601464 0.518176
O O10 0.666224 0.633533 0.562523
O O11 0.614688 0.608739 0.354981
O O12 0.904869 0.500000 0.500000
O O13 0.830743 0.612845 0.581734
O O14 0.884301 0.623911 0.371292
O O15 0.000000 0.613212 0.530666
O O16 0.500000 0.892087 0.094668
O O17 0.595949 0.881098 0.272827
O O18 0.114668 0.740031 0.217895
O O19 0.000000 0.804223 0.090667
O O20 0.750000 0.323453 0.250000
O O21 0.250000 0.339767 0.750000
#
# Coordination Sequence:
#
# PCOD9418630 Si02
#       8
#     8   8   8   8   8   8   8   8
#     4  11  22  39  61  90 128 169 212 266 332 388
#     4  10  21  39  64  91 126 168 212 262 327 402
#     4  11  25  43  66  94 128 173 222 273 334 401
#     4  11  25  42  62  91 126 164 211 272 334 391
#     4  10  21  37  64  97 127 164 215 270 327 395
#     4  11  21  37  64  97 131 167 216 273 331 394
#     4  12  26  42  63  90 127 172 221 267 324 398
#     4  12  22  39  69  98 129 168 215 277 337 395
#
# _framework density 19.385867000000001
#
# number of rings (size 3 to 8) (size 9 to 14) (size 15 to 20)
#    0.000    1.000    2.500    5.250    1.750    4.250 
#    0.000    0.625    0.000    9.750    0.000    0.000 
#    0.000    0.000    0.000    0.000    0.000    0.000 
#
# Total GULP energy -357175.551896 kJ/mol
# GULP energy per Si atom -5580.867998 kJ/mol
# Density = 1.934174 g / cm^3
# Si number density = 19.385867 Si / 1000 Ang^3
#
#
#
# Elastic Constant Matrix: (Units=GPa)
#
#
# Indices 1 2 3 4 5 6 
#
# 1 139.5353 37.6535 13.7497 0.0000 0.0000 0.0000
# 2 37.6535 87.6674 -4.2763 0.0000 0.0000 0.0000
# 3 13.7497 -4.2763 50.2651 0.0000 0.0000 0.0000
# 4 0.0000 0.0000 0.0000 33.9056 0.0000 0.0000
# 5 0.0000 0.0000 0.0000 0.0000 5.6638 0.0000
# 6 0.0000 0.0000 0.0000 0.0000 0.0000 7.7189
#
#
#
# Elastic Compliance Matrix: (Units=1/GPa)
#
#
# Indices 1 2 3 4 5 6 
#
# 1 0.008438 -0.003752 -0.002627 0.000000 0.000000 0.000000
# 2 -0.003752 0.013123 0.002143 0.000000 0.000000 0.000000
# 3 -0.002627 0.002143 0.020796 0.000000 0.000000 0.000000
# 4 0.000000 0.000000 0.000000 0.029494 0.000000 0.000000
# 5 0.000000 0.000000 0.000000 0.000000 0.176561 0.000000
# 6 0.000000 0.000000 0.000000 0.000000 0.000000 0.129553
#
#
# Mechanical properties :
#
#
# Convention : Reuss Voigt Hill
#
# Bulk Modulus (GPa) = 29.51354 41.30241 35.40797
# Shear Modulus (GPa) = 12.57130 24.81371 18.69250
#
# Velocity S-wave (km/s) = 2.54928 3.58158 3.10858
# Velocity P-wave (km/s) = 4.89106 6.20123 5.58470
#
# Compressibility (1/GPa) = 0.03388275
#
# Stress axis : x y z
#
# Youngs Moduli (GPa) = 118.50967 76.20248 48.08719
#
# Poissons Ratio (x) = 0.28594 0.12635
# Poissons Ratio (y) = 0.44469 -0.10305
# Poissons Ratio (z) = 0.31138 -0.16329
#
# Static dielectric constant tensor:
#      x y z
#    x 1.678040 0.000000 0.000000 
#    y 0.000000 1.719150 0.000000 
#    z 0.000000 0.000000 1.693000 
# 
# From -- ./inp_files/16219.got.cif
#   From: 2010.05.17/outbox.cif.g08.bks.cpg/sg53_9_cif.got.tgz:16219.got - 2010.06.03 12:45:16.
