data_PCOD9418884
_publ_section_title
;
Structure prediction by ZEFSAII (Michael W. Deem and Ramdas Pophale) SiO2 
 PCOD9418884
Probable space group: P M N A
;
_chemical_formula_sum "Si O2"
_cell_formula_units_Z 56
_cell_length_a 14.963712
_cell_length_b 9.368556
_cell_length_c 15.792300
_cell_angle_alpha 90.000000
_cell_angle_beta 90.000000
_cell_angle_gamma 90.000000
_cell_volume 2213.896856
_symmetry_space_group_name_H-M "P M N A"
_symmetry_group_IT_number 53
_symmetry_cell_setting 'orthorhombic'
loop_
_space_group_symop_operation_xyz
x,y,z
1/2-x,-y,1/2+z
x,-y,-z
1/2-x,y,1/2-z
-x,-y,-z
1/2+x,y,1/2-z
-x,y,z
1/2+x,-y,1/2+z
loop_
_atom_site_type_symbol
_atom_site_label
_atom_site_fract_x
_atom_site_fract_y
_atom_site_fract_z
Si Si1 0.103022 0.893696 0.840125
Si Si2 0.303013 0.830294 0.407293
Si Si3 0.397195 0.831539 0.846083
Si Si4 0.704915 0.445199 0.160925
Si Si5 0.101093 0.297760 0.745989
Si Si6 0.599524 0.124755 0.918648
Si Si7 0.633356 0.372814 0.449127
O O1 0.138432 0.885366 0.744170
O O2 0.101017 0.729750 0.872953
O O3 0.000000 0.947936 0.843148
O O4 0.164642 0.006729 0.890784
O O5 0.331921 0.746971 0.321078
O O6 0.199421 0.819928 0.434967
O O7 0.353525 0.750745 0.481751
O O8 0.500000 0.799471 0.828965
O O9 0.350145 0.688356 0.872665
O O10 0.393202 0.953029 0.916830
O O11 0.750000 0.405816 0.250000
O O12 0.641068 0.575055 0.188244
O O13 0.782873 0.458932 0.092204
O O14 0.093000 0.167155 0.681359
O O15 0.000000 0.332574 0.776968
O O16 0.500000 0.171542 0.951033
O O17 0.586887 0.500000 0.500000
#
# Coordination Sequence:
#
# PCOD9418884 Si02
#       7
#     8   8   8   8   8   8   8
#     4  11  24  44  69 103 143 185 236 291 355 427
#     4  12  24  42  70 101 140 184 230 291 360 427
#     4  10  21  39  66 100 129 167 230 293 346 401
#     4  12  23  42  67  90 129 181 232 286 336 404
#     4  11  23  40  67 101 134 179 236 289 348 415
#     4  10  21  39  66 100 133 171 229 292 346 408
#     4  12  27  44  63 100 142 191 236 279 352 429
#
# _framework density 25.294765999999999
#
# number of rings (size 3 to 8) (size 9 to 14) (size 15 to 20)
#    0.000    0.857    2.857    5.143    0.000    2.000 
#    0.000    1.429    0.000    7.286    0.000    0.000 
#    0.000    0.000    0.000    0.000    0.000    0.000 
#
# Total GULP energy -312901.845541 kJ/mol
# GULP energy per Si atom -5587.532956 kJ/mol
# Density = 2.523719 g / cm^3
# Si number density = 25.294766 Si / 1000 Ang^3
#
#
#
# Elastic Constant Matrix: (Units=GPa)
#
#
# Indices 1 2 3 4 5 6 
#
# 1 136.2361 42.9668 17.7635 0.0000 0.0000 0.0000
# 2 42.9668 134.3838 21.2757 0.0000 0.0000 0.0000
# 3 17.7635 21.2757 71.8823 0.0000 0.0000 0.0000
# 4 0.0000 0.0000 0.0000 43.8527 0.0000 0.0000
# 5 0.0000 0.0000 0.0000 0.0000 -120.3257 0.0000
# 6 0.0000 0.0000 0.0000 0.0000 0.0000 -27.7065
#
#
#
# Elastic Compliance Matrix: (Units=1/GPa)
#
#
# Indices 1 2 3 4 5 6 
#
# 1 0.008282 -0.002438 -0.001325 0.000000 0.000000 0.000000
# 2 -0.002438 0.008525 -0.001921 0.000000 0.000000 0.000000
# 3 -0.001325 -0.001921 0.014808 0.000000 0.000000 0.000000
# 4 0.000000 0.000000 0.000000 0.022804 0.000000 0.000000
# 5 0.000000 0.000000 0.000000 0.000000 -0.008311 0.000000
# 6 0.000000 0.000000 0.000000 0.000000 0.000000 -0.036093
#
#
# Mechanical properties :
#
#
# Convention : Reuss Voigt Hill
#
# Bulk Modulus (GPa) = 49.39069 56.27936 52.83503
# Shear Modulus (GPa) = 177.73735 -3.46948 87.13393
#
# Velocity S-wave (km/s) = 8.39160 -1.17243 5.87556
# Velocity P-wave (km/s) = 10.65178 4.52382 8.18307
#
# Compressibility (1/GPa) = 0.02024673
#
# Stress axis : x y z
#
# Youngs Moduli (GPa) = 120.74464 117.30154 67.53317
#
# Poissons Ratio (x) = 0.28601 0.08948
# Poissons Ratio (y) = 0.29440 0.12971
# Poissons Ratio (z) = 0.15998 0.22530
#
# Static dielectric constant tensor:
#      x y z
#    x 2.045800 0.000000 0.000000 
#    y 0.000000 2.011560 0.000000 
#    z 0.000000 0.000000 2.043310 
# 
# From -- ./inp_files/32412.got.cif
#   From: 2010.05.17/outbox.cif.g08.bks.cpg/sg53_17_cif.got.tgz:32412.got - 2010.06.03 12:45:16.
