data_PCOD9418546
_publ_section_title
;
Structure prediction by ZEFSAII (Michael W. Deem and Ramdas Pophale) SiO2 
 PCOD9418546
Probable space group: P M N A
;
_chemical_formula_sum "Si O2"
_cell_formula_units_Z 48
_cell_length_a 16.890029
_cell_length_b 5.068040
_cell_length_c 27.564223
_cell_angle_alpha 90.000000
_cell_angle_beta 90.000000
_cell_angle_gamma 90.000000
_cell_volume 2359.479367
_symmetry_space_group_name_H-M "P M N A"
_symmetry_group_IT_number 53
_symmetry_cell_setting 'orthorhombic'
loop_
_space_group_symop_operation_xyz
x,y,z
1/2-x,-y,1/2+z
x,-y,-z
1/2-x,y,1/2-z
-x,-y,-z
1/2+x,y,1/2-z
-x,y,z
1/2+x,-y,1/2+z
loop_
_atom_site_type_symbol
_atom_site_label
_atom_site_fract_x
_atom_site_fract_y
_atom_site_fract_z
Si Si1 0.000000 0.605653 0.125340
Si Si2 0.500000 0.111842 0.309072
Si Si3 0.744176 0.054171 0.553001
Si Si4 0.862937 0.550923 0.947334
Si Si5 0.809515 0.561941 0.794229
Si Si6 0.268385 0.053783 0.840221
Si Si7 0.911159 0.173046 0.732638
O O1 0.923374 0.536652 0.093770
O O2 0.000000 0.395948 0.168524
O O3 0.000000 0.896760 0.147794
O O4 0.572893 0.049900 0.273351
O O5 0.670208 0.847647 0.555964
O O6 0.781630 0.000000 0.500000
O O7 0.710755 0.350250 0.553209
O O8 0.790662 0.023099 0.603314
O O9 0.901215 0.500000 0.000000
O O10 0.750000 0.614827 0.750000
O O11 0.879822 0.419246 0.763907
O O12 0.792330 0.818118 0.827169
O O13 0.346031 0.075726 0.805712
O O14 0.221973 0.322838 0.828261
O O15 0.000000 0.226618 0.712527
#
# Coordination Sequence:
#
# PCOD9418546 Si02
#       7
#     4   4   8   8   8   8   8
#     4  12  23  38  56  84 114 164 199 240 304 348
#     4  10  26  36  57  82 127 150 200 244 292 356
#     4  10  22  37  58  86 112 147 201 255 299 353
#     4  10  22  39  57  81 114 153 201 251 297 352
#     4  10  21  37  58  87 115 154 202 236 290 360
#     4  11  22  39  63  82 118 162 196 243 303 360
#     4   9  23  44  57  92 125 163 200 253 300 360
#
# _framework density 20.343468999999999
#
# number of rings (size 3 to 8) (size 9 to 14) (size 15 to 20)
#    0.500    1.333    0.000    3.750    7.000    2.667 
#    3.000    3.333    0.000    0.500    0.000    0.000 
#    0.000   10.667    0.000    0.000    0.000    6.333 
#
# Total GULP energy -267732.872816 kJ/mol
# GULP energy per Si atom -5577.768184 kJ/mol
# Density = 2.029717 g / cm^3
# Si number density = 20.343469 Si / 1000 Ang^3
#
#
#
# Elastic Constant Matrix: (Units=GPa)
#
#
# Indices 1 2 3 4 5 6 
#
# 1 79.5352 8.6731 45.3332 0.0000 0.0000 0.0000
# 2 8.6731 76.2515 16.0833 0.0000 0.0000 0.0000
# 3 45.3332 16.0833 161.2821 0.0000 0.0000 0.0000
# 4 0.0000 0.0000 0.0000 16.6367 0.0000 0.0000
# 5 0.0000 0.0000 0.0000 0.0000 38.4178 0.0000
# 6 0.0000 0.0000 0.0000 0.0000 0.0000 15.7621
#
#
#
# Elastic Compliance Matrix: (Units=1/GPa)
#
#
# Indices 1 2 3 4 5 6 
#
# 1 0.015024 -0.000836 -0.004139 0.000000 0.000000 0.000000
# 2 -0.000836 0.013443 -0.001106 0.000000 0.000000 0.000000
# 3 -0.004139 -0.001106 0.007474 0.000000 0.000000 0.000000
# 4 0.000000 0.000000 0.000000 0.060108 0.000000 0.000000
# 5 0.000000 0.000000 0.000000 0.000000 0.026030 0.000000
# 6 0.000000 0.000000 0.000000 0.000000 0.000000 0.063443
#
#
# Mechanical properties :
#
#
# Convention : Reuss Voigt Hill
#
# Bulk Modulus (GPa) = 42.05431 50.80533 46.42982
# Shear Modulus (GPa) = 24.31797 30.62862 27.47329
#
# Velocity S-wave (km/s) = 3.46116 3.88438 3.67886
# Velocity P-wave (km/s) = 6.05722 6.71907 6.39671
#
# Compressibility (1/GPa) = 0.02377878
#
# Stress axis : x y z
#
# Youngs Moduli (GPa) = 66.56203 74.38955 133.79535
#
# Poissons Ratio (x) = 0.06217 0.55384
# Poissons Ratio (y) = 0.05563 0.14793
# Poissons Ratio (z) = 0.27553 0.08225
#
# Static dielectric constant tensor:
#      x y z
#    x 1.802560 0.000000 0.000000 
#    y 0.000000 1.758250 0.000000 
#    z 0.000000 0.000000 1.777070 
# 
# From -- ./inp_files/37030.got.cif
#   From: 2010.05.17/outbox.cif.g08.bks.cpg/sg53_19_cif.got.tgz:37030.got - 2010.06.03 12:45:16.
