data_PCOD9418231
_publ_section_title
;
Structure prediction by ZEFSAII (Michael W. Deem and Ramdas Pophale) SiO2 
 PCOD9418231
Probable space group: P M N A
;
_chemical_formula_sum "Si O2"
_cell_formula_units_Z 40
_cell_length_a 18.170748
_cell_length_b 12.134532
_cell_length_c 8.238358
_cell_angle_alpha 90.000000
_cell_angle_beta 90.000000
_cell_angle_gamma 90.000000
_cell_volume 1816.504580
_symmetry_space_group_name_H-M "P M N A"
_symmetry_group_IT_number 53
_symmetry_cell_setting 'orthorhombic'
loop_
_space_group_symop_operation_xyz
x,y,z
1/2-x,-y,1/2+z
x,-y,-z
1/2-x,y,1/2-z
-x,-y,-z
1/2+x,y,1/2-z
-x,y,z
1/2+x,-y,1/2+z
loop_
_atom_site_type_symbol
_atom_site_label
_atom_site_fract_x
_atom_site_fract_y
_atom_site_fract_z
Si Si1 0.584850 0.464598 0.232112
Si Si2 0.689753 0.896412 0.108519
Si Si3 0.587289 0.897602 0.386086
Si Si4 0.637492 0.651665 0.441136
Si Si5 0.790151 0.327249 0.423875
O O1 0.500000 0.459101 0.182952
O O2 0.607748 0.588433 0.283297
O O3 0.596251 0.397671 0.401805
O O4 0.641671 0.406761 0.111016
O O5 0.750000 0.880538 0.250000
O O6 0.614690 0.920156 0.204511
O O7 0.684620 0.787452 0.000746
O O8 0.710722 0.000000 0.000000
O O9 0.500000 0.884417 0.395747
O O10 0.623670 0.781691 0.436700
O O11 0.608829 0.000000 0.500000
O O12 0.724233 0.628243 0.462762
O O13 0.750000 0.308404 0.250000
#
# Coordination Sequence:
#
# PCOD9418231 Si02
#       5
#     8   8   8   8   8
#     4  10  21  40  71 102 138 183 229 288 347 416
#     4  12  25  43  69  97 138 181 233 291 360 423
#     4  11  25  44  70 102 139 185 235 289 353 429
#     4  10  20  43  67 100 139 189 233 277 347 432
#     4  10  23  42  67 107 134 179 237 292 347 418
#
# _framework density 22.020312000000001
#
# number of rings (size 3 to 8) (size 9 to 14) (size 15 to 20)
#    0.000    1.400    2.000    3.600    5.600    1.200 
#   21.600    0.000    0.000    2.400    0.000    0.000 
#    0.000    0.000    0.000    0.000    0.000    0.000 
#
# Total GULP energy -223924.579186 kJ/mol
# GULP energy per Si atom -5598.114480 kJ/mol
# Density = 2.197019 g / cm^3
# Si number density = 22.020312 Si / 1000 Ang^3
#
#
#
# Elastic Constant Matrix: (Units=GPa)
#
#
# Indices 1 2 3 4 5 6 
#
# 1 173.2937 78.4442 48.2842 0.0000 0.0000 0.0000
# 2 78.4442 179.8471 66.1195 0.0000 0.0000 0.0000
# 3 48.2842 66.1195 98.0041 0.0000 0.0000 0.0000
# 4 0.0000 0.0000 0.0000 44.3498 0.0000 0.0000
# 5 0.0000 0.0000 0.0000 0.0000 25.5253 0.0000
# 6 0.0000 0.0000 0.0000 0.0000 0.0000 28.2755
#
#
#
# Elastic Compliance Matrix: (Units=1/GPa)
#
#
# Indices 1 2 3 4 5 6 
#
# 1 0.007466 -0.002532 -0.001970 0.000000 0.000000 0.000000
# 2 -0.002532 0.008253 -0.004321 0.000000 0.000000 0.000000
# 3 -0.001970 -0.004321 0.014089 0.000000 0.000000 0.000000
# 4 0.000000 0.000000 0.000000 0.022548 0.000000 0.000000
# 5 0.000000 0.000000 0.000000 0.000000 0.039177 0.000000
# 6 0.000000 0.000000 0.000000 0.000000 0.000000 0.035366
#
#
# Mechanical properties :
#
#
# Convention : Reuss Voigt Hill
#
# Bulk Modulus (GPa) = 82.21765 92.98228 87.59996
# Shear Modulus (GPa) = 33.64780 36.84991 35.24885
#
# Velocity S-wave (km/s) = 3.91325 4.09522 4.00527
# Velocity P-wave (km/s) = 7.60502 8.04229 7.82671
#
# Compressibility (1/GPa) = 0.01216284
#
# Stress axis : x y z
#
# Youngs Moduli (GPa) = 133.94804 121.16615 70.97713
#
# Poissons Ratio (x) = 0.30680 0.13981
# Poissons Ratio (y) = 0.33917 0.30666
# Poissons Ratio (z) = 0.26385 0.52351
#
# Static dielectric constant tensor:
#      x y z
#    x 1.810150 0.000000 0.000000 
#    y 0.000000 1.791800 0.000000 
#    z 0.000000 0.000000 1.843580 
# 
# From -- ./inp_files/9639.got.cif
#   From: 2010.05.17/outbox.cif.g08.bks.cpg/sg53_5_cif.got.tgz:9639.got - 2010.06.03 12:45:16.
