data_PCOD9418957
_publ_section_title
;
Structure prediction by ZEFSAII (Michael W. Deem and Ramdas Pophale) SiO2 
 PCOD9418957
Probable space group: P M N A
;
_chemical_formula_sum "Si O2"
_cell_formula_units_Z 40
_cell_length_a 16.139793
_cell_length_b 12.986837
_cell_length_c 9.023937
_cell_angle_alpha 90.000000
_cell_angle_beta 90.000000
_cell_angle_gamma 90.000000
_cell_volume 1891.461060
_symmetry_space_group_name_H-M "P M N A"
_symmetry_group_IT_number 53
_symmetry_cell_setting 'orthorhombic'
loop_
_space_group_symop_operation_xyz
x,y,z
1/2-x,-y,1/2+z
x,-y,-z
1/2-x,y,1/2-z
-x,-y,-z
1/2+x,y,1/2-z
-x,y,z
1/2+x,-y,1/2+z
loop_
_atom_site_type_symbol
_atom_site_label
_atom_site_fract_x
_atom_site_fract_y
_atom_site_fract_z
Si Si1 0.261026 0.112038 0.070896
Si Si2 0.900670 0.399575 0.145661
Si Si3 0.683083 0.293134 0.615345
Si Si4 0.405841 0.598404 0.172690
Si Si5 0.596241 0.263134 0.079185
O O1 0.250000 0.110849 0.250000
O O2 0.351033 0.163014 0.048263
O O3 0.203169 0.189794 0.974717
O O4 0.253995 0.000000 0.000000
O O5 0.873472 0.498705 0.241468
O O6 0.896770 0.301330 0.253319
O O7 0.000000 0.411604 0.104807
O O8 0.838202 0.376282 0.012341
O O9 0.750000 0.310758 0.750000
O O10 0.600652 0.304909 0.715238
O O11 0.500000 0.569715 0.140638
O O12 0.369933 0.641786 0.020325
O O13 0.500000 0.249415 0.043645
#
# Coordination Sequence:
#
# PCOD9418957 Si02
#       5
#     8   8   8   8   8
#     4  12  26  47  70  91 126 168 217 279 346 392
#     4  10  21  41  66  96 137 181 218 258 318 386
#     4  12  23  40  61  96 132 176 220 266 319 380
#     4  10  21  40  66  96 135 179 216 257 315 388
#     4  10  21  42  70  98 130 169 220 269 321 393
#
# _framework density 21.147673000000001
#
# number of rings (size 3 to 8) (size 9 to 14) (size 15 to 20)
#    0.000    1.200    4.000    2.400    0.000    4.400 
#    7.200    0.000    0.000    3.000    0.000    0.000 
#    0.000    0.000    0.000    0.000    0.000    0.000 
#
# Total GULP energy -222746.844538 kJ/mol
# GULP energy per Si atom -5568.671113 kJ/mol
# Density = 2.109954 g / cm^3
# Si number density = 21.147673 Si / 1000 Ang^3
#
#
#
# Elastic Constant Matrix: (Units=GPa)
#
#
# Indices 1 2 3 4 5 6 
#
# 1 57.2934 53.4278 49.0087 0.0000 0.0000 0.0000
# 2 53.4278 121.0535 69.6630 0.0000 0.0000 0.0000
# 3 49.0087 69.6630 153.3742 0.0000 0.0000 0.0000
# 4 0.0000 0.0000 0.0000 43.6384 0.0000 0.0000
# 5 0.0000 0.0000 0.0000 0.0000 27.4519 0.0000
# 6 0.0000 0.0000 0.0000 0.0000 0.0000 24.7941
#
#
#
# Elastic Compliance Matrix: (Units=1/GPa)
#
#
# Indices 1 2 3 4 5 6 
#
# 1 0.032501 -0.011329 -0.005239 0.000000 0.000000 0.000000
# 2 -0.011329 0.015133 -0.003253 0.000000 0.000000 0.000000
# 3 -0.005239 -0.003253 0.009672 0.000000 0.000000 0.000000
# 4 0.000000 0.000000 0.000000 0.022916 0.000000 0.000000
# 5 0.000000 0.000000 0.000000 0.000000 0.036427 0.000000
# 6 0.000000 0.000000 0.000000 0.000000 0.000000 0.040332
#
#
# Mechanical properties :
#
#
# Convention : Reuss Voigt Hill
#
# Bulk Modulus (GPa) = 56.61982 75.10223 65.86102
# Shear Modulus (GPa) = 24.68982 29.81831 27.25406
#
# Velocity S-wave (km/s) = 3.42057 3.75908 3.59381
# Velocity P-wave (km/s) = 6.51399 7.37775 6.95928
#
# Compressibility (1/GPa) = 0.01766166
#
# Stress axis : x y z
#
# Youngs Moduli (GPa) = 30.76861 66.07914 103.39204
#
# Poissons Ratio (x) = 0.74863 0.54171
# Poissons Ratio (y) = 0.34859 0.33639
# Poissons Ratio (z) = 0.16121 0.21499
#
# Static dielectric constant tensor:
#      x y z
#    x 1.838490 0.000000 0.000000 
#    y 0.000000 1.747400 0.000000 
#    z 0.000000 0.000000 1.851020 
# 
# From -- ./inp_files/9648.got.cif
#   From: 2010.05.17/outbox.cif.g08.bks.cpg/sg53_5_cif.got.tgz:9648.got - 2010.06.03 12:45:16.
