data_PCOD9418153
_publ_section_title
;
Structure prediction by ZEFSAII (Michael W. Deem and Ramdas Pophale) SiO2 
 PCOD9418153
Probable space group: P M N A
;
_chemical_formula_sum "Si O2"
_cell_formula_units_Z 20
_cell_length_a 10.062498
_cell_length_b 7.003841
_cell_length_c 14.098398
_cell_angle_alpha 90.000000
_cell_angle_beta 90.000000
_cell_angle_gamma 90.000000
_cell_volume 993.600616
_symmetry_space_group_name_H-M "P M N A"
_symmetry_group_IT_number 53
_symmetry_cell_setting 'orthorhombic'
loop_
_space_group_symop_operation_xyz
x,y,z
1/2-x,-y,1/2+z
x,-y,-z
1/2-x,y,1/2-z
-x,-y,-z
1/2+x,y,1/2-z
-x,y,z
1/2+x,-y,1/2+z
loop_
_atom_site_type_symbol
_atom_site_label
_atom_site_fract_x
_atom_site_fract_y
_atom_site_fract_z
Si Si1 0.705654 0.423989 0.391209
Si Si2 0.500000 0.088771 0.394987
Si Si3 0.000000 0.699184 0.211684
Si Si4 0.500000 0.481285 0.112827
O O1 0.702251 0.500000 0.500000
O O2 0.625044 0.228669 0.384288
O O3 0.626778 0.585066 0.331692
O O4 0.858319 0.389539 0.362296
O O5 0.500000 0.000000 0.500000
O O6 0.500000 0.914612 0.322542
O O7 0.000000 0.674052 0.324881
O O8 0.500000 0.500000 0.000000
#
# Coordination Sequence:
#
# PCOD9418153 Si02
#       4
#     8   4   4   4
#     4  10  20  39  65  94 130 168 210 270 328 389
#     4  11  19  37  71  99 119 160 222 267 319 390
#     4  11  20  39  67  92 124 167 221 262 319 390
#     4  10  23  41  62  88 132 178 210 261 334 384
#
# _framework density 20.128812
#
# number of rings (size 3 to 8) (size 9 to 14) (size 15 to 20)
#    0.000    1.600    4.000    2.400    0.000    0.000 
#    0.000   19.000    0.000    0.000    0.000    0.000 
#    0.000    0.000    0.000    0.000    0.000    0.000 
#
# Total GULP energy -111638.884847 kJ/mol
# GULP energy per Si atom -5581.944242 kJ/mol
# Density = 2.008300 g / cm^3
# Si number density = 20.128812 Si / 1000 Ang^3
#
#
#
# Elastic Constant Matrix: (Units=GPa)
#
#
# Indices 1 2 3 4 5 6 
#
# 1 218.4342 80.6878 18.9472 0.0000 0.0000 0.0000
# 2 80.6878 166.1139 48.1494 0.0000 0.0000 0.0000
# 3 18.9472 48.1494 114.4857 0.0000 0.0000 0.0000
# 4 0.0000 0.0000 0.0000 35.1034 0.0000 0.0000
# 5 0.0000 0.0000 0.0000 0.0000 10.1051 0.0000
# 6 0.0000 0.0000 0.0000 0.0000 0.0000 1.1958
#
#
#
# Elastic Compliance Matrix: (Units=1/GPa)
#
#
# Indices 1 2 3 4 5 6 
#
# 1 0.005585 -0.002784 0.000247 0.000000 0.000000 0.000000
# 2 -0.002784 0.008244 -0.003006 0.000000 0.000000 0.000000
# 3 0.000247 -0.003006 0.009958 0.000000 0.000000 0.000000
# 4 0.000000 0.000000 0.000000 0.028487 0.000000 0.000000
# 5 0.000000 0.000000 0.000000 0.000000 0.098960 0.000000
# 6 0.000000 0.000000 0.000000 0.000000 0.000000 0.836228
#
#
# Mechanical properties :
#
#
# Convention : Reuss Voigt Hill
#
# Bulk Modulus (GPa) = 78.74494 88.28918 83.51706
# Shear Modulus (GPa) = 4.98612 32.69748 18.84180
#
# Velocity S-wave (km/s) = 1.57559 4.03477 3.06283
# Velocity P-wave (km/s) = 6.52038 8.10328 7.35454
#
# Compressibility (1/GPa) = 0.01269923
#
# Stress axis : x y z
#
# Youngs Moduli (GPa) = 179.04492 121.30201 100.41920
#
# Poissons Ratio (x) = 0.33776 -0.02478
# Poissons Ratio (y) = 0.49854 0.30189
# Poissons Ratio (z) = -0.04417 0.36467
#
# Static dielectric constant tensor:
#      x y z
#    x 1.754550 0.000000 0.000000 
#    y 0.000000 1.632310 0.000000 
#    z 0.000000 0.000000 1.766090 
# 
# From -- ./inp_files/21125.got.cif
#   From: 2010.05.17/outbox.cif.g08.bks.cpg/sg53_11_cif.got.tgz:21125.got - 2010.06.03 12:45:16.
