data_PCOD9418466
_publ_section_title
;
Structure prediction by ZEFSAII (Michael W. Deem and Ramdas Pophale) SiO2 
 PCOD9418466
Probable space group: P M N A
;
_chemical_formula_sum "Si O2"
_cell_formula_units_Z 64
_cell_length_a 24.827299
_cell_length_b 24.841996
_cell_length_c 5.251941
_cell_angle_alpha 90.000000
_cell_angle_beta 90.000000
_cell_angle_gamma 90.000000
_cell_volume 3239.185358
_symmetry_space_group_name_H-M "P M N A"
_symmetry_group_IT_number 53
_symmetry_cell_setting 'orthorhombic'
loop_
_space_group_symop_operation_xyz
x,y,z
1/2-x,-y,1/2+z
x,-y,-z
1/2-x,y,1/2-z
-x,-y,-z
1/2+x,y,1/2-z
-x,y,z
1/2+x,-y,1/2+z
loop_
_atom_site_type_symbol
_atom_site_label
_atom_site_fract_x
_atom_site_fract_y
_atom_site_fract_z
Si Si1 0.936507 0.815904 0.988787
Si Si2 0.285532 0.063672 0.999341
Si Si3 0.199331 0.244979 0.623355
Si Si4 0.126617 0.559087 0.458839
Si Si5 0.114055 0.297685 0.010871
Si Si6 0.436627 0.410314 0.477091
Si Si7 0.799575 0.351223 0.389584
Si Si8 0.374397 0.152923 0.009033
O O1 0.922382 0.753595 0.920814
O O2 0.914182 0.848567 0.747541
O O3 0.000000 0.821854 0.023976
O O4 0.905422 0.833745 0.245955
O O5 0.250000 0.074721 0.750000
O O6 0.338638 0.099783 0.991659
O O7 0.250000 0.075696 0.250000
O O8 0.298354 0.000000 0.000000
O O9 0.250000 0.215074 0.750000
O O10 0.226442 0.297533 0.503467
O O11 0.167796 0.202588 0.450109
O O12 0.153776 0.272635 0.799185
O O13 0.150595 0.500000 0.500000
O O14 0.092039 0.575026 0.709889
O O15 0.171245 0.605895 0.430055
O O16 0.089551 0.557161 0.209672
O O17 0.075968 0.348062 0.945658
O O18 0.153514 0.324258 0.219200
O O19 0.500000 0.419149 0.456111
O O20 0.750000 0.379815 0.250000
#
# Coordination Sequence:
#
# PCOD9418466 Si02
#       8
#     8   8   8   8   8   8   8   8
#     4  11  23  39  60  87 126 167 208 256 306 359
#     4  10  21  39  64  95 132 171 209 254 310 367
#     4  11  20  34  57  87 120 153 189 236 300 360
#     4  11  25  43  61  86 116 148 196 243 290 359
#     4  10  21  37  55  87 120 152 196 238 297 364
#     4  11  23  40  65  87 112 149 192 246 303 353
#     4  11  21  38  59  84 116 153 188 235 295 361
#     4  11  23  38  61  93 126 163 207 255 303 362
#
# _framework density 19.758054000000001
#
# number of rings (size 3 to 8) (size 9 to 14) (size 15 to 20)
#    0.000    1.250    3.750    2.625    0.000    3.000 
#    0.000    6.875    0.000    2.250    0.000    0.000 
#    0.000    0.000    0.000    0.000    0.000    0.000 
#
# Total GULP energy -357099.412253 kJ/mol
# GULP energy per Si atom -5579.678316 kJ/mol
# Density = 1.971308 g / cm^3
# Si number density = 19.758054 Si / 1000 Ang^3
#
#
#
# Elastic Constant Matrix: (Units=GPa)
#
#
# Indices 1 2 3 4 5 6 
#
# 1 91.0889 32.8942 20.4803 0.0000 0.0000 0.0000
# 2 32.8942 77.7622 12.0373 0.0000 0.0000 0.0000
# 3 20.4803 12.0373 86.8777 0.0000 0.0000 0.0000
# 4 0.0000 0.0000 0.0000 -40.6436 0.0000 0.0000
# 5 0.0000 0.0000 0.0000 0.0000 26.8908 0.0000
# 6 0.0000 0.0000 0.0000 0.0000 0.0000 11.3999
#
#
#
# Elastic Compliance Matrix: (Units=1/GPa)
#
#
# Indices 1 2 3 4 5 6 
#
# 1 0.013443 -0.005310 -0.002433 0.000000 0.000000 0.000000
# 2 -0.005310 0.015239 -0.000860 0.000000 0.000000 0.000000
# 3 -0.002433 -0.000860 0.012203 0.000000 0.000000 0.000000
# 4 0.000000 0.000000 0.000000 -0.024604 0.000000 0.000000
# 5 0.000000 0.000000 0.000000 0.000000 0.037187 0.000000
# 6 0.000000 0.000000 0.000000 0.000000 0.000000 0.087720
#
#
# Mechanical properties :
#
#
# Convention : Reuss Voigt Hill
#
# Bulk Modulus (GPa) = 42.23088 42.95026 42.59057
# Shear Modulus (GPa) = 30.06848 12.21722 21.14285
#
# Velocity S-wave (km/s) = 3.90530 2.48934 3.27477
# Velocity P-wave (km/s) = 6.46186 5.48158 5.99180
#
# Compressibility (1/GPa) = 0.02367935
#
# Stress axis : x y z
#
# Youngs Moduli (GPa) = 74.38892 65.62157 81.94593
#
# Poissons Ratio (x) = 0.34844 0.19940
# Poissons Ratio (y) = 0.39499 0.07045
# Poissons Ratio (z) = 0.18101 0.05641
#
# Static dielectric constant tensor:
#      x y z
#    x 1.680910 0.000000 0.000000 
#    y 0.000000 1.702300 0.000000 
#    z 0.000000 0.000000 1.733490 
# 
# From -- ./inp_files/3873.got.cif
#   From: 2010.05.17/outbox.cif.g08.bks.cpg/sg53_2_cif.got.tgz:3873.got - 2010.06.03 12:45:16.
