data_PCOD9418788
_publ_section_title
;
Structure prediction by ZEFSAII (Michael W. Deem and Ramdas Pophale) SiO2 
 PCOD9418788
Probable space group: P M N A
;
_chemical_formula_sum "Si O2"
_cell_formula_units_Z 40
_cell_length_a 18.801654
_cell_length_b 12.729827
_cell_length_c 8.226521
_cell_angle_alpha 90.000000
_cell_angle_beta 90.000000
_cell_angle_gamma 90.000000
_cell_volume 1968.950366
_symmetry_space_group_name_H-M "P M N A"
_symmetry_group_IT_number 53
_symmetry_cell_setting 'orthorhombic'
loop_
_space_group_symop_operation_xyz
x,y,z
1/2-x,-y,1/2+z
x,-y,-z
1/2-x,y,1/2-z
-x,-y,-z
1/2+x,y,1/2-z
-x,y,z
1/2+x,-y,1/2+z
loop_
_atom_site_type_symbol
_atom_site_label
_atom_site_fract_x
_atom_site_fract_y
_atom_site_fract_z
Si Si1 0.081222 0.755511 0.720113
Si Si2 0.301413 0.401673 0.090608
Si Si3 0.705101 0.263515 0.610892
Si Si4 0.181380 0.916700 0.858164
Si Si5 0.420774 0.382862 0.550757
O O1 0.139768 0.687596 0.623676
O O2 0.115118 0.871126 0.753963
O O3 0.000000 0.761514 0.656747
O O4 0.076443 0.688294 0.888215
O O5 0.250000 0.417351 0.250000
O O6 0.337248 0.500000 0.000000
O O7 0.248056 0.362590 0.952423
O O8 0.750000 0.209546 0.750000
O O9 0.702445 0.186592 0.459345
O O10 0.630328 0.313300 0.663007
O O11 0.250000 0.947831 0.750000
O O12 0.163062 0.000000 0.000000
O O13 0.395738 0.500000 0.500000
O O14 0.500000 0.395862 0.617768
#
# Coordination Sequence:
#
# PCOD9418788 Si02
#       5
#     8   8   8   8   8
#     4  10  21  39  59  86 128 166 203 254 311 373
#     4  12  22  37  59  90 126 165 210 256 310 369
#     4  11  21  35  58  90 119 157 203 258 309 368
#     4  11  21  41  66  93 118 157 209 267 317 364
#     4   9  18  33  53  78 115 160 200 239 293 365
#
# _framework density 20.315394000000001
#
# number of rings (size 3 to 8) (size 9 to 14) (size 15 to 20)
#    0.000    1.400    6.000    1.800    2.800    0.800 
#    0.000    1.000    0.000    0.600    0.000    0.000 
#    0.000    0.000    0.000    0.000    0.000    0.000 
#
# Total GULP energy -222705.812346 kJ/mol
# GULP energy per Si atom -5567.645309 kJ/mol
# Density = 2.026916 g / cm^3
# Si number density = 20.315394 Si / 1000 Ang^3
#
#
#
# Elastic Constant Matrix: (Units=GPa)
#
#
# Indices 1 2 3 4 5 6 
#
# 1 125.6863 37.1918 26.6324 0.0000 0.0000 0.0000
# 2 37.1918 80.3087 4.8560 0.0000 0.0000 0.0000
# 3 26.6324 4.8560 34.8748 0.0000 0.0000 0.0000
# 4 0.0000 0.0000 0.0000 35.7551 0.0000 0.0000
# 5 0.0000 0.0000 0.0000 0.0000 14.6109 0.0000
# 6 0.0000 0.0000 0.0000 0.0000 0.0000 12.4888
#
#
#
# Elastic Compliance Matrix: (Units=1/GPa)
#
#
# Indices 1 2 3 4 5 6 
#
# 1 0.010957 -0.004607 -0.007726 0.000000 0.000000 0.000000
# 2 -0.004607 0.014495 0.001500 0.000000 0.000000 0.000000
# 3 -0.007726 0.001500 0.034365 0.000000 0.000000 0.000000
# 4 0.000000 0.000000 0.000000 0.027968 0.000000 0.000000
# 5 0.000000 0.000000 0.000000 0.000000 0.068442 0.000000
# 6 0.000000 0.000000 0.000000 0.000000 0.000000 0.080072
#
#
# Mechanical properties :
#
#
# Convention : Reuss Voigt Hill
#
# Bulk Modulus (GPa) = 26.21176 42.02558 34.11867
# Shear Modulus (GPa) = 18.47197 24.05027 21.26112
#
# Velocity S-wave (km/s) = 3.01866 3.44444 3.23856
# Velocity P-wave (km/s) = 5.00801 6.04569 5.55115
#
# Compressibility (1/GPa) = 0.03815081
#
# Stress axis : x y z
#
# Youngs Moduli (GPa) = 91.26944 68.99035 29.09953
#
# Poissons Ratio (x) = 0.31784 0.22481
# Poissons Ratio (y) = 0.42047 -0.04364
# Poissons Ratio (z) = 0.70511 -0.10347
#
# Static dielectric constant tensor:
#      x y z
#    x 1.824670 0.000000 0.000000 
#    y 0.000000 1.779880 0.000000 
#    z 0.000000 0.000000 1.772130 
# 
# From -- ./inp_files/9618.got.cif
#   From: 2010.05.17/outbox.cif.g08.bks.cpg/sg53_5_cif.got.tgz:9618.got - 2010.06.03 12:45:16.
