data_PCOD9418562
_publ_section_title
;
Structure prediction by ZEFSAII (Michael W. Deem and Ramdas Pophale) SiO2 
 PCOD9418562
Probable space group: P M N A
;
_chemical_formula_sum "Si O2"
_cell_formula_units_Z 56
_cell_length_a 9.109257
_cell_length_b 17.333252
_cell_length_c 20.171472
_cell_angle_alpha 90.000000
_cell_angle_beta 90.000000
_cell_angle_gamma 90.000000
_cell_volume 3184.935179
_symmetry_space_group_name_H-M "P M N A"
_symmetry_group_IT_number 53
_symmetry_cell_setting 'orthorhombic'
loop_
_space_group_symop_operation_xyz
x,y,z
1/2-x,-y,1/2+z
x,-y,-z
1/2-x,y,1/2-z
-x,-y,-z
1/2+x,y,1/2-z
-x,y,z
1/2+x,-y,1/2+z
loop_
_atom_site_type_symbol
_atom_site_label
_atom_site_fract_x
_atom_site_fract_y
_atom_site_fract_z
Si Si1 0.825230 0.885824 0.049421
Si Si2 0.176018 0.722765 0.435801
Si Si3 0.674361 0.374241 0.680194
Si Si4 0.673371 0.557647 0.680442
Si Si5 0.674353 0.051862 0.400310
Si Si6 0.675395 0.324112 0.085153
Si Si7 0.174540 0.180633 0.319351
O O1 0.734437 0.810252 0.066549
O O2 0.000000 0.871245 0.056537
O O3 0.788035 0.961595 0.092543
O O4 0.800055 0.910411 0.972876
O O5 0.251787 0.672854 0.378870
O O6 0.214406 0.689177 0.508565
O O7 0.000000 0.721149 0.429118
O O8 0.750000 0.353897 0.750000
O O9 0.500000 0.359878 0.683089
O O10 0.696472 0.466183 0.670209
O O11 0.750000 0.579376 0.750000
O O12 0.500000 0.572190 0.685684
O O13 0.741885 0.606384 0.620940
O O14 0.500000 0.057775 0.386976
O O15 0.763900 0.100136 0.347091
O O16 0.500000 0.336902 0.089185
O O17 0.709118 0.246649 0.126692
O O18 0.250000 0.199954 0.250000
O O19 0.000000 0.177230 0.311284
#
# Coordination Sequence:
#
# PCOD9418562 Si02
#       7
#     8   8   8   8   8   8   8
#     4   9  18  34  57  83 111 143 183 229 277 331
#     4  11  22  37  58  87 118 149 187 233 282 335
#     4  10  22  41  62  85 111 145 187 233 287 343
#     4  10  21  37  59  83 111 149 192 234 281 337
#     4   9  18  34  56  81 108 144 186 228 277 331
#     4  10  22  37  54  82 117 151 191 231 278 335
#     4  11  22  36  53  79 115 154 193 235 282 335
#
# _framework density 17.582775000000002
#
# number of rings (size 3 to 8) (size 9 to 14) (size 15 to 20)
#    0.000    2.000    1.429    3.000    0.000    6.286 
#    0.000    5.000    0.000    3.429    0.000    0.000 
#    0.000    0.000    0.000    0.000    0.000    0.000 
#
# Total GULP energy -312733.455847 kJ/mol
# GULP energy per Si atom -5584.525997 kJ/mol
# Density = 1.754276 g / cm^3
# Si number density = 17.582775 Si / 1000 Ang^3
#
#
#
# Elastic Constant Matrix: (Units=GPa)
#
#
# Indices 1 2 3 4 5 6 
#
# 1 74.7731 73.3260 80.2875 0.0000 0.0000 0.0000
# 2 73.3260 99.5834 83.9652 0.0000 0.0000 0.0000
# 3 80.2875 83.9652 145.5449 0.0000 0.0000 0.0000
# 4 0.0000 0.0000 0.0000 22.1960 0.0000 0.0000
# 5 0.0000 0.0000 0.0000 0.0000 30.2421 0.0000
# 6 0.0000 0.0000 0.0000 0.0000 0.0000 29.9032
#
#
#
# Elastic Compliance Matrix: (Units=1/GPa)
#
#
# Indices 1 2 3 4 5 6 
#
# 1 0.061647 -0.032554 -0.015226 0.000000 0.000000 0.000000
# 2 -0.032554 0.036744 -0.003240 0.000000 0.000000 0.000000
# 3 -0.015226 -0.003240 0.017139 0.000000 0.000000 0.000000
# 4 0.000000 0.000000 0.000000 0.045053 0.000000 0.000000
# 5 0.000000 0.000000 0.000000 0.000000 0.033066 0.000000
# 6 0.000000 0.000000 0.000000 0.000000 0.000000 0.033441
#
#
# Mechanical properties :
#
#
# Convention : Reuss Voigt Hill
#
# Bulk Modulus (GPa) = 74.12889 88.33985 81.23437
# Shear Modulus (GPa) = 14.98683 21.95644 18.47163
#
# Velocity S-wave (km/s) = 2.92269 3.53760 3.24474
# Velocity P-wave (km/s) = 7.32400 8.18764 7.76783
#
# Compressibility (1/GPa) = 0.01349002
#
# Stress axis : x y z
#
# Youngs Moduli (GPa) = 16.22149 27.21527 58.34754
#
# Poissons Ratio (x) = 0.88598 0.88838
# Poissons Ratio (y) = 0.52808 0.18903
# Poissons Ratio (z) = 0.24698 0.08817
#
# Static dielectric constant tensor:
#      x y z
#    x 1.581200 0.000000 0.000000 
#    y 0.000000 1.586460 0.000000 
#    z 0.000000 0.000000 1.575220 
# 
# From -- ./inp_files/30797.got.cif
#   From: 2010.05.17/outbox.cif.g08.bks.cpg/sg53_16_cif.got.tgz:30797.got - 2010.06.03 12:45:16.
