data_PCOD9418298
_publ_section_title
;
Structure prediction by ZEFSAII (Michael W. Deem and Ramdas Pophale) SiO2 
 PCOD9418298
Probable space group: P M N A
;
_chemical_formula_sum "Si O2"
_cell_formula_units_Z 48
_cell_length_a 9.754131
_cell_length_b 13.465753
_cell_length_c 19.221969
_cell_angle_alpha 90.000000
_cell_angle_beta 90.000000
_cell_angle_gamma 90.000000
_cell_volume 2524.742557
_symmetry_space_group_name_H-M "P M N A"
_symmetry_group_IT_number 53
_symmetry_cell_setting 'orthorhombic'
loop_
_space_group_symop_operation_xyz
x,y,z
1/2-x,-y,1/2+z
x,-y,-z
1/2-x,y,1/2-z
-x,-y,-z
1/2+x,y,1/2-z
-x,y,z
1/2+x,-y,1/2+z
loop_
_atom_site_type_symbol
_atom_site_label
_atom_site_fract_x
_atom_site_fract_y
_atom_site_fract_z
Si Si1 0.348548 0.571155 0.809284
Si Si2 0.335281 0.890163 0.412282
Si Si3 0.163996 0.705545 0.179247
Si Si4 0.343518 0.511364 0.416819
Si Si5 0.164722 0.880671 0.926575
Si Si6 0.846211 0.804580 0.690145
O O1 0.250000 0.528475 0.750000
O O2 0.500000 0.526121 0.808193
O O3 0.270802 0.555833 0.881179
O O4 0.361645 0.687839 0.794867
O O5 0.500000 0.887015 0.408925
O O6 0.287572 0.808656 0.357218
O O7 0.301984 0.865159 0.492400
O O8 0.299693 0.006022 0.404271
O O9 0.250000 0.690231 0.250000
O O10 0.177758 0.619241 0.119886
O O11 0.000000 0.710744 0.194735
O O12 0.333490 0.500000 0.500000
O O13 0.500000 0.480834 0.397953
O O14 0.259426 0.813072 0.879739
O O15 0.000000 0.866050 0.917060
O O16 0.750000 0.850006 0.750000
O O17 0.000000 0.847152 0.686846
#
# Coordination Sequence:
#
# PCOD9418298 Si02
#       6
#     8   8   8   8   8   8
#     4  10  21  37  56  78 109 146 182 225 275 331
#     4   8  17  34  56  82 109 144 185 223 274 332
#     4  10  21  38  57  81 114 148 186 229 275 334
#     4  10  22  37  57  85 111 142 185 232 282 335
#     4   9  17  33  58  82 108 144 184 229 276 325
#     4  10  21  35  52  79 110 143 181 223 275 328
#
# _framework density 19.011838999999998
#
# number of rings (size 3 to 8) (size 9 to 14) (size 15 to 20)
#    0.000    2.500    0.000    2.500    2.333    5.000 
#    0.000    5.000    0.000    0.000    0.000    0.000 
#    0.000    0.000    0.000    0.000    0.000    0.000 
#
# Total GULP energy -267353.153596 kJ/mol
# GULP energy per Si atom -5569.857367 kJ/mol
# Density = 1.896857 g / cm^3
# Si number density = 19.011839 Si / 1000 Ang^3
#
#
#
# Elastic Constant Matrix: (Units=GPa)
#
#
# Indices 1 2 3 4 5 6 
#
# 1 118.5566 24.0718 59.0582 0.0000 0.0000 0.0000
# 2 24.0718 45.7306 35.8544 0.0000 0.0000 0.0000
# 3 59.0582 35.8544 91.4479 0.0000 0.0000 0.0000
# 4 0.0000 0.0000 0.0000 9.3570 0.0000 0.0000
# 5 0.0000 0.0000 0.0000 0.0000 24.4085 0.0000
# 6 0.0000 0.0000 0.0000 0.0000 0.0000 10.7458
#
#
#
# Elastic Compliance Matrix: (Units=1/GPa)
#
#
# Indices 1 2 3 4 5 6 
#
# 1 0.012439 -0.000360 -0.007892 0.000000 0.000000 0.000000
# 2 -0.000360 0.031583 -0.012150 0.000000 0.000000 0.000000
# 3 -0.007892 -0.012150 0.020796 0.000000 0.000000 0.000000
# 4 0.000000 0.000000 0.000000 0.106872 0.000000 0.000000
# 5 0.000000 0.000000 0.000000 0.000000 0.040969 0.000000
# 6 0.000000 0.000000 0.000000 0.000000 0.000000 0.093060
#
#
# Mechanical properties :
#
#
# Convention : Reuss Voigt Hill
#
# Bulk Modulus (GPa) = 41.64425 54.85600 48.25013
# Shear Modulus (GPa) = 14.10321 18.01897 16.06109
#
# Velocity S-wave (km/s) = 2.72658 3.08194 2.90969
# Velocity P-wave (km/s) = 5.64484 6.44831 6.05991
#
# Compressibility (1/GPa) = 0.02401292
#
# Stress axis : x y z
#
# Youngs Moduli (GPa) = 80.38944 31.66253 48.08589
#
# Poissons Ratio (x) = 0.01140 0.37951
# Poissons Ratio (y) = 0.02894 0.58427
# Poissons Ratio (z) = 0.63447 0.38471
#
# Static dielectric constant tensor:
#      x y z
#    x 1.668050 0.000000 0.000000 
#    y 0.000000 1.729350 0.000000 
#    z 0.000000 0.000000 1.693580 
# 
# From -- ./inp_files/26268.got.cif
#   From: 2010.05.17/outbox.cif.g08.bks.cpg/sg53_14_cif.got.tgz:26268.got - 2010.06.03 12:45:16.
