data_PCOD9418891
_publ_section_title
;
Structure prediction by ZEFSAII (Michael W. Deem and Ramdas Pophale) SiO2 
 PCOD9418891
Probable space group: P M N A
;
_chemical_formula_sum "Si O2"
_cell_formula_units_Z 32
_cell_length_a 13.763547
_cell_length_b 10.225673
_cell_length_c 9.641749
_cell_angle_alpha 90.000000
_cell_angle_beta 90.000000
_cell_angle_gamma 90.000000
_cell_volume 1356.994515
_symmetry_space_group_name_H-M "P M N A"
_symmetry_group_IT_number 53
_symmetry_cell_setting 'orthorhombic'
loop_
_space_group_symop_operation_xyz
x,y,z
1/2-x,-y,1/2+z
x,-y,-z
1/2-x,y,1/2-z
-x,-y,-z
1/2+x,y,1/2-z
-x,y,z
1/2+x,-y,1/2+z
loop_
_atom_site_type_symbol
_atom_site_label
_atom_site_fract_x
_atom_site_fract_y
_atom_site_fract_z
Si Si1 0.175319 0.126820 0.428361
Si Si2 0.392121 0.853401 0.629238
Si Si3 0.887471 0.385372 0.912139
Si Si4 0.884861 0.369416 0.593134
O O1 0.119658 0.179778 0.292050
O O2 0.285892 0.083394 0.391674
O O3 0.174772 0.249273 0.530322
O O4 0.128227 0.000000 0.500000
O O5 0.500000 0.916475 0.618745
O O6 0.390547 0.739734 0.513452
O O7 0.854613 0.379220 0.753879
O O8 0.000000 0.423854 0.890577
O O9 0.838086 0.500000 0.000000
O O10 0.875312 0.500000 0.500000
O O11 0.000000 0.334400 0.588907
#
# Coordination Sequence:
#
# PCOD9418891 Si02
#       4
#     8   8   8   8
#     4  11  25  43  66  98 133 172 221 274 331 397
#     4  10  23  43  65  91 130 177 221 270 331 397
#     4   9  18  35  62  95 130 170 216 267 326 391
#     4  10  21  39  67 102 137 174 219 273 333 394
#
# _framework density 23.581527000000001
#
# number of rings (size 3 to 8) (size 9 to 14) (size 15 to 20)
#    0.000    2.000    0.000    2.250    0.000   12.500 
#    0.000    2.500    0.000    0.000    0.000    0.000 
#    0.000    0.000    0.000    0.000    0.000    0.000 
#
# Total GULP energy -178258.428775 kJ/mol
# GULP energy per Si atom -5570.575899 kJ/mol
# Density = 2.352785 g / cm^3
# Si number density = 23.581527 Si / 1000 Ang^3
#
#
#
# Elastic Constant Matrix: (Units=GPa)
#
#
# Indices 1 2 3 4 5 6 
#
# 1 167.6382 -13.0114 16.0244 0.0000 0.0000 0.0000
# 2 -13.0114 61.2511 67.2687 0.0000 0.0000 0.0000
# 3 16.0244 67.2687 248.7593 0.0000 0.0000 0.0000
# 4 0.0000 0.0000 0.0000 33.8993 0.0000 0.0000
# 5 0.0000 0.0000 0.0000 0.0000 19.5079 0.0000
# 6 0.0000 0.0000 0.0000 0.0000 0.0000 -1.0749
#
#
#
# Elastic Compliance Matrix: (Units=1/GPa)
#
#
# Indices 1 2 3 4 5 6 
#
# 1 0.006265 0.002523 -0.001086 0.000000 0.000000 0.000000
# 2 0.002523 0.024240 -0.006717 0.000000 0.000000 0.000000
# 3 -0.001086 -0.006717 0.005906 0.000000 0.000000 0.000000
# 4 0.000000 0.000000 0.000000 0.029499 0.000000 0.000000
# 5 0.000000 0.000000 0.000000 0.000000 0.051261 0.000000
# 6 0.000000 0.000000 0.000000 0.000000 0.000000 -0.930335
#
#
# Mechanical properties :
#
#
# Convention : Reuss Voigt Hill
#
# Bulk Modulus (GPa) = 38.68289 68.69022 53.68656
# Shear Modulus (GPa) = -6.29733 37.62427 15.66347
#
# Velocity S-wave (km/s) = -1.63592 3.99870 2.58005
# Velocity P-wave (km/s) = 3.58764 7.10715 5.62951
#
# Compressibility (1/GPa) = 0.02585122
#
# Stress axis : x y z
#
# Youngs Moduli (GPa) = 159.61953 41.25485 169.30827
#
# Poissons Ratio (x) = -0.10411 0.18386
# Poissons Ratio (y) = -0.40280 1.13730
# Poissons Ratio (z) = 0.17334 0.27712
#
# Static dielectric constant tensor:
#      x y z
#    x 1.963830 0.000000 0.000000 
#    y 0.000000 1.833300 0.000000 
#    z 0.000000 0.000000 1.929440 
# 
# From -- ./inp_files/8025.got.cif
#   From: 2010.05.17/outbox.cif.g08.bks.cpg/sg53_5_cif.got.tgz:8025.got - 2010.06.03 12:45:16.
