data_PCOD9418675
_publ_section_title
;
Structure prediction by ZEFSAII (Michael W. Deem and Ramdas Pophale) SiO2 
 PCOD9418675
Probable space group: P M N A
;
_chemical_formula_sum "Si O2"
_cell_formula_units_Z 32
_cell_length_a 16.589532
_cell_length_b 19.144928
_cell_length_c 5.084308
_cell_angle_alpha 90.000000
_cell_angle_beta 90.000000
_cell_angle_gamma 90.000000
_cell_volume 1614.803654
_symmetry_space_group_name_H-M "P M N A"
_symmetry_group_IT_number 53
_symmetry_cell_setting 'orthorhombic'
loop_
_space_group_symop_operation_xyz
x,y,z
1/2-x,-y,1/2+z
x,-y,-z
1/2-x,y,1/2-z
-x,-y,-z
1/2+x,y,1/2-z
-x,y,z
1/2+x,-y,1/2+z
loop_
_atom_site_type_symbol
_atom_site_label
_atom_site_fract_x
_atom_site_fract_y
_atom_site_fract_z
Si Si1 0.658573 0.723700 0.147366
Si Si2 0.907843 0.797835 0.839889
Si Si3 0.809117 0.575801 0.496347
Si Si4 0.846061 0.951750 0.752957
O O1 0.750000 0.722775 0.250000
O O2 0.610198 0.765156 0.373358
O O3 0.650159 0.763445 0.874177
O O4 0.637658 0.643401 0.073473
O O5 0.893123 0.880219 0.802930
O O6 0.000000 0.781403 0.771092
O O7 0.851629 0.500000 0.500000
O O8 0.750000 0.588276 0.750000
O O9 0.750000 0.568026 0.250000
O O10 0.750000 0.935044 0.750000
O O11 0.864679 0.000000 0.500000
O O12 0.861802 0.000000 0.000000
#
# Coordination Sequence:
#
# PCOD9418675 Si02
#       4
#     8   8   8   8
#     4  11  21  38  62  86 115 155 200 241 288 348
#     4  12  25  39  58  87 123 156 190 239 295 351
#     4   9  17  31  55  88 117 144 192 254 299 334
#     4  10  21  38  60  84 110 145 192 241 288 344
#
# _framework density 19.816649999999999
#
# number of rings (size 3 to 8) (size 9 to 14) (size 15 to 20)
#    0.000    1.500    0.000    7.500    0.000    3.000 
#    0.000    0.000    0.000    4.500    0.000    0.000 
#    0.000    0.000    0.000    0.000    0.000    0.000 
#
# Total GULP energy -178414.062342 kJ/mol
# GULP energy per Si atom -5575.439448 kJ/mol
# Density = 1.977155 g / cm^3
# Si number density = 19.816650 Si / 1000 Ang^3
#
#
#
# Elastic Constant Matrix: (Units=GPa)
#
#
# Indices 1 2 3 4 5 6 
#
# 1 29.4421 19.4405 0.9180 0.0000 0.0000 0.0000
# 2 19.4405 138.3081 31.8219 0.0000 0.0000 0.0000
# 3 0.9180 31.8219 133.7104 0.0000 0.0000 0.0000
# 4 0.0000 0.0000 0.0000 36.0027 0.0000 0.0000
# 5 0.0000 0.0000 0.0000 0.0000 14.2044 0.0000
# 6 0.0000 0.0000 0.0000 0.0000 0.0000 -18.6948
#
#
#
# Elastic Compliance Matrix: (Units=1/GPa)
#
#
# Indices 1 2 3 4 5 6 
#
# 1 0.037580 -0.005525 0.001057 0.000000 0.000000 0.000000
# 2 -0.005525 0.008461 -0.001976 0.000000 0.000000 0.000000
# 3 0.001057 -0.001976 0.007942 0.000000 0.000000 0.000000
# 4 0.000000 0.000000 0.000000 0.027776 0.000000 0.000000
# 5 0.000000 0.000000 0.000000 0.000000 0.070401 0.000000
# 6 0.000000 0.000000 0.000000 0.000000 0.000000 -0.053491
#
#
# Mechanical properties :
#
#
# Convention : Reuss Voigt Hill
#
# Bulk Modulus (GPa) = 24.33375 45.09125 34.71250
# Shear Modulus (GPa) = 39.91803 22.92114 31.41959
#
# Velocity S-wave (km/s) = 4.49304 3.40466 3.98617
# Velocity P-wave (km/s) = 6.26280 6.18541 6.22422
#
# Compressibility (1/GPa) = 0.04109518
#
# Stress axis : x y z
#
# Youngs Moduli (GPa) = 26.60958 118.18249 125.91573
#
# Poissons Ratio (x) = 0.65301 -0.13309
# Poissons Ratio (y) = 0.14703 0.24879
# Poissons Ratio (z) = -0.02813 0.23351
#
# Static dielectric constant tensor:
#      x y z
#    x 1.619880 0.000000 0.000000 
#    y 0.000000 1.698130 0.000000 
#    z 0.000000 0.000000 1.682100 
# 
# From -- ./inp_files/1178.got.cif
#   From: 2010.05.17/outbox.cif.g08.bks.cpg/sg53_1_cif.got.tgz:1178.got - 2010.06.03 12:45:16.
