data_PCOD9418419
_publ_section_title
;
Structure prediction by ZEFSAII (Michael W. Deem and Ramdas Pophale) SiO2 
 PCOD9418419
Probable space group: P M N A
;
_chemical_formula_sum "Si O2"
_cell_formula_units_Z 48
_cell_length_a 10.312965
_cell_length_b 27.563995
_cell_length_c 8.811648
_cell_angle_alpha 90.000000
_cell_angle_beta 90.000000
_cell_angle_gamma 90.000000
_cell_volume 2504.856474
_symmetry_space_group_name_H-M "P M N A"
_symmetry_group_IT_number 53
_symmetry_cell_setting 'orthorhombic'
loop_
_space_group_symop_operation_xyz
x,y,z
1/2-x,-y,1/2+z
x,-y,-z
1/2-x,y,1/2-z
-x,-y,-z
1/2+x,y,1/2-z
-x,y,z
1/2+x,-y,1/2+z
loop_
_atom_site_type_symbol
_atom_site_label
_atom_site_fract_x
_atom_site_fract_y
_atom_site_fract_z
Si Si1 0.000000 0.296641 0.406583
Si Si2 0.000000 0.401104 0.532216
Si Si3 0.500000 0.377925 0.607239
Si Si4 0.851584 0.955466 0.616006
Si Si5 0.500000 0.726670 0.551134
Si Si6 0.230655 0.241151 0.573894
Si Si7 0.350351 0.869438 0.117817
Si Si8 0.768188 0.449243 0.929567
O O1 0.000000 0.283280 0.230072
O O2 0.873781 0.274679 0.490074
O O3 0.000000 0.354168 0.427472
O O4 0.000000 0.381974 0.708386
O O5 0.129167 0.432354 0.507917
O O6 0.500000 0.323693 0.543821
O O7 0.626382 0.406985 0.550763
O O8 0.750000 0.958903 0.750000
O O9 0.834586 0.905887 0.521900
O O10 0.000000 0.957234 0.672928
O O11 0.835129 0.000000 0.500000
O O12 0.369998 0.754842 0.504910
O O13 0.250000 0.255939 0.750000
O O14 0.179062 0.186094 0.573765
O O15 0.250000 0.882810 0.250000
O O16 0.500000 0.872882 0.170104
O O17 0.750000 0.456297 0.750000
O O18 0.811009 0.500000 0.000000
#
# Coordination Sequence:
#
# PCOD9418419 Si02
#       8
#     4   4   4   8   4   8   8   8
#     4  12  24  41  61  92 126 155 202 266 309 360
#     4  10  21  37  59  80 114 155 197 238 293 368
#     4  10  21  39  57  84 112 155 199 238 293 372
#     4  10  22  40  62  93 130 170 215 267 324 379
#     4  12  26  39  63  94 122 159 206 258 321 354
#     4  11  23  42  64  88 121 167 208 252 308 385
#     4  10  22  40  64  93 123 162 212 260 307 373
#     4  10  21  36  57  83 112 148 192 241 295 355
#
# _framework density 19.162775
#
# number of rings (size 3 to 8) (size 9 to 14) (size 15 to 20)
#    0.000    1.500    0.833    4.000    3.500    5.000 
#    0.000    0.000    0.000    0.000    0.000    0.000 
#    0.000    0.000    0.000    0.000    0.000    0.000 
#
# Total GULP energy -268383.719955 kJ/mol
# GULP energy per Si atom -5591.327499 kJ/mol
# Density = 1.911916 g / cm^3
# Si number density = 19.162775 Si / 1000 Ang^3
#
#
#
# Elastic Constant Matrix: (Units=GPa)
#
#
# Indices 1 2 3 4 5 6 
#
# 1 141.3638 21.1156 45.6673 0.0000 0.0000 0.0000
# 2 21.1156 33.1495 22.3315 0.0000 0.0000 0.0000
# 3 45.6673 22.3315 72.0050 0.0000 0.0000 0.0000
# 4 0.0000 0.0000 0.0000 17.8537 0.0000 0.0000
# 5 0.0000 0.0000 0.0000 0.0000 13.2660 0.0000
# 6 0.0000 0.0000 0.0000 0.0000 0.0000 26.0394
#
#
#
# Elastic Compliance Matrix: (Units=1/GPa)
#
#
# Indices 1 2 3 4 5 6 
#
# 1 0.009045 -0.002398 -0.004993 0.000000 0.000000 0.000000
# 2 -0.002398 0.038769 -0.010503 0.000000 0.000000 0.000000
# 3 -0.004993 -0.010503 0.020312 0.000000 0.000000 0.000000
# 4 0.000000 0.000000 0.000000 0.056011 0.000000 0.000000
# 5 0.000000 0.000000 0.000000 0.000000 0.075381 0.000000
# 6 0.000000 0.000000 0.000000 0.000000 0.000000 0.038403
#
#
# Mechanical properties :
#
#
# Convention : Reuss Voigt Hill
#
# Bulk Modulus (GPa) = 30.92283 47.19412 39.05848
# Shear Modulus (GPa) = 17.57541 21.92541 19.75041
#
# Velocity S-wave (km/s) = 3.03176 3.38622 3.21388
# Velocity P-wave (km/s) = 5.33173 6.32220 5.84797
#
# Compressibility (1/GPa) = 0.03233857
#
# Stress axis : x y z
#
# Youngs Moduli (GPa) = 110.55720 25.79359 49.23221
#
# Poissons Ratio (x) = 0.06185 0.24581
# Poissons Ratio (y) = 0.26512 0.51708
# Poissons Ratio (z) = 0.55200 0.27091
#
# Static dielectric constant tensor:
#      x y z
#    x 1.656970 0.000000 0.000000 
#    y 0.000000 1.638500 0.000000 
#    z 0.000000 0.000000 1.633540 
# 
# From -- ./inp_files/6870.got.cif
#   From: 2010.05.17/outbox.cif.g08.bks.cpg/sg53_4_cif.got.tgz:6870.got - 2010.06.03 12:45:16.
