data_PCOD9418855
_publ_section_title
;
Structure prediction by ZEFSAII (Michael W. Deem and Ramdas Pophale) SiO2 
 PCOD9418855
Probable space group: P M N A
;
_chemical_formula_sum "Si O2"
_cell_formula_units_Z 48
_cell_length_a 27.008926
_cell_length_b 8.902296
_cell_length_c 8.213792
_cell_angle_alpha 90.000000
_cell_angle_beta 90.000000
_cell_angle_gamma 90.000000
_cell_volume 1974.936090
_symmetry_space_group_name_H-M "P M N A"
_symmetry_group_IT_number 53
_symmetry_cell_setting 'orthorhombic'
loop_
_space_group_symop_operation_xyz
x,y,z
1/2-x,-y,1/2+z
x,-y,-z
1/2-x,y,1/2-z
-x,-y,-z
1/2+x,y,1/2-z
-x,y,z
1/2+x,-y,1/2+z
loop_
_atom_site_type_symbol
_atom_site_label
_atom_site_fract_x
_atom_site_fract_y
_atom_site_fract_z
Si Si1 0.557775 0.177312 0.606389
Si Si2 0.555712 0.408031 0.855159
Si Si3 0.302979 0.087115 0.827674
Si Si4 0.903485 0.949796 0.685500
Si Si5 0.694694 0.551488 0.185991
Si Si6 0.895185 0.642364 0.820188
O O1 0.500000 0.214375 0.573032
O O2 0.573786 0.255029 0.779278
O O3 0.594723 0.260173 0.481541
O O4 0.560061 0.005020 0.670283
O O5 0.500000 0.376338 0.908600
O O6 0.560296 0.526044 0.707734
O O7 0.581070 0.500000 0.000000
O O8 0.250000 0.055798 0.750000
O O9 0.310540 0.267045 0.820322
O O10 0.350882 0.011474 0.748759
O O11 0.302270 0.000000 0.000000
O O12 0.898883 0.770969 0.683632
O O13 0.914266 0.000000 0.500000
O O14 0.750000 0.518034 0.250000
O O15 0.654113 0.458891 0.293431
O O16 0.691307 0.500000 0.000000
#
# Coordination Sequence:
#
# PCOD9418855 Si02
#       6
#     8   8   8   8   8   8
#     4  11  25  44  67  99 138 181 233 291 355 424
#     4  10  21  39  64  92 124 167 218 274 339 410
#     4  10  23  43  67  96 133 174 223 279 342 416
#     4  11  24  42  65  95 134 183 233 287 350 418
#     4  11  25  44  69 101 136 180 232 290 353 421
#     4  12  24  40  65  96 136 177 225 286 345 413
#
# _framework density 24.304583999999998
#
# number of rings (size 3 to 8) (size 9 to 14) (size 15 to 20)
#    0.000    1.167    0.000    6.000    0.000   11.667 
#    0.000    0.000    0.000    0.000    0.000    0.000 
#    0.000    0.000    0.000    0.000    0.000    0.000 
#
# Total GULP energy -267796.587249 kJ/mol
# GULP energy per Si atom -5579.095568 kJ/mol
# Density = 2.424927 g / cm^3
# Si number density = 24.304584 Si / 1000 Ang^3
#
#
#
# Elastic Constant Matrix: (Units=GPa)
#
#
# Indices 1 2 3 4 5 6 
#
# 1 146.9354 23.2732 35.7817 0.0000 0.0000 0.0000
# 2 23.2732 116.3608 24.1365 0.0000 0.0000 0.0000
# 3 35.7817 24.1365 92.9527 0.0000 0.0000 0.0000
# 4 0.0000 0.0000 0.0000 39.9522 0.0000 0.0000
# 5 0.0000 0.0000 0.0000 0.0000 26.6784 0.0000
# 6 0.0000 0.0000 0.0000 0.0000 0.0000 27.2911
#
#
#
# Elastic Compliance Matrix: (Units=1/GPa)
#
#
# Indices 1 2 3 4 5 6 
#
# 1 0.007611 -0.000967 -0.002679 0.000000 0.000000 0.000000
# 2 -0.000967 0.009206 -0.002018 0.000000 0.000000 0.000000
# 3 -0.002679 -0.002018 0.012313 0.000000 0.000000 0.000000
# 4 0.000000 0.000000 0.000000 0.025030 0.000000 0.000000
# 5 0.000000 0.000000 0.000000 0.000000 0.037484 0.000000
# 6 0.000000 0.000000 0.000000 0.000000 0.000000 0.036642
#
#
# Mechanical properties :
#
#
# Convention : Reuss Voigt Hill
#
# Bulk Modulus (GPa) = 56.17072 58.07018 57.12045
# Shear Modulus (GPa) = 34.35292 36.98818 35.67055
#
# Velocity S-wave (km/s) = 3.76364 3.90534 3.83514
# Velocity P-wave (km/s) = 6.48445 6.65433 6.56994
#
# Compressibility (1/GPa) = 0.01780287
#
# Stress axis : x y z
#
# Youngs Moduli (GPa) = 131.38567 108.62527 81.21185
#
# Poissons Ratio (x) = 0.10500 0.21756
# Poissons Ratio (y) = 0.12700 0.16391
# Poissons Ratio (z) = 0.35197 0.21924
#
# Static dielectric constant tensor:
#      x y z
#    x 1.943960 0.000000 0.000000 
#    y 0.000000 2.066300 0.000000 
#    z 0.000000 0.000000 2.027510 
# 
# From -- ./inp_files/12986.got.cif
#   From: 2010.05.17/outbox.cif.g08.bks.cpg/sg53_7_cif.got.tgz:12986.got - 2010.06.03 12:45:16.
