data_PCOD9418178
_publ_section_title
;
Structure prediction by ZEFSAII (Michael W. Deem and Ramdas Pophale) SiO2 
 PCOD9418178
Probable space group: P M N A
;
_chemical_formula_sum "Si O2"
_cell_formula_units_Z 32
_cell_length_a 9.468421
_cell_length_b 6.188817
_cell_length_c 25.975085
_cell_angle_alpha 90.000000
_cell_angle_beta 90.000000
_cell_angle_gamma 90.000000
_cell_volume 1522.096469
_symmetry_space_group_name_H-M "P M N A"
_symmetry_group_IT_number 53
_symmetry_cell_setting 'orthorhombic'
loop_
_space_group_symop_operation_xyz
x,y,z
1/2-x,-y,1/2+z
x,-y,-z
1/2-x,y,1/2-z
-x,-y,-z
1/2+x,y,1/2-z
-x,y,z
1/2+x,-y,1/2+z
loop_
_atom_site_type_symbol
_atom_site_label
_atom_site_fract_x
_atom_site_fract_y
_atom_site_fract_z
Si Si1 0.751842 0.500000 0.500000
Si Si2 0.224901 0.443159 0.195148
Si Si3 0.500000 0.197526 0.040776
Si Si4 0.000000 0.907412 0.767980
Si Si5 0.500000 0.799364 0.461349
Si Si6 0.500000 0.733856 0.350078
Si Si7 0.000000 0.787711 0.657541
O O1 0.641066 0.655837 0.470287
O O2 0.860297 0.654587 0.531357
O O3 0.250000 0.562958 0.250000
O O4 0.131560 0.239396 0.214051
O O5 0.364592 0.360928 0.168011
O O6 0.135521 0.582300 0.155484
O O7 0.500000 0.120649 0.100154
O O8 0.500000 0.000000 0.000000
O O9 0.000000 0.946509 0.706860
O O10 0.000000 0.121058 0.800068
O O11 0.500000 0.869448 0.401990
O O12 0.500000 0.000000 0.500000
#
# Coordination Sequence:
#
# PCOD9418178 Si02
#       7
#     4   8   4   4   4   4   4
#     4  10  24  44  62  90 124 160 210 262 308 358
#     4   9  20  39  60  88 122 156 196 244 299 358
#     4  11  23  41  65  93 126 164 205 250 311 376
#     4   9  21  38  59  89 122 155 193 242 297 356
#     4  11  24  42  66  91 119 163 214 260 307 358
#     4  11  22  39  65  90 117 157 204 247 296 360
#     4  10  20  40  63  86 125 160 192 248 304 356
#
# _framework density 21.023634000000001
#
# number of rings (size 3 to 8) (size 9 to 14) (size 15 to 20)
#    0.000    2.000    0.000    3.000    0.000   11.000 
#    0.000   11.250    0.000    0.000    0.000    0.000 
#    0.000    0.000    0.000    0.000    0.000    0.000 
#
# Total GULP energy -178596.762153 kJ/mol
# GULP energy per Si atom -5581.148817 kJ/mol
# Density = 2.097578 g / cm^3
# Si number density = 21.023634 Si / 1000 Ang^3
#
#
#
# Elastic Constant Matrix: (Units=GPa)
#
#
# Indices 1 2 3 4 5 6 
#
# 1 155.0374 34.5323 46.8050 0.0000 0.0000 0.0000
# 2 34.5323 63.2303 52.9260 0.0000 0.0000 0.0000
# 3 46.8050 52.9260 178.9219 0.0000 0.0000 0.0000
# 4 0.0000 0.0000 0.0000 26.8106 0.0000 0.0000
# 5 0.0000 0.0000 0.0000 0.0000 -51.0444 0.0000
# 6 0.0000 0.0000 0.0000 0.0000 0.0000 205.6825
#
#
#
# Elastic Compliance Matrix: (Units=1/GPa)
#
#
# Indices 1 2 3 4 5 6 
#
# 1 0.007474 -0.003250 -0.000994 0.000000 0.000000 0.000000
# 2 -0.003250 0.022433 -0.005786 0.000000 0.000000 0.000000
# 3 -0.000994 -0.005786 0.007560 0.000000 0.000000 0.000000
# 4 0.000000 0.000000 0.000000 0.037299 0.000000 0.000000
# 5 0.000000 0.000000 0.000000 0.000000 -0.019591 0.000000
# 6 0.000000 0.000000 0.000000 0.000000 0.000000 0.004862
#
#
# Mechanical properties :
#
#
# Convention : Reuss Voigt Hill
#
# Bulk Modulus (GPa) = 57.44299 73.96846 65.70572
# Shear Modulus (GPa) = 58.20827 53.81817 56.01322
#
# Velocity S-wave (km/s) = 5.26756 5.06502 5.16728
# Velocity P-wave (km/s) = 8.02363 8.33462 8.18060
#
# Compressibility (1/GPa) = 0.01740857
#
# Stress axis : x y z
#
# Youngs Moduli (GPa) = 133.79793 44.57747 132.26804
#
# Poissons Ratio (x) = 0.14487 0.13145
# Poissons Ratio (y) = 0.43484 0.76525
# Poissons Ratio (z) = 0.13297 0.25791
#
# Static dielectric constant tensor:
#      x y z
#    x 1.783840 0.000000 0.000000 
#    y 0.000000 1.737910 0.000000 
#    z 0.000000 0.000000 1.772620 
# 
# From -- ./inp_files/37444.got.cif
#   From: 2010.05.17/outbox.cif.g08.bks.cpg/sg53_19_cif.got.tgz:37444.got - 2010.06.03 12:45:16.
