data_PCOD9418350
_publ_section_title
;
Structure prediction by ZEFSAII (Michael W. Deem and Ramdas Pophale) SiO2 
 PCOD9418350
Probable space group: P M N A
;
_chemical_formula_sum "Si O2"
_cell_formula_units_Z 32
_cell_length_a 37.576016
_cell_length_b 7.733191
_cell_length_c 5.205826
_cell_angle_alpha 90.000000
_cell_angle_beta 90.000000
_cell_angle_gamma 90.000000
_cell_volume 1512.721979
_symmetry_space_group_name_H-M "P M N A"
_symmetry_group_IT_number 53
_symmetry_cell_setting 'orthorhombic'
loop_
_space_group_symop_operation_xyz
x,y,z
1/2-x,-y,1/2+z
x,-y,-z
1/2-x,y,1/2-z
-x,-y,-z
1/2+x,y,1/2-z
-x,y,z
1/2+x,-y,1/2+z
loop_
_atom_site_type_symbol
_atom_site_label
_atom_site_fract_x
_atom_site_fract_y
_atom_site_fract_z
Si Si1 0.728840 0.708977 0.496077
Si Si2 0.892266 0.793388 0.526663
Si Si3 0.853747 0.792991 0.016306
Si Si4 0.460415 0.381054 0.251261
O O1 0.729617 0.500000 0.500000
O O2 0.750000 0.768352 0.750000
O O3 0.687932 0.760064 0.458034
O O4 0.750000 0.773220 0.250000
O O5 0.865129 0.722759 0.739442
O O6 0.930117 0.749922 0.657404
O O7 0.890292 0.000000 0.500000
O O8 0.879116 0.727091 0.247933
O O9 0.858915 0.000000 0.000000
O O10 0.451581 0.500000 0.500000
O O11 0.500000 0.305325 0.301935
O O12 0.463157 0.500000 0.000000
#
# Coordination Sequence:
#
# PCOD9418350 Si02
#       4
#     8   8   8   8
#     4  10  21  36  53  76 106 139 178 223 271 326
#     4  10  21  37  56  81 112 144 182 227 275 330
#     4  10  21  36  55  80 108 140 181 226 272 327
#     4  10  21  37  57  83 113 145 185 229 273 328
#
# _framework density 21.153918999999998
#
# number of rings (size 3 to 8) (size 9 to 14) (size 15 to 20)
#    0.000    2.000    0.000    3.000    0.000    4.500 
#    0.000    0.000    0.000    9.000    0.000    0.000 
#    0.000    0.000    0.000    0.000    0.000    0.000 
#
# Total GULP energy -178373.567231 kJ/mol
# GULP energy per Si atom -5574.173976 kJ/mol
# Density = 2.110577 g / cm^3
# Si number density = 21.153919 Si / 1000 Ang^3
#
#
#
# Elastic Constant Matrix: (Units=GPa)
#
#
# Indices 1 2 3 4 5 6 
#
# 1 150.0137 8.7475 70.8613 0.0000 0.0000 0.0000
# 2 8.7475 19.9084 30.0132 0.0000 0.0000 0.0000
# 3 70.8613 30.0132 194.8844 0.0000 0.0000 0.0000
# 4 0.0000 0.0000 0.0000 4.7410 0.0000 0.0000
# 5 0.0000 0.0000 0.0000 0.0000 39.2253 0.0000
# 6 0.0000 0.0000 0.0000 0.0000 0.0000 42.7239
#
#
#
# Elastic Compliance Matrix: (Units=1/GPa)
#
#
# Indices 1 2 3 4 5 6 
#
# 1 0.008068 0.001143 -0.003110 0.000000 0.000000 0.000000
# 2 0.001143 0.065580 -0.010515 0.000000 0.000000 0.000000
# 3 -0.003110 -0.010515 0.007881 0.000000 0.000000 0.000000
# 4 0.000000 0.000000 0.000000 0.210927 0.000000 0.000000
# 5 0.000000 0.000000 0.000000 0.000000 0.025494 0.000000
# 6 0.000000 0.000000 0.000000 0.000000 0.000000 0.023406
#
#
# Mechanical properties :
#
#
# Convention : Reuss Voigt Hill
#
# Bulk Modulus (GPa) = 17.67846 64.89451 41.28649
# Shear Modulus (GPa) = 12.98107 34.35033 23.66570
#
# Velocity S-wave (km/s) = 2.47988 4.03405 3.34838
# Velocity P-wave (km/s) = 4.07123 7.24168 5.87439
#
# Compressibility (1/GPa) = 0.05656600
#
# Stress axis : x y z
#
# Youngs Moduli (GPa) = 123.94131 15.24846 126.88136
#
# Poissons Ratio (x) = -0.01743 0.39457
# Poissons Ratio (y) = -0.14166 1.33420
# Poissons Ratio (z) = 0.38542 0.16034
#
# Static dielectric constant tensor:
#      x y z
#    x 1.826580 0.000000 0.000000 
#    y 0.000000 1.769320 0.000000 
#    z 0.000000 0.000000 1.765210 
# 
# From -- ./inp_files/4918.got.cif
#   From: 2010.05.17/outbox.cif.g08.bks.cpg/sg53_3_cif.got.tgz:4918.got - 2010.06.03 12:45:16.
