data_PCOD9418170
_publ_section_title
;
Structure prediction by ZEFSAII (Michael W. Deem and Ramdas Pophale) SiO2 
 PCOD9418170
Probable space group: P M N A
;
_chemical_formula_sum "Si O2"
_cell_formula_units_Z 64
_cell_length_a 14.753875
_cell_length_b 11.840530
_cell_length_c 18.879608
_cell_angle_alpha 90.000000
_cell_angle_beta 90.000000
_cell_angle_gamma 90.000000
_cell_volume 3298.148568
_symmetry_space_group_name_H-M "P M N A"
_symmetry_group_IT_number 53
_symmetry_cell_setting 'orthorhombic'
loop_
_space_group_symop_operation_xyz
x,y,z
1/2-x,-y,1/2+z
x,-y,-z
1/2-x,y,1/2-z
-x,-y,-z
1/2+x,y,1/2-z
-x,y,z
1/2+x,-y,1/2+z
loop_
_atom_site_type_symbol
_atom_site_label
_atom_site_fract_x
_atom_site_fract_y
_atom_site_fract_z
Si Si1 0.857239 0.269900 0.262094
Si Si2 0.401950 0.975022 0.828658
Si Si3 0.900803 0.212556 0.108293
Si Si4 0.160388 0.125847 0.790738
Si Si5 0.893629 0.517076 0.285917
Si Si6 0.294880 0.623638 0.334784
Si Si7 0.222732 0.006358 0.084414
Si Si8 0.600319 0.372185 0.526269
O O1 0.750000 0.273649 0.250000
O O2 0.882897 0.150398 0.297509
O O3 0.900216 0.271957 0.184013
O O4 0.885963 0.383713 0.302867
O O5 0.500000 0.974322 0.863845
O O6 0.323596 0.005579 0.884477
O O7 0.406698 0.064099 0.762921
O O8 0.819382 0.124881 0.107806
O O9 0.888080 0.295084 0.042379
O O10 0.000000 0.156339 0.099559
O O11 0.250000 0.082729 0.750000
O O12 0.172568 0.259789 0.796948
O O13 0.161598 0.081859 0.871068
O O14 0.858605 0.532185 0.204657
O O15 0.810695 0.585846 0.325096
O O16 0.000000 0.552242 0.294310
O O17 0.322287 0.639020 0.415594
O O18 0.218322 0.000000 0.000000
O O19 0.599703 0.500000 0.500000
O O20 0.500000 0.346450 0.557620
#
# Coordination Sequence:
#
# PCOD9418170 Si02
#       8
#     8   8   8   8   8   8   8   8
#     4  12  20  40  65  95 124 160 202 265 323 367
#     4  11  23  39  65  92 123 164 209 262 310 369
#     4  11  22  38  62  91 123 158 203 259 317 371
#     4  10  20  40  58  86 120 159 210 250 299 368
#     4  11  23  37  62  95 125 160 211 262 308 369
#     4  11  21  40  61  84 126 168 203 247 313 365
#     4  11  23  39  59  87 128 163 205 253 308 374
#     4  10  22  37  57  88 121 158 205 253 310 378
#
# _framework density 19.404826
#
# number of rings (size 3 to 8) (size 9 to 14) (size 15 to 20)
#    0.000    1.125    5.000    3.375    0.000    2.500 
#    0.000    0.000    0.000    2.625    0.000    0.000 
#    0.000    0.000    0.000    0.000    0.000    0.000 
#
# Total GULP energy -356496.093504 kJ/mol
# GULP energy per Si atom -5570.251461 kJ/mol
# Density = 1.936066 g / cm^3
# Si number density = 19.404826 Si / 1000 Ang^3
#
#
#
# Elastic Constant Matrix: (Units=GPa)
#
#
# Indices 1 2 3 4 5 6 
#
# 1 119.1353 12.7957 4.8357 0.0000 0.0000 0.0000
# 2 12.7957 81.1632 2.6537 0.0000 0.0000 0.0000
# 3 4.8357 2.6537 73.8696 0.0000 0.0000 0.0000
# 4 0.0000 0.0000 0.0000 23.4071 0.0000 0.0000
# 5 0.0000 0.0000 0.0000 0.0000 14.5589 0.0000
# 6 0.0000 0.0000 0.0000 0.0000 0.0000 7.3624
#
#
#
# Elastic Compliance Matrix: (Units=1/GPa)
#
#
# Indices 1 2 3 4 5 6 
#
# 1 0.008558 -0.001332 -0.000512 0.000000 0.000000 0.000000
# 2 -0.001332 0.012543 -0.000363 0.000000 0.000000 0.000000
# 3 -0.000512 -0.000363 0.013584 0.000000 0.000000 0.000000
# 4 0.000000 0.000000 0.000000 0.042722 0.000000 0.000000
# 5 0.000000 0.000000 0.000000 0.000000 0.068687 0.000000
# 6 0.000000 0.000000 0.000000 0.000000 0.000000 0.135826
#
#
# Mechanical properties :
#
#
# Convention : Reuss Voigt Hill
#
# Bulk Modulus (GPa) = 33.03792 34.97091 34.00442
# Shear Modulus (GPa) = 16.86770 25.99121 21.42946
#
# Velocity S-wave (km/s) = 2.95151 3.66378 3.32676
# Velocity P-wave (km/s) = 5.35516 5.99655 5.68491
#
# Compressibility (1/GPa) = 0.03026825
#
# Stress axis : x y z
#
# Youngs Moduli (GPa) = 116.85351 79.72706 73.61628
#
# Poissons Ratio (x) = 0.10623 0.03772
# Poissons Ratio (y) = 0.15570 0.02675
# Poissons Ratio (z) = 0.05987 0.02897
#
# Static dielectric constant tensor:
#      x y z
#    x 1.741430 0.000000 0.000000 
#    y 0.000000 1.753130 0.000000 
#    z 0.000000 0.000000 1.693590 
# 
# From -- ./inp_files/28580.got.cif
#   From: 2010.05.17/outbox.cif.g08.bks.cpg/sg53_15_cif.got.tgz:28580.got - 2010.06.03 12:45:16.
