data_PCOD9418052
_publ_section_title
;
Structure prediction by ZEFSAII (Michael W. Deem and Ramdas Pophale) SiO2 
 PCOD9418052
Probable space group: P M N A
;
_chemical_formula_sum "Si O2"
_cell_formula_units_Z 64
_cell_length_a 14.126232
_cell_length_b 21.757957
_cell_length_c 10.183127
_cell_angle_alpha 90.000000
_cell_angle_beta 90.000000
_cell_angle_gamma 90.000000
_cell_volume 3129.865023
_symmetry_space_group_name_H-M "P M N A"
_symmetry_group_IT_number 53
_symmetry_cell_setting 'orthorhombic'
loop_
_space_group_symop_operation_xyz
x,y,z
1/2-x,-y,1/2+z
x,-y,-z
1/2-x,y,1/2-z
-x,-y,-z
1/2+x,y,1/2-z
-x,y,z
1/2+x,-y,1/2+z
loop_
_atom_site_type_symbol
_atom_site_label
_atom_site_fract_x
_atom_site_fract_y
_atom_site_fract_z
Si Si1 0.750707 0.058192 0.404775
Si Si2 0.114626 0.745577 0.802842
Si Si3 0.384115 0.356697 0.870285
Si Si4 0.109141 0.490820 0.658443
Si Si5 0.885758 0.160791 0.977596
Si Si6 0.384136 0.624448 0.826244
Si Si7 0.113176 0.832932 0.565601
Si Si8 0.885230 0.775866 0.287089
O O1 0.750000 0.041819 0.250000
O O2 0.665918 0.103362 0.453841
O O3 0.842996 0.100318 0.421898
O O4 0.751604 0.000000 0.500000
O O5 0.145363 0.676332 0.776459
O O6 0.146546 0.789186 0.683541
O O7 0.000000 0.744602 0.796819
O O8 0.138499 0.779023 0.936759
O O9 0.500000 0.357615 0.869861
O O10 0.351277 0.422938 0.816064
O O11 0.355393 0.295632 0.792019
O O12 0.357364 0.355195 0.025250
O O13 0.108505 0.500000 0.500000
O O14 0.148377 0.555662 0.707820
O O15 0.000000 0.488222 0.702840
O O16 0.855279 0.179568 0.830917
O O17 0.000000 0.151392 0.980960
O O18 0.500000 0.622250 0.828511
O O19 0.140470 0.804017 0.427037
O O20 0.000000 0.835394 0.571896
O O21 0.000000 0.774640 0.278868
#
# Coordination Sequence:
#
# PCOD9418052 Si02
#       8
#     8   8   8   8   8   8   8   8
#     4  12  28  45  64  89 117 147 180 220 271 333
#     4   9  15  28  51  75 104 142 184 230 272 316
#     4   8  11  18  34  62 100 139 181 228 276 322
#     4   7  10  14  25  53  97 139 175 225 278 319
#     4  10  22  40  60  84 116 150 184 227 280 330
#     4   8  11  17  34  63  97 138 185 230 277 319
#     4  10  20  38  63  87 113 146 187 231 271 318
#     4   9  17  30  53  82 110 147 190 233 280 325
#
# _framework density 20.448166000000001
#
# number of rings (size 3 to 8) (size 9 to 14) (size 15 to 20)
#    0.000    2.875    2.500    1.500    1.750    0.500 
#    0.000    0.000    0.000    0.750    0.000    5.250 
#    0.000    6.000    0.000    0.750    0.000    0.000 
#
# Total GULP energy -356864.298785 kJ/mol
# GULP energy per Si atom -5576.004669 kJ/mol
# Density = 2.040163 g / cm^3
# Si number density = 20.448166 Si / 1000 Ang^3
#
#
#
# Elastic Constant Matrix: (Units=GPa)
#
#
# Indices 1 2 3 4 5 6 
#
# 1 57.5990 -2.7223 15.2348 0.0000 0.0000 0.0000
# 2 -2.7223 141.2958 50.6269 0.0000 0.0000 0.0000
# 3 15.2348 50.6269 97.8559 0.0000 0.0000 0.0000
# 4 0.0000 0.0000 0.0000 -22.4484 0.0000 0.0000
# 5 0.0000 0.0000 0.0000 0.0000 11.7506 0.0000
# 6 0.0000 0.0000 0.0000 0.0000 0.0000 40.1327
#
#
#
# Elastic Compliance Matrix: (Units=1/GPa)
#
#
# Indices 1 2 3 4 5 6 
#
# 1 0.018433 0.001698 -0.003748 0.000000 0.000000 0.000000
# 2 0.001698 0.008844 -0.004840 0.000000 0.000000 0.000000
# 3 -0.003748 -0.004840 0.013307 0.000000 0.000000 0.000000
# 4 0.000000 0.000000 0.000000 -0.044547 0.000000 0.000000
# 5 0.000000 0.000000 0.000000 0.000000 0.085102 0.000000
# 6 0.000000 0.000000 0.000000 0.000000 0.000000 0.024917
#
#
# Mechanical properties :
#
#
# Convention : Reuss Voigt Hill
#
# Bulk Modulus (GPa) = 37.30835 47.00327 42.15581
# Shear Modulus (GPa) = 38.82835 21.46107 30.14471
#
# Velocity S-wave (km/s) = 4.36233 3.24317 3.84370
# Velocity P-wave (km/s) = 6.60743 6.08774 6.35290
#
# Compressibility (1/GPa) = 0.02680365
#
# Stress axis : x y z
#
# Youngs Moduli (GPa) = 54.25025 113.06728 75.14991
#
# Poissons Ratio (x) = -0.19201 0.28169
# Poissons Ratio (y) = -0.09213 0.36373
# Poissons Ratio (z) = 0.20335 0.54725
#
# Static dielectric constant tensor:
#      x y z
#    x 1.863130 0.000000 0.000000 
#    y 0.000000 1.727620 0.000000 
#    z 0.000000 0.000000 1.788680 
# 
# From -- ./inp_files/8939.got.cif
#   From: 2010.05.17/outbox.cif.g08.bks.cpg/sg53_5_cif.got.tgz:8939.got - 2010.06.03 12:45:16.
