data_PCOD9418587
_publ_section_title
;
Structure prediction by ZEFSAII (Michael W. Deem and Ramdas Pophale) SiO2 
 PCOD9418587
Probable space group: P M N A
;
_chemical_formula_sum "Si O2"
_cell_formula_units_Z 64
_cell_length_a 23.918155
_cell_length_b 7.833545
_cell_length_c 14.413720
_cell_angle_alpha 90.000000
_cell_angle_beta 90.000000
_cell_angle_gamma 90.000000
_cell_volume 2700.611420
_symmetry_space_group_name_H-M "P M N A"
_symmetry_group_IT_number 53
_symmetry_cell_setting 'orthorhombic'
loop_
_space_group_symop_operation_xyz
x,y,z
1/2-x,-y,1/2+z
x,-y,-z
1/2-x,y,1/2-z
-x,-y,-z
1/2+x,y,1/2-z
-x,y,z
1/2+x,-y,1/2+z
loop_
_atom_site_type_symbol
_atom_site_label
_atom_site_fract_x
_atom_site_fract_y
_atom_site_fract_z
Si Si1 0.104486 0.821403 0.951608
Si Si2 0.435732 0.765799 0.875327
Si Si3 0.719556 0.660275 0.574609
Si Si4 0.060242 0.361921 0.881642
Si Si5 0.411613 0.984282 0.271909
Si Si6 0.807708 0.196283 0.695646
Si Si7 0.854320 0.446265 0.236915
Si Si8 0.665235 0.707243 0.993336
O O1 0.170087 0.780168 0.963353
O O2 0.088138 0.863066 0.846701
O O3 0.069362 0.690197 0.012258
O O4 0.093432 0.000000 0.000000
O O5 0.500000 0.704487 0.889686
O O6 0.395350 0.649028 0.808860
O O7 0.395444 0.777575 0.964650
O O8 0.439469 0.944585 0.820511
O O9 0.720584 0.500000 0.500000
O O10 0.697691 0.628965 0.679148
O O11 0.782824 0.727927 0.577726
O O12 0.065400 0.187381 0.820019
O O13 0.107754 0.487286 0.848152
O O14 0.000000 0.437545 0.864187
O O15 0.348834 0.939601 0.241939
O O16 0.750000 0.182591 0.750000
O O17 0.831862 0.384650 0.714539
O O18 0.810784 0.197204 0.584507
O O19 0.658184 0.500000 0.000000
#
# Coordination Sequence:
#
# PCOD9418587 Si02
#       8
#     8   8   8   8   8   8   8   8
#     4  10  21  37  59  94 135 178 218 272 343 396
#     4  12  26  46  68  98 140 183 236 289 332 403
#     4  11  21  40  66  97 135 167 216 281 344 415
#     4  10  21  39  63  94 134 183 234 275 330 407
#     4  10  24  42  63  94 133 184 228 275 343 403
#     4  11  24  45  72  99 132 171 224 283 349 425
#     4  11  22  41  68 101 132 180 226 278 345 408
#     4  11  25  44  69 102 129 174 222 284 361 410
#
# _framework density 23.698338
#
# number of rings (size 3 to 8) (size 9 to 14) (size 15 to 20)
#    0.000    1.250    3.750    2.250    3.500    4.500 
#    0.000    2.500    0.000    0.000    0.000    0.000 
#    0.000    0.000    0.000    0.000    0.000    0.000 
#
# Total GULP energy -357432.797083 kJ/mol
# GULP energy per Si atom -5584.887454 kJ/mol
# Density = 2.364440 g / cm^3
# Si number density = 23.698338 Si / 1000 Ang^3
#
#
#
# Elastic Constant Matrix: (Units=GPa)
#
#
# Indices 1 2 3 4 5 6 
#
# 1 171.6660 3.6899 50.6314 0.0000 0.0000 0.0000
# 2 3.6899 35.1642 13.2783 0.0000 0.0000 0.0000
# 3 50.6314 13.2783 88.8650 0.0000 0.0000 0.0000
# 4 0.0000 0.0000 0.0000 16.9047 0.0000 0.0000
# 5 0.0000 0.0000 0.0000 0.0000 -4.7516 0.0000
# 6 0.0000 0.0000 0.0000 0.0000 0.0000 -9.8729
#
#
#
# Elastic Compliance Matrix: (Units=1/GPa)
#
#
# Indices 1 2 3 4 5 6 
#
# 1 0.007024 0.000820 -0.004125 0.000000 0.000000 0.000000
# 2 0.000820 0.030234 -0.004985 0.000000 0.000000 0.000000
# 3 -0.004125 -0.004985 0.014348 0.000000 0.000000 0.000000
# 4 0.000000 0.000000 0.000000 0.059155 0.000000 0.000000
# 5 0.000000 0.000000 0.000000 0.000000 -0.210455 0.000000
# 6 0.000000 0.000000 0.000000 0.000000 0.000000 -0.101288
#
#
# Mechanical properties :
#
#
# Convention : Reuss Voigt Hill
#
# Bulk Modulus (GPa) = 28.54873 47.87716 38.21295
# Shear Modulus (GPa) = -28.94762 15.66240 -6.64261
#
# Velocity S-wave (km/s) = -3.49879 2.57360 -1.67603
# Velocity P-wave (km/s) = 2.06136 5.39239 3.52340
#
# Compressibility (1/GPa) = 0.03502782
#
# Stress axis : x y z
#
# Youngs Moduli (GPa) = 142.36571 33.07497 69.69637
#
# Poissons Ratio (x) = -0.02714 0.28747
# Poissons Ratio (y) = -0.11680 0.34744
# Poissons Ratio (z) = 0.58721 0.16488
#
# Static dielectric constant tensor:
#      x y z
#    x 1.858530 0.000000 0.000000 
#    y 0.000000 1.962850 0.000000 
#    z 0.000000 0.000000 2.000920 
# 
# From -- ./inp_files/24712.got.cif
#   From: 2010.05.17/outbox.cif.g08.bks.cpg/sg53_13_cif.got.tgz:24712.got - 2010.06.03 12:45:16.
