data_PCOD9418661
_publ_section_title
;
Structure prediction by ZEFSAII (Michael W. Deem and Ramdas Pophale) SiO2 
 PCOD9418661
Probable space group: P M N A
;
_chemical_formula_sum "Si O2"
_cell_formula_units_Z 44
_cell_length_a 27.451202
_cell_length_b 5.163494
_cell_length_c 15.642895
_cell_angle_alpha 90.000000
_cell_angle_beta 90.000000
_cell_angle_gamma 90.000000
_cell_volume 2217.288336
_symmetry_space_group_name_H-M "P M N A"
_symmetry_group_IT_number 53
_symmetry_cell_setting 'orthorhombic'
loop_
_space_group_symop_operation_xyz
x,y,z
1/2-x,-y,1/2+z
x,-y,-z
1/2-x,y,1/2-z
-x,-y,-z
1/2+x,y,1/2-z
-x,y,z
1/2+x,-y,1/2+z
loop_
_atom_site_type_symbol
_atom_site_label
_atom_site_fract_x
_atom_site_fract_y
_atom_site_fract_z
Si Si1 0.701869 0.422297 0.809781
Si Si2 0.650095 0.904897 0.739739
Si Si3 0.942390 0.894268 0.311644
Si Si4 0.330865 0.247982 0.452345
Si Si5 0.941213 0.389113 0.412358
Si Si6 0.235370 0.500000 0.500000
O O1 0.750000 0.474403 0.750000
O O2 0.666110 0.667596 0.799673
O O3 0.679768 0.158619 0.770237
O O4 0.710678 0.402602 0.912213
O O5 0.661404 0.793647 0.646722
O O6 0.594109 0.997139 0.741408
O O7 0.931106 0.601749 0.339321
O O8 0.000000 0.915818 0.293063
O O9 0.930293 0.093511 0.389312
O O10 0.351654 0.500000 0.500000
O O11 0.272930 0.279820 0.467490
O O12 0.350237 0.000000 0.500000
O O13 0.919835 0.500000 0.500000
O O14 0.000000 0.392827 0.420428
#
# Coordination Sequence:
#
# PCOD9418661 Si02
#       6
#     8   8   8   8   8   4
#     4  12  24  41  64  89 127 162 205 254 312 373
#     4  12  24  41  61  93 123 160 206 254 309 371
#     4  10  21  38  59  83 116 158 204 251 305 359
#     4  10  21  39  64  87 114 161 204 244 304 378
#     4   9  17  33  56  78 106 151 201 247 294 354
#     4  10  24  40  62  86 122 166 198 254 310 372
#
# _framework density 19.844056999999999
#
# number of rings (size 3 to 8) (size 9 to 14) (size 15 to 20)
#    0.545    0.909    1.818    4.364    2.545    2.182 
#    9.818    0.000    0.000    1.091    0.000    0.000 
#    0.000    0.000    0.000    0.000    0.000    0.000 
#
# Total GULP energy -245153.550478 kJ/mol
# GULP energy per Si atom -5571.671602 kJ/mol
# Density = 1.979889 g / cm^3
# Si number density = 19.844057 Si / 1000 Ang^3
#
#
#
# Elastic Constant Matrix: (Units=GPa)
#
#
# Indices 1 2 3 4 5 6 
#
# 1 68.2379 12.1999 24.4951 0.0000 0.0000 0.0000
# 2 12.1999 81.1320 -9.4429 0.0000 0.0000 0.0000
# 3 24.4951 -9.4429 100.5343 0.0000 0.0000 0.0000
# 4 0.0000 0.0000 0.0000 22.9921 0.0000 0.0000
# 5 0.0000 0.0000 0.0000 0.0000 13.7728 0.0000
# 6 0.0000 0.0000 0.0000 0.0000 0.0000 27.6460
#
#
#
# Elastic Compliance Matrix: (Units=1/GPa)
#
#
# Indices 1 2 3 4 5 6 
#
# 1 0.016765 -0.003029 -0.004369 0.000000 0.000000 0.000000
# 2 -0.003029 0.013009 0.001960 0.000000 0.000000 0.000000
# 3 -0.004369 0.001960 0.011196 0.000000 0.000000 0.000000
# 4 0.000000 0.000000 0.000000 0.043493 0.000000 0.000000
# 5 0.000000 0.000000 0.000000 0.000000 0.072607 0.000000
# 6 0.000000 0.000000 0.000000 0.000000 0.000000 0.036172
#
#
# Mechanical properties :
#
#
# Convention : Reuss Voigt Hill
#
# Bulk Modulus (GPa) = 33.23127 33.82315 33.52721
# Shear Modulus (GPa) = 23.34822 27.72564 25.53693
#
# Velocity S-wave (km/s) = 3.43386 3.74194 3.59120
# Velocity P-wave (km/s) = 5.70126 5.97921 5.84189
#
# Compressibility (1/GPa) = 0.03009214
#
# Stress axis : x y z
#
# Youngs Moduli (GPa) = 59.64931 76.86831 89.32146
#
# Poissons Ratio (x) = 0.23287 0.39027
# Poissons Ratio (y) = 0.18070 -0.17507
# Poissons Ratio (z) = 0.26062 -0.15066
#
# Static dielectric constant tensor:
#      x y z
#    x 1.752730 0.000000 0.000000 
#    y 0.000000 1.697520 0.000000 
#    z 0.000000 0.000000 1.700640 
# 
# From -- ./inp_files/24845.got.cif
#   From: 2010.05.17/outbox.cif.g08.bks.cpg/sg53_13_cif.got.tgz:24845.got - 2010.06.03 12:45:16.
