data_PCOD9418966
_publ_section_title
;
Structure prediction by ZEFSAII (Michael W. Deem and Ramdas Pophale) SiO2 
 PCOD9418966
Probable space group: P M N A
;
_chemical_formula_sum "Si O2"
_cell_formula_units_Z 56
_cell_length_a 14.631832
_cell_length_b 4.991023
_cell_length_c 31.534535
_cell_angle_alpha 90.000000
_cell_angle_beta 90.000000
_cell_angle_gamma 90.000000
_cell_volume 2302.898032
_symmetry_space_group_name_H-M "P M N A"
_symmetry_group_IT_number 53
_symmetry_cell_setting 'orthorhombic'
loop_
_space_group_symop_operation_xyz
x,y,z
1/2-x,-y,1/2+z
x,-y,-z
1/2-x,y,1/2-z
-x,-y,-z
1/2+x,y,1/2-z
-x,y,z
1/2+x,-y,1/2+z
loop_
_atom_site_type_symbol
_atom_site_label
_atom_site_fract_x
_atom_site_fract_y
_atom_site_fract_z
Si Si1 0.390802 0.731862 0.160849
Si Si2 0.389489 0.749313 0.472722
Si Si3 0.895271 0.759649 0.528936
Si Si4 0.095722 0.543176 0.205979
Si Si5 0.652172 0.015291 0.250305
Si Si6 0.396256 0.421684 0.392080
Si Si7 0.699148 0.230706 0.117058
O O1 0.500000 0.691137 0.153397
O O2 0.380238 0.876221 0.206863
O O3 0.336868 0.452813 0.151456
O O4 0.344219 0.947716 0.129871
O O5 0.356582 0.500000 0.500000
O O6 0.500000 0.762755 0.474448
O O7 0.371337 0.661976 0.424378
O O8 0.356062 0.000000 0.500000
O O9 0.897188 0.500000 0.500000
O O10 0.841544 0.698565 0.571452
O O11 0.000000 0.832754 0.540895
O O12 0.858296 0.000000 0.500000
O O13 0.168160 0.763329 0.218712
O O14 0.096225 0.513807 0.156031
O O15 0.000000 0.679593 0.219038
O O16 0.096757 0.257922 0.228939
O O17 0.750000 0.154878 0.250000
O O18 0.500000 0.319560 0.404537
O O19 0.308666 0.228187 0.389223
#
# Coordination Sequence:
#
# PCOD9418966 Si02
#       7
#     8   8   8   8   8   8   8
#     4  12  25  43  69 101 139 181 228 289 353 412
#     4   9  19  37  62  90 122 163 211 264 325 392
#     4  10  21  40  67  96 128 167 213 269 333 400
#     4  11  23  41  64  92 129 176 226 274 333 405
#     4  12  24  42  66  97 134 175 226 283 344 412
#     4  10  24  45  69  99 139 185 233 288 347 412
#     4  12  25  44  69 102 137 179 232 284 346 419
#
# _framework density 24.317186
#
# number of rings (size 3 to 8) (size 9 to 14) (size 15 to 20)
#    0.000    1.143    0.000    6.429    0.000    4.000 
#    0.000    9.286    0.000    1.286    0.000    0.000 
#    0.000    0.000    0.000    0.000    0.000    0.000 
#
# Total GULP energy -312870.553963 kJ/mol
# GULP energy per Si atom -5586.974178 kJ/mol
# Density = 2.426184 g / cm^3
# Si number density = 24.317186 Si / 1000 Ang^3
#
#
#
# Elastic Constant Matrix: (Units=GPa)
#
#
# Indices 1 2 3 4 5 6 
#
# 1 134.0203 13.0607 20.7043 0.0000 0.0000 0.0000
# 2 13.0607 98.3170 -15.5952 0.0000 0.0000 0.0000
# 3 20.7043 -15.5952 80.8171 0.0000 0.0000 0.0000
# 4 0.0000 0.0000 0.0000 35.0218 0.0000 0.0000
# 5 0.0000 0.0000 0.0000 0.0000 108.8606 0.0000
# 6 0.0000 0.0000 0.0000 0.0000 0.0000 56.8068
#
#
#
# Elastic Compliance Matrix: (Units=1/GPa)
#
#
# Indices 1 2 3 4 5 6 
#
# 1 0.007958 -0.001424 -0.002313 0.000000 0.000000 0.000000
# 2 -0.001424 0.010747 0.002439 0.000000 0.000000 0.000000
# 3 -0.002313 0.002439 0.013437 0.000000 0.000000 0.000000
# 4 0.000000 0.000000 0.000000 0.028554 0.000000 0.000000
# 5 0.000000 0.000000 0.000000 0.000000 0.009186 0.000000
# 6 0.000000 0.000000 0.000000 0.000000 0.000000 0.017604
#
#
# Mechanical properties :
#
#
# Convention : Reuss Voigt Hill
#
# Bulk Modulus (GPa) = 33.84769 38.83267 36.34018
# Shear Modulus (GPa) = 50.03463 59.80349 54.91906
#
# Velocity S-wave (km/s) = 4.54098 4.96452 4.75747
# Velocity P-wave (km/s) = 6.43766 6.99041 6.71972
#
# Compressibility (1/GPa) = 0.02954411
#
# Stress axis : x y z
#
# Youngs Moduli (GPa) = 125.66389 93.04753 74.42196
#
# Poissons Ratio (x) = 0.13251 0.17217
# Poissons Ratio (y) = 0.17896 -0.18149
# Poissons Ratio (z) = 0.29072 -0.22692
#
# Static dielectric constant tensor:
#      x y z
#    x 1.932010 0.000000 0.000000 
#    y 0.000000 1.866490 0.000000 
#    z 0.000000 0.000000 1.942290 
# 
# From -- ./inp_files/38856.got.cif
#   From: 2010.05.17/outbox.cif.g08.bks.cpg/sg53_20_cif.got.tgz:38856.got - 2010.06.03 12:45:16.
