data_PCOD9418201
_publ_section_title
;
Structure prediction by ZEFSAII (Michael W. Deem and Ramdas Pophale) SiO2 
 PCOD9418201
Probable space group: P M N A
;
_chemical_formula_sum "Si O2"
_cell_formula_units_Z 40
_cell_length_a 15.033961
_cell_length_b 9.035068
_cell_length_c 12.654673
_cell_angle_alpha 90.000000
_cell_angle_beta 90.000000
_cell_angle_gamma 90.000000
_cell_volume 1718.920425
_symmetry_space_group_name_H-M "P M N A"
_symmetry_group_IT_number 53
_symmetry_cell_setting 'orthorhombic'
loop_
_space_group_symop_operation_xyz
x,y,z
1/2-x,-y,1/2+z
x,-y,-z
1/2-x,y,1/2-z
-x,-y,-z
1/2+x,y,1/2-z
-x,y,z
1/2+x,-y,1/2+z
loop_
_atom_site_type_symbol
_atom_site_label
_atom_site_fract_x
_atom_site_fract_y
_atom_site_fract_z
Si Si1 0.106604 0.823398 0.502347
Si Si2 0.845877 0.691980 0.285569
Si Si3 0.598830 0.893685 0.412099
Si Si4 0.102027 0.357364 0.294473
Si Si5 0.601749 0.624017 0.568245
O O1 0.155605 0.763742 0.399793
O O2 0.138914 0.732908 0.605628
O O3 0.000000 0.793658 0.489190
O O4 0.117194 0.000000 0.500000
O O5 0.750000 0.639602 0.250000
O O6 0.872230 0.820279 0.200003
O O7 0.898338 0.536828 0.298896
O O8 0.500000 0.960987 0.391347
O O9 0.591338 0.751978 0.485570
O O10 0.646776 0.000000 0.500000
O O11 0.142559 0.326451 0.178879
O O12 0.000000 0.303221 0.290846
O O13 0.651146 0.500000 0.500000
O O14 0.500000 0.568819 0.594311
#
# Coordination Sequence:
#
# PCOD9418201 Si02
#       5
#     8   8   8   8   8
#     4  10  23  43  70  97 124 164 220 278 326 383
#     4  12  25  41  59  90 131 172 211 256 321 395
#     4  10  21  37  63  92 119 156 207 266 320 376
#     4  10  20  40  67  92 120 161 215 271 317 371
#     4   9  16  31  58  91 119 145 191 258 321 367
#
# _framework density 23.270420999999999
#
# number of rings (size 3 to 8) (size 9 to 14) (size 15 to 20)
#    0.000    1.800    2.000    2.400    2.800    2.400 
#    7.200    1.000    0.000    0.000    0.000    0.000 
#    0.000    0.000    0.000    0.000    0.000    0.000 
#
# Total GULP energy -222703.312758 kJ/mol
# GULP energy per Si atom -5567.582819 kJ/mol
# Density = 2.321746 g / cm^3
# Si number density = 23.270421 Si / 1000 Ang^3
#
#
#
# Elastic Constant Matrix: (Units=GPa)
#
#
# Indices 1 2 3 4 5 6 
#
# 1 37.1192 12.0891 19.4715 0.0000 0.0000 0.0000
# 2 12.0891 51.9562 53.8935 0.0000 0.0000 0.0000
# 3 19.4715 53.8935 245.3486 0.0000 0.0000 0.0000
# 4 0.0000 0.0000 0.0000 52.9064 0.0000 0.0000
# 5 0.0000 0.0000 0.0000 0.0000 15.8937 0.0000
# 6 0.0000 0.0000 0.0000 0.0000 0.0000 -1.6387
#
#
#
# Elastic Compliance Matrix: (Units=1/GPa)
#
#
# Indices 1 2 3 4 5 6 
#
# 1 0.029366 -0.005718 -0.001074 0.000000 0.000000 0.000000
# 2 -0.005718 0.026040 -0.005266 0.000000 0.000000 0.000000
# 3 -0.001074 -0.005266 0.005318 0.000000 0.000000 0.000000
# 4 0.000000 0.000000 0.000000 0.018901 0.000000 0.000000
# 5 0.000000 0.000000 0.000000 0.000000 0.062918 0.000000
# 6 0.000000 0.000000 0.000000 0.000000 0.000000 -0.610256
#
#
# Mechanical properties :
#
#
# Convention : Reuss Voigt Hill
#
# Bulk Modulus (GPa) = 27.31783 56.14804 41.73293
# Shear Modulus (GPa) = -11.59037 30.03027 9.21995
#
# Velocity S-wave (km/s) = -2.23418 3.59624 1.99266
# Velocity P-wave (km/s) = 2.26039 6.43621 4.82360
#
# Compressibility (1/GPa) = 0.03660613
#
# Stress axis : x y z
#
# Youngs Moduli (GPa) = 34.05273 38.40237 188.04493
#
# Poissons Ratio (x) = 0.21960 0.20205
# Poissons Ratio (y) = 0.19473 0.99027
# Poissons Ratio (z) = 0.03659 0.20223
#
# Static dielectric constant tensor:
#      x y z
#    x 1.934900 0.000000 0.000000 
#    y 0.000000 2.158160 0.000000 
#    z 0.000000 0.000000 1.976370 
# 
# From -- ./inp_files/16647.got.cif
#   From: 2010.05.17/outbox.cif.g08.bks.cpg/sg53_9_cif.got.tgz:16647.got - 2010.06.03 12:45:16.
