data_PCOD9418547
_publ_section_title
;
Structure prediction by ZEFSAII (Michael W. Deem and Ramdas Pophale) SiO2 
 PCOD9418547
Probable space group: P M N A
;
_chemical_formula_sum "Si O2"
_cell_formula_units_Z 64
_cell_length_a 8.618533
_cell_length_b 24.371679
_cell_length_c 15.858205
_cell_angle_alpha 90.000000
_cell_angle_beta 90.000000
_cell_angle_gamma 90.000000
_cell_volume 3330.986142
_symmetry_space_group_name_H-M "P M N A"
_symmetry_group_IT_number 53
_symmetry_cell_setting 'orthorhombic'
loop_
_space_group_symop_operation_xyz
x,y,z
1/2-x,-y,1/2+z
x,-y,-z
1/2-x,y,1/2-z
-x,-y,-z
1/2+x,y,1/2-z
-x,y,z
1/2+x,-y,1/2+z
loop_
_atom_site_type_symbol
_atom_site_label
_atom_site_fract_x
_atom_site_fract_y
_atom_site_fract_z
Si Si1 0.313502 0.636814 0.159420
Si Si2 0.684530 0.132371 0.839133
Si Si3 0.310718 0.562956 0.000491
Si Si4 0.686897 0.634688 0.840935
Si Si5 0.687081 0.936132 0.495396
Si Si6 0.186691 0.245856 0.407446
Si Si7 0.314114 0.132917 0.339103
Si Si8 0.314584 0.752864 0.402236
O O1 0.250000 0.619024 0.250000
O O2 0.500000 0.638546 0.161169
O O3 0.251123 0.697501 0.138765
O O4 0.263921 0.596306 0.083922
O O5 0.750000 0.111909 0.750000
O O6 0.500000 0.135511 0.835807
O O7 0.737153 0.094223 0.916324
O O8 0.752398 0.192953 0.856336
O O9 0.500000 0.562916 0.000021
O O10 0.260217 0.595534 0.916998
O O11 0.258845 0.500000 0.000000
O O12 0.750000 0.618582 0.750000
O O13 0.500000 0.633078 0.838877
O O14 0.732769 0.697147 0.863233
O O15 0.500000 0.932097 0.486447
O O16 0.730146 0.905250 0.581900
O O17 0.729156 0.000000 0.500000
O O18 0.246341 0.193198 0.357289
O O19 0.257002 0.244670 0.501158
O O20 0.000000 0.244348 0.413784
O O21 0.250000 0.112411 0.250000
O O22 0.500000 0.136040 0.335687
O O23 0.500000 0.752445 0.399503
#
# Coordination Sequence:
#
# PCOD9418547 Si02
#       8
#     8   8   8   8   8   8   8   8
#     4  11  22  39  61  89 122 158 202 249 302 363
#     4  12  25  42  66  94 127 164 206 255 308 369
#     4   9  19  38  61  83 115 160 203 245 299 359
#     4  10  21  37  58  87 118 155 196 240 295 353
#     4  10  23  44  66  91 126 166 209 259 307 358
#     4  11  21  37  61  90 123 158 198 247 305 369
#     4  11  23  39  62  91 125 164 204 250 304 363
#     4  12  23  38  62  92 125 160 199 247 309 371
#
# _framework density 19.213529000000001
#
# number of rings (size 3 to 8) (size 9 to 14) (size 15 to 20)
#    0.000    1.250    2.500    4.125    0.000    3.750 
#    0.000    1.250    0.000    2.625    0.000    0.000 
#    0.000    0.000    0.000    0.000    0.000    0.000 
#
# Total GULP energy -357936.718682 kJ/mol
# GULP energy per Si atom -5592.761229 kJ/mol
# Density = 1.916980 g / cm^3
# Si number density = 19.213529 Si / 1000 Ang^3
#
#
#
# Elastic Constant Matrix: (Units=GPa)
#
#
# Indices 1 2 3 4 5 6 
#
# 1 69.8056 46.0006 55.2066 0.0000 0.0000 0.0000
# 2 46.0006 148.2142 83.2765 0.0000 0.0000 0.0000
# 3 55.2066 83.2765 195.6669 0.0000 0.0000 0.0000
# 4 0.0000 0.0000 0.0000 42.8618 0.0000 0.0000
# 5 0.0000 0.0000 0.0000 0.0000 33.0577 0.0000
# 6 0.0000 0.0000 0.0000 0.0000 0.0000 9.9275
#
#
#
# Elastic Compliance Matrix: (Units=1/GPa)
#
#
# Indices 1 2 3 4 5 6 
#
# 1 0.020105 -0.004012 -0.003965 0.000000 0.000000 0.000000
# 2 -0.004012 0.009668 -0.002983 0.000000 0.000000 0.000000
# 3 -0.003965 -0.002983 0.007499 0.000000 0.000000 0.000000
# 4 0.000000 0.000000 0.000000 0.023331 0.000000 0.000000
# 5 0.000000 0.000000 0.000000 0.000000 0.030250 0.000000
# 6 0.000000 0.000000 0.000000 0.000000 0.000000 0.100730
#
#
# Mechanical properties :
#
#
# Convention : Reuss Voigt Hill
#
# Bulk Modulus (GPa) = 65.13651 86.96157 76.04904
# Shear Modulus (GPa) = 22.87067 32.44959 27.66013
#
# Velocity S-wave (km/s) = 3.45388 4.11407 3.79835
# Velocity P-wave (km/s) = 7.06262 8.24174 7.67486
#
# Compressibility (1/GPa) = 0.01535237
#
# Stress axis : x y z
#
# Youngs Moduli (GPa) = 49.73829 103.43229 133.35246
#
# Poissons Ratio (x) = 0.41499 0.52874
# Poissons Ratio (y) = 0.19956 0.39776
# Poissons Ratio (z) = 0.19721 0.30852
#
# Static dielectric constant tensor:
#      x y z
#    x 1.651520 0.000000 0.000000 
#    y 0.000000 1.646980 0.000000 
#    z 0.000000 0.000000 1.659580 
# 
# From -- ./inp_files/20893.got.cif
#   From: 2010.05.17/outbox.cif.g08.bks.cpg/sg53_11_cif.got.tgz:20893.got - 2010.06.03 12:45:16.
