data_PCOD9418320
_publ_section_title
;
Structure prediction by ZEFSAII (Michael W. Deem and Ramdas Pophale) SiO2 
 PCOD9418320
Probable space group: P M N A
;
_chemical_formula_sum "Si O2"
_cell_formula_units_Z 40
_cell_length_a 26.852917
_cell_length_b 13.987292
_cell_length_c 5.192635
_cell_angle_alpha 90.000000
_cell_angle_beta 90.000000
_cell_angle_gamma 90.000000
_cell_volume 1950.351583
_symmetry_space_group_name_H-M "P M N A"
_symmetry_group_IT_number 53
_symmetry_cell_setting 'orthorhombic'
loop_
_space_group_symop_operation_xyz
x,y,z
1/2-x,-y,1/2+z
x,-y,-z
1/2-x,y,1/2-z
-x,-y,-z
1/2+x,y,1/2-z
-x,y,z
1/2+x,-y,1/2+z
loop_
_atom_site_type_symbol
_atom_site_label
_atom_site_fract_x
_atom_site_fract_y
_atom_site_fract_z
Si Si1 0.282942 0.219528 0.489648
Si Si2 0.343706 0.900320 0.879577
Si Si3 0.442815 0.435824 0.746465
Si Si4 0.621992 0.252377 0.720663
Si Si5 0.055443 0.893349 0.893699
O O1 0.250000 0.207643 0.750000
O O2 0.309630 0.124274 0.368034
O O3 0.332241 0.282495 0.536495
O O4 0.250000 0.254889 0.250000
O O5 0.402076 0.907775 0.816111
O O6 0.347666 0.810120 0.070540
O O7 0.326653 0.000000 0.000000
O O8 0.427638 0.500000 0.500000
O O9 0.500000 0.403882 0.695919
O O10 0.408146 0.345109 0.798952
O O11 0.442783 0.500000 0.000000
O O12 0.581926 0.181518 0.586330
O O13 0.000000 0.860557 0.814607
O O14 0.050353 0.000000 0.000000
#
# Coordination Sequence:
#
# PCOD9418320 Si02
#       5
#     8   8   8   8   8
#     4  11  24  45  66  97 128 177 226 280 335 395
#     4  11  23  41  62  96 138 181 226 274 321 402
#     4  10  24  44  69 102 134 170 220 270 328 399
#     4  11  23  42  67  93 134 177 219 276 335 388
#     4  10  21  35  57  93 137 181 218 258 315 398
#
# _framework density 20.509121
#
# number of rings (size 3 to 8) (size 9 to 14) (size 15 to 20)
#    0.000    1.400    4.000    0.600    5.600    2.000 
#    3.600    0.000    0.000    2.400    0.000    0.000 
#    0.000    0.000    0.000    0.000    0.000    0.000 
#
# Total GULP energy -222794.661041 kJ/mol
# GULP energy per Si atom -5569.866526 kJ/mol
# Density = 2.046244 g / cm^3
# Si number density = 20.509121 Si / 1000 Ang^3
#
#
#
# Elastic Constant Matrix: (Units=GPa)
#
#
# Indices 1 2 3 4 5 6 
#
# 1 116.5956 32.8934 7.4650 0.0000 0.0000 0.0000
# 2 32.8934 90.6567 23.2068 0.0000 0.0000 0.0000
# 3 7.4650 23.2068 68.8423 0.0000 0.0000 0.0000
# 4 0.0000 0.0000 0.0000 21.0514 0.0000 0.0000
# 5 0.0000 0.0000 0.0000 0.0000 8.0995 0.0000
# 6 0.0000 0.0000 0.0000 0.0000 0.0000 -17.7587
#
#
#
# Elastic Compliance Matrix: (Units=1/GPa)
#
#
# Indices 1 2 3 4 5 6 
#
# 1 0.009556 -0.003504 0.000145 0.000000 0.000000 0.000000
# 2 -0.003504 0.013358 -0.004123 0.000000 0.000000 0.000000
# 3 0.000145 -0.004123 0.015900 0.000000 0.000000 0.000000
# 4 0.000000 0.000000 0.000000 0.047503 0.000000 0.000000
# 5 0.000000 0.000000 0.000000 0.000000 0.123464 0.000000
# 6 0.000000 0.000000 0.000000 0.000000 0.000000 -0.056311
#
#
# Mechanical properties :
#
#
# Convention : Reuss Voigt Hill
#
# Bulk Modulus (GPa) = 41.92990 44.80280 43.36635
# Shear Modulus (GPa) = 28.34721 16.44706 22.39713
#
# Velocity S-wave (km/s) = 3.72180 2.83492 3.30821
# Velocity P-wave (km/s) = 6.24163 5.71038 5.98190
#
# Compressibility (1/GPa) = 0.02384933
#
# Stress axis : x y z
#
# Youngs Moduli (GPa) = 104.64617 74.86414 62.89295
#
# Poissons Ratio (x) = 0.26235 -0.00913
# Poissons Ratio (y) = 0.36672 0.25930
# Poissons Ratio (z) = -0.01519 0.30865
#
# Static dielectric constant tensor:
#      x y z
#    x 1.865190 0.000000 0.000000 
#    y 0.000000 1.674980 0.000000 
#    z 0.000000 0.000000 1.857890 
# 
# From -- ./inp_files/4279.got.cif
#   From: 2010.05.17/outbox.cif.g08.bks.cpg/sg53_3_cif.got.tgz:4279.got - 2010.06.03 12:45:16.
