data_PCOD9418556
_publ_section_title
;
Structure prediction by ZEFSAII (Michael W. Deem and Ramdas Pophale) SiO2 
 PCOD9418556
Probable space group: P M N A
;
_chemical_formula_sum "Si O2"
_cell_formula_units_Z 22
_cell_length_a 15.624007
_cell_length_b 5.021467
_cell_length_c 10.957540
_cell_angle_alpha 90.000000
_cell_angle_beta 90.000000
_cell_angle_gamma 90.000000
_cell_volume 859.678573
_symmetry_space_group_name_H-M "P M N A"
_symmetry_group_IT_number 53
_symmetry_cell_setting 'orthorhombic'
loop_
_space_group_symop_operation_xyz
x,y,z
1/2-x,-y,1/2+z
x,-y,-z
1/2-x,y,1/2-z
-x,-y,-z
1/2+x,y,1/2-z
-x,y,z
1/2+x,-y,1/2+z
loop_
_atom_site_type_symbol
_atom_site_label
_atom_site_fract_x
_atom_site_fract_y
_atom_site_fract_z
Si Si1 0.211856 0.000000 0.500000
Si Si2 0.872347 0.846520 0.843105
Si Si3 0.651966 0.651211 0.203102
Si Si4 0.500000 0.500000 0.500000
O O1 0.276954 0.871838 0.599517
O O2 0.157001 0.779383 0.429862
O O3 0.880880 0.642055 0.729923
O O4 0.926909 0.706082 0.946473
O O5 0.895381 0.136733 0.791487
O O6 0.750000 0.647384 0.250000
#
# Coordination Sequence:
#
# PCOD9418556 Si02
#       4
#     4   8   8   2
#     4  10  22  41  66  93 128 156 198 268 320 350
#     4  11  24  36  59  90 118 159 198 244 300 364
#     4  10  21  37  58  90 120 150 199 248 306 359
#     4  12  24  42  60  84 128 162 204 248 300 364
#
# _framework density 25.590958000000001
#
# number of rings (size 3 to 8) (size 9 to 14) (size 15 to 20)
#    0.000    1.455    0.000    7.636    0.000   13.818 
#    0.000    0.000    0.000    6.545    0.000    0.000 
#    0.000    0.000    0.000    0.000    0.000    0.000 
#
# Total GULP energy -122652.787468 kJ/mol
# GULP energy per Si atom -5575.126703 kJ/mol
# Density = 2.553271 g / cm^3
# Si number density = 25.590958 Si / 1000 Ang^3
#
#
#
# Elastic Constant Matrix: (Units=GPa)
#
#
# Indices 1 2 3 4 5 6 
#
# 1 44.6218 17.2622 -1.2546 0.0000 0.0000 0.0000
# 2 17.2622 147.8307 34.3785 0.0000 0.0000 0.0000
# 3 -1.2546 34.3785 110.1944 0.0000 0.0000 0.0000
# 4 0.0000 0.0000 0.0000 62.8060 0.0000 0.0000
# 5 0.0000 0.0000 0.0000 0.0000 -58.5340 0.0000
# 6 0.0000 0.0000 0.0000 0.0000 0.0000 -41.3614
#
#
#
# Elastic Compliance Matrix: (Units=1/GPa)
#
#
# Indices 1 2 3 4 5 6 
#
# 1 0.023621 -0.003041 0.001218 0.000000 0.000000 0.000000
# 2 -0.003041 0.007685 -0.002432 0.000000 0.000000 0.000000
# 3 0.001218 -0.002432 0.009848 0.000000 0.000000 0.000000
# 4 0.000000 0.000000 0.000000 0.015922 0.000000 0.000000
# 5 0.000000 0.000000 0.000000 0.000000 -0.017084 0.000000
# 6 0.000000 0.000000 0.000000 0.000000 0.000000 -0.024177
#
#
# Mechanical properties :
#
#
# Convention : Reuss Voigt Hill
#
# Bulk Modulus (GPa) = 30.63505 44.82436 37.72970
# Shear Modulus (GPa) = 142.01400 9.39949 75.70675
#
# Velocity S-wave (km/s) = 7.45750 1.91858 5.44496
# Velocity P-wave (km/s) = 9.28167 4.73937 7.36923
#
# Compressibility (1/GPa) = 0.03264235
#
# Stress axis : x y z
#
# Youngs Moduli (GPa) = 42.33447 130.11878 101.54795
#
# Poissons Ratio (x) = 0.39575 -0.12367
# Poissons Ratio (y) = 0.12876 0.24699
# Poissons Ratio (z) = -0.05156 0.31649
#
# Static dielectric constant tensor:
#      x y z
#    x 2.064960 0.000000 0.000000 
#    y 0.000000 2.015080 0.000000 
#    z 0.000000 0.000000 2.153100 
# 
# From -- ./inp_files/15216.got.cif
#   From: 2010.05.17/outbox.cif.g08.bks.cpg/sg53_8_cif.got.tgz:15216.got - 2010.06.03 12:45:16.
