data_PCOD9418327
_publ_section_title
;
Structure prediction by ZEFSAII (Michael W. Deem and Ramdas Pophale) SiO2 
 PCOD9418327
Probable space group: P M N A
;
_chemical_formula_sum "Si O2"
_cell_formula_units_Z 44
_cell_length_a 15.854073
_cell_length_b 5.455408
_cell_length_c 23.293454
_cell_angle_alpha 90.000000
_cell_angle_beta 90.000000
_cell_angle_gamma 90.000000
_cell_volume 2014.661008
_symmetry_space_group_name_H-M "P M N A"
_symmetry_group_IT_number 53
_symmetry_cell_setting 'orthorhombic'
loop_
_space_group_symop_operation_xyz
x,y,z
1/2-x,-y,1/2+z
x,-y,-z
1/2-x,y,1/2-z
-x,-y,-z
1/2+x,y,1/2-z
-x,y,z
1/2+x,-y,1/2+z
loop_
_atom_site_type_symbol
_atom_site_label
_atom_site_fract_x
_atom_site_fract_y
_atom_site_fract_z
Si Si1 0.596829 0.103765 0.814601
Si Si2 0.167523 0.602941 0.711484
Si Si3 0.500000 0.250770 0.036224
Si Si4 0.404613 0.251459 0.537624
Si Si5 0.821181 0.361107 0.422524
Si Si6 0.733295 0.860125 0.082665
O O1 0.500000 0.115061 0.836693
O O2 0.615047 0.353372 0.779925
O O3 0.671491 0.106392 0.862554
O O4 0.612664 0.849602 0.781584
O O5 0.250000 0.609782 0.750000
O O6 0.197750 0.599754 0.644856
O O7 0.583345 0.270888 0.073447
O O8 0.500000 0.500000 0.000000
O O9 0.500000 0.000000 0.000000
O O10 0.389685 0.500000 0.500000
O O11 0.500000 0.273016 0.560949
O O12 0.330256 0.224204 0.584460
O O13 0.402965 0.000000 0.500000
O O14 0.811461 0.631432 0.448903
O O15 0.766931 0.132303 0.443801
#
# Coordination Sequence:
#
# PCOD9418327 Si02
#       6
#     8   8   4   8   8   8
#     4  10  21  36  63  91 123 163 203 246 316 402
#     4  10  21  38  63  88 120 163 222 259 312 380
#     4  12  26  40  56  90 136 176 218 250 298 384
#     4  10  21  37  58  82 108 148 209 267 316 367
#     4  10  23  37  60  86 125 167 205 256 312 370
#     4  10  21  35  60  83 117 160 204 250 314 379
#
# _framework density 21.839901000000001
#
# number of rings (size 3 to 8) (size 9 to 14) (size 15 to 20)
#    0.000    1.818    0.000    3.273   10.182    4.364 
#    0.000    0.000    0.000   26.182    0.000    0.000 
#    0.000    0.000    0.000    0.000    0.000    0.000 
#
# Total GULP energy -245329.147683 kJ/mol
# GULP energy per Si atom -5575.662447 kJ/mol
# Density = 2.179019 g / cm^3
# Si number density = 21.839901 Si / 1000 Ang^3
#
#
#
# Elastic Constant Matrix: (Units=GPa)
#
#
# Indices 1 2 3 4 5 6 
#
# 1 188.3275 32.6794 31.7445 0.0000 0.0000 0.0000
# 2 32.6794 221.9216 16.3011 0.0000 0.0000 0.0000
# 3 31.7445 16.3011 52.2162 0.0000 0.0000 0.0000
# 4 0.0000 0.0000 0.0000 11.0064 0.0000 0.0000
# 5 0.0000 0.0000 0.0000 0.0000 24.1995 0.0000
# 6 0.0000 0.0000 0.0000 0.0000 0.0000 37.4316
#
#
#
# Elastic Compliance Matrix: (Units=1/GPa)
#
#
# Indices 1 2 3 4 5 6 
#
# 1 0.006001 -0.000630 -0.003452 0.000000 0.000000 0.000000
# 2 -0.000630 0.004678 -0.001077 0.000000 0.000000 0.000000
# 3 -0.003452 -0.001077 0.021586 0.000000 0.000000 0.000000
# 4 0.000000 0.000000 0.000000 0.090856 0.000000 0.000000
# 5 0.000000 0.000000 0.000000 0.000000 0.041323 0.000000
# 6 0.000000 0.000000 0.000000 0.000000 0.000000 0.026715
#
#
# Mechanical properties :
#
#
# Convention : Reuss Voigt Hill
#
# Bulk Modulus (GPa) = 45.56465 69.32390 57.44428
# Shear Modulus (GPa) = 23.94711 39.97685 31.96198
#
# Velocity S-wave (km/s) = 3.31491 4.28302 3.82968
# Velocity P-wave (km/s) = 5.96321 7.50132 6.77605
#
# Compressibility (1/GPa) = 0.02194684
#
# Stress axis : x y z
#
# Youngs Moduli (GPa) = 166.63772 213.76548 46.32667
#
# Poissons Ratio (x) = 0.13471 0.15990
# Poissons Ratio (y) = 0.10501 0.04991
# Poissons Ratio (z) = 0.57516 0.23029
#
# Static dielectric constant tensor:
#      x y z
#    x 1.776930 0.000000 0.000000 
#    y 0.000000 1.852790 0.000000 
#    z 0.000000 0.000000 1.842200 
# 
# From -- ./inp_files/36952.got.cif
#   From: 2010.05.17/outbox.cif.g08.bks.cpg/sg53_19_cif.got.tgz:36952.got - 2010.06.03 12:45:16.
