data_PCOD9418750
_publ_section_title
;
Structure prediction by ZEFSAII (Michael W. Deem and Ramdas Pophale) SiO2 
 PCOD9418750
Probable space group: P M N A
;
_chemical_formula_sum "Si O2"
_cell_formula_units_Z 56
_cell_length_a 16.784781
_cell_length_b 14.715882
_cell_length_c 9.923906
_cell_angle_alpha 90.000000
_cell_angle_beta 90.000000
_cell_angle_gamma 90.000000
_cell_volume 2451.233131
_symmetry_space_group_name_H-M "P M N A"
_symmetry_group_IT_number 53
_symmetry_cell_setting 'orthorhombic'
loop_
_space_group_symop_operation_xyz
x,y,z
1/2-x,-y,1/2+z
x,-y,-z
1/2-x,y,1/2-z
-x,-y,-z
1/2+x,y,1/2-z
-x,y,z
1/2+x,-y,1/2+z
loop_
_atom_site_type_symbol
_atom_site_label
_atom_site_fract_x
_atom_site_fract_y
_atom_site_fract_z
Si Si1 0.905573 0.907281 0.390860
Si Si2 0.908946 0.608908 0.265487
Si Si3 0.713130 0.603168 0.987077
Si Si4 0.331549 0.912069 0.821574
Si Si5 0.659693 0.750225 0.614309
Si Si6 0.585684 0.407900 0.248608
Si Si7 0.592314 0.794068 0.362499
O O1 0.845444 0.896195 0.517438
O O2 0.883693 0.834375 0.279492
O O3 0.000000 0.897876 0.429835
O O4 0.893670 0.004081 0.314932
O O5 0.840705 0.617361 0.379129
O O6 0.906270 0.510027 0.198036
O O7 0.898295 0.686530 0.156392
O O8 0.000000 0.620329 0.321320
O O9 0.769028 0.686246 0.940425
O O10 0.652732 0.598778 0.862754
O O11 0.748569 0.500000 0.000000
O O12 0.250000 0.946868 0.750000
O O13 0.160498 0.815398 0.754428
O O14 0.594449 0.673907 0.648467
O O15 0.640198 0.819296 0.494134
O O16 0.500000 0.401964 0.180400
O O17 0.500000 0.817237 0.382486
#
# Coordination Sequence:
#
# PCOD9418750 Si02
#       7
#     8   8   8   8   8   8   8
#     4  10  25  51  79 101 133 186 240 285 342 428
#     4   9  20  40  64  91 130 182 237 280 328 403
#     4  10  22  40  62  93 136 180 234 281 338 405
#     4  11  25  46  71 105 140 175 225 289 357 420
#     4  12  26  40  64 105 144 180 225 291 357 408
#     4  10  21  38  63  93 132 182 235 290 341 398
#     4  10  24  43  66  99 135 179 230 280 342 410
#
# _framework density 22.845642999999999
#
# number of rings (size 3 to 8) (size 9 to 14) (size 15 to 20)
#    0.000    1.714    0.000    3.000    6.000    7.429 
#    0.000    3.571    0.000    0.000    0.000    0.000 
#    0.000    0.000    0.000    0.000    0.000    0.000 
#
# Total GULP energy -311982.259861 kJ/mol
# GULP energy per Si atom -5571.111783 kJ/mol
# Density = 2.279365 g / cm^3
# Si number density = 22.845643 Si / 1000 Ang^3
#
#
#
# Elastic Constant Matrix: (Units=GPa)
#
#
# Indices 1 2 3 4 5 6 
#
# 1 73.8405 38.1206 49.8508 0.0000 0.0000 0.0000
# 2 38.1206 70.7933 54.3644 0.0000 0.0000 0.0000
# 3 49.8508 54.3644 102.7897 0.0000 0.0000 0.0000
# 4 0.0000 0.0000 0.0000 12.4429 0.0000 0.0000
# 5 0.0000 0.0000 0.0000 0.0000 274.2568 0.0000
# 6 0.0000 0.0000 0.0000 0.0000 0.0000 27.3754
#
#
#
# Elastic Compliance Matrix: (Units=1/GPa)
#
#
# Indices 1 2 3 4 5 6 
#
# 1 0.021562 -0.006029 -0.007269 0.000000 0.000000 0.000000
# 2 -0.006029 0.025472 -0.010548 0.000000 0.000000 0.000000
# 3 -0.007269 -0.010548 0.018832 0.000000 0.000000 0.000000
# 4 0.000000 0.000000 0.000000 0.080367 0.000000 0.000000
# 5 0.000000 0.000000 0.000000 0.000000 0.003646 0.000000
# 6 0.000000 0.000000 0.000000 0.000000 0.000000 0.036529
#
#
# Mechanical properties :
#
#
# Convention : Reuss Voigt Hill
#
# Bulk Modulus (GPa) = 55.01845 59.12170 57.07007
# Shear Modulus (GPa) = 20.81945 69.82087 45.32016
#
# Velocity S-wave (km/s) = 3.02207 5.53429 4.45877
# Velocity P-wave (km/s) = 6.02596 8.17146 7.17931
#
# Compressibility (1/GPa) = 0.01817572
#
# Stress axis : x y z
#
# Youngs Moduli (GPa) = 46.37702 39.25819 53.09975
#
# Poissons Ratio (x) = 0.23669 0.38596
# Poissons Ratio (y) = 0.27961 0.56010
# Poissons Ratio (z) = 0.33709 0.41410
#
# Static dielectric constant tensor:
#      x y z
#    x 1.900470 0.000000 0.000000 
#    y 0.000000 1.905290 0.000000 
#    z 0.000000 0.000000 1.888780 
# 
# From -- ./inp_files/16087.got.cif
#   From: 2010.05.17/outbox.cif.g08.bks.cpg/sg53_9_cif.got.tgz:16087.got - 2010.06.03 12:45:16.
