data_PCOD9418893
_publ_section_title
;
Structure prediction by ZEFSAII (Michael W. Deem and Ramdas Pophale) SiO2 
 PCOD9418893
Probable space group: P M N A
;
_chemical_formula_sum "Si O2"
_cell_formula_units_Z 56
_cell_length_a 21.947898
_cell_length_b 7.919026
_cell_length_c 13.817338
_cell_angle_alpha 90.000000
_cell_angle_beta 90.000000
_cell_angle_gamma 90.000000
_cell_volume 2401.535902
_symmetry_space_group_name_H-M "P M N A"
_symmetry_group_IT_number 53
_symmetry_cell_setting 'orthorhombic'
loop_
_space_group_symop_operation_xyz
x,y,z
1/2-x,-y,1/2+z
x,-y,-z
1/2-x,y,1/2-z
-x,-y,-z
1/2+x,y,1/2-z
-x,y,z
1/2+x,-y,1/2+z
loop_
_atom_site_type_symbol
_atom_site_label
_atom_site_fract_x
_atom_site_fract_y
_atom_site_fract_z
Si Si1 0.744050 0.881244 0.868786
Si Si2 0.153223 0.335387 0.041917
Si Si3 0.847212 0.415984 0.402904
Si Si4 0.931133 0.434037 0.221605
Si Si5 0.433556 0.859946 0.418659
Si Si6 0.205152 0.765666 0.342409
Si Si7 0.432094 0.174617 0.784369
O O1 0.750000 0.871913 0.750000
O O2 0.804901 0.803268 0.910825
O O3 0.691403 0.755669 0.908387
O O4 0.735020 0.076264 0.897238
O O5 0.105008 0.387532 0.124727
O O6 0.186832 0.500000 0.000000
O O7 0.119857 0.262113 0.948434
O O8 0.876172 0.500000 0.500000
O O9 0.895276 0.379012 0.318081
O O10 0.802987 0.572027 0.373809
O O11 0.933475 0.636204 0.239567
O O12 0.000000 0.369521 0.217223
O O13 0.500000 0.774929 0.424735
O O14 0.427777 0.938095 0.312235
O O15 0.432843 0.000000 0.500000
O O16 0.250000 0.753973 0.250000
O O17 0.134112 0.829575 0.333316
O O18 0.500000 0.147518 0.830254
#
# Coordination Sequence:
#
# PCOD9418893 Si02
#       7
#     8   8   8   8   8   8   8
#     4  11  24  43  63  95 131 172 225 276 328 406
#     4  12  23  39  65  95 132 173 215 273 341 401
#     4  11  24  44  67  92 131 174 223 278 331 390
#     4  10  21  39  67  96 129 171 221 273 332 404
#     4  10  22  35  54  91 134 168 208 258 322 408
#     4  10  24  41  69  94 134 176 220 276 339 399
#     4   9  19  38  62  93 131 173 215 265 336 406
#
# _framework density 23.318408999999999
#
# number of rings (size 3 to 8) (size 9 to 14) (size 15 to 20)
#    0.000    1.571    2.857    1.286    6.000    2.571 
#    0.000    0.714    0.000    0.000    0.000    5.000 
#    0.000    0.000    0.000    0.000    0.000    0.000 
#
# Total GULP energy -312491.342545 kJ/mol
# GULP energy per Si atom -5580.202545 kJ/mol
# Density = 2.326534 g / cm^3
# Si number density = 23.318409 Si / 1000 Ang^3
#
#
#
# Elastic Constant Matrix: (Units=GPa)
#
#
# Indices 1 2 3 4 5 6 
#
# 1 116.3470 26.8287 22.6684 0.0000 0.0000 0.0000
# 2 26.8287 82.2814 4.4249 0.0000 0.0000 0.0000
# 3 22.6684 4.4249 53.2898 0.0000 0.0000 0.0000
# 4 0.0000 0.0000 0.0000 32.2200 0.0000 0.0000
# 5 0.0000 0.0000 0.0000 0.0000 33.1941 0.0000
# 6 0.0000 0.0000 0.0000 0.0000 0.0000 47.6976
#
#
#
# Elastic Compliance Matrix: (Units=1/GPa)
#
#
# Indices 1 2 3 4 5 6 
#
# 1 0.010090 -0.003073 -0.004037 0.000000 0.000000 0.000000
# 2 -0.003073 0.013144 0.000216 0.000000 0.000000 0.000000
# 3 -0.004037 0.000216 0.020465 0.000000 0.000000 0.000000
# 4 0.000000 0.000000 0.000000 0.031037 0.000000 0.000000
# 5 0.000000 0.000000 0.000000 0.000000 0.030126 0.000000
# 6 0.000000 0.000000 0.000000 0.000000 0.000000 0.020965
#
#
# Mechanical properties :
#
#
# Convention : Reuss Voigt Hill
#
# Bulk Modulus (GPa) = 33.43327 39.97356 36.70341
# Shear Modulus (GPa) = 33.42589 35.82209 34.62399
#
# Velocity S-wave (km/s) = 3.79021 3.92371 3.85754
# Velocity P-wave (km/s) = 5.78991 6.14061 5.96783
#
# Compressibility (1/GPa) = 0.02991033
#
# Stress axis : x y z
#
# Youngs Moduli (GPa) = 99.10701 76.08171 48.86476
#
# Poissons Ratio (x) = 0.23379 0.19727
# Poissons Ratio (y) = 0.30454 -0.01054
# Poissons Ratio (z) = 0.40009 -0.01642
#
# Static dielectric constant tensor:
#      x y z
#    x 1.912580 0.000000 0.000000 
#    y 0.000000 1.984180 0.000000 
#    z 0.000000 0.000000 2.004710 
# 
# From -- ./inp_files/24320.got.cif
#   From: 2010.05.17/outbox.cif.g08.bks.cpg/sg53_13_cif.got.tgz:24320.got - 2010.06.03 12:45:16.
