data_PCOD9418107
_publ_section_title
;
Structure prediction by ZEFSAII (Michael W. Deem and Ramdas Pophale) SiO2 
 PCOD9418107
Probable space group: P M N A
;
_chemical_formula_sum "Si O2"
_cell_formula_units_Z 38
_cell_length_a 11.209639
_cell_length_b 10.294042
_cell_length_c 12.157983
_cell_angle_alpha 90.000000
_cell_angle_beta 90.000000
_cell_angle_gamma 90.000000
_cell_volume 1402.939989
_symmetry_space_group_name_H-M "P M N A"
_symmetry_group_IT_number 53
_symmetry_cell_setting 'orthorhombic'
loop_
_space_group_symop_operation_xyz
x,y,z
1/2-x,-y,1/2+z
x,-y,-z
1/2-x,y,1/2-z
-x,-y,-z
1/2+x,y,1/2-z
-x,y,z
1/2+x,-y,1/2+z
loop_
_atom_site_type_symbol
_atom_site_label
_atom_site_fract_x
_atom_site_fract_y
_atom_site_fract_z
Si Si1 0.754788 0.000000 0.000000
Si Si2 0.128112 0.988939 0.776764
Si Si3 0.124579 0.404947 0.716221
Si Si4 0.871302 0.609377 0.905608
Si Si5 0.632948 0.773868 0.914177
Si Si6 0.000000 0.500000 0.500000
O O1 0.662674 0.878714 0.009936
O O2 0.843539 0.961043 0.902854
O O3 0.250000 0.063170 0.750000
O O4 0.000000 0.049788 0.762536
O O5 0.127369 0.862908 0.696226
O O6 0.250000 0.343226 0.750000
O O7 0.250780 0.689586 0.590278
O O8 0.125550 0.536048 0.789210
O O9 0.000000 0.336823 0.749442
O O10 0.500000 0.680391 0.583308
O O11 0.870540 0.500000 0.000000
O O12 0.603704 0.445039 0.909833
O O13 0.500000 0.707812 0.927741
#
# Coordination Sequence:
#
# PCOD9418107 Si02
#       6
#     4   8   8   8   8   2
#     4  10  20  38  68 102 144 190 234 308 388 464
#     4   9  19  35  60  97 140 184 235 292 364 449
#     4   9  20  38  65  97 137 187 249 321 378 457
#     4  10  23  43  69 107 154 208 267 329 386 475
#     4  10  22  41  67 109 153 195 253 322 394 469
#     4   8  20  40  64 104 136 182 260 324 392 450
#
# _framework density 27.085975000000001
#
# number of rings (size 3 to 8) (size 9 to 14) (size 15 to 20)
#    0.632    1.895    0.000    0.632    1.474    8.842 
#    0.000   10.526    0.000    3.789    0.000   11.789 
#    0.000    0.000    0.000    0.000    0.000    0.000 
#
# Total GULP energy -211847.741413 kJ/mol
# GULP energy per Si atom -5574.940564 kJ/mol
# Density = 2.702433 g / cm^3
# Si number density = 27.085975 Si / 1000 Ang^3
#
#
#
# Elastic Constant Matrix: (Units=GPa)
#
#
# Indices 1 2 3 4 5 6 
#
# 1 372.2928 96.4563 66.5536 0.0000 0.0000 0.0000
# 2 96.4563 96.2781 28.3328 0.0000 0.0000 0.0000
# 3 66.5536 28.3328 162.2957 0.0000 0.0000 0.0000
# 4 0.0000 0.0000 0.0000 20.7979 0.0000 0.0000
# 5 0.0000 0.0000 0.0000 0.0000 38.6668 0.0000
# 6 0.0000 0.0000 0.0000 0.0000 0.0000 4.3164
#
#
#
# Elastic Compliance Matrix: (Units=1/GPa)
#
#
# Indices 1 2 3 4 5 6 
#
# 1 0.003757 -0.003490 -0.000931 0.000000 0.000000 0.000000
# 2 -0.003490 0.014190 -0.001046 0.000000 0.000000 0.000000
# 3 -0.000931 -0.001046 0.006726 0.000000 0.000000 0.000000
# 4 0.000000 0.000000 0.000000 0.048082 0.000000 0.000000
# 5 0.000000 0.000000 0.000000 0.000000 0.025862 0.000000
# 6 0.000000 0.000000 0.000000 0.000000 0.000000 0.231674
#
#
# Mechanical properties :
#
#
# Convention : Reuss Voigt Hill
#
# Bulk Modulus (GPa) = 72.78590 112.61689 92.70139
# Shear Modulus (GPa) = 14.45900 42.05782 28.25841
#
# Velocity S-wave (km/s) = 2.31296 3.94477 3.23350
# Velocity P-wave (km/s) = 5.83640 7.90039 6.94549
#
# Compressibility (1/GPa) = 0.01373892
#
# Stress axis : x y z
#
# Youngs Moduli (GPa) = 266.19544 70.46979 148.67300
#
# Poissons Ratio (x) = 0.24591 0.13846
# Poissons Ratio (y) = 0.92889 0.15556
# Poissons Ratio (z) = 0.24791 0.07374
#
# Static dielectric constant tensor:
#      x y z
#    x 2.164500 0.000000 0.000000 
#    y 0.000000 2.085110 0.000000 
#    z 0.000000 0.000000 2.185810 
# 
# From -- ./inp_files/14816.got.cif
#   From: 2010.05.17/outbox.cif.g08.bks.cpg/sg53_8_cif.got.tgz:14816.got - 2010.06.03 12:45:16.
