data_PCOD9418413
_publ_section_title
;
Structure prediction by ZEFSAII (Michael W. Deem and Ramdas Pophale) SiO2 
 PCOD9418413
Probable space group: P M N A
;
_chemical_formula_sum "Si O2"
_cell_formula_units_Z 56
_cell_length_a 16.116544
_cell_length_b 14.053316
_cell_length_c 11.979049
_cell_angle_alpha 90.000000
_cell_angle_beta 90.000000
_cell_angle_gamma 90.000000
_cell_volume 2713.145417
_symmetry_space_group_name_H-M "P M N A"
_symmetry_group_IT_number 53
_symmetry_cell_setting 'orthorhombic'
loop_
_space_group_symop_operation_xyz
x,y,z
1/2-x,-y,1/2+z
x,-y,-z
1/2-x,y,1/2-z
-x,-y,-z
1/2+x,y,1/2-z
-x,y,z
1/2+x,-y,1/2+z
loop_
_atom_site_type_symbol
_atom_site_label
_atom_site_fract_x
_atom_site_fract_y
_atom_site_fract_z
Si Si1 0.092059 0.332195 0.804154
Si Si2 0.908388 0.392536 0.548208
Si Si3 0.778635 0.386787 0.991071
Si Si4 0.904514 0.071240 0.254630
Si Si5 0.817247 0.107320 0.485640
Si Si6 0.191180 0.770553 0.858645
Si Si7 0.153911 0.135653 0.733088
O O1 0.097368 0.382320 0.682500
O O2 0.168880 0.361415 0.881315
O O3 0.100067 0.218525 0.786523
O O4 0.000000 0.354285 0.850497
O O5 0.910872 0.500000 0.500000
O O6 0.818722 0.354585 0.507503
O O7 0.000000 0.350036 0.517387
O O8 0.778377 0.500000 0.000000
O O9 0.824218 0.333476 0.093159
O O10 0.876642 0.102352 0.378640
O O11 0.882364 0.159518 0.175813
O O12 0.000000 0.048263 0.253011
O O13 0.858096 0.972585 0.225638
O O14 0.741284 0.174640 0.455436
O O15 0.861894 0.134694 0.599983
O O16 0.784945 0.000000 0.500000
O O17 0.250000 0.764909 0.750000
O O18 0.250000 0.161002 0.750000
#
# Coordination Sequence:
#
# PCOD9418413 Si02
#       7
#     8   8   8   8   8   8   8
#     4  11  23  38  59  90 125 160 203 250 300 365
#     4   9  19  37  62  92 122 152 195 254 313 368
#     4  11  24  41  63  85 115 160 205 254 313 366
#     4  10  21  36  56  85 120 156 195 242 296 359
#     4   9  18  33  57  84 113 151 189 231 291 358
#     4  10  21  39  58  82 115 153 200 247 297 362
#     4  11  20  35  61  88 117 154 196 245 303 362
#
# _framework density 20.640250000000002
#
# number of rings (size 3 to 8) (size 9 to 14) (size 15 to 20)
#    0.000    1.857    0.000    5.571    0.000    6.286 
#    0.000    4.286    0.000    6.429    0.000    0.000 
#    0.000    0.000    0.000    0.000    0.000    0.000 
#
# Total GULP energy -312385.588360 kJ/mol
# GULP energy per Si atom -5578.314078 kJ/mol
# Density = 2.059327 g / cm^3
# Si number density = 20.640250 Si / 1000 Ang^3
#
#
#
# Elastic Constant Matrix: (Units=GPa)
#
#
# Indices 1 2 3 4 5 6 
#
# 1 92.1159 24.8374 16.0410 0.0000 0.0000 0.0000
# 2 24.8374 81.6246 29.3195 0.0000 0.0000 0.0000
# 3 16.0410 29.3195 41.5116 0.0000 0.0000 0.0000
# 4 0.0000 0.0000 0.0000 34.0229 0.0000 0.0000
# 5 0.0000 0.0000 0.0000 0.0000 12.2355 0.0000
# 6 0.0000 0.0000 0.0000 0.0000 0.0000 21.6143
#
#
#
# Elastic Compliance Matrix: (Units=1/GPa)
#
#
# Indices 1 2 3 4 5 6 
#
# 1 0.012060 -0.002674 -0.002771 0.000000 0.000000 0.000000
# 2 -0.002674 0.017009 -0.010980 0.000000 0.000000 0.000000
# 3 -0.002771 -0.010980 0.032916 0.000000 0.000000 0.000000
# 4 0.000000 0.000000 0.000000 0.029392 0.000000 0.000000
# 5 0.000000 0.000000 0.000000 0.000000 0.081730 0.000000
# 6 0.000000 0.000000 0.000000 0.000000 0.000000 0.046266
#
#
# Mechanical properties :
#
#
# Convention : Reuss Voigt Hill
#
# Bulk Modulus (GPa) = 34.32510 39.51644 36.92077
# Shear Modulus (GPa) = 19.08882 23.24480 21.16681
#
# Velocity S-wave (km/s) = 3.04441 3.35951 3.20583
# Velocity P-wave (km/s) = 5.38741 5.85110 5.62403
#
# Compressibility (1/GPa) = 0.02913320
#
# Stress axis : x y z
#
# Youngs Moduli (GPa) = 82.92203 58.79277 30.38068
#
# Poissons Ratio (x) = 0.15722 0.08420
# Poissons Ratio (y) = 0.22174 0.33358
# Poissons Ratio (z) = 0.22981 0.64554
#
# Static dielectric constant tensor:
#      x y z
#    x 1.719910 0.000000 0.000000 
#    y 0.000000 1.755150 0.000000 
#    z 0.000000 0.000000 1.743010 
# 
# From -- ./inp_files/16050.got.cif
#   From: 2010.05.17/outbox.cif.g08.bks.cpg/sg53_9_cif.got.tgz:16050.got - 2010.06.03 12:45:16.
