data_PCOD9418263
_publ_section_title
;
Structure prediction by ZEFSAII (Michael W. Deem and Ramdas Pophale) SiO2 
 PCOD9418263
Probable space group: P M N A
;
_chemical_formula_sum "Si O2"
_cell_formula_units_Z 56
_cell_length_a 7.809619
_cell_length_b 14.130659
_cell_length_c 29.600351
_cell_angle_alpha 90.000000
_cell_angle_beta 90.000000
_cell_angle_gamma 90.000000
_cell_volume 3266.548600
_symmetry_space_group_name_H-M "P M N A"
_symmetry_group_IT_number 53
_symmetry_cell_setting 'orthorhombic'
loop_
_space_group_symop_operation_xyz
x,y,z
1/2-x,-y,1/2+z
x,-y,-z
1/2-x,y,1/2-z
-x,-y,-z
1/2+x,y,1/2-z
-x,y,z
1/2+x,-y,1/2+z
loop_
_atom_site_type_symbol
_atom_site_label
_atom_site_fract_x
_atom_site_fract_y
_atom_site_fract_z
Si Si1 0.793946 0.764313 0.300551
Si Si2 0.208272 0.893296 0.445285
Si Si3 0.204888 0.206355 0.465976
Si Si4 0.206195 0.299300 0.605365
Si Si5 0.209507 0.078056 0.390494
Si Si6 0.794058 0.982335 0.300493
Si Si7 0.202267 0.398942 0.984775
O O1 0.750000 0.732261 0.250000
O O2 0.733371 0.700838 0.342725
O O3 0.731272 0.873405 0.305818
O O4 0.000000 0.767886 0.303504
O O5 0.269408 0.865984 0.495224
O O6 0.254522 0.803967 0.414149
O O7 0.000000 0.897175 0.446867
O O8 0.261903 0.990281 0.422462
O O9 0.266720 0.172325 0.416888
O O10 0.237746 0.311248 0.484344
O O11 0.000000 0.195976 0.465388
O O12 0.264190 0.373838 0.567714
O O13 0.000000 0.304078 0.605259
O O14 0.000000 0.079599 0.388505
O O15 0.268968 0.050700 0.340346
O O16 0.750000 0.013724 0.250000
O O17 0.000000 0.977683 0.304105
O O18 0.000000 0.402369 0.990827
O O19 0.276188 0.500000 0.000000
#
# Coordination Sequence:
#
# PCOD9418263 Si02
#       7
#     8   8   8   8   8   8   8
#     4   9  16  26  41  64  92 122 153 182 212 249
#     4   8  12  21  38  62  88 112 141 174 207 244
#     4   9  17  27  45  68  85 108 146 184 215 253
#     4   9  16  28  47  68  88 116 154 187 213 250
#     4   9  14  23  41  64  88 116 148 180 211 247
#     4   9  16  26  40  59  88 122 155 183 208 245
#     4  10  21  35  48  63  87 116 143 178 232 286
#
# _framework density 17.143478000000002
#
# number of rings (size 3 to 8) (size 9 to 14) (size 15 to 20)
#    0.000    3.000    1.429    1.714    0.000    3.429 
#    0.000    0.714    0.000    6.857    0.000    1.000 
#    0.000    2.286    0.000    0.000    0.000    0.000 
#
# Total GULP energy -311786.861723 kJ/mol
# GULP energy per Si atom -5567.622531 kJ/mol
# Density = 1.710446 g / cm^3
# Si number density = 17.143478 Si / 1000 Ang^3
#
#
#
# Elastic Constant Matrix: (Units=GPa)
#
#
# Indices 1 2 3 4 5 6 
#
# 1 12.9397 -2.2484 0.9337 0.0000 0.0000 0.0000
# 2 -2.2484 67.5064 72.4393 0.0000 0.0000 0.0000
# 3 0.9337 72.4393 150.2441 0.0000 0.0000 0.0000
# 4 0.0000 0.0000 0.0000 16.0542 0.0000 0.0000
# 5 0.0000 0.0000 0.0000 0.0000 17.7904 0.0000
# 6 0.0000 0.0000 0.0000 0.0000 0.0000-1126.4963
#
#
#
# Elastic Compliance Matrix: (Units=1/GPa)
#
#
# Indices 1 2 3 4 5 6 
#
# 1 0.078676 0.006517 -0.003631 0.000000 0.000000 0.000000
# 2 0.006517 0.031233 -0.015099 0.000000 0.000000 0.000000
# 3 -0.003631 -0.015099 0.013959 0.000000 0.000000 0.000000
# 4 0.000000 0.000000 0.000000 0.062289 0.000000 0.000000
# 5 0.000000 0.000000 0.000000 0.000000 0.056210 0.000000
# 6 0.000000 0.000000 0.000000 0.000000 0.000000 -0.000888
#
#
# Mechanical properties :
#
#
# Convention : Reuss Voigt Hill
#
# Bulk Modulus (GPa) = 10.05625 41.43769 25.74697
# Shear Modulus (GPa) = 16.71942 -207.89265 -95.58662
#
# Velocity S-wave (km/s) = 3.12631 -11.02405 -7.47515
# Velocity P-wave (km/s) = 4.34861 11.73950 7.71056
#
# Compressibility (1/GPa) = 0.09944060
#
# Stress axis : x y z
#
# Youngs Moduli (GPa) = 12.71034 32.01710 71.64085
#
# Poissons Ratio (x) = -0.20865 0.26012
# Poissons Ratio (y) = -0.08283 1.08174
# Poissons Ratio (z) = 0.04615 0.48344
#
# Static dielectric constant tensor:
#      x y z
#    x 1.638710 0.000000 0.000000 
#    y 0.000000 1.576380 0.000000 
#    z 0.000000 0.000000 1.626030 
# 
# From -- ./inp_files/38370.got.cif
#   From: 2010.05.17/outbox.cif.g08.bks.cpg/sg53_20_cif.got.tgz:38370.got - 2010.06.03 12:45:16.
