data_PCOD9418029
_publ_section_title
;
Structure prediction by ZEFSAII (Michael W. Deem and Ramdas Pophale) SiO2 
 PCOD9418029
Probable space group: P M N A
;
_chemical_formula_sum "Si O2"
_cell_formula_units_Z 20
_cell_length_a 16.273946
_cell_length_b 11.424938
_cell_length_c 4.961267
_cell_angle_alpha 90.000000
_cell_angle_beta 90.000000
_cell_angle_gamma 90.000000
_cell_volume 922.442539
_symmetry_space_group_name_H-M "P M N A"
_symmetry_group_IT_number 53
_symmetry_cell_setting 'orthorhombic'
loop_
_space_group_symop_operation_xyz
x,y,z
1/2-x,-y,1/2+z
x,-y,-z
1/2-x,y,1/2-z
-x,-y,-z
1/2+x,y,1/2-z
-x,y,z
1/2+x,-y,1/2+z
loop_
_atom_site_type_symbol
_atom_site_label
_atom_site_fract_x
_atom_site_fract_y
_atom_site_fract_z
Si Si1 0.344637 0.749777 0.843767
Si Si2 0.095073 0.883106 0.144493
Si Si3 0.310314 0.500000 0.000000
O O1 0.250000 0.754194 0.750000
O O2 0.397872 0.785793 0.587218
O O3 0.360341 0.617094 0.937439
O O4 0.359651 0.838250 0.090006
O O5 0.000000 0.904946 0.216752
O O6 0.128693 0.000000 0.000000
O O7 0.250000 0.473389 0.750000
#
# Coordination Sequence:
#
# PCOD9418029 Si02
#       3
#     8   8   4
#     4  11  22  40  65  92 119 158 209 252 293 359
#     4  11  24  42  62  88 128 166 196 245 312 363
#     4  10  20  38  61  88 123 158 194 252 316 352
#
# _framework density 21.681567999999999
#
# number of rings (size 3 to 8) (size 9 to 14) (size 15 to 20)
#    0.000    1.200    0.000    8.400    0.000    6.400 
#    0.000    8.000    0.000    0.000    0.000    0.000 
#    0.000    0.000    0.000    0.000    0.000    0.000 
#
# Total GULP energy -111903.021162 kJ/mol
# GULP energy per Si atom -5595.151058 kJ/mol
# Density = 2.163222 g / cm^3
# Si number density = 21.681568 Si / 1000 Ang^3
#
#
#
# Elastic Constant Matrix: (Units=GPa)
#
#
# Indices 1 2 3 4 5 6 
#
# 1 38.2921 28.8392 20.0978 0.0000 0.0000 0.0000
# 2 28.8392 96.2937 34.8205 0.0000 0.0000 0.0000
# 3 20.0978 34.8205 143.3982 0.0000 0.0000 0.0000
# 4 0.0000 0.0000 0.0000 42.9841 0.0000 0.0000
# 5 0.0000 0.0000 0.0000 0.0000 -4.6528 0.0000
# 6 0.0000 0.0000 0.0000 0.0000 0.0000 -99.7543
#
#
#
# Elastic Compliance Matrix: (Units=1/GPa)
#
#
# Indices 1 2 3 4 5 6 
#
# 1 0.034554 -0.009425 -0.002554 0.000000 0.000000 0.000000
# 2 -0.009425 0.013955 -0.002068 0.000000 0.000000 0.000000
# 3 -0.002554 -0.002068 0.007834 0.000000 0.000000 0.000000
# 4 0.000000 0.000000 0.000000 0.023264 0.000000 0.000000
# 5 0.000000 0.000000 0.000000 0.000000 -0.214922 0.000000
# 6 0.000000 0.000000 0.000000 0.000000 0.000000 -0.010025
#
#
# Mechanical properties :
#
#
# Convention : Reuss Voigt Hill
#
# Bulk Modulus (GPa) = 35.39947 49.49987 42.44967
# Shear Modulus (GPa) = -46.36964 0.66383 -22.85291
#
# Velocity S-wave (km/s) = -4.62959 0.55393 -3.25010
# Velocity P-wave (km/s) = 3.49500 4.82587 2.35309
#
# Compressibility (1/GPa) = 0.02824901
#
# Stress axis : x y z
#
# Youngs Moduli (GPa) = 28.94018 71.65724 127.65411
#
# Poissons Ratio (x) = 0.67537 0.32606
# Poissons Ratio (y) = 0.27276 0.26395
# Poissons Ratio (z) = 0.07392 0.14817
#
# Static dielectric constant tensor:
#      x y z
#    x 1.770470 0.000000 0.000000 
#    y 0.000000 1.829560 0.000000 
#    z 0.000000 0.000000 1.729180 
# 
# From -- ./inp_files/919.got.cif
#   From: 2010.05.17/outbox.cif.g08.bks.cpg/sg53_1_cif.got.tgz:919.got - 2010.06.03 12:45:16.
