data_PCOD9418582
_publ_section_title
;
Structure prediction by ZEFSAII (Michael W. Deem and Ramdas Pophale) SiO2 
 PCOD9418582
Probable space group: P M N A
;
_chemical_formula_sum "Si O2"
_cell_formula_units_Z 32
_cell_length_a 18.564246
_cell_length_b 13.959040
_cell_length_c 5.277381
_cell_angle_alpha 90.000000
_cell_angle_beta 90.000000
_cell_angle_gamma 90.000000
_cell_volume 1367.575512
_symmetry_space_group_name_H-M "P M N A"
_symmetry_group_IT_number 53
_symmetry_cell_setting 'orthorhombic'
loop_
_space_group_symop_operation_xyz
x,y,z
1/2-x,-y,1/2+z
x,-y,-z
1/2-x,y,1/2-z
-x,-y,-z
1/2+x,y,1/2-z
-x,y,z
1/2+x,-y,1/2+z
loop_
_atom_site_type_symbol
_atom_site_label
_atom_site_fract_x
_atom_site_fract_y
_atom_site_fract_z
Si Si1 0.713985 0.887165 0.001684
Si Si2 0.084313 0.092595 0.830711
Si Si3 0.088019 0.394088 0.593197
Si Si4 0.413239 0.292832 0.403148
O O1 0.750000 0.842012 0.250000
O O2 0.629986 0.892291 0.075572
O O3 0.750000 0.845921 0.750000
O O4 0.734653 0.000000 0.000000
O O5 0.097587 0.184995 0.005124
O O6 0.000000 0.086535 0.768859
O O7 0.104080 0.000000 0.000000
O O8 0.107561 0.500000 0.500000
O O9 0.113144 0.362315 0.871023
O O10 0.000000 0.391018 0.604118
O O11 0.113595 0.321387 0.374130
O O12 0.500000 0.305517 0.390424
#
# Coordination Sequence:
#
# PCOD9418582 Si02
#       4
#     8   8   8   8
#     4  10  21  38  57  77 107 154 207 252 295 345
#     4  10  21  37  59  89 126 166 205 249 306 369
#     4   9  16  28  46  68 101 148 195 238 290 348
#     4   9  18  30  46  74 110 148 193 240 288 349
#
# _framework density 23.399072
#
# number of rings (size 3 to 8) (size 9 to 14) (size 15 to 20)
#    0.000    2.500    0.000    3.000    0.000    7.500 
#    0.000    8.750    0.000    0.750    0.000    0.000 
#    0.000    6.000    0.000   12.750    0.000   10.500 
#
# Total GULP energy -178797.153754 kJ/mol
# GULP energy per Si atom -5587.411055 kJ/mol
# Density = 2.334581 g / cm^3
# Si number density = 23.399072 Si / 1000 Ang^3
#
#
#
# Elastic Constant Matrix: (Units=GPa)
#
#
# Indices 1 2 3 4 5 6 
#
# 1 107.1336 4.2373 41.7996 0.0000 0.0000 0.0000
# 2 4.2373 74.3027 12.7039 0.0000 0.0000 0.0000
# 3 41.7996 12.7039 145.6011 0.0000 0.0000 0.0000
# 4 0.0000 0.0000 0.0000 27.8383 0.0000 0.0000
# 5 0.0000 0.0000 0.0000 0.0000 31.5558 0.0000
# 6 0.0000 0.0000 0.0000 0.0000 0.0000 -1.8481
#
#
#
# Elastic Compliance Matrix: (Units=1/GPa)
#
#
# Indices 1 2 3 4 5 6 
#
# 1 0.010512 -0.000085 -0.003010 0.000000 0.000000 0.000000
# 2 -0.000085 0.013663 -0.001168 0.000000 0.000000 0.000000
# 3 -0.003010 -0.001168 0.007834 0.000000 0.000000 0.000000
# 4 0.000000 0.000000 0.000000 0.035922 0.000000 0.000000
# 5 0.000000 0.000000 0.000000 0.000000 0.031690 0.000000
# 6 0.000000 0.000000 0.000000 0.000000 0.000000 -0.541099
#
#
# Mechanical properties :
#
#
# Convention : Reuss Voigt Hill
#
# Bulk Modulus (GPa) = 42.58353 49.39100 45.98727
# Shear Modulus (GPa) = -11.76126 29.39563 8.81718
#
# Velocity S-wave (km/s) = -2.24439 3.54824 1.94329
# Velocity P-wave (km/s) = 3.39440 6.15959 4.97305
#
# Compressibility (1/GPa) = 0.02348326
#
# Stress axis : x y z
#
# Youngs Moduli (GPa) = 95.12884 73.19062 127.64517
#
# Poissons Ratio (x) = 0.00620 0.38427
# Poissons Ratio (y) = 0.00806 0.14906
# Poissons Ratio (z) = 0.28638 0.08547
#
# Static dielectric constant tensor:
#      x y z
#    x 1.922660 0.000000 0.000000 
#    y 0.000000 1.903230 0.000000 
#    z 0.000000 0.000000 1.931060 
# 
# From -- ./inp_files/2623.got.cif
#   From: 2010.05.17/outbox.cif.g08.bks.cpg/sg53_2_cif.got.tgz:2623.got - 2010.06.03 12:45:16.
