data_PCOD9418228
_publ_section_title
;
Structure prediction by ZEFSAII (Michael W. Deem and Ramdas Pophale) SiO2 
 PCOD9418228
Probable space group: P M N A
;
_chemical_formula_sum "Si O2"
_cell_formula_units_Z 40
_cell_length_a 14.873139
_cell_length_b 7.591018
_cell_length_c 16.336828
_cell_angle_alpha 90.000000
_cell_angle_beta 90.000000
_cell_angle_gamma 90.000000
_cell_volume 1844.464898
_symmetry_space_group_name_H-M "P M N A"
_symmetry_group_IT_number 53
_symmetry_cell_setting 'orthorhombic'
loop_
_space_group_symop_operation_xyz
x,y,z
1/2-x,-y,1/2+z
x,-y,-z
1/2-x,y,1/2-z
-x,-y,-z
1/2+x,y,1/2-z
-x,y,z
1/2+x,-y,1/2+z
loop_
_atom_site_type_symbol
_atom_site_label
_atom_site_fract_x
_atom_site_fract_y
_atom_site_fract_z
Si Si1 0.746134 0.500000 0.000000
Si Si2 0.500000 0.044899 0.706526
Si Si3 0.500000 0.322660 0.844068
Si Si4 0.190105 0.583686 0.826275
Si Si5 0.203440 0.000814 0.164347
Si Si6 0.654558 0.166267 0.953712
Si Si7 0.000000 0.348508 0.253757
O O1 0.798638 0.487876 0.913497
O O2 0.685571 0.327104 0.009483
O O3 0.403582 0.035824 0.661381
O O4 0.500000 0.863923 0.761592
O O5 0.500000 0.223569 0.757517
O O6 0.586805 0.251626 0.890048
O O7 0.500000 0.532965 0.834858
O O8 0.250000 0.513063 0.750000
O O9 0.216428 0.788572 0.838836
O O10 0.088243 0.594077 0.795560
O O11 0.250000 0.943161 0.250000
O O12 0.258412 0.910970 0.092290
O O13 0.612995 0.000000 0.000000
#
# Coordination Sequence:
#
# PCOD9418228 Si02
#       7
#     4   4   4   8   8   8   4
#     4  12  26  42  70  98 142 192 224 290 356 406
#     4  10  22  41  71 104 126 179 229 293 345 404
#     4  12  25  41  72 102 136 184 234 285 353 425
#     4  10  22  43  69  99 136 181 234 288 345 417
#     4  10  20  42  70  95 134 176 233 287 341 412
#     4  12  26  44  64 101 140 183 231 285 351 421
#     4  10  24  42  66 104 137 174 233 292 349 411
#
# _framework density 21.686505
#
# number of rings (size 3 to 8) (size 9 to 14) (size 15 to 20)
#    0.000    1.200    4.000    1.500    2.800    3.200 
#    0.000    2.500    0.000    0.000    0.000    0.000 
#    0.000    0.000    0.000    0.000    0.000    0.000 
#
# Total GULP energy -223482.737959 kJ/mol
# GULP energy per Si atom -5587.068449 kJ/mol
# Density = 2.163715 g / cm^3
# Si number density = 21.686505 Si / 1000 Ang^3
#
#
#
# Elastic Constant Matrix: (Units=GPa)
#
#
# Indices 1 2 3 4 5 6 
#
# 1 109.1286 22.0890 25.8463 0.0000 0.0000 0.0000
# 2 22.0890 91.5332 10.6227 0.0000 0.0000 0.0000
# 3 25.8463 10.6227 65.1846 0.0000 0.0000 0.0000
# 4 0.0000 0.0000 0.0000 29.5964 0.0000 0.0000
# 5 0.0000 0.0000 0.0000 0.0000 34.7620 0.0000
# 6 0.0000 0.0000 0.0000 0.0000 0.0000 19.6479
#
#
#
# Elastic Compliance Matrix: (Units=1/GPa)
#
#
# Indices 1 2 3 4 5 6 
#
# 1 0.010491 -0.002088 -0.003819 0.000000 0.000000 0.000000
# 2 -0.002088 0.011551 -0.001054 0.000000 0.000000 0.000000
# 3 -0.003819 -0.001054 0.017027 0.000000 0.000000 0.000000
# 4 0.000000 0.000000 0.000000 0.033788 0.000000 0.000000
# 5 0.000000 0.000000 0.000000 0.000000 0.028767 0.000000
# 6 0.000000 0.000000 0.000000 0.000000 0.000000 0.050896
#
#
# Mechanical properties :
#
#
# Convention : Reuss Voigt Hill
#
# Bulk Modulus (GPa) = 39.76915 42.55140 41.16028
# Shear Modulus (GPa) = 28.59980 30.62048 29.61014
#
# Velocity S-wave (km/s) = 3.63545 3.76168 3.69910
# Velocity P-wave (km/s) = 6.00000 6.20731 6.10454
#
# Compressibility (1/GPa) = 0.02514512
#
# Stress axis : x y z
#
# Youngs Moduli (GPa) = 95.32154 86.57004 58.72927
#
# Poissons Ratio (x) = 0.18079 0.22431
# Poissons Ratio (y) = 0.19907 0.06192
# Poissons Ratio (z) = 0.36407 0.09128
#
# Static dielectric constant tensor:
#      x y z
#    x 1.796250 0.000000 0.000000 
#    y 0.000000 1.822840 0.000000 
#    z 0.000000 0.000000 1.816780 
# 
# From -- ./inp_files/22499.got.cif
#   From: 2010.05.17/outbox.cif.g08.bks.cpg/sg53_12_cif.got.tgz:22499.got - 2010.06.03 12:45:16.
