data_PCOD9418719
_publ_section_title
;
Structure prediction by ZEFSAII (Michael W. Deem and Ramdas Pophale) SiO2 
 PCOD9418719
Probable space group: P M N A
;
_chemical_formula_sum "Si O2"
_cell_formula_units_Z 48
_cell_length_a 18.984701
_cell_length_b 8.972207
_cell_length_c 14.492052
_cell_angle_alpha 90.000000
_cell_angle_beta 90.000000
_cell_angle_gamma 90.000000
_cell_volume 2468.498855
_symmetry_space_group_name_H-M "P M N A"
_symmetry_group_IT_number 53
_symmetry_cell_setting 'orthorhombic'
loop_
_space_group_symop_operation_xyz
x,y,z
1/2-x,-y,1/2+z
x,-y,-z
1/2-x,y,1/2-z
-x,-y,-z
1/2+x,y,1/2-z
-x,y,z
1/2+x,-y,1/2+z
loop_
_atom_site_type_symbol
_atom_site_label
_atom_site_fract_x
_atom_site_fract_y
_atom_site_fract_z
Si Si1 0.578638 0.122957 0.420032
Si Si2 0.274368 0.915630 0.098331
Si Si3 0.345598 0.420806 0.402151
Si Si4 0.300441 0.437875 0.900478
Si Si5 0.581488 0.598204 0.248793
Si Si6 0.636289 0.068598 0.726030
O O1 0.500000 0.185971 0.435992
O O2 0.638055 0.248820 0.419433
O O3 0.589983 0.000000 0.500000
O O4 0.582384 0.044424 0.320475
O O5 0.280239 0.736324 0.088579
O O6 0.336528 0.962221 0.170194
O O7 0.203187 0.940261 0.156875
O O8 0.276157 0.000000 0.000000
O O9 0.351850 0.500000 0.500000
O O10 0.267907 0.468441 0.367337
O O11 0.402457 0.488155 0.332874
O O12 0.365513 0.448165 0.832052
O O13 0.319602 0.500000 0.000000
O O14 0.500000 0.596530 0.222726
O O15 0.604901 0.765291 0.276679
#
# Coordination Sequence:
#
# PCOD9418719 Si02
#       6
#     8   8   8   8   8   8
#     4  11  24  39  59  91 129 164 204 253 315 383
#     4  10  21  38  62  89 123 157 209 258 309 361
#     4  11  23  39  61  89 126 164 203 257 309 368
#     4  10  23  40  62  91 124 161 209 263 301 371
#     4  11  22  41  66  90 126 166 206 255 316 375
#     4  10  21  38  61  90 121 162 203 253 312 374
#
# _framework density 19.445017
#
# number of rings (size 3 to 8) (size 9 to 14) (size 15 to 20)
#    0.000    1.500    1.667    3.000    7.000    4.333 
#    3.000    0.000    0.000   12.500    0.000    0.000 
#    0.000    0.667    0.000    0.000    0.000    0.000 
#
# Total GULP energy -268124.165255 kJ/mol
# GULP energy per Si atom -5585.920109 kJ/mol
# Density = 1.940076 g / cm^3
# Si number density = 19.445017 Si / 1000 Ang^3
#
#
#
# Elastic Constant Matrix: (Units=GPa)
#
#
# Indices 1 2 3 4 5 6 
#
# 1 118.8294 59.9671 49.7090 0.0000 0.0000 0.0000
# 2 59.9671 80.9967 46.9133 0.0000 0.0000 0.0000
# 3 49.7090 46.9133 108.1087 0.0000 0.0000 0.0000
# 4 0.0000 0.0000 0.0000 26.4030 0.0000 0.0000
# 5 0.0000 0.0000 0.0000 0.0000 9.8853 0.0000
# 6 0.0000 0.0000 0.0000 0.0000 0.0000 25.4292
#
#
#
# Elastic Compliance Matrix: (Units=1/GPa)
#
#
# Indices 1 2 3 4 5 6 
#
# 1 0.013955 -0.008836 -0.002582 0.000000 0.000000 0.000000
# 2 -0.008836 0.022086 -0.005521 0.000000 0.000000 0.000000
# 3 -0.002582 -0.005521 0.012833 0.000000 0.000000 0.000000
# 4 0.000000 0.000000 0.000000 0.037874 0.000000 0.000000
# 5 0.000000 0.000000 0.000000 0.000000 0.101160 0.000000
# 6 0.000000 0.000000 0.000000 0.000000 0.000000 0.039325
#
#
# Mechanical properties :
#
#
# Convention : Reuss Voigt Hill
#
# Bulk Modulus (GPa) = 66.68866 69.01264 67.85065
# Shear Modulus (GPa) = 18.78922 22.43320 20.61121
#
# Velocity S-wave (km/s) = 3.11187 3.40026 3.25926
# Velocity P-wave (km/s) = 6.87620 7.14030 7.00949
#
# Compressibility (1/GPa) = 0.01499505
#
# Stress axis : x y z
#
# Youngs Moduli (GPa) = 71.66070 45.27767 77.92330
#
# Poissons Ratio (x) = 0.40007 0.20121
# Poissons Ratio (y) = 0.63319 0.43023
# Poissons Ratio (z) = 0.18503 0.24999
#
# Static dielectric constant tensor:
#      x y z
#    x 1.705810 0.000000 0.000000 
#    y 0.000000 1.705330 0.000000 
#    z 0.000000 0.000000 1.667410 
# 
# From -- ./inp_files/23667.got.cif
#   From: 2010.05.17/outbox.cif.g08.bks.cpg/sg53_12_cif.got.tgz:23667.got - 2010.06.03 12:45:16.
