data_PCOD9418477
_publ_section_title
;
Structure prediction by ZEFSAII (Michael W. Deem and Ramdas Pophale) SiO2 
 PCOD9418477
Probable space group: P M N A
;
_chemical_formula_sum "Si O2"
_cell_formula_units_Z 32
_cell_length_a 16.262481
_cell_length_b 10.599491
_cell_length_c 9.234026
_cell_angle_alpha 90.000000
_cell_angle_beta 90.000000
_cell_angle_gamma 90.000000
_cell_volume 1591.706192
_symmetry_space_group_name_H-M "P M N A"
_symmetry_group_IT_number 53
_symmetry_cell_setting 'orthorhombic'
loop_
_space_group_symop_operation_xyz
x,y,z
1/2-x,-y,1/2+z
x,-y,-z
1/2-x,y,1/2-z
-x,-y,-z
1/2+x,y,1/2-z
-x,y,z
1/2+x,-y,1/2+z
loop_
_atom_site_type_symbol
_atom_site_label
_atom_site_fract_x
_atom_site_fract_y
_atom_site_fract_z
Si Si1 0.595382 0.998182 0.658959
Si Si2 0.600683 0.781634 0.131044
Si Si3 0.340362 0.238676 0.196525
Si Si4 0.905297 0.493825 0.675912
O O1 0.500000 0.036232 0.642483
O O2 0.628202 0.099517 0.774052
O O3 0.634583 0.000000 0.500000
O O4 0.600550 0.858313 0.721931
O O5 0.500000 0.783381 0.109220
O O6 0.620740 0.648930 0.210150
O O7 0.642484 0.780643 0.973853
O O8 0.250000 0.204530 0.250000
O O9 0.356441 0.385615 0.231525
O O10 0.903254 0.500000 0.500000
O O11 0.000000 0.509882 0.720323
#
# Coordination Sequence:
#
# PCOD9418477 Si02
#       4
#     8   8   8   8
#     4  10  21  37  56  80 109 143 188 237 278 321
#     4   9  18  37  64  84 103 142 193 237 276 326
#     4  11  21  33  52  83 115 146 181 221 277 337
#     4   8  15  32  58  82 103 136 187 234 268 317
#
# _framework density 20.104210999999999
#
# number of rings (size 3 to 8) (size 9 to 14) (size 15 to 20)
#    0.000    2.500    0.000    4.500    0.000    4.000 
#    0.000   10.000    0.000    6.000    0.000    0.000 
#    0.000    0.000    0.000    0.000    0.000    0.000 
#
# Total GULP energy -178394.662065 kJ/mol
# GULP energy per Si atom -5574.833190 kJ/mol
# Density = 2.005845 g / cm^3
# Si number density = 20.104211 Si / 1000 Ang^3
#
#
#
# Elastic Constant Matrix: (Units=GPa)
#
#
# Indices 1 2 3 4 5 6 
#
# 1 30.8699 13.0238 20.5339 0.0000 0.0000 0.0000
# 2 13.0238 104.2170 50.8050 0.0000 0.0000 0.0000
# 3 20.5339 50.8050 81.3333 0.0000 0.0000 0.0000
# 4 0.0000 0.0000 0.0000 19.3682 0.0000 0.0000
# 5 0.0000 0.0000 0.0000 0.0000 -4.5072 0.0000
# 6 0.0000 0.0000 0.0000 0.0000 0.0000 -52.9593
#
#
#
# Elastic Compliance Matrix: (Units=1/GPa)
#
#
# Indices 1 2 3 4 5 6 
#
# 1 0.038933 -0.000106 -0.009763 0.000000 0.000000 0.000000
# 2 -0.000106 0.013797 -0.008592 0.000000 0.000000 0.000000
# 3 -0.009763 -0.008592 0.020127 0.000000 0.000000 0.000000
# 4 0.000000 0.000000 0.000000 0.051631 0.000000 0.000000
# 5 0.000000 0.000000 0.000000 0.000000 -0.221865 0.000000
# 6 0.000000 0.000000 0.000000 0.000000 0.000000 -0.018882
#
#
# Mechanical properties :
#
#
# Convention : Reuss Voigt Hill
#
# Bulk Modulus (GPa) = 27.82774 42.79394 35.31084
# Shear Modulus (GPa) = -74.22730 1.18416 -36.52157
#
# Velocity S-wave (km/s) = -6.08288 0.76830 -4.26680
# Velocity P-wave (km/s) = 5.95512 4.70312 2.58303
#
# Compressibility (1/GPa) = 0.03593536
#
# Stress axis : x y z
#
# Youngs Moduli (GPa) = 25.68529 72.48007 49.68547
#
# Poissons Ratio (x) = 0.00768 0.48508
# Poissons Ratio (y) = 0.00272 0.42687
# Poissons Ratio (z) = 0.25077 0.62271
#
# Static dielectric constant tensor:
#      x y z
#    x 1.715180 0.000000 0.000000 
#    y 0.000000 1.732080 0.000000 
#    z 0.000000 0.000000 1.703640 
# 
# From -- ./inp_files/7973.got.cif
#   From: 2010.05.17/outbox.cif.g08.bks.cpg/sg53_4_cif.got.tgz:7973.got - 2010.06.03 12:45:16.
