data_PCOD9418824
_publ_section_title
;
Structure prediction by ZEFSAII (Michael W. Deem and Ramdas Pophale) SiO2 
 PCOD9418824
Probable space group: P M N A
;
_chemical_formula_sum "Si O2"
_cell_formula_units_Z 32
_cell_length_a 21.924268
_cell_length_b 8.833219
_cell_length_c 8.261984
_cell_angle_alpha 90.000000
_cell_angle_beta 90.000000
_cell_angle_gamma 90.000000
_cell_volume 1600.031194
_symmetry_space_group_name_H-M "P M N A"
_symmetry_group_IT_number 53
_symmetry_cell_setting 'orthorhombic'
loop_
_space_group_symop_operation_xyz
x,y,z
1/2-x,-y,1/2+z
x,-y,-z
1/2-x,y,1/2-z
-x,-y,-z
1/2+x,y,1/2-z
-x,y,z
1/2+x,-y,1/2+z
loop_
_atom_site_type_symbol
_atom_site_label
_atom_site_fract_x
_atom_site_fract_y
_atom_site_fract_z
Si Si1 0.623381 0.829765 0.060162
Si Si2 0.370547 0.826536 0.446018
Si Si3 0.000000 0.323077 0.439431
Si Si4 0.000000 0.180064 0.072122
Si Si5 0.246935 0.671274 0.445694
O O1 0.627718 0.826065 0.253109
O O2 0.687115 0.761362 0.996955
O O3 0.563173 0.740091 0.010701
O O4 0.616773 0.000000 0.000000
O O5 0.435274 0.762808 0.505747
O O6 0.310923 0.738813 0.506556
O O7 0.365025 0.000000 0.500000
O O8 0.000000 0.500000 0.500000
O O9 0.000000 0.243559 0.257876
O O10 0.000000 0.000000 0.000000
O O11 0.240752 0.500000 0.500000
O O12 0.250000 0.678464 0.250000
#
# Coordination Sequence:
#
# PCOD9418824 Si02
#       5
#     8   8   4   4   8
#     4  11  22  40  64  91 122 161 209 257 305 374
#     4  10  21  39  62  90 119 159 207 254 305 368
#     4  12  26  42  63  95 129 163 205 261 320 372
#     4  10  21  40  64  89 120 165 211 253 307 378
#     4  10  23  39  59  88 123 159 201 253 314 372
#
# _framework density 19.999611000000002
#
# number of rings (size 3 to 8) (size 9 to 14) (size 15 to 20)
#    0.000    1.500    0.000    5.625    0.000    8.000 
#    0.000    1.875    0.000    0.000    0.000    0.000 
#    0.000    0.000    0.000    0.000    0.000    0.000 
#
# Total GULP energy -178384.821115 kJ/mol
# GULP energy per Si atom -5574.525660 kJ/mol
# Density = 1.995409 g / cm^3
# Si number density = 19.999611 Si / 1000 Ang^3
#
#
#
# Elastic Constant Matrix: (Units=GPa)
#
#
# Indices 1 2 3 4 5 6 
#
# 1 230.1404 98.7249 41.8471 0.0000 0.0000 0.0000
# 2 98.7249 138.9159 27.4390 0.0000 0.0000 0.0000
# 3 41.8471 27.4390 68.5420 0.0000 0.0000 0.0000
# 4 0.0000 0.0000 0.0000 28.1414 0.0000 0.0000
# 5 0.0000 0.0000 0.0000 0.0000 -141.1865 0.0000
# 6 0.0000 0.0000 0.0000 0.0000 0.0000 88.2355
#
#
#
# Elastic Compliance Matrix: (Units=1/GPa)
#
#
# Indices 1 2 3 4 5 6 
#
# 1 0.006576 -0.004214 -0.002328 0.000000 0.000000 0.000000
# 2 -0.004214 0.010517 -0.001637 0.000000 0.000000 0.000000
# 3 -0.002328 -0.001637 0.016666 0.000000 0.000000 0.000000
# 4 0.000000 0.000000 0.000000 0.035535 0.000000 0.000000
# 5 0.000000 0.000000 0.000000 0.000000 -0.007083 0.000000
# 6 0.000000 0.000000 0.000000 0.000000 0.000000 0.011333
#
#
# Mechanical properties :
#
#
# Convention : Reuss Voigt Hill
#
# Bulk Modulus (GPa) = 57.46881 85.95780 71.71330
# Shear Modulus (GPa) = 52.24496 13.01056 32.62776
#
# Velocity S-wave (km/s) = 5.11661 2.55334 4.04347
# Velocity P-wave (km/s) = 7.98145 7.19484 7.59833
#
# Compressibility (1/GPa) = 0.01740074
#
# Stress axis : x y z
#
# Youngs Moduli (GPa) = 152.06726 95.08800 60.00070
#
# Poissons Ratio (x) = 0.40066 0.13969
# Poissons Ratio (y) = 0.64075 0.09825
# Poissons Ratio (z) = 0.35402 0.15570
#
# Static dielectric constant tensor:
#      x y z
#    x 1.717030 0.000000 0.000000 
#    y 0.000000 1.740700 0.000000 
#    z 0.000000 0.000000 1.725230 
# 
# From -- ./inp_files/11470.got.cif
#   From: 2010.05.17/outbox.cif.g08.bks.cpg/sg53_6_cif.got.tgz:11470.got - 2010.06.03 12:45:16.
