data_PCOD9418467
_publ_section_title
;
Structure prediction by ZEFSAII (Michael W. Deem and Ramdas Pophale) SiO2 
 PCOD9418467
Probable space group: P M N A
;
_chemical_formula_sum "Si O2"
_cell_formula_units_Z 56
_cell_length_a 8.637824
_cell_length_b 22.100286
_cell_length_c 14.900266
_cell_angle_alpha 90.000000
_cell_angle_beta 90.000000
_cell_angle_gamma 90.000000
_cell_volume 2844.436653
_symmetry_space_group_name_H-M "P M N A"
_symmetry_group_IT_number 53
_symmetry_cell_setting 'orthorhombic'
loop_
_space_group_symop_operation_xyz
x,y,z
1/2-x,-y,1/2+z
x,-y,-z
1/2-x,y,1/2-z
-x,-y,-z
1/2+x,y,1/2-z
-x,y,z
1/2+x,-y,1/2+z
loop_
_atom_site_type_symbol
_atom_site_label
_atom_site_fract_x
_atom_site_fract_y
_atom_site_fract_z
Si Si1 0.815005 0.715544 0.977261
Si Si2 0.314397 0.520686 0.148322
Si Si3 0.812711 0.844308 0.525631
Si Si4 0.685425 0.655896 0.149303
Si Si5 0.185743 0.604175 0.851566
Si Si6 0.186793 0.044776 0.349471
Si Si7 0.686484 0.907709 0.151352
O O1 0.755404 0.780500 0.945298
O O2 0.749486 0.701978 0.076230
O O3 0.000000 0.715331 0.980522
O O4 0.764954 0.661282 0.911202
O O5 0.250000 0.520241 0.250000
O O6 0.500000 0.516004 0.148262
O O7 0.271258 0.587783 0.115717
O O8 0.245921 0.459424 0.107479
O O9 0.762967 0.901177 0.586098
O O10 0.763939 0.860644 0.424209
O O11 0.000000 0.841044 0.528240
O O12 0.750000 0.664283 0.250000
O O13 0.500000 0.659326 0.153366
O O14 0.250000 0.609984 0.750000
O O15 0.000000 0.601888 0.847253
O O16 0.250000 0.054973 0.250000
O O17 0.000000 0.045317 0.348370
O O18 0.233386 0.976356 0.375951
O O19 0.750000 0.895291 0.250000
O O20 0.500000 0.906957 0.154883
#
# Coordination Sequence:
#
# PCOD9418467 Si02
#       7
#     8   8   8   8   8   8   8
#     4  11  25  40  54  78 111 148 190 229 269 323
#     4   9  17  31  55  84 109 136 174 222 276 330
#     4  10  21  37  56  77 107 147 184 220 266 321
#     4  10  21  38  60  84 111 143 180 225 276 328
#     4  10  21  37  57  80 108 143 182 228 278 327
#     4   9  18  34  57  84 111 139 175 220 269 322
#     4   9  18  34  57  84 110 138 175 218 267 321
#
# _framework density 19.687553000000001
#
# number of rings (size 3 to 8) (size 9 to 14) (size 15 to 20)
#    0.000    2.286    0.000    3.000    0.000    8.571 
#    0.000    7.143    0.000    4.286    0.000    0.000 
#    0.000    0.000    0.000    0.000    0.000    0.000 
#
# Total GULP energy -312589.014026 kJ/mol
# GULP energy per Si atom -5581.946679 kJ/mol
# Density = 1.964274 g / cm^3
# Si number density = 19.687553 Si / 1000 Ang^3
#
#
#
# Elastic Constant Matrix: (Units=GPa)
#
#
# Indices 1 2 3 4 5 6 
#
# 1 23.4111 10.3285 3.9967 0.0000 0.0000 0.0000
# 2 10.3285 54.6291 8.5922 0.0000 0.0000 0.0000
# 3 3.9967 8.5922 36.3832 0.0000 0.0000 0.0000
# 4 0.0000 0.0000 0.0000 18.7591 0.0000 0.0000
# 5 0.0000 0.0000 0.0000 0.0000 14.5075 0.0000
# 6 0.0000 0.0000 0.0000 0.0000 0.0000 29.8499
#
#
#
# Elastic Compliance Matrix: (Units=1/GPa)
#
#
# Indices 1 2 3 4 5 6 
#
# 1 0.046954 -0.008377 -0.003179 0.000000 0.000000 0.000000
# 2 -0.008377 0.020506 -0.003922 0.000000 0.000000 0.000000
# 3 -0.003179 -0.003922 0.028761 0.000000 0.000000 0.000000
# 4 0.000000 0.000000 0.000000 0.053307 0.000000 0.000000
# 5 0.000000 0.000000 0.000000 0.000000 0.068930 0.000000
# 6 0.000000 0.000000 0.000000 0.000000 0.000000 0.033501
#
#
# Mechanical properties :
#
#
# Convention : Reuss Voigt Hill
#
# Bulk Modulus (GPa) = 15.32285 17.80647 16.56466
# Shear Modulus (GPa) = 16.41115 18.72370 17.56742
#
# Velocity S-wave (km/s) = 2.89031 3.08724 2.99040
# Velocity P-wave (km/s) = 4.35183 4.66608 4.51169
#
# Compressibility (1/GPa) = 0.06526201
#
# Stress axis : x y z
#
# Youngs Moduli (GPa) = 21.29766 48.76607 34.76949
#
# Poissons Ratio (x) = 0.40853 0.11055
# Poissons Ratio (y) = 0.17842 0.13638
# Poissons Ratio (z) = 0.06772 0.19128
#
# Static dielectric constant tensor:
#      x y z
#    x 1.663590 0.000000 0.000000 
#    y 0.000000 1.708430 0.000000 
#    z 0.000000 0.000000 1.672310 
# 
# From -- ./inp_files/20621.got.cif
#   From: 2010.05.17/outbox.cif.g08.bks.cpg/sg53_11_cif.got.tgz:20621.got - 2010.06.03 12:45:16.
