data_PCOD9418878
_publ_section_title
;
Structure prediction by ZEFSAII (Michael W. Deem and Ramdas Pophale) SiO2 
 PCOD9418878
Probable space group: P M N A
;
_chemical_formula_sum "Si O2"
_cell_formula_units_Z 32
_cell_length_a 14.862110
_cell_length_b 9.783350
_cell_length_c 9.879139
_cell_angle_alpha 90.000000
_cell_angle_beta 90.000000
_cell_angle_gamma 90.000000
_cell_volume 1436.438901
_symmetry_space_group_name_H-M "P M N A"
_symmetry_group_IT_number 53
_symmetry_cell_setting 'orthorhombic'
loop_
_space_group_symop_operation_xyz
x,y,z
1/2-x,-y,1/2+z
x,-y,-z
1/2-x,y,1/2-z
-x,-y,-z
1/2+x,y,1/2-z
-x,y,z
1/2+x,-y,1/2+z
loop_
_atom_site_type_symbol
_atom_site_label
_atom_site_fract_x
_atom_site_fract_y
_atom_site_fract_z
Si Si1 0.901047 0.239231 0.511155
Si Si2 0.646585 0.379566 0.720384
Si Si3 0.699420 0.155839 0.506964
Si Si4 0.401005 0.324187 0.296104
O O1 0.898777 0.340926 0.638294
O O2 0.807528 0.157429 0.528767
O O3 0.893093 0.312984 0.366073
O O4 0.000000 0.169965 0.512325
O O5 0.750000 0.415801 0.750000
O O6 0.652079 0.247774 0.623044
O O7 0.605664 0.517738 0.662480
O O8 0.673228 0.234295 0.370259
O O9 0.668529 0.000000 0.500000
O O10 0.500000 0.270722 0.333982
#
# Coordination Sequence:
#
# PCOD9418878 Si02
#       4
#     8   8   8   8
#     4  10  22  40  66  97 124 156 206 264 316 367
#     4  10  21  39  65  94 125 162 205 258 314 367
#     4  11  25  43  62  90 130 171 209 251 304 370
#     4  11  23  40  66  95 124 162 207 259 314 368
#
# _framework density 22.277312999999999
#
# number of rings (size 3 to 8) (size 9 to 14) (size 15 to 20)
#    0.000    1.500    0.000    4.500    0.000   16.000 
#    0.000    2.500    0.000    0.000    0.000    0.000 
#    0.000    0.000    0.000    0.000    0.000    0.000 
#
# Total GULP energy -178735.920010 kJ/mol
# GULP energy per Si atom -5585.497500 kJ/mol
# Density = 2.222661 g / cm^3
# Si number density = 22.277313 Si / 1000 Ang^3
#
#
#
# Elastic Constant Matrix: (Units=GPa)
#
#
# Indices 1 2 3 4 5 6 
#
# 1 89.6494 13.8550 30.5741 0.0000 0.0000 0.0000
# 2 13.8550 131.7808 37.4517 0.0000 0.0000 0.0000
# 3 30.5741 37.4517 121.1981 0.0000 0.0000 0.0000
# 4 0.0000 0.0000 0.0000 19.6948 0.0000 0.0000
# 5 0.0000 0.0000 0.0000 0.0000 9.1045 0.0000
# 6 0.0000 0.0000 0.0000 0.0000 0.0000 -25.7741
#
#
#
# Elastic Compliance Matrix: (Units=1/GPa)
#
#
# Indices 1 2 3 4 5 6 
#
# 1 0.012229 -0.000448 -0.002946 0.000000 0.000000 0.000000
# 2 -0.000448 0.008335 -0.002463 0.000000 0.000000 0.000000
# 3 -0.002946 -0.002463 0.009755 0.000000 0.000000 0.000000
# 4 0.000000 0.000000 0.000000 0.050775 0.000000 0.000000
# 5 0.000000 0.000000 0.000000 0.000000 0.109836 0.000000
# 6 0.000000 0.000000 0.000000 0.000000 0.000000 -0.038799
#
#
# Mechanical properties :
#
#
# Convention : Reuss Voigt Hill
#
# Bulk Modulus (GPa) = 53.75005 56.26553 55.00779
# Shear Modulus (GPa) = 29.40359 17.98821 23.69590
#
# Velocity S-wave (km/s) = 3.63697 2.84468 3.26495
# Velocity P-wave (km/s) = 6.46659 6.00844 6.24172
#
# Compressibility (1/GPa) = 0.01860464
#
# Stress axis : x y z
#
# Youngs Moduli (GPa) = 81.77502 119.97065 102.50945
#
# Poissons Ratio (x) = 0.05379 0.30203
# Poissons Ratio (y) = 0.03666 0.25244
# Poissons Ratio (z) = 0.24094 0.29544
#
# Static dielectric constant tensor:
#      x y z
#    x 1.836530 0.000000 0.000000 
#    y 0.000000 1.766730 0.000000 
#    z 0.000000 0.000000 1.819180 
# 
# From -- ./inp_files/8027.got.cif
#   From: 2010.05.17/outbox.cif.g08.bks.cpg/sg53_5_cif.got.tgz:8027.got - 2010.06.03 12:45:16.
