data_PCOD9418142
_publ_section_title
;
Structure prediction by ZEFSAII (Michael W. Deem and Ramdas Pophale) SiO2 
 PCOD9418142
Probable space group: P M N A
;
_chemical_formula_sum "Si O2"
_cell_formula_units_Z 58
_cell_length_a 15.571805
_cell_length_b 9.105268
_cell_length_c 21.889901
_cell_angle_alpha 90.000000
_cell_angle_beta 90.000000
_cell_angle_gamma 90.000000
_cell_volume 3103.669634
_symmetry_space_group_name_H-M "P M N A"
_symmetry_group_IT_number 53
_symmetry_cell_setting 'orthorhombic'
loop_
_space_group_symop_operation_xyz
x,y,z
1/2-x,-y,1/2+z
x,-y,-z
1/2-x,y,1/2-z
-x,-y,-z
1/2+x,y,1/2-z
-x,y,z
1/2+x,-y,1/2+z
loop_
_atom_site_type_symbol
_atom_site_label
_atom_site_fract_x
_atom_site_fract_y
_atom_site_fract_z
Si Si1 0.266289 0.035098 0.138963
Si Si2 0.600786 0.486360 0.573013
Si Si3 0.399406 0.533021 0.889294
Si Si4 0.000000 0.000000 0.500000
Si Si5 0.241622 0.284384 0.597011
Si Si6 0.842843 0.206309 0.475549
Si Si7 0.340993 0.275383 0.224930
Si Si8 0.904428 0.212839 0.145087
O O1 0.309320 0.100456 0.078019
O O2 0.315567 0.119201 0.193761
O O3 0.168921 0.092621 0.137804
O O4 0.266553 0.860292 0.138313
O O5 0.613675 0.500000 0.500000
O O6 0.500000 0.449259 0.583544
O O7 0.668455 0.370564 0.600100
O O8 0.617094 0.643911 0.604708
O O9 0.500000 0.497428 0.894662
O O10 0.336612 0.394600 0.889663
O O11 0.370498 0.641435 0.943891
O O12 0.381800 0.624620 0.827252
O O13 0.074799 0.872678 0.496459
O O14 0.227740 0.233129 0.527028
O O15 0.250000 0.337264 0.250000
O O16 0.399848 0.257573 0.283785
O O17 0.000000 0.163332 0.128723
#
# Coordination Sequence:
#
# PCOD9418142 Si02
#       8
#     8   8   8   2   8   8   8   8
#     4  10  21  36  56  82 113 149 189 241 285 333
#     4  10  21  38  61  89 118 151 192 242 299 359
#     4  11  23  35  56  85 116 151 192 235 283 348
#     4  12  20  36  58  84 114 164 198 240 266 342
#     4  12  22  35  55  85 121 154 189 236 295 348
#     4  11  22  37  56  81 119 158 195 229 283 337
#     4   9  19  39  60  78 106 149 196 236 284 340
#     4  10  20  39  64  83 106 147 197 238 287 355
#
# _framework density 18.687556000000001
#
# number of rings (size 3 to 8) (size 9 to 14) (size 15 to 20)
#    0.000    1.517    2.069    4.966    0.966    1.103 
#    0.000    6.207    0.000    4.138    0.000    0.000 
#    0.000    0.000    0.000    0.000    0.000    0.000 
#
# Total GULP energy -323326.838043 kJ/mol
# GULP energy per Si atom -5574.600656 kJ/mol
# Density = 1.864502 g / cm^3
# Si number density = 18.687556 Si / 1000 Ang^3
#
#
#
# Elastic Constant Matrix: (Units=GPa)
#
#
# Indices 1 2 3 4 5 6 
#
# 1 74.7513 47.3466 4.5037 0.0000 0.0000 0.0000
# 2 47.3466 131.0772 26.9684 0.0000 0.0000 0.0000
# 3 4.5037 26.9684 61.6268 0.0000 0.0000 0.0000
# 4 0.0000 0.0000 0.0000 10.7734 0.0000 0.0000
# 5 0.0000 0.0000 0.0000 0.0000 10.2542 0.0000
# 6 0.0000 0.0000 0.0000 0.0000 0.0000 22.0374
#
#
#
# Elastic Compliance Matrix: (Units=1/GPa)
#
#
# Indices 1 2 3 4 5 6 
#
# 1 0.017495 -0.006655 0.001634 0.000000 0.000000 0.000000
# 2 -0.006655 0.010916 -0.004290 0.000000 0.000000 0.000000
# 3 0.001634 -0.004290 0.017985 0.000000 0.000000 0.000000
# 4 0.000000 0.000000 0.000000 0.092821 0.000000 0.000000
# 5 0.000000 0.000000 0.000000 0.000000 0.097521 0.000000
# 6 0.000000 0.000000 0.000000 0.000000 0.000000 0.045377
#
#
# Mechanical properties :
#
#
# Convention : Reuss Voigt Hill
#
# Bulk Modulus (GPa) = 36.00816 47.23251 41.62034
# Shear Modulus (GPa) = 16.12923 21.18878 18.65900
#
# Velocity S-wave (km/s) = 2.94104 3.37091 3.16329
# Velocity P-wave (km/s) = 5.55368 6.36243 5.97176
#
# Compressibility (1/GPa) = 0.02777148
#
# Stress axis : x y z
#
# Youngs Moduli (GPa) = 57.15998 91.60964 55.60233
#
# Poissons Ratio (x) = 0.60971 -0.09085
# Poissons Ratio (y) = 0.38043 0.23856
# Poissons Ratio (z) = -0.09340 0.39305
#
# Static dielectric constant tensor:
#      x y z
#    x 1.644380 0.000000 0.000000 
#    y 0.000000 1.644920 0.000000 
#    z 0.000000 0.000000 1.664000 
# 
# From -- ./inp_files/35302.got.cif
#   From: 2010.05.17/outbox.cif.g08.bks.cpg/sg53_18_cif.got.tgz:35302.got - 2010.06.03 12:45:16.
