data_PCOD9418627
_publ_section_title
;
Structure prediction by ZEFSAII (Michael W. Deem and Ramdas Pophale) SiO2 
 PCOD9418627
Probable space group: P M N A
;
_chemical_formula_sum "Si O2"
_cell_formula_units_Z 36
_cell_length_a 22.410823
_cell_length_b 5.794881
_cell_length_c 13.791989
_cell_angle_alpha 90.000000
_cell_angle_beta 90.000000
_cell_angle_gamma 90.000000
_cell_volume 1791.138750
_symmetry_space_group_name_H-M "P M N A"
_symmetry_group_IT_number 53
_symmetry_cell_setting 'orthorhombic'
loop_
_space_group_symop_operation_xyz
x,y,z
1/2-x,-y,1/2+z
x,-y,-z
1/2-x,y,1/2-z
-x,-y,-z
1/2+x,y,1/2-z
-x,y,z
1/2+x,-y,1/2+z
loop_
_atom_site_type_symbol
_atom_site_label
_atom_site_fract_x
_atom_site_fract_y
_atom_site_fract_z
Si Si1 0.319762 0.965006 0.606774
Si Si2 0.571816 0.751701 0.052068
Si Si3 0.250000 0.354762 0.250000
Si Si4 0.137463 0.648634 0.252663
Si Si5 0.432228 0.353871 0.400523
O O1 0.276403 0.798707 0.664752
O O2 0.384119 0.846645 0.593027
O O3 0.294765 0.000000 0.500000
O O4 0.332516 0.183465 0.673701
O O5 0.500000 0.747346 0.065232
O O6 0.605341 0.758072 0.155233
O O7 0.586371 0.500000 0.000000
O O8 0.585415 0.000000 0.000000
O O9 0.193483 0.497904 0.287544
O O10 0.088979 0.503299 0.191578
O O11 0.428618 0.500000 0.500000
O O12 0.500000 0.273065 0.388757
#
# Coordination Sequence:
#
# PCOD9418627 Si02
#       5
#     8   8   4   8   8
#     4  11  23  44  66  96 133 173 221 278 337 405
#     4  10  24  46  71 102 138 180 233 290 347 412
#     4  10  26  44  64  94 128 174 234 280 336 402
#     4  11  23  45  64  95 132 179 225 280 339 402
#     4  10  21  37  64 102 136 169 209 261 337 417
#
# _framework density 20.098946000000002
#
# number of rings (size 3 to 8) (size 9 to 14) (size 15 to 20)
#    0.000    1.556    2.222    1.333    6.222    2.222 
#    8.000    0.000    0.000    0.000    0.000    0.000 
#    0.000    0.000    0.000    0.000    0.000    0.000 
#
# Total GULP energy -200945.724913 kJ/mol
# GULP energy per Si atom -5581.825692 kJ/mol
# Density = 2.005320 g / cm^3
# Si number density = 20.098946 Si / 1000 Ang^3
#
#
#
# Elastic Constant Matrix: (Units=GPa)
#
#
# Indices 1 2 3 4 5 6 
#
# 1 101.1712 27.9742 48.5773 0.0000 0.0000 0.0000
# 2 27.9742 78.8170 41.5313 0.0000 0.0000 0.0000
# 3 48.5773 41.5313 115.3261 0.0000 0.0000 0.0000
# 4 0.0000 0.0000 0.0000 31.5917 0.0000 0.0000
# 5 0.0000 0.0000 0.0000 0.0000 262.2083 0.0000
# 6 0.0000 0.0000 0.0000 0.0000 0.0000 47.5621
#
#
#
# Elastic Compliance Matrix: (Units=1/GPa)
#
#
# Indices 1 2 3 4 5 6 
#
# 1 0.012660 -0.002078 -0.004584 0.000000 0.000000 0.000000
# 2 -0.002078 0.016000 -0.004887 0.000000 0.000000 0.000000
# 3 -0.004584 -0.004887 0.012362 0.000000 0.000000 0.000000
# 4 0.000000 0.000000 0.000000 0.031654 0.000000 0.000000
# 5 0.000000 0.000000 0.000000 0.000000 0.003814 0.000000
# 6 0.000000 0.000000 0.000000 0.000000 0.000000 0.021025
#
#
# Mechanical properties :
#
#
# Convention : Reuss Voigt Hill
#
# Bulk Modulus (GPa) = 55.79045 59.05332 57.42188
# Shear Modulus (GPa) = 39.49852 80.08786 59.79319
#
# Velocity S-wave (km/s) = 4.43787 6.31928 5.46022
# Velocity P-wave (km/s) = 7.35376 9.09338 8.26944
#
# Compressibility (1/GPa) = 0.01792421
#
# Stress axis : x y z
#
# Youngs Moduli (GPa) = 78.98956 62.49980 80.89364
#
# Poissons Ratio (x) = 0.12985 0.37085
# Poissons Ratio (y) = 0.16411 0.39531
# Poissons Ratio (z) = 0.36212 0.30542
#
# Static dielectric constant tensor:
#      x y z
#    x 1.670930 0.000000 0.000000 
#    y 0.000000 1.801900 0.000000 
#    z 0.000000 0.000000 1.672680 
# 
# From -- ./inp_files/18095.got.cif
#   From: 2010.05.17/outbox.cif.g08.bks.cpg/sg53_10_cif.got.tgz:18095.got - 2010.06.03 12:45:16.
