data_PCOD9418328
_publ_section_title
;
Structure prediction by ZEFSAII (Michael W. Deem and Ramdas Pophale) SiO2 
 PCOD9418328
Probable space group: P M N A
;
_chemical_formula_sum "Si O2"
_cell_formula_units_Z 48
_cell_length_a 15.326554
_cell_length_b 18.106735
_cell_length_c 7.443432
_cell_angle_alpha 90.000000
_cell_angle_beta 90.000000
_cell_angle_gamma 90.000000
_cell_volume 2065.655484
_symmetry_space_group_name_H-M "P M N A"
_symmetry_group_IT_number 53
_symmetry_cell_setting 'orthorhombic'
loop_
_space_group_symop_operation_xyz
x,y,z
1/2-x,-y,1/2+z
x,-y,-z
1/2-x,y,1/2-z
-x,-y,-z
1/2+x,y,1/2-z
-x,y,z
1/2+x,-y,1/2+z
loop_
_atom_site_type_symbol
_atom_site_label
_atom_site_fract_x
_atom_site_fract_y
_atom_site_fract_z
Si Si1 0.846075 0.593432 0.824934
Si Si2 0.243623 0.185605 0.532310
Si Si3 0.407913 0.085028 0.954276
Si Si4 0.398373 0.574707 0.285491
Si Si5 0.099540 0.309144 0.469436
Si Si6 0.099374 0.086153 0.975279
O O1 0.750000 0.600433 0.750000
O O2 0.879024 0.512075 0.767192
O O3 0.901795 0.655383 0.727228
O O4 0.846563 0.600309 0.038945
O O5 0.250000 0.190939 0.750000
O O6 0.178638 0.120654 0.473612
O O7 0.183647 0.255500 0.478315
O O8 0.337332 0.153882 0.466301
O O9 0.500000 0.116244 0.021825
O O10 0.405982 0.094516 0.740061
O O11 0.407213 0.000000 0.000000
O O12 0.500000 0.581648 0.332677
O O13 0.382860 0.624571 0.111982
O O14 0.000000 0.281652 0.512345
O O15 0.000000 0.090589 0.047892
O O16 0.129716 0.000000 0.000000
#
# Coordination Sequence:
#
# PCOD9418328 Si02
#       6
#     8   8   8   8   8   8
#     4  11  24  38  68  99 133 166 222 287 333 394
#     4  10  21  35  60  84 127 167 213 262 326 400
#     4   9  17  32  56  85 113 152 204 261 316 377
#     4  10  23  43  68  96 131 171 219 283 344 394
#     4  11  24  42  67  94 131 182 227 268 335 410
#     4   9  18  35  60  89 121 163 213 268 328 391
#
# _framework density 23.237175000000001
#
# number of rings (size 3 to 8) (size 9 to 14) (size 15 to 20)
#    0.000    2.000    0.000    3.500    7.000    2.000 
#    0.000    1.667    0.000    2.000    0.000    0.000 
#    0.000    0.000    0.000    0.000    0.000    0.000 
#
# Total GULP energy -267858.594365 kJ/mol
# GULP energy per Si atom -5580.387383 kJ/mol
# Density = 2.318429 g / cm^3
# Si number density = 23.237175 Si / 1000 Ang^3
#
#
#
# Elastic Constant Matrix: (Units=GPa)
#
#
# Indices 1 2 3 4 5 6 
#
# 1 118.3782 30.7365 16.8793 0.0000 0.0000 0.0000
# 2 30.7365 81.7440 23.2168 0.0000 0.0000 0.0000
# 3 16.8793 23.2168 51.3642 0.0000 0.0000 0.0000
# 4 0.0000 0.0000 0.0000 21.2282 0.0000 0.0000
# 5 0.0000 0.0000 0.0000 0.0000 5.1425 0.0000
# 6 0.0000 0.0000 0.0000 0.0000 0.0000 58.7354
#
#
#
# Elastic Compliance Matrix: (Units=1/GPa)
#
#
# Indices 1 2 3 4 5 6 
#
# 1 0.009493 -0.003079 -0.001728 0.000000 0.000000 0.000000
# 2 -0.003079 0.015034 -0.005783 0.000000 0.000000 0.000000
# 3 -0.001728 -0.005783 0.022651 0.000000 0.000000 0.000000
# 4 0.000000 0.000000 0.000000 0.047107 0.000000 0.000000
# 5 0.000000 0.000000 0.000000 0.000000 0.194458 0.000000
# 6 0.000000 0.000000 0.000000 0.000000 0.000000 0.017026
#
#
# Mechanical properties :
#
#
# Convention : Reuss Voigt Hill
#
# Bulk Modulus (GPa) = 38.46587 43.68350 41.07468
# Shear Modulus (GPa) = 14.89804 29.06481 21.98142
#
# Velocity S-wave (km/s) = 2.53480 3.54049 3.07898
# Velocity P-wave (km/s) = 5.01562 5.96265 5.50952
#
# Compressibility (1/GPa) = 0.02599707
#
# Stress axis : x y z
#
# Youngs Moduli (GPa) = 105.33760 66.51784 44.14851
#
# Poissons Ratio (x) = 0.20479 0.07629
# Poissons Ratio (y) = 0.32431 0.25533
# Poissons Ratio (z) = 0.18203 0.38470
#
# Static dielectric constant tensor:
#      x y z
#    x 2.002680 0.000000 0.000000 
#    y 0.000000 1.902170 0.000000 
#    z 0.000000 0.000000 1.869440 
# 
# From -- ./inp_files/8667.got.cif
#   From: 2010.05.17/outbox.cif.g08.bks.cpg/sg53_5_cif.got.tgz:8667.got - 2010.06.03 12:45:16.
