data_PCOD9418998
_publ_section_title
;
Structure prediction by ZEFSAII (Michael W. Deem and Ramdas Pophale) SiO2 
 PCOD9418998
Probable space group: P M N A
;
_chemical_formula_sum "Si O2"
_cell_formula_units_Z 36
_cell_length_a 28.044057
_cell_length_b 11.239062
_cell_length_c 5.091333
_cell_angle_alpha 90.000000
_cell_angle_beta 90.000000
_cell_angle_gamma 90.000000
_cell_volume 1604.731624
_symmetry_space_group_name_H-M "P M N A"
_symmetry_group_IT_number 53
_symmetry_cell_setting 'orthorhombic'
loop_
_space_group_symop_operation_xyz
x,y,z
1/2-x,-y,1/2+z
x,-y,-z
1/2-x,y,1/2-z
-x,-y,-z
1/2+x,y,1/2-z
-x,y,z
1/2+x,-y,1/2+z
loop_
_atom_site_type_symbol
_atom_site_label
_atom_site_fract_x
_atom_site_fract_y
_atom_site_fract_z
Si Si1 0.914566 0.632969 0.014014
Si Si2 0.281721 0.844367 0.001077
Si Si3 0.653895 0.370909 0.019114
Si Si4 0.632660 0.000000 0.000000
Si Si5 0.051380 0.880625 0.824667
O O1 0.878567 0.646173 0.259172
O O2 0.938780 0.500000 0.000000
O O3 0.883254 0.628497 0.753939
O O4 0.943149 0.757393 0.985223
O O5 0.250000 0.819784 0.250000
O O6 0.327021 0.916736 0.128987
O O7 0.250000 0.892181 0.750000
O O8 0.306947 0.725233 0.910951
O O9 0.677114 0.500000 0.000000
O O10 0.597552 0.909593 0.851306
O O11 0.000000 0.873575 0.681213
O O12 0.049968 0.000000 0.000000
#
# Coordination Sequence:
#
# PCOD9418998 Si02
#       5
#     8   8   8   4   8
#     4  10  21  42  70 100 137 184 226 278 351 411
#     4  12  26  41  65  99 132 178 232 276 342 412
#     4  10  21  41  68  96 135 181 224 279 344 406
#     4  12  25  44  68  88 142 178 221 290 346 416
#     4  11  25  43  71 103 134 181 233 286 352 415
#
# _framework density 22.433658000000001
#
# number of rings (size 3 to 8) (size 9 to 14) (size 15 to 20)
#    0.000    1.111    2.222    3.667    3.111    1.333 
#    0.000    0.000    0.000    4.000    0.000    0.000 
#    0.000    0.000    0.000    0.000    0.000    0.000 
#
# Total GULP energy -200404.987006 kJ/mol
# GULP energy per Si atom -5566.805195 kJ/mol
# Density = 2.238260 g / cm^3
# Si number density = 22.433658 Si / 1000 Ang^3
#
#
#
# Elastic Constant Matrix: (Units=GPa)
#
#
# Indices 1 2 3 4 5 6 
#
# 1 123.8475 31.0731 17.2271 0.0000 0.0000 0.0000
# 2 31.0731 162.3894 -17.7212 0.0000 0.0000 0.0000
# 3 17.2271 -17.7212 92.8224 0.0000 0.0000 0.0000
# 4 0.0000 0.0000 0.0000 27.3835 0.0000 0.0000
# 5 0.0000 0.0000 0.0000 0.0000 8.7309 0.0000
# 6 0.0000 0.0000 0.0000 0.0000 0.0000 156.4927
#
#
#
# Elastic Compliance Matrix: (Units=1/GPa)
#
#
# Indices 1 2 3 4 5 6 
#
# 1 0.008832 -0.001909 -0.002004 0.000000 0.000000 0.000000
# 2 -0.001909 0.006702 0.001634 0.000000 0.000000 0.000000
# 3 -0.002004 0.001634 0.011457 0.000000 0.000000 0.000000
# 4 0.000000 0.000000 0.000000 0.036518 0.000000 0.000000
# 5 0.000000 0.000000 0.000000 0.000000 0.114536 0.000000
# 6 0.000000 0.000000 0.000000 0.000000 0.000000 0.006390
#
#
# Mechanical properties :
#
#
# Convention : Reuss Voigt Hill
#
# Bulk Modulus (GPa) = 44.57624 48.91304 46.74464
# Shear Modulus (GPa) = 25.44919 61.75344 43.60131
#
# Velocity S-wave (km/s) = 3.37177 5.25232 4.41337
# Velocity P-wave (km/s) = 5.92215 7.65724 6.84489
#
# Compressibility (1/GPa) = 0.02243347
#
# Stress axis : x y z
#
# Youngs Moduli (GPa) = 113.22441 149.21961 87.28293
#
# Poissons Ratio (x) = 0.28481 0.17488
# Poissons Ratio (y) = 0.21611 -0.14259
# Poissons Ratio (z) = 0.22685 -0.24377
#
# Static dielectric constant tensor:
#      x y z
#    x 1.795300 0.000000 0.000000 
#    y 0.000000 2.038380 0.000000 
#    z 0.000000 0.000000 1.814240 
# 
# From -- ./inp_files/3511.got.cif
#   From: 2010.05.17/outbox.cif.g08.bks.cpg/sg53_2_cif.got.tgz:3511.got - 2010.06.03 12:45:16.
