data_PCOD9418635
_publ_section_title
;
Structure prediction by ZEFSAII (Michael W. Deem and Ramdas Pophale) SiO2 
 PCOD9418635
Probable space group: P M N A
;
_chemical_formula_sum "Si O2"
_cell_formula_units_Z 64
_cell_length_a 23.481071
_cell_length_b 8.291780
_cell_length_c 14.851783
_cell_angle_alpha 90.000000
_cell_angle_beta 90.000000
_cell_angle_gamma 90.000000
_cell_volume 2891.640292
_symmetry_space_group_name_H-M "P M N A"
_symmetry_group_IT_number 53
_symmetry_cell_setting 'orthorhombic'
loop_
_space_group_symop_operation_xyz
x,y,z
1/2-x,-y,1/2+z
x,-y,-z
1/2-x,y,1/2-z
-x,-y,-z
1/2+x,y,1/2-z
-x,y,z
1/2+x,-y,1/2+z
loop_
_atom_site_type_symbol
_atom_site_label
_atom_site_fract_x
_atom_site_fract_y
_atom_site_fract_z
Si Si1 0.434529 0.827606 0.608376
Si Si2 0.189119 0.986065 0.400931
Si Si3 0.437158 0.805232 0.320617
Si Si4 0.229609 0.667636 0.411990
Si Si5 0.561189 0.939807 0.127843
Si Si6 0.821322 0.653808 0.608358
Si Si7 0.437143 0.690772 0.801986
Si Si8 0.360261 0.672479 0.461242
O O1 0.500000 0.801347 0.576938
O O2 0.424960 0.713769 0.695645
O O3 0.388888 0.795775 0.531286
O O4 0.431583 0.011730 0.642331
O O5 0.216787 0.829314 0.356196
O O6 0.123008 0.936957 0.415280
O O7 0.216890 0.000000 0.500000
O O8 0.192458 0.163680 0.357500
O O9 0.500000 0.744808 0.346303
O O10 0.434780 0.823686 0.213918
O O11 0.388560 0.701174 0.364908
O O12 0.218454 0.496334 0.364867
O O13 0.187549 0.667446 0.500000
O O14 0.292791 0.679053 0.451293
O O15 0.500000 0.902848 0.082238
O O16 0.558090 0.124652 0.162311
O O17 0.884941 0.616504 0.642888
O O18 0.500000 0.615485 0.813340
O O19 0.376631 0.500000 0.500000
#
# Coordination Sequence:
#
# PCOD9418635 Si02
#       8
#     8   8   8   8   8   8   8   8
#     4   9  19  36  59  88 113 139 188 239 288 358
#     4   9  18  32  59  85 108 157 191 228 293 341
#     4   9  19  36  59  84 113 148 184 238 298 351
#     4  10  21  38  53  79 115 149 198 244 274 333
#     4   8  15  32  56  86 119 144 183 237 291 355
#     4   9  17  36  58  77 115 150 184 236 286 334
#     4   8  15  32  60  87 112 145 182 232 296 354
#     4  12  23  37  54  76 111 153 193 237 290 342
#
# _framework density 22.132766
#
# number of rings (size 3 to 8) (size 9 to 14) (size 15 to 20)
#    0.000    2.750    1.250    2.250    0.000    5.250 
#    2.250    5.000    0.000    6.000    0.000    0.000 
#    0.000    0.000    0.000    0.000    0.000    0.000 
#
# Total GULP energy -356672.139515 kJ/mol
# GULP energy per Si atom -5573.002180 kJ/mol
# Density = 2.208239 g / cm^3
# Si number density = 22.132766 Si / 1000 Ang^3
#
#
#
# Elastic Constant Matrix: (Units=GPa)
#
#
# Indices 1 2 3 4 5 6 
#
# 1 118.3688 44.7926 47.5959 0.0000 0.0000 0.0000
# 2 44.7926 105.7995 7.9114 0.0000 0.0000 0.0000
# 3 47.5959 7.9114 53.6160 0.0000 0.0000 0.0000
# 4 0.0000 0.0000 0.0000 10.4171 0.0000 0.0000
# 5 0.0000 0.0000 0.0000 0.0000 75.7573 0.0000
# 6 0.0000 0.0000 0.0000 0.0000 0.0000 6.0420
#
#
#
# Elastic Compliance Matrix: (Units=1/GPa)
#
#
# Indices 1 2 3 4 5 6 
#
# 1 0.016004 -0.005777 -0.013355 0.000000 0.000000 0.000000
# 2 -0.005777 0.011643 0.003411 0.000000 0.000000 0.000000
# 3 -0.013355 0.003411 0.030003 0.000000 0.000000 0.000000
# 4 0.000000 0.000000 0.000000 0.095996 0.000000 0.000000
# 5 0.000000 0.000000 0.000000 0.000000 0.013200 0.000000
# 6 0.000000 0.000000 0.000000 0.000000 0.000000 0.165509
#
#
# Mechanical properties :
#
#
# Convention : Reuss Voigt Hill
#
# Bulk Modulus (GPa) = 38.15730 53.15378 45.65554
# Shear Modulus (GPa) = 13.42160 30.27558 21.84859
#
# Velocity S-wave (km/s) = 2.46522 3.70254 3.14532
# Velocity P-wave (km/s) = 5.03792 6.50741 5.81924
#
# Compressibility (1/GPa) = 0.02620730
#
# Stress axis : x y z
#
# Youngs Moduli (GPa) = 62.48325 85.89074 33.32974
#
# Poissons Ratio (x) = 0.49620 0.44511
# Poissons Ratio (y) = 0.36097 -0.11367
# Poissons Ratio (z) = 0.83445 -0.29293
#
# Static dielectric constant tensor:
#      x y z
#    x 1.815200 0.000000 0.000000 
#    y 0.000000 1.891710 0.000000 
#    z 0.000000 0.000000 1.828180 
# 
# From -- ./inp_files/29405.got.cif
#   From: 2010.05.17/outbox.cif.g08.bks.cpg/sg53_15_cif.got.tgz:29405.got - 2010.06.03 12:45:16.
