data_PCOD9418633
_publ_section_title
;
Structure prediction by ZEFSAII (Michael W. Deem and Ramdas Pophale) SiO2 
 PCOD9418633
Probable space group: P M N A
;
_chemical_formula_sum "Si O2"
_cell_formula_units_Z 34
_cell_length_a 20.227739
_cell_length_b 7.907425
_cell_length_c 9.977549
_cell_angle_alpha 90.000000
_cell_angle_beta 90.000000
_cell_angle_gamma 90.000000
_cell_volume 1595.902268
_symmetry_space_group_name_H-M "P M N A"
_symmetry_group_IT_number 53
_symmetry_cell_setting 'orthorhombic'
loop_
_space_group_symop_operation_xyz
x,y,z
1/2-x,-y,1/2+z
x,-y,-z
1/2-x,y,1/2-z
-x,-y,-z
1/2+x,y,1/2-z
-x,y,z
1/2+x,-y,1/2+z
loop_
_atom_site_type_symbol
_atom_site_label
_atom_site_fract_x
_atom_site_fract_y
_atom_site_fract_z
Si Si1 0.000000 0.097647 0.190160
Si Si2 0.608542 0.260791 0.142000
Si Si3 0.859507 0.548081 0.151149
Si Si4 0.702490 0.000000 0.000000
Si Si5 0.000000 0.717675 0.084561
Si Si6 0.250000 0.805958 0.250000
Si Si7 0.500000 0.500000 0.000000
O O1 0.935026 0.126059 0.276691
O O2 0.000000 0.907657 0.139117
O O3 0.000000 0.243440 0.074836
O O4 0.639949 0.386225 0.251926
O O5 0.659103 0.156545 0.053053
O O6 0.557787 0.370482 0.055028
O O7 0.812791 0.686769 0.219642
O O8 0.934406 0.620530 0.133204
O O9 0.837076 0.500000 0.000000
O O10 0.743304 0.925918 0.122313
#
# Coordination Sequence:
#
# PCOD9418633 Si02
#       7
#     4   8   8   4   4   4   2
#     4  10  21  37  70 106 153 187 236 305 379 451
#     4  11  24  44  70 106 145 194 242 312 375 456
#     4  12  26  45  77 108 148 192 249 312 374 458
#     4  12  30  51  72 105 150 200 262 312 388 448
#     4  11  21  43  69 114 147 191 244 304 384 444
#     4  12  32  48  76 104 146 206 250 320 374 458
#     4  10  22  40  74 106 148 190 242 306 382 454
#
# _framework density 21.304562000000001
#
# number of rings (size 3 to 8) (size 9 to 14) (size 15 to 20)
#    0.000    0.706    2.353    4.588    6.588    5.647 
#    0.000    0.000    0.000    0.000    0.000    0.000 
#    0.000    0.000    0.000    0.000    0.000    0.000 
#
# Total GULP energy -189777.989849 kJ/mol
# GULP energy per Si atom -5581.705584 kJ/mol
# Density = 2.125607 g / cm^3
# Si number density = 21.304562 Si / 1000 Ang^3
#
#
#
# Elastic Constant Matrix: (Units=GPa)
#
#
# Indices 1 2 3 4 5 6 
#
# 1 41.1974 8.5695 23.8521 0.0000 0.0000 0.0000
# 2 8.5695 94.2963 48.3062 0.0000 0.0000 0.0000
# 3 23.8521 48.3062 72.8570 0.0000 0.0000 0.0000
# 4 0.0000 0.0000 0.0000 54.0002 0.0000 0.0000
# 5 0.0000 0.0000 0.0000 0.0000 -121.8186 0.0000
# 6 0.0000 0.0000 0.0000 0.0000 0.0000 -93.2503
#
#
#
# Elastic Compliance Matrix: (Units=1/GPa)
#
#
# Indices 1 2 3 4 5 6 
#
# 1 0.030726 0.003575 -0.012430 0.000000 0.000000 0.000000
# 2 0.003575 0.016476 -0.012094 0.000000 0.000000 0.000000
# 3 -0.012430 -0.012094 0.025814 0.000000 0.000000 0.000000
# 4 0.000000 0.000000 0.000000 0.018518 0.000000 0.000000
# 5 0.000000 0.000000 0.000000 0.000000 -0.008209 0.000000
# 6 0.000000 0.000000 0.000000 0.000000 0.000000 -0.010724
#
#
# Mechanical properties :
#
#
# Convention : Reuss Voigt Hill
#
# Bulk Modulus (GPa) = 32.13586 41.08959 36.61272
# Shear Modulus (GPa) = 40.04137 -23.70554 8.16792
#
# Velocity S-wave (km/s) = 4.33999 -3.33933 1.96015
# Velocity P-wave (km/s) = 6.34278 2.11198 4.72712
#
# Compressibility (1/GPa) = 0.03111788
#
# Stress axis : x y z
#
# Youngs Moduli (GPa) = 32.54561 60.69586 38.73942
#
# Poissons Ratio (x) = -0.21699 0.48151
# Poissons Ratio (y) = -0.11635 0.46852
# Poissons Ratio (z) = 0.40453 0.73407
#
# Static dielectric constant tensor:
#      x y z
#    x 1.739860 0.000000 0.000000 
#    y 0.000000 1.745390 0.000000 
#    z 0.000000 0.000000 1.611580 
# 
# From -- ./inp_files/10646.got.cif
#   From: 2010.05.17/outbox.cif.g08.bks.cpg/sg53_6_cif.got.tgz:10646.got - 2010.06.03 12:45:16.
