data_PCOD9418868
_publ_section_title
;
Structure prediction by ZEFSAII (Michael W. Deem and Ramdas Pophale) SiO2 
 PCOD9418868
Probable space group: P M N A
;
_chemical_formula_sum "Si O2"
_cell_formula_units_Z 40
_cell_length_a 15.195225
_cell_length_b 7.404580
_cell_length_c 16.979327
_cell_angle_alpha 90.000000
_cell_angle_beta 90.000000
_cell_angle_gamma 90.000000
_cell_volume 1910.416398
_symmetry_space_group_name_H-M "P M N A"
_symmetry_group_IT_number 53
_symmetry_cell_setting 'orthorhombic'
loop_
_space_group_symop_operation_xyz
x,y,z
1/2-x,-y,1/2+z
x,-y,-z
1/2-x,y,1/2-z
-x,-y,-z
1/2+x,y,1/2-z
-x,y,z
1/2+x,-y,1/2+z
loop_
_atom_site_type_symbol
_atom_site_label
_atom_site_fract_x
_atom_site_fract_y
_atom_site_fract_z
Si Si1 0.103111 0.876418 0.335426
Si Si2 0.647178 0.443000 0.741058
Si Si3 0.595759 0.635654 0.427909
Si Si4 0.600805 0.288569 0.122164
Si Si5 0.781623 0.210707 0.521048
O O1 0.129867 0.769565 0.257344
O O2 0.154765 0.774026 0.404299
O O3 0.000000 0.852902 0.347774
O O4 0.120220 0.090311 0.340228
O O5 0.750000 0.479057 0.750000
O O6 0.613353 0.472306 0.653093
O O7 0.603575 0.564997 0.808461
O O8 0.588755 0.500000 0.500000
O O9 0.500000 0.730720 0.420332
O O10 0.683755 0.744310 0.450141
O O11 0.500000 0.282372 0.089671
O O12 0.673867 0.313589 0.053359
O O13 0.784339 0.000000 0.500000
#
# Coordination Sequence:
#
# PCOD9418868 Si02
#       5
#     8   8   8   8   8
#     4  10  21  39  64  96 131 163 203 260 320 382
#     4  12  23  41  66  91 129 171 210 264 319 372
#     4  11  24  43  62  86 125 169 217 264 310 373
#     4  10  22  40  66 100 130 162 209 263 324 383
#     4  10  21  40  64  94 128 165 206 259 322 381
#
# _framework density 20.937843999999998
#
# number of rings (size 3 to 8) (size 9 to 14) (size 15 to 20)
#    0.000    1.400    2.000    3.600    0.000    3.600 
#    3.600    2.000    0.000    0.000    0.000    0.000 
#    0.000    0.000    0.000    0.000    0.000    0.000 
#
# Total GULP energy -223258.640476 kJ/mol
# GULP energy per Si atom -5581.466012 kJ/mol
# Density = 2.089019 g / cm^3
# Si number density = 20.937844 Si / 1000 Ang^3
#
#
#
# Elastic Constant Matrix: (Units=GPa)
#
#
# Indices 1 2 3 4 5 6 
#
# 1 96.6566 0.4339 24.9709 0.0000 0.0000 0.0000
# 2 0.4339 49.0731 27.4510 0.0000 0.0000 0.0000
# 3 24.9709 27.4510 113.3346 0.0000 0.0000 0.0000
# 4 0.0000 0.0000 0.0000 -59.0735 0.0000 0.0000
# 5 0.0000 0.0000 0.0000 0.0000 -18.5346 0.0000
# 6 0.0000 0.0000 0.0000 0.0000 0.0000 0.4126
#
#
#
# Elastic Compliance Matrix: (Units=1/GPa)
#
#
# Indices 1 2 3 4 5 6 
#
# 1 0.011061 0.001464 -0.002791 0.000000 0.000000 0.000000
# 2 0.001464 0.023765 -0.006079 0.000000 0.000000 0.000000
# 3 -0.002791 -0.006079 0.010911 0.000000 0.000000 0.000000
# 4 0.000000 0.000000 0.000000 -0.016928 0.000000 0.000000
# 5 0.000000 0.000000 0.000000 0.000000 -0.053953 0.000000
# 6 0.000000 0.000000 0.000000 0.000000 0.000000 2.423860
#
#
# Mechanical properties :
#
#
# Convention : Reuss Voigt Hill
#
# Bulk Modulus (GPa) = 32.33778 40.53066 36.43422
# Shear Modulus (GPa) = 2.06285 -1.69188 0.18548
#
# Velocity S-wave (km/s) = 0.99366 -0.89989 0.29796
# Velocity P-wave (km/s) = 4.09813 4.28017 4.19014
#
# Compressibility (1/GPa) = 0.03092358
#
# Stress axis : x y z
#
# Youngs Moduli (GPa) = 90.41175 42.07834 91.65222
#
# Poissons Ratio (x) = -0.06159 0.25585
# Poissons Ratio (y) = -0.13234 0.55713
# Poissons Ratio (z) = 0.25238 0.25578
#
# Static dielectric constant tensor:
#      x y z
#    x 1.807990 0.000000 0.000000 
#    y 0.000000 1.742160 0.000000 
#    z 0.000000 0.000000 1.754390 
# 
# From -- ./inp_files/22411.got.cif
#   From: 2010.05.17/outbox.cif.g08.bks.cpg/sg53_12_cif.got.tgz:22411.got - 2010.06.03 12:45:16.
