data_PCOD9418746
_publ_section_title
;
Structure prediction by ZEFSAII (Michael W. Deem and Ramdas Pophale) SiO2 
 PCOD9418746
Probable space group: P M N A
;
_chemical_formula_sum "Si O2"
_cell_formula_units_Z 36
_cell_length_a 21.150296
_cell_length_b 5.587955
_cell_length_c 12.133567
_cell_angle_alpha 90.000000
_cell_angle_beta 90.000000
_cell_angle_gamma 90.000000
_cell_volume 1434.028697
_symmetry_space_group_name_H-M "P M N A"
_symmetry_group_IT_number 53
_symmetry_cell_setting 'orthorhombic'
loop_
_space_group_symop_operation_xyz
x,y,z
1/2-x,-y,1/2+z
x,-y,-z
1/2-x,y,1/2-z
-x,-y,-z
1/2+x,y,1/2-z
-x,y,z
1/2+x,-y,1/2+z
loop_
_atom_site_type_symbol
_atom_site_label
_atom_site_fract_x
_atom_site_fract_y
_atom_site_fract_z
Si Si1 0.929557 0.638832 0.841794
Si Si2 0.427520 0.612388 0.117031
Si Si3 0.349797 0.964224 0.272190
Si Si4 0.239697 0.106575 0.394136
Si Si5 0.329701 0.500000 0.500000
O O1 0.932784 0.587400 0.711791
O O2 0.881928 0.455519 0.902168
O O3 0.000000 0.622243 0.885870
O O4 0.900913 0.904474 0.847930
O O5 0.500000 0.709368 0.101569
O O6 0.381477 0.797587 0.180380
O O7 0.406990 0.500000 0.000000
O O8 0.289173 0.902703 0.348979
O O9 0.311156 0.162877 0.198450
O O10 0.283466 0.317091 0.438091
O O11 0.205631 0.000000 0.500000
#
# Coordination Sequence:
#
# PCOD9418746 Si02
#       5
#     8   8   8   8   4
#     4  10  21  38  63  92 122 161 206 261 324 377
#     4  10  22  38  60  90 122 163 209 258 315 376
#     4  10  22  39  59  89 124 162 213 260 313 386
#     4  10  22  38  60  87 120 167 208 258 319 378
#     4  10  21  40  62  90 125 158 208 264 316 384
#
# _framework density 25.104102000000001
#
# number of rings (size 3 to 8) (size 9 to 14) (size 15 to 20)
#    0.000    2.000    0.000    2.333    3.111    1.778 
#    0.000    7.778    0.000   10.667    0.000    0.000 
#    0.000    0.000    0.000    0.000    0.000    0.000 
#
# Total GULP energy -200513.955094 kJ/mol
# GULP energy per Si atom -5569.832086 kJ/mol
# Density = 2.504696 g / cm^3
# Si number density = 25.104102 Si / 1000 Ang^3
#
#
#
# Elastic Constant Matrix: (Units=GPa)
#
#
# Indices 1 2 3 4 5 6 
#
# 1 92.3458 19.2446 6.5939 0.0000 0.0000 0.0000
# 2 19.2446 40.2025 2.6722 0.0000 0.0000 0.0000
# 3 6.5939 2.6722 123.0282 0.0000 0.0000 0.0000
# 4 0.0000 0.0000 0.0000 35.6943 0.0000 0.0000
# 5 0.0000 0.0000 0.0000 0.0000 42.5157 0.0000
# 6 0.0000 0.0000 0.0000 0.0000 0.0000 14.8244
#
#
#
# Elastic Compliance Matrix: (Units=1/GPa)
#
#
# Indices 1 2 3 4 5 6 
#
# 1 0.012062 -0.005739 -0.000522 0.000000 0.000000 0.000000
# 2 -0.005739 0.027641 -0.000293 0.000000 0.000000 0.000000
# 3 -0.000522 -0.000293 0.008163 0.000000 0.000000 0.000000
# 4 0.000000 0.000000 0.000000 0.028016 0.000000 0.000000
# 5 0.000000 0.000000 0.000000 0.000000 0.023521 0.000000
# 6 0.000000 0.000000 0.000000 0.000000 0.000000 0.067456
#
#
# Mechanical properties :
#
#
# Convention : Reuss Voigt Hill
#
# Bulk Modulus (GPa) = 28.77059 34.73311 31.75185
# Shear Modulus (GPa) = 26.10253 33.74460 29.92357
#
# Velocity S-wave (km/s) = 3.22805 3.67029 3.45625
# Velocity P-wave (km/s) = 5.03777 5.64155 5.34819
#
# Compressibility (1/GPa) = 0.03475772
#
# Stress axis : x y z
#
# Youngs Moduli (GPa) = 82.90359 36.17819 122.51082
#
# Poissons Ratio (x) = 0.20764 0.06393
# Poissons Ratio (y) = 0.47582 0.03587
# Poissons Ratio (z) = 0.04326 0.01059
#
# Static dielectric constant tensor:
#      x y z
#    x 1.972060 0.000000 0.000000 
#    y 0.000000 2.089630 0.000000 
#    z 0.000000 0.000000 2.039830 
# 
# From -- ./inp_files/18104.got.cif
#   From: 2010.05.17/outbox.cif.g08.bks.cpg/sg53_10_cif.got.tgz:18104.got - 2010.06.03 12:45:16.
