data_PCOD9418187
_publ_section_title
;
Structure prediction by ZEFSAII (Michael W. Deem and Ramdas Pophale) SiO2 
 PCOD9418187
Probable space group: P M N A
;
_chemical_formula_sum "Si O2"
_cell_formula_units_Z 26
_cell_length_a 14.188281
_cell_length_b 16.416691
_cell_length_c 5.243570
_cell_angle_alpha 90.000000
_cell_angle_beta 90.000000
_cell_angle_gamma 90.000000
_cell_volume 1221.356576
_symmetry_space_group_name_H-M "P M N A"
_symmetry_group_IT_number 53
_symmetry_cell_setting 'orthorhombic'
loop_
_space_group_symop_operation_xyz
x,y,z
1/2-x,-y,1/2+z
x,-y,-z
1/2-x,y,1/2-z
-x,-y,-z
1/2+x,y,1/2-z
-x,y,z
1/2+x,-y,1/2+z
loop_
_atom_site_type_symbol
_atom_site_label
_atom_site_fract_x
_atom_site_fract_y
_atom_site_fract_z
Si Si1 0.500000 0.300877 0.424113
Si Si2 0.500000 0.000000 0.500000
Si Si3 0.188962 0.402752 0.000964
Si Si4 0.000000 0.804925 0.416962
Si Si5 0.345489 0.083172 0.144470
O O1 0.407786 0.354468 0.476822
O O2 0.500000 0.263141 0.139968
O O3 0.500000 0.230764 0.636155
O O4 0.417906 0.055422 0.361351
O O5 0.250000 0.384001 0.250000
O O6 0.170335 0.500000 0.000000
O O7 0.250000 0.382825 0.750000
O O8 0.092308 0.860488 0.459878
O O9 0.250000 0.122378 0.250000
O O10 0.317864 0.000000 0.000000
#
# Coordination Sequence:
#
# PCOD9418187 Si02
#       5
#     4   2   8   4   8
#     4  12  25  45  65  97 142 183 207 274 337 401
#     4  10  20  40  64  92 116 148 220 272 322 390
#     4  10  22  42  71 101 131 174 229 275 319 390
#     4  11  28  40  66  97 140 173 221 269 335 415
#     4  11  24  42  69  92 122 174 222 284 336 389
#
# _framework density 21.287806
#
# number of rings (size 3 to 8) (size 9 to 14) (size 15 to 20)
#    0.000    1.231    1.538    4.154    8.615    3.692 
#    0.000    6.154    0.000    0.000    0.000    0.000 
#    0.000    0.000    0.000    0.000    0.000    0.000 
#
# Total GULP energy -145032.325083 kJ/mol
# GULP energy per Si atom -5578.166349 kJ/mol
# Density = 2.123935 g / cm^3
# Si number density = 21.287806 Si / 1000 Ang^3
#
#
#
# Elastic Constant Matrix: (Units=GPa)
#
#
# Indices 1 2 3 4 5 6 
#
# 1 132.9890 33.4390 18.7334 0.0000 0.0000 0.0000
# 2 33.4390 43.4723 21.9165 0.0000 0.0000 0.0000
# 3 18.7334 21.9165 95.0682 0.0000 0.0000 0.0000
# 4 0.0000 0.0000 0.0000 -70.9995 0.0000 0.0000
# 5 0.0000 0.0000 0.0000 0.0000 6.6604 0.0000
# 6 0.0000 0.0000 0.0000 0.0000 0.0000 19.8311
#
#
#
# Elastic Compliance Matrix: (Units=1/GPa)
#
#
# Indices 1 2 3 4 5 6 
#
# 1 0.009326 -0.007069 -0.000208 0.000000 0.000000 0.000000
# 2 -0.007069 0.031386 -0.005843 0.000000 0.000000 0.000000
# 3 -0.000208 -0.005843 0.011907 0.000000 0.000000 0.000000
# 4 0.000000 0.000000 0.000000 -0.014085 0.000000 0.000000
# 5 0.000000 0.000000 0.000000 0.000000 0.150142 0.000000
# 6 0.000000 0.000000 0.000000 0.000000 0.000000 0.050426
#
#
# Mechanical properties :
#
#
# Convention : Reuss Voigt Hill
#
# Bulk Modulus (GPa) = 37.90784 46.63415 42.27099
# Shear Modulus (GPa) = 18.23924 4.26111 11.25018
#
# Velocity S-wave (km/s) = 2.93028 1.41634 2.30136
# Velocity P-wave (km/s) = 5.41245 4.96274 5.19247
#
# Compressibility (1/GPa) = 0.02637977
#
# Stress axis : x y z
#
# Youngs Moduli (GPa) = 107.22587 31.86140 83.98622
#
# Poissons Ratio (x) = 0.22522 0.01748
# Poissons Ratio (y) = 0.75795 0.49070
# Poissons Ratio (z) = 0.02232 0.18615
#
# Static dielectric constant tensor:
#      x y z
#    x 1.715280 0.000000 0.000000 
#    y 0.000000 1.789600 0.000000 
#    z 0.000000 0.000000 1.802120 
# 
# From -- ./inp_files/1130.got.cif
#   From: 2010.05.17/outbox.cif.g08.bks.cpg/sg53_1_cif.got.tgz:1130.got - 2010.06.03 12:45:16.
