data_PCOD9418299
_publ_section_title
;
Structure prediction by ZEFSAII (Michael W. Deem and Ramdas Pophale) SiO2 
 PCOD9418299
Probable space group: P M N A
;
_chemical_formula_sum "Si O2"
_cell_formula_units_Z 48
_cell_length_a 20.067904
_cell_length_b 15.600477
_cell_length_c 8.461357
_cell_angle_alpha 90.000000
_cell_angle_beta 90.000000
_cell_angle_gamma 90.000000
_cell_volume 2648.987515
_symmetry_space_group_name_H-M "P M N A"
_symmetry_group_IT_number 53
_symmetry_cell_setting 'orthorhombic'
loop_
_space_group_symop_operation_xyz
x,y,z
1/2-x,-y,1/2+z
x,-y,-z
1/2-x,y,1/2-z
-x,-y,-z
1/2+x,y,1/2-z
-x,y,z
1/2+x,-y,1/2+z
loop_
_atom_site_type_symbol
_atom_site_label
_atom_site_fract_x
_atom_site_fract_y
_atom_site_fract_z
Si Si1 0.690381 0.922490 0.876003
Si Si2 0.579238 0.079910 0.383634
Si Si3 0.578769 0.429141 0.628423
Si Si4 0.309027 0.425143 0.876703
Si Si5 0.578765 0.767898 0.378861
Si Si6 0.690416 0.229418 0.877810
O O1 0.750000 0.928794 0.750000
O O2 0.622897 0.925157 0.773337
O O3 0.696016 0.836680 0.979982
O O4 0.693202 0.000000 0.000000
O O5 0.500000 0.079296 0.350308
O O6 0.595697 0.165784 0.482583
O O7 0.593687 0.000000 0.500000
O O8 0.598430 0.500000 0.500000
O O9 0.500000 0.438229 0.658177
O O10 0.621927 0.440019 0.784853
O O11 0.590858 0.331126 0.572892
O O12 0.250000 0.428461 0.750000
O O13 0.309143 0.327494 0.938527
O O14 0.298641 0.500000 0.000000
O O15 0.500000 0.777671 0.344500
O O16 0.623333 0.784883 0.224727
O O17 0.750000 0.219200 0.750000
#
# Coordination Sequence:
#
# PCOD9418299 Si02
#       6
#     8   8   8   8   8   8
#     4  12  24  37  56  80 106 137 174 215 260 309
#     4  10  21  37  57  80 106 137 172 211 257 309
#     4   9  18  33  54  78 105 139 174 210 256 308
#     4  10  21  35  53  77 105 139 175 215 261 306
#     4   9  18  35  56  77 105 139 173 211 257 307
#     4  10  21  37  55  76 105 139 175 215 260 307
#
# _framework density 18.120131000000001
#
# number of rings (size 3 to 8) (size 9 to 14) (size 15 to 20)
#    0.000    2.000    0.000    3.500    0.000    3.333 
#    0.000    0.000    0.000    0.000    0.000    0.000 
#    0.000    0.000    0.000    0.000    0.000    0.000 
#
# Total GULP energy -268009.101980 kJ/mol
# GULP energy per Si atom -5583.522958 kJ/mol
# Density = 1.807889 g / cm^3
# Si number density = 18.120131 Si / 1000 Ang^3
#
#
#
# Elastic Constant Matrix: (Units=GPa)
#
#
# Indices 1 2 3 4 5 6 
#
# 1 52.4875 49.8313 49.6339 0.0000 0.0000 0.0000
# 2 49.8313 141.9838 95.6667 0.0000 0.0000 0.0000
# 3 49.6339 95.6667 110.1029 0.0000 0.0000 0.0000
# 4 0.0000 0.0000 0.0000 43.7925 0.0000 0.0000
# 5 0.0000 0.0000 0.0000 0.0000 33.8630 0.0000
# 6 0.0000 0.0000 0.0000 0.0000 0.0000 21.0266
#
#
#
# Elastic Compliance Matrix: (Units=1/GPa)
#
#
# Indices 1 2 3 4 5 6 
#
# 1 0.034073 -0.003881 -0.011987 0.000000 0.000000 0.000000
# 2 -0.003881 0.017431 -0.013396 0.000000 0.000000 0.000000
# 3 -0.011987 -0.013396 0.026126 0.000000 0.000000 0.000000
# 4 0.000000 0.000000 0.000000 0.022835 0.000000 0.000000
# 5 0.000000 0.000000 0.000000 0.000000 0.029531 0.000000
# 6 0.000000 0.000000 0.000000 0.000000 0.000000 0.047559
#
#
# Mechanical properties :
#
#
# Convention : Reuss Voigt Hill
#
# Bulk Modulus (GPa) = 52.35517 77.20422 64.77970
# Shear Modulus (GPa) = 20.62268 27.03258 23.82763
#
# Velocity S-wave (km/s) = 3.37725 3.86664 3.63020
# Velocity P-wave (km/s) = 6.64559 7.91416 7.30745
#
# Compressibility (1/GPa) = 0.01910031
#
# Stress axis : x y z
#
# Youngs Moduli (GPa) = 29.34893 57.36749 38.27606
#
# Poissons Ratio (x) = 0.22267 0.45883
# Poissons Ratio (y) = 0.11392 0.51275
# Poissons Ratio (z) = 0.35182 0.76851
#
# Static dielectric constant tensor:
#      x y z
#    x 1.635330 0.000000 0.000000 
#    y 0.000000 1.632620 0.000000 
#    z 0.000000 0.000000 1.564440 
# 
# From -- ./inp_files/10937.got.cif
#   From: 2010.05.17/outbox.cif.g08.bks.cpg/sg53_6_cif.got.tgz:10937.got - 2010.06.03 12:45:16.
