data_PCOD9418198
_publ_section_title
;
Structure prediction by ZEFSAII (Michael W. Deem and Ramdas Pophale) SiO2 
 PCOD9418198
Probable space group: P M N A
;
_chemical_formula_sum "Si O2"
_cell_formula_units_Z 52
_cell_length_a 15.374204
_cell_length_b 15.960872
_cell_length_c 9.249348
_cell_angle_alpha 90.000000
_cell_angle_beta 90.000000
_cell_angle_gamma 90.000000
_cell_volume 2269.657753
_symmetry_space_group_name_H-M "P M N A"
_symmetry_group_IT_number 53
_symmetry_cell_setting 'orthorhombic'
loop_
_space_group_symop_operation_xyz
x,y,z
1/2-x,-y,1/2+z
x,-y,-z
1/2-x,y,1/2-z
-x,-y,-z
1/2+x,y,1/2-z
-x,y,z
1/2+x,-y,1/2+z
loop_
_atom_site_type_symbol
_atom_site_label
_atom_site_fract_x
_atom_site_fract_y
_atom_site_fract_z
Si Si1 0.103218 0.295118 0.812642
Si Si2 0.598488 0.577978 0.910525
Si Si3 0.842393 0.895324 0.714816
Si Si4 0.250000 0.055586 0.750000
Si Si5 0.103873 0.242841 0.503889
Si Si6 0.337549 0.516066 0.332693
Si Si7 0.897789 0.866596 0.036376
O O1 0.134133 0.244374 0.670003
O O2 0.145204 0.385747 0.811211
O O3 0.115336 0.233718 0.947851
O O4 0.000000 0.309829 0.800288
O O5 0.500000 0.585147 0.967403
O O6 0.638006 0.669709 0.934463
O O7 0.596107 0.545577 0.747710
O O8 0.637968 0.500000 0.000000
O O9 0.750000 0.852982 0.750000
O O10 0.878572 0.839692 0.587123
O O11 0.683773 0.989792 0.827395
O O12 0.891347 0.895114 0.869381
O O13 0.183470 0.097419 0.867364
O O14 0.000000 0.247319 0.506907
O O15 0.336769 0.500000 0.500000
O O16 0.250000 0.492953 0.250000
O O17 0.000000 0.883384 0.085427
#
# Coordination Sequence:
#
# PCOD9418198 Si02
#       7
#     8   8   8   4   8   8   8
#     4  10  24  44  69 100 133 183 233 288 364 429
#     4  10  20  40  66  91 129 178 227 279 340 417
#     4  10  25  42  67 105 139 183 237 291 355 432
#     4  10  26  46  74 108 140 190 242 298 374 440
#     4  10  21  40  68  98 136 182 232 289 354 425
#     4  12  27  42  61  95 134 181 233 293 355 427
#     4  11  25  47  76 108 147 191 244 305 370 444
#
# _framework density 22.910943
#
# number of rings (size 3 to 8) (size 9 to 14) (size 15 to 20)
#    0.462    1.077    1.538    1.846    5.385    3.692 
#    0.000    0.000    0.000    4.615    0.000    0.000 
#    0.000    0.000    0.000    0.000    0.000    0.000 
#
# Total GULP energy -289840.998303 kJ/mol
# GULP energy per Si atom -5573.865352 kJ/mol
# Density = 2.285880 g / cm^3
# Si number density = 22.910943 Si / 1000 Ang^3
#
#
#
# Elastic Constant Matrix: (Units=GPa)
#
#
# Indices 1 2 3 4 5 6 
#
# 1 66.3953 12.6939 14.9326 0.0000 0.0000 0.0000
# 2 12.6939 72.9985 15.4540 0.0000 0.0000 0.0000
# 3 14.9326 15.4540 97.5263 0.0000 0.0000 0.0000
# 4 0.0000 0.0000 0.0000 34.8926 0.0000 0.0000
# 5 0.0000 0.0000 0.0000 0.0000 22.5413 0.0000
# 6 0.0000 0.0000 0.0000 0.0000 0.0000 16.9804
#
#
#
# Elastic Compliance Matrix: (Units=1/GPa)
#
#
# Indices 1 2 3 4 5 6 
#
# 1 0.015975 -0.002339 -0.002075 0.000000 0.000000 0.000000
# 2 -0.002339 0.014517 -0.001942 0.000000 0.000000 0.000000
# 3 -0.002075 -0.001942 0.010879 0.000000 0.000000 0.000000
# 4 0.000000 0.000000 0.000000 0.028659 0.000000 0.000000
# 5 0.000000 0.000000 0.000000 0.000000 0.044363 0.000000
# 6 0.000000 0.000000 0.000000 0.000000 0.000000 0.058891
#
#
# Mechanical properties :
#
#
# Convention : Reuss Voigt Hill
#
# Bulk Modulus (GPa) = 34.89357 35.89788 35.39573
# Shear Modulus (GPa) = 25.56887 27.80551 26.68719
#
# Velocity S-wave (km/s) = 3.34430 3.48751 3.41665
# Velocity P-wave (km/s) = 5.49323 5.64972 5.57203
#
# Compressibility (1/GPa) = 0.02865858
#
# Stress axis : x y z
#
# Youngs Moduli (GPa) = 62.59712 68.88590 91.91860
#
# Poissons Ratio (x) = 0.16110 0.19077
# Poissons Ratio (y) = 0.14639 0.17853
# Poissons Ratio (z) = 0.12992 0.13379
#
# Static dielectric constant tensor:
#      x y z
#    x 1.931830 0.000000 0.000000 
#    y 0.000000 1.861770 0.000000 
#    z 0.000000 0.000000 2.302860 
# 
# From -- ./inp_files/10123.got.cif
#   From: 2010.05.17/outbox.cif.g08.bks.cpg/sg53_6_cif.got.tgz:10123.got - 2010.06.03 12:45:16.
