data_PCOD9418515
_publ_section_title
;
Structure prediction by ZEFSAII (Michael W. Deem and Ramdas Pophale) SiO2 
 PCOD9418515
Probable space group: P M N A
;
_chemical_formula_sum "Si O2"
_cell_formula_units_Z 64
_cell_length_a 14.518117
_cell_length_b 14.867120
_cell_length_c 11.906746
_cell_angle_alpha 90.000000
_cell_angle_beta 90.000000
_cell_angle_gamma 90.000000
_cell_volume 2569.982867
_symmetry_space_group_name_H-M "P M N A"
_symmetry_group_IT_number 53
_symmetry_cell_setting 'orthorhombic'
loop_
_space_group_symop_operation_xyz
x,y,z
1/2-x,-y,1/2+z
x,-y,-z
1/2-x,y,1/2-z
-x,-y,-z
1/2+x,y,1/2-z
-x,y,z
1/2+x,-y,1/2+z
loop_
_atom_site_type_symbol
_atom_site_label
_atom_site_fract_x
_atom_site_fract_y
_atom_site_fract_z
Si Si1 0.861944 0.019282 0.736312
Si Si2 0.111077 0.710381 0.286675
Si Si3 0.658124 0.865253 0.041619
Si Si4 0.104296 0.702053 0.034199
Si Si5 0.105864 0.371006 0.190198
Si Si6 0.388630 0.510422 0.126147
Si Si7 0.128128 0.098186 0.959905
Si Si8 0.642241 0.178263 0.213315
O O1 0.750000 0.018980 0.750000
O O2 0.886349 0.053131 0.612414
O O3 0.894300 0.090895 0.827729
O O4 0.892056 0.917686 0.760840
O O5 0.153714 0.783729 0.369859
O O6 0.127115 0.611445 0.334647
O O7 0.000000 0.726451 0.285772
O O8 0.146461 0.707681 0.158021
O O9 0.762647 0.896175 0.021728
O O10 0.625635 0.833106 0.920224
O O11 0.149058 0.645032 0.933631
O O12 0.000000 0.667664 0.050955
O O13 0.096698 0.806097 0.994543
O O14 0.146109 0.440162 0.280241
O O15 0.103483 0.272348 0.245813
O O16 0.000000 0.399803 0.169842
O O17 0.500000 0.495783 0.120603
O O18 0.352224 0.500000 0.000000
O O19 0.098420 0.000000 0.000000
O O20 0.750000 0.182079 0.250000
#
# Coordination Sequence:
#
# PCOD9418515 Si02
#       8
#     8   8   8   8   8   8   8   8
#     4   9  18  32  51  79 108 146 191 228 276 345
#     4  10  21  37  59  88 118 152 195 246 300 353
#     4  11  20  34  57  83 113 151 197 241 287 348
#     4  10  21  37  57  86 119 152 197 246 299 352
#     4  10  21  37  58  83 113 150 194 241 293 353
#     4   9  18  35  59  85 112 148 193 235 287 357
#     4  11  20  35  58  85 115 156 202 239 281 352
#     4  11  21  35  55  81 114 149 192 244 293 342
#
# _framework density 24.902889999999999
#
# number of rings (size 3 to 8) (size 9 to 14) (size 15 to 20)
#    0.000    1.875    1.250    4.875    0.000    2.250 
#    0.000    3.750    2.750    3.375    0.000    0.000 
#    0.000    0.000    0.000    0.000    0.000    0.000 
#
# Total GULP energy -357703.119706 kJ/mol
# GULP energy per Si atom -5589.111245 kJ/mol
# Density = 2.484621 g / cm^3
# Si number density = 24.902890 Si / 1000 Ang^3
#
#
#
# Elastic Constant Matrix: (Units=GPa)
#
#
# Indices 1 2 3 4 5 6 
#
# 1 69.2071 13.8522 -2.0731 0.0000 0.0000 0.0000
# 2 13.8522 109.5596 55.0043 0.0000 0.0000 0.0000
# 3 -2.0731 55.0043 172.9219 0.0000 0.0000 0.0000
# 4 0.0000 0.0000 0.0000 45.8305 0.0000 0.0000
# 5 0.0000 0.0000 0.0000 0.0000 14.4844 0.0000
# 6 0.0000 0.0000 0.0000 0.0000 0.0000 33.2255
#
#
#
# Elastic Compliance Matrix: (Units=1/GPa)
#
#
# Indices 1 2 3 4 5 6 
#
# 1 0.014949 -0.002356 0.000929 0.000000 0.000000 0.000000
# 2 -0.002356 0.011233 -0.003601 0.000000 0.000000 0.000000
# 3 0.000929 -0.003601 0.006940 0.000000 0.000000 0.000000
# 4 0.000000 0.000000 0.000000 0.021820 0.000000 0.000000
# 5 0.000000 0.000000 0.000000 0.000000 0.069040 0.000000
# 6 0.000000 0.000000 0.000000 0.000000 0.000000 0.030097
#
#
# Mechanical properties :
#
#
# Convention : Reuss Voigt Hill
#
# Bulk Modulus (GPa) = 43.35790 53.91728 48.63759
# Shear Modulus (GPa) = 29.09942 37.70176 33.40059
#
# Velocity S-wave (km/s) = 3.42206 3.89517 3.66626
# Velocity P-wave (km/s) = 5.75001 6.47517 6.12334
#
# Compressibility (1/GPa) = 0.02306385
#
# Stress axis : x y z
#
# Youngs Moduli (GPa) = 66.89486 89.01950 144.09883
#
# Poissons Ratio (x) = 0.20976 -0.13383
# Poissons Ratio (y) = 0.15763 0.51897
# Poissons Ratio (z) = -0.06213 0.32060
#
# Static dielectric constant tensor:
#      x y z
#    x 2.041230 0.000000 0.000000 
#    y 0.000000 1.913200 0.000000 
#    z 0.000000 0.000000 2.029440 
# 
# From -- ./inp_files/17106.got.cif
#   From: 2010.05.17/outbox.cif.g08.bks.cpg/sg53_9_cif.got.tgz:17106.got - 2010.06.03 12:45:16.
