data_PCOD9418012
_publ_section_title
;
Structure prediction by ZEFSAII (Michael W. Deem and Ramdas Pophale) SiO2 
 PCOD9418012
Probable space group: P M N A
;
_chemical_formula_sum "Si O2"
_cell_formula_units_Z 48
_cell_length_a 9.332255
_cell_length_b 29.909391
_cell_length_c 9.319018
_cell_angle_alpha 90.000000
_cell_angle_beta 90.000000
_cell_angle_gamma 90.000000
_cell_volume 2601.143536
_symmetry_space_group_name_H-M "P M N A"
_symmetry_group_IT_number 53
_symmetry_cell_setting 'orthorhombic'
loop_
_space_group_symop_operation_xyz
x,y,z
1/2-x,-y,1/2+z
x,-y,-z
1/2-x,y,1/2-z
-x,-y,-z
1/2+x,y,1/2-z
-x,y,z
1/2+x,-y,1/2+z
loop_
_atom_site_type_symbol
_atom_site_label
_atom_site_fract_x
_atom_site_fract_y
_atom_site_fract_z
Si Si1 0.326769 0.142619 0.406183
Si Si2 0.323574 0.781911 0.093174
Si Si3 0.174540 0.704025 0.905840
Si Si4 0.000000 0.543772 0.093979
Si Si5 0.257161 0.385466 0.580410
Si Si6 0.330654 0.040047 0.399014
Si Si7 0.000000 0.548898 0.430541
O O1 0.250000 0.147244 0.250000
O O2 0.500000 0.152607 0.398240
O O3 0.239934 0.174270 0.514017
O O4 0.311619 0.090813 0.453523
O O5 0.250000 0.779441 0.250000
O O6 0.500000 0.780988 0.098186
O O7 0.256235 0.741477 0.999877
O O8 0.250000 0.704320 0.750000
O O9 0.000000 0.710908 0.898344
O O10 0.207486 0.657176 0.984834
O O11 0.127478 0.576488 0.062750
O O12 0.000000 0.535667 0.263062
O O13 0.000000 0.500000 0.000000
O O14 0.250000 0.372177 0.750000
O O15 0.124515 0.415953 0.538436
O O16 0.250000 0.037125 0.250000
O O17 0.500000 0.034052 0.375278
O O18 0.280278 0.000000 0.500000
O O19 0.000000 0.500000 0.500000
#
# Coordination Sequence:
#
# PCOD9418012 Si02
#       7
#     8   8   8   4   8   8   4
#     4  10  20  38  62  89 125 165 210 261 312 369
#     4  12  26  44  67  93 124 162 203 251 308 371
#     4  12  26  44  66  94 125 160 204 254 308 368
#     4  10  20  38  60  86 122 162 200 244 299 354
#     4  10  22  40  63  88 122 162 201 247 303 362
#     4   9  19  35  56  85 121 163 209 258 311 366
#     4  10  22  36  60  92 122 158 204 250 297 358
#
# _framework density 18.453420999999999
#
# number of rings (size 3 to 8) (size 9 to 14) (size 15 to 20)
#    0.000    1.500    0.833    4.000    2.333    3.000 
#    0.000    1.667    0.000    0.000    0.000    0.000 
#    0.000    0.000    0.000    0.000    0.000    0.000 
#
# Total GULP energy -267417.671339 kJ/mol
# GULP energy per Si atom -5571.201486 kJ/mol
# Density = 1.841142 g / cm^3
# Si number density = 18.453421 Si / 1000 Ang^3
#
#
#
# Elastic Constant Matrix: (Units=GPa)
#
#
# Indices 1 2 3 4 5 6 
#
# 1 185.9887 78.9491 70.7225 0.0000 0.0000 0.0000
# 2 78.9491 155.5025 100.6235 0.0000 0.0000 0.0000
# 3 70.7225 100.6235 123.2552 0.0000 0.0000 0.0000
# 4 0.0000 0.0000 0.0000 46.3379 0.0000 0.0000
# 5 0.0000 0.0000 0.0000 0.0000 28.5426 0.0000
# 6 0.0000 0.0000 0.0000 0.0000 0.0000 32.9890
#
#
#
# Elastic Compliance Matrix: (Units=1/GPa)
#
#
# Indices 1 2 3 4 5 6 
#
# 1 0.007180 -0.002076 -0.002425 0.000000 0.000000 0.000000
# 2 -0.002076 0.014233 -0.010428 0.000000 0.000000 0.000000
# 3 -0.002425 -0.010428 0.018018 0.000000 0.000000 0.000000
# 4 0.000000 0.000000 0.000000 0.021581 0.000000 0.000000
# 5 0.000000 0.000000 0.000000 0.000000 0.035035 0.000000
# 6 0.000000 0.000000 0.000000 0.000000 0.000000 0.030313
#
#
# Mechanical properties :
#
#
# Convention : Reuss Voigt Hill
#
# Bulk Modulus (GPa) = 104.46677 107.25964 105.86321
# Shear Modulus (GPa) = 31.36593 35.87065 33.61829
#
# Velocity S-wave (km/s) = 4.12726 4.41369 4.27288
# Velocity P-wave (km/s) = 8.91326 9.17742 9.04630
#
# Compressibility (1/GPa) = 0.00957242
#
# Stress axis : x y z
#
# Youngs Moduli (GPa) = 139.27483 70.26065 55.50061
#
# Poissons Ratio (x) = 0.14588 0.13458
# Poissons Ratio (y) = 0.28917 0.57876
# Poissons Ratio (z) = 0.33771 0.73268
#
# Static dielectric constant tensor:
#      x y z
#    x 1.609500 0.000000 0.000000 
#    y 0.000000 1.622620 0.000000 
#    z 0.000000 0.000000 1.612640 
# 
# From -- ./inp_files/6799.got.cif
#   From: 2010.05.17/outbox.cif.g08.bks.cpg/sg53_4_cif.got.tgz:6799.got - 2010.06.03 12:45:16.
