data_PCOD9418958
_publ_section_title
;
Structure prediction by ZEFSAII (Michael W. Deem and Ramdas Pophale) SiO2 
 PCOD9418958
Probable space group: P M N A
;
_chemical_formula_sum "Si O2"
_cell_formula_units_Z 56
_cell_length_a 14.272358
_cell_length_b 12.087695
_cell_length_c 14.153096
_cell_angle_alpha 90.000000
_cell_angle_beta 90.000000
_cell_angle_gamma 90.000000
_cell_volume 2441.690854
_symmetry_space_group_name_H-M "P M N A"
_symmetry_group_IT_number 53
_symmetry_cell_setting 'orthorhombic'
loop_
_space_group_symop_operation_xyz
x,y,z
1/2-x,-y,1/2+z
x,-y,-z
1/2-x,y,1/2-z
-x,-y,-z
1/2+x,y,1/2-z
-x,y,z
1/2+x,-y,1/2+z
loop_
_atom_site_type_symbol
_atom_site_label
_atom_site_fract_x
_atom_site_fract_y
_atom_site_fract_z
Si Si1 0.395725 0.409494 0.117673
Si Si2 0.891348 0.230964 0.214325
Si Si3 0.245335 0.728472 0.956943
Si Si4 0.890287 0.843101 0.439168
Si Si5 0.855087 0.355880 0.708892
Si Si6 0.612893 0.019468 0.764377
Si Si7 0.104112 0.788999 0.122928
O O1 0.500000 0.400892 0.073932
O O2 0.388813 0.314764 0.197991
O O3 0.309946 0.381087 0.048475
O O4 0.385180 0.526449 0.168884
O O5 0.818550 0.267714 0.135189
O O6 0.000000 0.229652 0.180433
O O7 0.865045 0.106233 0.242545
O O8 0.323194 0.824145 0.972406
O O9 0.174316 0.747194 0.043284
O O10 0.874169 0.734904 0.372565
O O11 0.860679 0.940915 0.368925
O O12 0.000000 0.852999 0.464559
O O13 0.750000 0.361846 0.750000
O O14 0.905911 0.307670 0.800378
O O15 0.500000 0.031075 0.763399
O O16 0.643849 0.106352 0.683207
O O17 0.000000 0.817268 0.085434
#
# Coordination Sequence:
#
# PCOD9418958 Si02
#       7
#     8   8   8   8   8   8   8
#     4  11  25  45  65  87 129 181 219 256 321 395
#     4  10  22  44  66  89 129 177 217 262 326 391
#     4  12  23  40  60 103 130 163 216 273 320 376
#     4  10  21  40  66  97 132 169 214 269 323 376
#     4  11  20  41  68  96 129 168 217 263 318 391
#     4   8  18  40  67  91 126 171 213 259 321 392
#     4  10  21  40  67  99 130 164 212 273 329 376
#
# _framework density 22.934926000000001
#
# number of rings (size 3 to 8) (size 9 to 14) (size 15 to 20)
#    0.000    1.714    1.429    4.286    0.000    1.143 
#   10.286    3.571    0.000    6.857    0.000    0.000 
#    0.000    0.000    0.000    0.000    0.000    0.000 
#
# Total GULP energy -313140.102323 kJ/mol
# GULP energy per Si atom -5591.787541 kJ/mol
# Density = 2.288272 g / cm^3
# Si number density = 22.934926 Si / 1000 Ang^3
#
#
#
# Elastic Constant Matrix: (Units=GPa)
#
#
# Indices 1 2 3 4 5 6 
#
# 1 154.5148 19.7025 28.6094 0.0000 0.0000 0.0000
# 2 19.7025 129.4115 24.4744 0.0000 0.0000 0.0000
# 3 28.6094 24.4744 68.1601 0.0000 0.0000 0.0000
# 4 0.0000 0.0000 0.0000 13.2383 0.0000 0.0000
# 5 0.0000 0.0000 0.0000 0.0000 40.0781 0.0000
# 6 0.0000 0.0000 0.0000 0.0000 0.0000 120.1452
#
#
#
# Elastic Compliance Matrix: (Units=1/GPa)
#
#
# Indices 1 2 3 4 5 6 
#
# 1 0.007054 -0.000551 -0.002763 0.000000 0.000000 0.000000
# 2 -0.000551 0.008333 -0.002761 0.000000 0.000000 0.000000
# 3 -0.002763 -0.002761 0.016822 0.000000 0.000000 0.000000
# 4 0.000000 0.000000 0.000000 0.075539 0.000000 0.000000
# 5 0.000000 0.000000 0.000000 0.000000 0.024951 0.000000
# 6 0.000000 0.000000 0.000000 0.000000 0.000000 0.008323
#
#
# Mechanical properties :
#
#
# Convention : Reuss Voigt Hill
#
# Bulk Modulus (GPa) = 49.85181 55.29545 52.57363
# Shear Modulus (GPa) = 31.27757 53.31232 42.29494
#
# Velocity S-wave (km/s) = 3.69691 4.82654 4.29899
# Velocity P-wave (km/s) = 6.32505 7.43120 6.90032
#
# Compressibility (1/GPa) = 0.02005945
#
# Stress axis : x y z
#
# Youngs Moduli (GPa) = 141.76920 119.99948 59.44490
#
# Poissons Ratio (x) = 0.06617 0.16423
# Poissons Ratio (y) = 0.07817 0.16412
# Poissons Ratio (z) = 0.39167 0.33130
#
# Static dielectric constant tensor:
#      x y z
#    x 1.967900 0.000000 0.000000 
#    y 0.000000 1.829080 0.000000 
#    z 0.000000 0.000000 1.860750 
# 
# From -- ./inp_files/22803.got.cif
#   From: 2010.05.17/outbox.cif.g08.bks.cpg/sg53_12_cif.got.tgz:22803.got - 2010.06.03 12:45:16.
