data_PCOD9418220
_publ_section_title
;
Structure prediction by ZEFSAII (Michael W. Deem and Ramdas Pophale) SiO2 
 PCOD9418220
Probable space group: P M N A
;
_chemical_formula_sum "Si O2"
_cell_formula_units_Z 56
_cell_length_a 14.672280
_cell_length_b 11.368062
_cell_length_c 15.235824
_cell_angle_alpha 90.000000
_cell_angle_beta 90.000000
_cell_angle_gamma 90.000000
_cell_volume 2541.265187
_symmetry_space_group_name_H-M "P M N A"
_symmetry_group_IT_number 53
_symmetry_cell_setting 'orthorhombic'
loop_
_space_group_symop_operation_xyz
x,y,z
1/2-x,-y,1/2+z
x,-y,-z
1/2-x,y,1/2-z
-x,-y,-z
1/2+x,y,1/2-z
-x,y,z
1/2+x,-y,1/2+z
loop_
_atom_site_type_symbol
_atom_site_label
_atom_site_fract_x
_atom_site_fract_y
_atom_site_fract_z
Si Si1 0.394035 0.615569 0.948257
Si Si2 0.774137 0.010358 0.838876
Si Si3 0.603111 0.427308 0.581072
Si Si4 0.393601 0.111068 0.067565
Si Si5 0.348857 0.432164 0.253431
Si Si6 0.607121 0.823591 0.449961
Si Si7 0.104805 0.800085 0.840765
O O1 0.500000 0.619545 0.973785
O O2 0.365166 0.754055 0.961423
O O3 0.385377 0.585550 0.844450
O O4 0.355108 0.500000 0.000000
O O5 0.750000 0.080247 0.750000
O O6 0.820614 0.082483 0.916627
O O7 0.687959 0.934544 0.870817
O O8 0.853913 0.921568 0.810896
O O9 0.645175 0.500000 0.500000
O O10 0.500000 0.401327 0.550098
O O11 0.599026 0.495860 0.671905
O O12 0.640177 0.297762 0.593510
O O13 0.500000 0.122907 0.100366
O O14 0.397904 0.000000 0.000000
O O15 0.250000 0.489676 0.250000
O O16 0.339901 0.305117 0.298429
O O17 0.500000 0.854688 0.428474
O O18 0.610451 0.802226 0.553917
O O19 0.000000 0.782883 0.815558
#
# Coordination Sequence:
#
# PCOD9418220 Si02
#       7
#     8   8   8   8   8   8   8
#     4  10  22  43  68  96 129 173 228 280 332 398
#     4  12  25  40  61  95 138 173 218 277 342 413
#     4  10  20  41  68  95 128 170 223 283 351 418
#     4  10  22  44  70  92 125 179 234 278 330 402
#     4  12  24  38  62  98 136 175 219 274 338 417
#     4  10  22  41  68  99 131 172 225 291 359 411
#     4  11  21  39  69  97 125 169 230 288 343 404
#
# _framework density 22.036268
#
# number of rings (size 3 to 8) (size 9 to 14) (size 15 to 20)
#    0.000    1.286    1.429    5.143    0.000    4.571 
#    7.714    0.000    0.000    0.000    0.000    0.000 
#    0.000    0.000    0.000    0.000    0.000    0.000 
#
# Total GULP energy -312130.891763 kJ/mol
# GULP energy per Si atom -5573.765924 kJ/mol
# Density = 2.198611 g / cm^3
# Si number density = 22.036268 Si / 1000 Ang^3
#
#
#
# Elastic Constant Matrix: (Units=GPa)
#
#
# Indices 1 2 3 4 5 6 
#
# 1 86.9020 24.6388 16.7694 0.0000 0.0000 0.0000
# 2 24.6388 138.5246 62.2131 0.0000 0.0000 0.0000
# 3 16.7694 62.2131 112.2877 0.0000 0.0000 0.0000
# 4 0.0000 0.0000 0.0000 -87.9912 0.0000 0.0000
# 5 0.0000 0.0000 0.0000 0.0000 16.4956 0.0000
# 6 0.0000 0.0000 0.0000 0.0000 0.0000 7.1307
#
#
#
# Elastic Compliance Matrix: (Units=1/GPa)
#
#
# Indices 1 2 3 4 5 6 
#
# 1 0.012175 -0.001796 -0.000823 0.000000 0.000000 0.000000
# 2 -0.001796 0.009875 -0.005203 0.000000 0.000000 0.000000
# 3 -0.000823 -0.005203 0.011911 0.000000 0.000000 0.000000
# 4 0.000000 0.000000 0.000000 -0.011365 0.000000 0.000000
# 5 0.000000 0.000000 0.000000 0.000000 0.060622 0.000000
# 6 0.000000 0.000000 0.000000 0.000000 0.000000 0.140240
#
#
# Mechanical properties :
#
#
# Convention : Reuss Voigt Hill
#
# Bulk Modulus (GPa) = 54.59318 60.55080 57.57199
# Shear Modulus (GPa) = 20.39076 2.73322 11.56199
#
# Velocity S-wave (km/s) = 3.04522 1.11491 2.29307
# Velocity P-wave (km/s) = 6.09857 5.40322 5.76139
#
# Compressibility (1/GPa) = 0.01831731
#
# Stress axis : x y z
#
# Youngs Moduli (GPa) = 82.13386 101.26442 83.95280
#
# Poissons Ratio (x) = 0.18185 0.06912
# Poissons Ratio (y) = 0.14750 0.43682
# Poissons Ratio (z) = 0.06762 0.52689
#
# Static dielectric constant tensor:
#      x y z
#    x 1.843170 0.000000 0.000000 
#    y 0.000000 1.893820 0.000000 
#    z 0.000000 0.000000 1.845820 
# 
# From -- ./inp_files/22840.got.cif
#   From: 2010.05.17/outbox.cif.g08.bks.cpg/sg53_12_cif.got.tgz:22840.got - 2010.06.03 12:45:16.
