data_PCOD9418440
_publ_section_title
;
Structure prediction by ZEFSAII (Michael W. Deem and Ramdas Pophale) SiO2 
 PCOD9418440
Probable space group: P M N A
;
_chemical_formula_sum "Si O2"
_cell_formula_units_Z 64
_cell_length_a 21.009709
_cell_length_b 18.649049
_cell_length_c 8.270943
_cell_angle_alpha 90.000000
_cell_angle_beta 90.000000
_cell_angle_gamma 90.000000
_cell_volume 3240.647214
_symmetry_space_group_name_H-M "P M N A"
_symmetry_group_IT_number 53
_symmetry_cell_setting 'orthorhombic'
loop_
_space_group_symop_operation_xyz
x,y,z
1/2-x,-y,1/2+z
x,-y,-z
1/2-x,y,1/2-z
-x,-y,-z
1/2+x,y,1/2-z
-x,y,z
1/2+x,-y,1/2+z
loop_
_atom_site_type_symbol
_atom_site_label
_atom_site_fract_x
_atom_site_fract_y
_atom_site_fract_z
Si Si1 0.572551 0.038932 0.174674
Si Si2 0.662043 0.424664 0.423867
Si Si3 0.680826 0.205866 0.579406
Si Si4 0.696984 0.060617 0.383025
Si Si5 0.568163 0.790011 0.877659
Si Si6 0.188460 0.264454 0.562563
Si Si7 0.928968 0.706969 0.959165
Si Si8 0.311343 0.580084 0.957906
O O1 0.500000 0.016271 0.226705
O O2 0.632445 0.030219 0.296730
O O3 0.569606 0.125351 0.158641
O O4 0.583844 0.000000 0.000000
O O5 0.639315 0.500000 0.500000
O O6 0.614162 0.363041 0.476297
O O7 0.669226 0.414679 0.230012
O O8 0.735003 0.419363 0.481680
O O9 0.685517 0.128507 0.498846
O O10 0.687753 0.222543 0.768416
O O11 0.739019 0.252453 0.500063
O O12 0.609913 0.232036 0.547906
O O13 0.750000 0.079451 0.250000
O O14 0.724190 0.000000 0.500000
O O15 0.500000 0.776656 0.964668
O O16 0.567769 0.738007 0.722460
O O17 0.634078 0.772915 0.961240
O O18 0.170202 0.349034 0.559483
O O19 0.000000 0.694784 0.018044
O O20 0.334325 0.500000 0.000000
#
# Coordination Sequence:
#
# PCOD9418440 Si02
#       8
#     8   8   8   8   8   8   8   8
#     4  10  22  42  67  93 125 169 215 263 324 398
#     4  10  21  36  61  91 125 164 209 257 325 376
#     4  11  26  39  64  94 123 164 213 273 318 393
#     4  12  27  43  64  94 135 170 213 272 343 398
#     4  10  21  39  65  91 123 165 210 260 318 389
#     4  11  23  40  65  92 123 162 218 258 326 384
#     4  11  22  40  63  90 123 165 216 265 320 382
#     4  10  21  36  61  93 127 162 205 268 315 377
#
# _framework density 19.749141000000002
#
# number of rings (size 3 to 8) (size 9 to 14) (size 15 to 20)
#    0.000    1.375    3.750    1.125    5.250    2.000 
#    0.000    0.000    0.000    0.750    0.000    0.000 
#    0.000    0.000    0.000    0.000    0.000    0.000 
#
# Total GULP energy -356328.721567 kJ/mol
# GULP energy per Si atom -5567.636274 kJ/mol
# Density = 1.970419 g / cm^3
# Si number density = 19.749141 Si / 1000 Ang^3
#
#
#
# Elastic Constant Matrix: (Units=GPa)
#
#
# Indices 1 2 3 4 5 6 
#
# 1 63.0463 -13.8658 15.2222 0.0000 0.0000 0.0000
# 2 -13.8658 92.4062 20.2859 0.0000 0.0000 0.0000
# 3 15.2222 20.2859 42.1000 0.0000 0.0000 0.0000
# 4 0.0000 0.0000 0.0000 39.3303 0.0000 0.0000
# 5 0.0000 0.0000 0.0000 0.0000 8.6437 0.0000
# 6 0.0000 0.0000 0.0000 0.0000 0.0000 29.5740
#
#
#
# Elastic Compliance Matrix: (Units=1/GPa)
#
#
# Indices 1 2 3 4 5 6 
#
# 1 0.019193 0.004924 -0.009312 0.000000 0.000000 0.000000
# 2 0.004924 0.013365 -0.008221 0.000000 0.000000 0.000000
# 3 -0.009312 -0.008221 0.031081 0.000000 0.000000 0.000000
# 4 0.000000 0.000000 0.000000 0.025426 0.000000 0.000000
# 5 0.000000 0.000000 0.000000 0.000000 0.115692 0.000000
# 6 0.000000 0.000000 0.000000 0.000000 0.000000 0.033813
#
#
# Mechanical properties :
#
#
# Convention : Reuss Voigt Hill
#
# Bulk Modulus (GPa) = 26.02677 26.75966 26.39322
# Shear Modulus (GPa) = 18.07698 27.23694 22.65696
#
# Velocity S-wave (km/s) = 3.02872 3.71771 3.39076
# Velocity P-wave (km/s) = 5.04363 5.65754 5.35938
#
# Compressibility (1/GPa) = 0.03842198
#
# Stress axis : x y z
#
# Youngs Moduli (GPa) = 52.10293 74.82032 32.17383
#
# Poissons Ratio (x) = -0.36844 0.29961
# Poissons Ratio (y) = -0.25657 0.26449
# Poissons Ratio (z) = 0.48520 0.61507
#
# Static dielectric constant tensor:
#      x y z
#    x 1.683560 0.000000 0.000000 
#    y 0.000000 1.178220 0.000000 
#    z 0.000000 0.000000 1.693870 
# 
# From -- ./inp_files/11234.got.cif
#   From: 2010.05.17/outbox.cif.g08.bks.cpg/sg53_6_cif.got.tgz:11234.got - 2010.06.03 12:45:16.
