data_PCOD9418862
_publ_section_title
;
Structure prediction by ZEFSAII (Michael W. Deem and Ramdas Pophale) SiO2 
 PCOD9418862
Probable space group: P M N A
;
_chemical_formula_sum "Si O2"
_cell_formula_units_Z 64
_cell_length_a 15.820663
_cell_length_b 13.113685
_cell_length_c 15.735477
_cell_angle_alpha 90.000000
_cell_angle_beta 90.000000
_cell_angle_gamma 90.000000
_cell_volume 3264.595213
_symmetry_space_group_name_H-M "P M N A"
_symmetry_group_IT_number 53
_symmetry_cell_setting 'orthorhombic'
loop_
_space_group_symop_operation_xyz
x,y,z
1/2-x,-y,1/2+z
x,-y,-z
1/2-x,y,1/2-z
-x,-y,-z
1/2+x,y,1/2-z
-x,y,z
1/2+x,-y,1/2+z
loop_
_atom_site_type_symbol
_atom_site_label
_atom_site_fract_x
_atom_site_fract_y
_atom_site_fract_z
Si Si1 0.681075 0.926650 0.673310
Si Si2 0.098474 0.565835 0.414097
Si Si3 0.401746 0.512803 0.733555
Si Si4 0.242410 0.711940 0.479092
Si Si5 0.903116 0.107740 0.743590
Si Si6 0.900135 0.298089 0.861493
Si Si7 0.300860 0.302076 0.337723
Si Si8 0.695656 0.064161 0.929100
O O1 0.750000 0.922085 0.750000
O O2 0.657029 0.810514 0.651843
O O3 0.608281 0.001582 0.706139
O O4 0.728783 0.988742 0.599378
O O5 0.097570 0.500000 0.500000
O O6 0.125759 0.500471 0.331657
O O7 0.167603 0.653275 0.429855
O O8 0.000000 0.600635 0.399123
O O9 0.500000 0.539131 0.736522
O O10 0.392214 0.401454 0.692433
O O11 0.358052 0.599507 0.678091
O O12 0.334430 0.691854 0.438373
O O13 0.245227 0.683353 0.578099
O O14 0.225802 0.831256 0.469580
O O15 0.873601 0.201190 0.803315
O O16 0.852456 0.094722 0.656681
O O17 0.000000 0.128592 0.723712
O O18 0.000000 0.285599 0.884580
O O19 0.250000 0.295353 0.250000
O O20 0.644776 0.000000 0.000000
#
# Coordination Sequence:
#
# PCOD9418862 Si02
#       8
#     8   8   8   8   8   8   8   8
#     4   9  19  38  60  84 122 163 205 255 308 371
#     4  10  23  43  64  93 130 167 216 269 321 391
#     4  10  23  42  62  87 126 165 203 266 328 379
#     4  12  24  38  69  96 123 174 215 265 330 390
#     4  10  21  39  64  94 128 168 213 268 330 384
#     4  10  23  41  63  97 128 158 212 274 324 377
#     4  11  24  40  61  90 125 167 216 257 312 402
#     4  11  21  38  61  92 130 167 214 266 321 383
#
# _framework density 19.604268000000001
#
# number of rings (size 3 to 8) (size 9 to 14) (size 15 to 20)
#    0.000    1.625    2.500    1.500    3.500    3.750 
#    0.000    1.250    0.000    2.250    0.000    0.000 
#    0.000    0.000    0.000    0.000    0.000    0.000 
#
# Total GULP energy -357031.694291 kJ/mol
# GULP energy per Si atom -5578.620223 kJ/mol
# Density = 1.955965 g / cm^3
# Si number density = 19.604268 Si / 1000 Ang^3
#
#
#
# Elastic Constant Matrix: (Units=GPa)
#
#
# Indices 1 2 3 4 5 6 
#
# 1 55.5151 35.6280 33.9857 0.0000 0.0000 0.0000
# 2 35.6280 106.8867 17.2481 0.0000 0.0000 0.0000
# 3 33.9857 17.2481 79.0250 0.0000 0.0000 0.0000
# 4 0.0000 0.0000 0.0000 32.0169 0.0000 0.0000
# 5 0.0000 0.0000 0.0000 0.0000 21.1054 0.0000
# 6 0.0000 0.0000 0.0000 0.0000 0.0000 20.5848
#
#
#
# Elastic Compliance Matrix: (Units=1/GPa)
#
#
# Indices 1 2 3 4 5 6 
#
# 1 0.030137 -0.008244 -0.011161 0.000000 0.000000 0.000000
# 2 -0.008244 0.011953 0.000937 0.000000 0.000000 0.000000
# 3 -0.011161 0.000937 0.017250 0.000000 0.000000 0.000000
# 4 0.000000 0.000000 0.000000 0.031234 0.000000 0.000000
# 5 0.000000 0.000000 0.000000 0.000000 0.047381 0.000000
# 6 0.000000 0.000000 0.000000 0.000000 0.000000 0.048580
#
#
# Mechanical properties :
#
#
# Convention : Reuss Voigt Hill
#
# Bulk Modulus (GPa) = 44.63970 46.12783 45.38377
# Shear Modulus (GPa) = 21.65078 25.04575 23.34827
#
# Velocity S-wave (km/s) = 3.32684 3.57818 3.45480
# Velocity P-wave (km/s) = 6.13001 6.37587 6.25415
#
# Compressibility (1/GPa) = 0.02240158
#
# Stress axis : x y z
#
# Youngs Moduli (GPa) = 33.18187 83.66412 57.97150
#
# Poissons Ratio (x) = 0.68975 0.64704
# Poissons Ratio (y) = 0.27356 -0.05431
# Poissons Ratio (z) = 0.37036 -0.07837
#
# Static dielectric constant tensor:
#      x y z
#    x 1.704320 0.000000 0.000000 
#    y 0.000000 1.692240 0.000000 
#    z 0.000000 0.000000 1.725850 
# 
# From -- ./inp_files/23901.got.cif
#   From: 2010.05.17/outbox.cif.g08.bks.cpg/sg53_12_cif.got.tgz:23901.got - 2010.06.03 12:45:16.
