data_PCOD9418757
_publ_section_title
;
Structure prediction by ZEFSAII (Michael W. Deem and Ramdas Pophale) SiO2 
 PCOD9418757
Probable space group: P M N A
;
_chemical_formula_sum "Si O2"
_cell_formula_units_Z 54
_cell_length_a 33.345539
_cell_length_b 14.326504
_cell_length_c 5.203426
_cell_angle_alpha 90.000000
_cell_angle_beta 90.000000
_cell_angle_gamma 90.000000
_cell_volume 2485.806675
_symmetry_space_group_name_H-M "P M N A"
_symmetry_group_IT_number 53
_symmetry_cell_setting 'orthorhombic'
loop_
_space_group_symop_operation_xyz
x,y,z
1/2-x,-y,1/2+z
x,-y,-z
1/2-x,y,1/2-z
-x,-y,-z
1/2+x,y,1/2-z
-x,y,z
1/2+x,-y,1/2+z
loop_
_atom_site_type_symbol
_atom_site_label
_atom_site_fract_x
_atom_site_fract_y
_atom_site_fract_z
Si Si1 0.047843 0.158490 0.919321
Si Si2 0.169690 0.226017 0.490163
Si Si3 0.096292 0.103136 0.404255
Si Si4 0.000000 0.500000 0.000000
Si Si5 0.877357 0.399251 0.597417
Si Si6 0.790051 0.081183 0.857978
Si Si7 0.071275 0.633123 0.905933
Si Si8 0.750000 0.223544 0.250000
O O1 0.070761 0.142331 0.648566
O O2 0.000000 0.141016 0.895847
O O3 0.068220 0.099989 0.151753
O O4 0.055354 0.265720 0.005558
O O5 0.133310 0.174062 0.340367
O O6 0.152582 0.313442 0.644024
O O7 0.185022 0.138373 0.654983
O O8 0.209801 0.268973 0.360428
O O9 0.109303 0.000000 0.500000
O O10 0.965564 0.435074 0.132089
O O11 0.861408 0.500000 0.500000
O O12 0.904481 0.365076 0.358616
O O13 0.902239 0.405661 0.858151
O O14 0.750000 0.031906 0.750000
O O15 0.770789 0.158758 0.038359
O O16 0.814033 0.000000 0.000000
#
# Coordination Sequence:
#
# PCOD9418757 Si02
#       8
#     8   8   8   2   8   8   8   4
#     4  12  25  47  70  99 144 188 237 294 355 421
#     4  11  26  42  71 100 146 183 240 298 362 430
#     4  12  28  44  70 102 140 194 243 290 351 425
#     4  12  24  42  76 110 142 170 244 302 380 426
#     4  12  25  46  72 101 140 188 235 288 355 434
#     4  10  21  38  64 100 138 182 229 289 361 427
#     4  12  24  43  68 108 138 177 229 297 364 422
#     4  10  24  42  66 100 138 180 234 292 362 412
#
# _framework density 21.723331999999999
#
# number of rings (size 3 to 8) (size 9 to 14) (size 15 to 20)
#    0.000    0.593    5.926    0.889    6.222    2.963 
#    0.000    0.000    4.889    0.000    0.000    0.000 
#    0.000    0.000    0.000    0.000    0.000    0.000 
#
# Total GULP energy -300848.804875 kJ/mol
# GULP energy per Si atom -5571.274164 kJ/mol
# Density = 2.167389 g / cm^3
# Si number density = 21.723332 Si / 1000 Ang^3
#
#
#
# Elastic Constant Matrix: (Units=GPa)
#
#
# Indices 1 2 3 4 5 6 
#
# 1 116.0887 32.9735 35.7665 0.0000 0.0000 0.0000
# 2 32.9735 70.1332 -13.2853 0.0000 0.0000 0.0000
# 3 35.7665 -13.2853 99.0193 0.0000 0.0000 0.0000
# 4 0.0000 0.0000 0.0000 27.0758 0.0000 0.0000
# 5 0.0000 0.0000 0.0000 0.0000 3.7720 0.0000
# 6 0.0000 0.0000 0.0000 0.0000 0.0000 1.5687
#
#
#
# Elastic Compliance Matrix: (Units=1/GPa)
#
#
# Indices 1 2 3 4 5 6 
#
# 1 0.012151 -0.006715 -0.005290 0.000000 0.000000 0.000000
# 2 -0.006715 0.018341 0.004886 0.000000 0.000000 0.000000
# 3 -0.005290 0.004886 0.012665 0.000000 0.000000 0.000000
# 4 0.000000 0.000000 0.000000 0.036933 0.000000 0.000000
# 5 0.000000 0.000000 0.000000 0.000000 0.265110 0.000000
# 6 0.000000 0.000000 0.000000 0.000000 0.000000 0.637472
#
#
# Mechanical properties :
#
#
# Convention : Reuss Voigt Hill
#
# Bulk Modulus (GPa) = 34.57756 44.01673 39.29715
# Shear Modulus (GPa) = 4.96746 21.80240 13.38493
#
# Velocity S-wave (km/s) = 1.51382 3.17146 2.48494
# Velocity P-wave (km/s) = 4.35974 5.80666 5.13443
#
# Compressibility (1/GPa) = 0.02892049
#
# Stress axis : x y z
#
# Youngs Moduli (GPa) = 82.29575 54.52160 78.95489
#
# Poissons Ratio (x) = 0.36612 0.41768
# Poissons Ratio (y) = 0.55262 -0.38580
# Poissons Ratio (z) = 0.43535 -0.26641
#
# Static dielectric constant tensor:
#      x y z
#    x 1.809740 0.000000 0.000000 
#    y 0.000000 1.849710 0.000000 
#    z 0.000000 0.000000 1.871900 
# 
# From -- ./inp_files/5385.got.cif
#   From: 2010.05.17/outbox.cif.g08.bks.cpg/sg53_3_cif.got.tgz:5385.got - 2010.06.03 12:45:16.
