data_PCOD9418590
_publ_section_title
;
Structure prediction by ZEFSAII (Michael W. Deem and Ramdas Pophale) SiO2 
 PCOD9418590
Probable space group: P M N A
;
_chemical_formula_sum "Si O2"
_cell_formula_units_Z 64
_cell_length_a 18.419373
_cell_length_b 13.189262
_cell_length_c 11.234770
_cell_angle_alpha 90.000000
_cell_angle_beta 90.000000
_cell_angle_gamma 90.000000
_cell_volume 2729.351839
_symmetry_space_group_name_H-M "P M N A"
_symmetry_group_IT_number 53
_symmetry_cell_setting 'orthorhombic'
loop_
_space_group_symop_operation_xyz
x,y,z
1/2-x,-y,1/2+z
x,-y,-z
1/2-x,y,1/2-z
-x,-y,-z
1/2+x,y,1/2-z
-x,y,z
1/2+x,-y,1/2+z
loop_
_atom_site_type_symbol
_atom_site_label
_atom_site_fract_x
_atom_site_fract_y
_atom_site_fract_z
Si Si1 0.335181 0.372577 0.771150
Si Si2 0.417166 0.325661 0.527024
Si Si3 0.915970 0.215001 0.324749
Si Si4 0.921158 0.543618 0.633518
Si Si5 0.924538 0.095436 0.911749
Si Si6 0.229007 0.040208 0.865292
Si Si7 0.320001 0.211179 0.965733
Si Si8 0.804100 0.288908 0.147782
O O1 0.250000 0.360795 0.750000
O O2 0.382037 0.346120 0.655134
O O3 0.356222 0.486567 0.803482
O O4 0.351925 0.301103 0.884682
O O5 0.500000 0.362644 0.513718
O O6 0.420047 0.202632 0.521225
O O7 0.361293 0.359156 0.423960
O O8 0.915970 0.335756 0.356270
O O9 0.879508 0.167456 0.442314
O O10 0.858293 0.210221 0.216535
O O11 0.000000 0.185891 0.299718
O O12 0.921072 0.500000 0.500000
O O13 0.000000 0.514564 0.686474
O O14 0.000000 0.097192 0.840921
O O15 0.851407 0.080192 0.842153
O O16 0.927591 0.000000 0.000000
O O17 0.250000 0.974487 0.750000
O O18 0.285897 0.130818 0.876487
O O19 0.229319 0.000000 0.000000
O O20 0.251460 0.246816 0.047673
O O21 0.750000 0.328872 0.250000
#
# Coordination Sequence:
#
# PCOD9418590 Si02
#       8
#     8   8   8   8   8   8   8   8
#     4  12  22  36  62  91 122 162 208 266 323 377
#     4  11  21  36  59  91 124 160 210 267 322 381
#     4  10  22  40  63  88 125 166 209 262 321 387
#     4  10  21  40  61  87 119 160 209 256 315 388
#     4   9  18  35  59  87 120 162 209 258 315 374
#     4  11  23  41  66  95 131 169 211 262 318 380
#     4  11  21  39  64  90 125 161 214 260 316 381
#     4  10  21  37  60  85 122 166 210 261 312 382
#
# _framework density 23.448791
#
# number of rings (size 3 to 8) (size 9 to 14) (size 15 to 20)
#    0.000    1.500    3.750    1.875    0.000    3.500 
#    0.000    1.250    0.000    3.000    0.000    0.000 
#    0.000    0.000    0.000    0.000    0.000    0.000 
#
# Total GULP energy -357267.203706 kJ/mol
# GULP energy per Si atom -5582.300058 kJ/mol
# Density = 2.339542 g / cm^3
# Si number density = 23.448791 Si / 1000 Ang^3
#
#
#
# Elastic Constant Matrix: (Units=GPa)
#
#
# Indices 1 2 3 4 5 6 
#
# 1 157.0591 12.4527 82.6249 0.0000 0.0000 0.0000
# 2 12.4527 40.9836 3.8264 0.0000 0.0000 0.0000
# 3 82.6249 3.8264 146.2068 0.0000 0.0000 0.0000
# 4 0.0000 0.0000 0.0000 6.4228 0.0000 0.0000
# 5 0.0000 0.0000 0.0000 0.0000 13.2175 0.0000
# 6 0.0000 0.0000 0.0000 0.0000 0.0000 22.0897
#
#
#
# Elastic Compliance Matrix: (Units=1/GPa)
#
#
# Indices 1 2 3 4 5 6 
#
# 1 0.009279 -0.002335 -0.005182 0.000000 0.000000 0.000000
# 2 -0.002335 0.025048 0.000664 0.000000 0.000000 0.000000
# 3 -0.005182 0.000664 0.009751 0.000000 0.000000 0.000000
# 4 0.000000 0.000000 0.000000 0.155697 0.000000 0.000000
# 5 0.000000 0.000000 0.000000 0.000000 0.075657 0.000000
# 6 0.000000 0.000000 0.000000 0.000000 0.000000 0.045270
#
#
# Mechanical properties :
#
#
# Convention : Reuss Voigt Hill
#
# Bulk Modulus (GPa) = 32.92725 60.22862 46.57794
# Shear Modulus (GPa) = 14.51248 24.70237 19.60743
#
# Velocity S-wave (km/s) = 2.49047 3.24923 2.89482
# Velocity P-wave (km/s) = 4.72680 6.31012 5.57495
#
# Compressibility (1/GPa) = 0.03036998
#
# Stress axis : x y z
#
# Youngs Moduli (GPa) = 107.77579 39.92405 102.55427
#
# Poissons Ratio (x) = 0.09324 0.53148
# Poissons Ratio (y) = 0.25170 -0.06812
# Poissons Ratio (z) = 0.55854 -0.02652
#
# Static dielectric constant tensor:
#      x y z
#    x 1.914160 0.000000 0.000000 
#    y 0.000000 1.912510 0.000000 
#    z 0.000000 0.000000 1.939680 
# 
# From -- ./inp_files/17129.got.cif
#   From: 2010.05.17/outbox.cif.g08.bks.cpg/sg53_9_cif.got.tgz:17129.got - 2010.06.03 12:45:16.
