data_PCOD9418883
_publ_section_title
;
Structure prediction by ZEFSAII (Michael W. Deem and Ramdas Pophale) SiO2 
 PCOD9418883
Probable space group: P M N A
;
_chemical_formula_sum "Si O2"
_cell_formula_units_Z 48
_cell_length_a 14.230548
_cell_length_b 5.557912
_cell_length_c 27.635641
_cell_angle_alpha 90.000000
_cell_angle_beta 90.000000
_cell_angle_gamma 90.000000
_cell_volume 2185.761807
_symmetry_space_group_name_H-M "P M N A"
_symmetry_group_IT_number 53
_symmetry_cell_setting 'orthorhombic'
loop_
_space_group_symop_operation_xyz
x,y,z
1/2-x,-y,1/2+z
x,-y,-z
1/2-x,y,1/2-z
-x,-y,-z
1/2+x,y,1/2-z
-x,y,z
1/2+x,-y,1/2+z
loop_
_atom_site_type_symbol
_atom_site_label
_atom_site_fract_x
_atom_site_fract_y
_atom_site_fract_z
Si Si1 0.861861 0.278170 0.746731
Si Si2 0.394231 0.706523 0.135634
Si Si3 0.605625 0.675786 0.453315
Si Si4 0.101699 0.215205 0.198213
Si Si5 0.294869 0.994220 0.051733
Si Si6 0.718286 0.617459 0.615013
O O1 0.750000 0.279628 0.750000
O O2 0.894810 0.226987 0.692071
O O3 0.889738 0.543301 0.768032
O O4 0.893620 0.041822 0.775763
O O5 0.500000 0.622371 0.123322
O O6 0.359854 0.897008 0.095152
O O7 0.308052 0.522175 0.134181
O O8 0.605528 0.500000 0.500000
O O9 0.500000 0.785375 0.451228
O O10 0.697898 0.843715 0.455300
O O11 0.629584 0.535254 0.403614
O O12 0.182164 0.216154 0.157865
O O13 0.000000 0.232197 0.174262
O O14 0.257632 0.250722 0.068118
O O15 0.344312 0.000000 0.000000
#
# Coordination Sequence:
#
# PCOD9418883 Si02
#       6
#     8   8   8   8   8   8
#     4  12  25  49  72 106 147 189 234 292 358 425
#     4  11  26  46  71 100 133 182 238 293 355 422
#     4  10  21  39  65  98 137 179 226 281 350 429
#     4  12  26  44  72 108 147 188 232 287 353 431
#     4  11  24  44  68  97 136 178 233 293 357 416
#     4  11  24  44  66  99 136 181 226 289 350 419
#
# _framework density 21.960305999999999
#
# number of rings (size 3 to 8) (size 9 to 14) (size 15 to 20)
#    0.000    0.833    3.333    3.500    4.667    2.667 
#    0.000    0.833    0.000    0.000    0.000    0.000 
#    0.000    0.000    0.000    0.000    0.000    0.000 
#
# Total GULP energy -267762.594017 kJ/mol
# GULP energy per Si atom -5578.387375 kJ/mol
# Density = 2.191032 g / cm^3
# Si number density = 21.960306 Si / 1000 Ang^3
#
#
#
# Elastic Constant Matrix: (Units=GPa)
#
#
# Indices 1 2 3 4 5 6 
#
# 1 123.1789 -11.3126 -1.8152 0.0000 0.0000 0.0000
# 2 -11.3126 38.8039 -8.4790 0.0000 0.0000 0.0000
# 3 -1.8152 -8.4790 75.6389 0.0000 0.0000 0.0000
# 4 0.0000 0.0000 0.0000 39.8275 0.0000 0.0000
# 5 0.0000 0.0000 0.0000 0.0000 43.4071 0.0000
# 6 0.0000 0.0000 0.0000 0.0000 0.0000 20.2962
#
#
#
# Elastic Compliance Matrix: (Units=1/GPa)
#
#
# Indices 1 2 3 4 5 6 
#
# 1 0.008359 0.002543 0.000486 0.000000 0.000000 0.000000
# 2 0.002543 0.027191 0.003109 0.000000 0.000000 0.000000
# 3 0.000486 0.003109 0.013581 0.000000 0.000000 0.000000
# 4 0.000000 0.000000 0.000000 0.025108 0.000000 0.000000
# 5 0.000000 0.000000 0.000000 0.000000 0.023038 0.000000
# 6 0.000000 0.000000 0.000000 0.000000 0.000000 0.049270
#
#
# Mechanical properties :
#
#
# Convention : Reuss Voigt Hill
#
# Bulk Modulus (GPa) = 16.28480 21.60089 18.94285
# Shear Modulus (GPa) = 32.31210 37.98807 35.15008
#
# Velocity S-wave (km/s) = 3.84003 4.16366 4.00511
# Velocity P-wave (km/s) = 5.20507 5.74216 5.48020
#
# Compressibility (1/GPa) = 0.06140694
#
# Stress axis : x y z
#
# Youngs Moduli (GPa) = 119.63178 36.77642 73.63280
#
# Poissons Ratio (x) = -0.09352 -0.03576
# Poissons Ratio (y) = -0.30423 -0.22894
# Poissons Ratio (z) = -0.05810 -0.11434
#
# Static dielectric constant tensor:
#      x y z
#    x 1.178070 0.000000 0.000000 
#    y 0.000000 1.891360 0.000000 
#    z 0.000000 0.000000 1.924990 
# 
# From -- ./inp_files/36972.got.cif
#   From: 2010.05.17/outbox.cif.g08.bks.cpg/sg53_19_cif.got.tgz:36972.got - 2010.06.03 12:45:16.
