data_PCOD9418599
_publ_section_title
;
Structure prediction by ZEFSAII (Michael W. Deem and Ramdas Pophale) SiO2 
 PCOD9418599
Probable space group: P M N A
;
_chemical_formula_sum "Si O2"
_cell_formula_units_Z 40
_cell_length_a 9.812904
_cell_length_b 10.541529
_cell_length_c 18.241932
_cell_angle_alpha 90.000000
_cell_angle_beta 90.000000
_cell_angle_gamma 90.000000
_cell_volume 1887.000392
_symmetry_space_group_name_H-M "P M N A"
_symmetry_group_IT_number 53
_symmetry_cell_setting 'orthorhombic'
loop_
_space_group_symop_operation_xyz
x,y,z
1/2-x,-y,1/2+z
x,-y,-z
1/2-x,y,1/2-z
-x,-y,-z
1/2+x,y,1/2-z
-x,y,z
1/2+x,-y,1/2+z
loop_
_atom_site_type_symbol
_atom_site_label
_atom_site_fract_x
_atom_site_fract_y
_atom_site_fract_z
Si Si1 0.145514 0.899149 0.934319
Si Si2 0.743978 0.637687 0.524723
Si Si3 0.342921 0.292828 0.868451
Si Si4 0.835666 0.988269 0.322155
Si Si5 0.338915 0.561266 0.816292
O O1 0.146159 0.756417 0.963929
O O2 0.277151 0.920504 0.884639
O O3 0.000000 0.922237 0.895122
O O4 0.153348 0.000000 0.000000
O O5 0.686735 0.500000 0.500000
O O6 0.833908 0.680754 0.455207
O O7 0.818320 0.619337 0.602675
O O8 0.500000 0.291224 0.846881
O O9 0.284507 0.416655 0.828727
O O10 0.291039 0.154701 0.846529
O O11 0.750000 0.018414 0.250000
O O12 0.000000 0.995479 0.314795
O O13 0.250000 0.618423 0.750000
O O14 0.500000 0.563995 0.798672
#
# Coordination Sequence:
#
# PCOD9418599 Si02
#       5
#     8   8   8   8   8
#     4  11  24  43  65  94 131 168 212 265 322 380
#     4  10  21  40  66  95 127 166 218 266 320 381
#     4   9  18  36  62  93 125 166 218 268 320 385
#     4  11  23  40  66  97 132 172 219 269 327 388
#     4  10  21  37  60  90 129 170 211 266 325 387
#
# _framework density 21.197666000000002
#
# number of rings (size 3 to 8) (size 9 to 14) (size 15 to 20)
#    0.000    1.800    2.000    1.800    0.000    6.400 
#    0.000    4.000    0.000    0.000    0.000    0.000 
#    0.000    0.000    0.000    0.000    0.000    0.000 
#
# Total GULP energy -222923.359104 kJ/mol
# GULP energy per Si atom -5573.083978 kJ/mol
# Density = 2.114942 g / cm^3
# Si number density = 21.197666 Si / 1000 Ang^3
#
#
#
# Elastic Constant Matrix: (Units=GPa)
#
#
# Indices 1 2 3 4 5 6 
#
# 1 102.4958 34.3380 48.3902 0.0000 0.0000 0.0000
# 2 34.3380 106.2311 13.8880 0.0000 0.0000 0.0000
# 3 48.3902 13.8880 113.2525 0.0000 0.0000 0.0000
# 4 0.0000 0.0000 0.0000 19.0235 0.0000 0.0000
# 5 0.0000 0.0000 0.0000 0.0000 64.5317 0.0000
# 6 0.0000 0.0000 0.0000 0.0000 0.0000 68.1820
#
#
#
# Elastic Compliance Matrix: (Units=1/GPa)
#
#
# Indices 1 2 3 4 5 6 
#
# 1 0.013495 -0.003667 -0.005316 0.000000 0.000000 0.000000
# 2 -0.003667 0.010563 0.000271 0.000000 0.000000 0.000000
# 3 -0.005316 0.000271 0.011068 0.000000 0.000000 0.000000
# 4 0.000000 0.000000 0.000000 0.052567 0.000000 0.000000
# 5 0.000000 0.000000 0.000000 0.000000 0.015496 0.000000
# 6 0.000000 0.000000 0.000000 0.000000 0.000000 0.014667
#
#
# Mechanical properties :
#
#
# Convention : Reuss Voigt Hill
#
# Bulk Modulus (GPa) = 56.48943 57.24573 56.86758
# Shear Modulus (GPa) = 35.41561 45.37165 40.39363
#
# Velocity S-wave (km/s) = 4.09189 4.63147 4.37002
# Velocity P-wave (km/s) = 7.00225 7.46090 7.23521
#
# Compressibility (1/GPa) = 0.01770243
#
# Stress axis : x y z
#
# Youngs Moduli (GPa) = 74.10139 94.66754 90.34958
#
# Poissons Ratio (x) = 0.34715 0.48034
# Poissons Ratio (y) = 0.27174 -0.02453
# Poissons Ratio (z) = 0.39395 -0.02570
#
# Static dielectric constant tensor:
#      x y z
#    x 1.734630 0.000000 0.000000 
#    y 0.000000 1.842920 0.000000 
#    z 0.000000 0.000000 1.755930 
# 
# From -- ./inp_files/27360.got.cif
#   From: 2010.05.17/outbox.cif.g08.bks.cpg/sg53_14_cif.got.tgz:27360.got - 2010.06.03 12:45:16.
