data_PCOD9418936
_publ_section_title
;
Structure prediction by ZEFSAII (Michael W. Deem and Ramdas Pophale) SiO2 
 PCOD9418936
Probable space group: P M N A
;
_chemical_formula_sum "Si O2"
_cell_formula_units_Z 40
_cell_length_a 24.096825
_cell_length_b 5.075786
_cell_length_c 15.978169
_cell_angle_alpha 90.000000
_cell_angle_beta 90.000000
_cell_angle_gamma 90.000000
_cell_volume 1954.295075
_symmetry_space_group_name_H-M "P M N A"
_symmetry_group_IT_number 53
_symmetry_cell_setting 'orthorhombic'
loop_
_space_group_symop_operation_xyz
x,y,z
1/2-x,-y,1/2+z
x,-y,-z
1/2-x,y,1/2-z
-x,-y,-z
1/2+x,y,1/2-z
-x,y,z
1/2+x,-y,1/2+z
loop_
_atom_site_type_symbol
_atom_site_label
_atom_site_fract_x
_atom_site_fract_y
_atom_site_fract_z
Si Si1 0.847568 0.247751 0.059350
Si Si2 0.936084 0.285163 0.206855
Si Si3 0.436548 0.209293 0.821578
Si Si4 0.733977 0.126937 0.154827
Si Si5 0.171527 0.612439 0.407102
O O1 0.894378 0.265401 0.130278
O O2 0.788663 0.215192 0.105194
O O3 0.846969 0.500000 0.000000
O O4 0.857671 0.000000 0.000000
O O5 0.933539 0.571651 0.248754
O O6 0.000000 0.234910 0.180856
O O7 0.923049 0.068897 0.278299
O O8 0.500000 0.202295 0.853246
O O9 0.391068 0.295478 0.888626
O O10 0.750000 0.063171 0.250000
O O11 0.691547 0.372820 0.151976
O O12 0.708680 0.868755 0.111176
O O13 0.177804 0.500000 0.500000
#
# Coordination Sequence:
#
# PCOD9418936 Si02
#       5
#     8   8   8   8   8
#     4  12  24  39  61  90 124 156 198 252 305 357
#     4  10  22  41  63  88 121 161 204 246 294 359
#     4  10  21  40  64  89 120 160 205 247 295 361
#     4  12  25  42  63  87 121 164 207 247 301 370
#     4  12  24  40  63  92 125 157 199 256 312 359
#
# _framework density 20.467737
#
# number of rings (size 3 to 8) (size 9 to 14) (size 15 to 20)
#    0.000    0.800    0.000    9.000    0.000    1.200 
#    0.000    0.000    0.000    6.000    0.000    0.000 
#    0.000    0.000    0.000    0.000    0.000    0.000 
#
# Total GULP energy -223965.303234 kJ/mol
# GULP energy per Si atom -5599.132581 kJ/mol
# Density = 2.042115 g / cm^3
# Si number density = 20.467737 Si / 1000 Ang^3
#
#
#
# Elastic Constant Matrix: (Units=GPa)
#
#
# Indices 1 2 3 4 5 6 
#
# 1 121.8323 39.3834 46.5602 0.0000 0.0000 0.0000
# 2 39.3834 107.6473 13.9591 0.0000 0.0000 0.0000
# 3 46.5602 13.9591 59.6194 0.0000 0.0000 0.0000
# 4 0.0000 0.0000 0.0000 18.3330 0.0000 0.0000
# 5 0.0000 0.0000 0.0000 0.0000 18.7705 0.0000
# 6 0.0000 0.0000 0.0000 0.0000 0.0000 26.7949
#
#
#
# Elastic Compliance Matrix: (Units=1/GPa)
#
#
# Indices 1 2 3 4 5 6 
#
# 1 0.012870 -0.003512 -0.009229 0.000000 0.000000 0.000000
# 2 -0.003512 0.010539 0.000275 0.000000 0.000000 0.000000
# 3 -0.009229 0.000275 0.023916 0.000000 0.000000 0.000000
# 4 0.000000 0.000000 0.000000 0.054546 0.000000 0.000000
# 5 0.000000 0.000000 0.000000 0.000000 0.053275 0.000000
# 6 0.000000 0.000000 0.000000 0.000000 0.000000 0.037321
#
#
# Mechanical properties :
#
#
# Convention : Reuss Voigt Hill
#
# Bulk Modulus (GPa) = 44.65526 54.32269 49.48897
# Shear Modulus (GPa) = 22.23579 25.39277 23.81428
#
# Velocity S-wave (km/s) = 3.29961 3.52607 3.41472
# Velocity P-wave (km/s) = 6.03169 6.57083 6.30702
#
# Compressibility (1/GPa) = 0.02239378
#
# Stress axis : x y z
#
# Youngs Moduli (GPa) = 77.69891 94.88773 41.81308
#
# Poissons Ratio (x) = 0.33324 0.38588
# Poissons Ratio (y) = 0.27287 -0.01150
# Poissons Ratio (z) = 0.71707 -0.02611
#
# Static dielectric constant tensor:
#      x y z
#    x 1.740830 0.000000 0.000000 
#    y 0.000000 1.695910 0.000000 
#    z 0.000000 0.000000 1.685000 
# 
# From -- ./inp_files/24557.got.cif
#   From: 2010.05.17/outbox.cif.g08.bks.cpg/sg53_13_cif.got.tgz:24557.got - 2010.06.03 12:45:16.
