data_PCOD9418380
_publ_section_title
;
Structure prediction by ZEFSAII (Michael W. Deem and Ramdas Pophale) SiO2 
 PCOD9418380
Probable space group: P M N A
;
_chemical_formula_sum "Si O2"
_cell_formula_units_Z 64
_cell_length_a 8.128893
_cell_length_b 22.564046
_cell_length_c 16.588929
_cell_angle_alpha 90.000000
_cell_angle_beta 90.000000
_cell_angle_gamma 90.000000
_cell_volume 3042.753228
_symmetry_space_group_name_H-M "P M N A"
_symmetry_group_IT_number 53
_symmetry_cell_setting 'orthorhombic'
loop_
_space_group_symop_operation_xyz
x,y,z
1/2-x,-y,1/2+z
x,-y,-z
1/2-x,y,1/2-z
-x,-y,-z
1/2+x,y,1/2-z
-x,y,z
1/2+x,-y,1/2+z
loop_
_atom_site_type_symbol
_atom_site_label
_atom_site_fract_x
_atom_site_fract_y
_atom_site_fract_z
Si Si1 0.299318 0.431483 0.999452
Si Si2 0.801757 0.126358 0.840816
Si Si3 0.304252 0.246826 0.579158
Si Si4 0.798923 0.999684 0.093652
Si Si5 0.302847 0.361464 0.838422
Si Si6 0.191062 0.756267 0.594431
Si Si7 0.301095 0.364034 0.162055
Si Si8 0.806398 0.123816 0.160811
O O1 0.500000 0.429491 0.999386
O O2 0.246015 0.399595 0.916334
O O3 0.249158 0.500000 0.000000
O O4 0.245223 0.400202 0.082866
O O5 0.750000 0.138080 0.750000
O O6 0.746536 0.181406 0.895150
O O7 0.740470 0.061526 0.866994
O O8 0.000000 0.125363 0.845812
O O9 0.500000 0.245265 0.564501
O O10 0.266071 0.295441 0.646632
O O11 0.214236 0.264844 0.497115
O O12 0.000000 0.999461 0.098153
O O13 0.735747 0.060186 0.134023
O O14 0.755240 0.000000 0.000000
O O15 0.250000 0.383483 0.750000
O O16 0.500000 0.359345 0.840321
O O17 0.259851 0.703791 0.650210
O O18 0.268935 0.820668 0.604203
O O19 0.000000 0.763429 0.613458
O O20 0.250000 0.386802 0.250000
O O21 0.500000 0.363068 0.159380
O O22 0.750000 0.139598 0.250000
O O23 0.000000 0.116124 0.161791
#
# Coordination Sequence:
#
# PCOD9418380 Si02
#       8
#     8   8   8   8   8   8   8   8
#     4   9  19  39  64  88 121 164 204 244 298 360
#     4  10  21  36  55  80 109 146 189 237 293 352
#     4  11  22  37  60  88 117 154 200 247 302 360
#     4   9  18  35  56  76 104 143 189 240 293 352
#     4  11  22  39  62  91 126 164 206 252 303 360
#     4  11  22  38  59  85 118 154 196 246 301 359
#     4  10  21  38  60  89 119 157 199 242 297 351
#     4  11  22  36  56  82 112 150 193 240 296 357
#
# _framework density 21.033583
#
# number of rings (size 3 to 8) (size 9 to 14) (size 15 to 20)
#    0.000    1.750    1.250    3.375    0.000    6.500 
#    0.000    0.625    0.000    5.250    0.000    0.000 
#    0.000    0.000    0.000    0.000    0.000    0.000 
#
# Total GULP energy -357471.980746 kJ/mol
# GULP energy per Si atom -5585.499699 kJ/mol
# Density = 2.098571 g / cm^3
# Si number density = 21.033583 Si / 1000 Ang^3
#
#
#
# Elastic Constant Matrix: (Units=GPa)
#
#
# Indices 1 2 3 4 5 6 
#
# 1 15.7861 10.4758 -5.1583 0.0000 0.0000 0.0000
# 2 10.4758 119.5101 44.0322 0.0000 0.0000 0.0000
# 3 -5.1583 44.0322 123.9984 0.0000 0.0000 0.0000
# 4 0.0000 0.0000 0.0000 25.4664 0.0000 0.0000
# 5 0.0000 0.0000 0.0000 0.0000 24.3362 0.0000
# 6 0.0000 0.0000 0.0000 0.0000 0.0000 14.7683
#
#
#
# Elastic Compliance Matrix: (Units=1/GPa)
#
#
# Indices 1 2 3 4 5 6 
#
# 1 0.070855 -0.008395 0.005929 0.000000 0.000000 0.000000
# 2 -0.008395 0.010622 -0.004121 0.000000 0.000000 0.000000
# 3 0.005929 -0.004121 0.009775 0.000000 0.000000 0.000000
# 4 0.000000 0.000000 0.000000 0.039267 0.000000 0.000000
# 5 0.000000 0.000000 0.000000 0.000000 0.041091 0.000000
# 6 0.000000 0.000000 0.000000 0.000000 0.000000 0.067712
#
#
# Mechanical properties :
#
#
# Convention : Reuss Voigt Hill
#
# Bulk Modulus (GPa) = 12.80792 39.77711 26.29251
# Shear Modulus (GPa) = 17.95180 26.91051 22.43116
#
# Velocity S-wave (km/s) = 2.92461 3.58076 3.26919
# Velocity P-wave (km/s) = 4.18413 6.00401 5.17470
#
# Compressibility (1/GPa) = 0.07807671
#
# Stress axis : x y z
#
# Youngs Moduli (GPa) = 14.11323 94.14648 102.30541
#
# Poissons Ratio (x) = 0.79039 -0.60654
# Poissons Ratio (y) = 0.11848 0.42161
# Poissons Ratio (z) = -0.08367 0.38798
#
# Static dielectric constant tensor:
#      x y z
#    x 1.747970 0.000000 0.000000 
#    y 0.000000 1.774990 0.000000 
#    z 0.000000 0.000000 1.752220 
# 
# From -- ./inp_files/20924.got.cif
#   From: 2010.05.17/outbox.cif.g08.bks.cpg/sg53_11_cif.got.tgz:20924.got - 2010.06.03 12:45:16.
