data_PCOD9418784
_publ_section_title
;
Structure prediction by ZEFSAII (Michael W. Deem and Ramdas Pophale) SiO2 
 PCOD9418784
Probable space group: P M N A
;
_chemical_formula_sum "Si O2"
_cell_formula_units_Z 56
_cell_length_a 22.717763
_cell_length_b 5.139756
_cell_length_c 21.657585
_cell_angle_alpha 90.000000
_cell_angle_beta 90.000000
_cell_angle_gamma 90.000000
_cell_volume 2528.821029
_symmetry_space_group_name_H-M "P M N A"
_symmetry_group_IT_number 53
_symmetry_cell_setting 'orthorhombic'
loop_
_space_group_symop_operation_xyz
x,y,z
1/2-x,-y,1/2+z
x,-y,-z
1/2-x,y,1/2-z
-x,-y,-z
1/2+x,y,1/2-z
-x,y,z
1/2+x,-y,1/2+z
loop_
_atom_site_type_symbol
_atom_site_label
_atom_site_fract_x
_atom_site_fract_y
_atom_site_fract_z
Si Si1 0.861803 0.968367 0.570032
Si Si2 0.717906 0.463665 0.930514
Si Si3 0.817299 0.331095 0.258396
Si Si4 0.435947 0.152739 0.677259
Si Si5 0.341285 0.450026 0.371942
Si Si6 0.436027 0.198762 0.442896
Si Si7 0.121247 0.856009 0.303793
O O1 0.808839 0.177449 0.573821
O O2 0.900957 0.067689 0.627727
O O3 0.886221 0.000000 0.500000
O O4 0.833352 0.681575 0.577587
O O5 0.774064 0.493552 0.887594
O O6 0.739630 0.500000 0.000000
O O7 0.750000 0.412453 0.250000
O O8 0.839092 0.269603 0.188776
O O9 0.854100 0.564688 0.291002
O O10 0.825662 0.062536 0.294371
O O11 0.500000 0.292521 0.675115
O O12 0.380423 0.318052 0.654938
O O13 0.424463 0.084048 0.748715
O O14 0.439819 0.939003 0.623847
O O15 0.377211 0.362255 0.432365
O O16 0.500000 0.331861 0.449941
O O17 0.430297 0.000000 0.500000
#
# Coordination Sequence:
#
# PCOD9418784 Si02
#       7
#     8   8   8   8   8   8   8
#     4  10  21  39  58  86 119 153 186 231 286 352
#     4  10  23  36  57  85 122 154 189 232 283 346
#     4  11  22  35  56  84 117 147 190 236 284 342
#     4  10  23  40  57  81 112 149 198 247 295 341
#     4  11  22  35  55  80 113 152 197 238 292 339
#     4  10  22  38  56  78 107 147 198 248 289 333
#     4  11  21  38  59  84 111 152 190 232 293 348
#
# _framework density 22.144708000000001
#
# number of rings (size 3 to 8) (size 9 to 14) (size 15 to 20)
#    0.000    1.571    1.429    3.429    4.000    1.714 
#    0.000    2.143    0.000    0.429    0.000    0.000 
#    0.000    7.143    0.000    0.000    0.000    1.000 
#
# Total GULP energy -312151.425365 kJ/mol
# GULP energy per Si atom -5574.132596 kJ/mol
# Density = 2.209431 g / cm^3
# Si number density = 22.144708 Si / 1000 Ang^3
#
#
#
# Elastic Constant Matrix: (Units=GPa)
#
#
# Indices 1 2 3 4 5 6 
#
# 1 19.7102 3.9266 32.1825 0.0000 0.0000 0.0000
# 2 3.9266 52.7430 23.7228 0.0000 0.0000 0.0000
# 3 32.1825 23.7228 183.8793 0.0000 0.0000 0.0000
# 4 0.0000 0.0000 0.0000 39.7947 0.0000 0.0000
# 5 0.0000 0.0000 0.0000 0.0000 -92.4670 0.0000
# 6 0.0000 0.0000 0.0000 0.0000 0.0000 19.8710
#
#
#
# Elastic Compliance Matrix: (Units=1/GPa)
#
#
# Indices 1 2 3 4 5 6 
#
# 1 0.071040 0.000322 -0.012475 0.000000 0.000000 0.000000
# 2 0.000322 0.020129 -0.002653 0.000000 0.000000 0.000000
# 3 -0.012475 -0.002653 0.007964 0.000000 0.000000 0.000000
# 4 0.000000 0.000000 0.000000 0.025129 0.000000 0.000000
# 5 0.000000 0.000000 0.000000 0.000000 -0.010815 0.000000
# 6 0.000000 0.000000 0.000000 0.000000 0.000000 0.050325
#
#
# Mechanical properties :
#
#
# Convention : Reuss Voigt Hill
#
# Bulk Modulus (GPa) = 14.38414 41.77737 28.08076
# Shear Modulus (GPa) = 23.08852 6.53979 14.81416
#
# Velocity S-wave (km/s) = 3.23247 1.72035 2.58925
# Velocity P-wave (km/s) = 4.52122 4.78045 4.65264
#
# Compressibility (1/GPa) = 0.06952099
#
# Stress axis : x y z
#
# Youngs Moduli (GPa) = 14.07662 49.67885 125.56474
#
# Poissons Ratio (x) = -0.01601 1.56641
# Poissons Ratio (y) = -0.00454 0.33316
# Poissons Ratio (z) = 0.17560 0.13181
#
# Static dielectric constant tensor:
#      x y z
#    x 1.830370 0.000000 0.000000 
#    y 0.000000 1.851240 0.000000 
#    z 0.000000 0.000000 1.936620 
# 
# From -- ./inp_files/33188.got.cif
#   From: 2010.05.17/outbox.cif.g08.bks.cpg/sg53_17_cif.got.tgz:33188.got - 2010.06.03 12:45:16.
