data_PCOD9418254
_publ_section_title
;
Structure prediction by ZEFSAII (Michael W. Deem and Ramdas Pophale) SiO2 
 PCOD9418254
Probable space group: P M N A
;
_chemical_formula_sum "Si O2"
_cell_formula_units_Z 64
_cell_length_a 25.712078
_cell_length_b 15.613017
_cell_length_c 9.704331
_cell_angle_alpha 90.000000
_cell_angle_beta 90.000000
_cell_angle_gamma 90.000000
_cell_volume 3895.736826
_symmetry_space_group_name_H-M "P M N A"
_symmetry_group_IT_number 53
_symmetry_cell_setting 'orthorhombic'
loop_
_space_group_symop_operation_xyz
x,y,z
1/2-x,-y,1/2+z
x,-y,-z
1/2-x,y,1/2-z
-x,-y,-z
1/2+x,y,1/2-z
-x,y,z
1/2+x,-y,1/2+z
loop_
_atom_site_type_symbol
_atom_site_label
_atom_site_fract_x
_atom_site_fract_y
_atom_site_fract_z
Si Si1 0.805292 0.810939 0.669225
Si Si2 0.302263 0.505942 0.664774
Si Si3 0.695700 0.191188 0.837072
Si Si4 0.121304 0.343702 0.262343
Si Si5 0.198376 0.998958 0.339583
Si Si6 0.440719 0.601824 0.022193
Si Si7 0.939764 0.397304 0.015049
Si Si8 0.627401 0.654577 0.272879
O O1 0.750000 0.803621 0.750000
O O2 0.796861 0.796305 0.503363
O O3 0.846322 0.743898 0.731184
O O4 0.826657 0.908367 0.686866
O O5 0.294026 0.500000 0.500000
O O6 0.250000 0.518142 0.750000
O O7 0.339696 0.583937 0.705344
O O8 0.329342 0.419145 0.716048
O O9 0.750000 0.198396 0.750000
O O10 0.655472 0.260421 0.779277
O O11 0.673728 0.094329 0.815999
O O12 0.100148 0.360469 0.414509
O O13 0.071295 0.359931 0.165808
O O14 0.250000 0.998711 0.250000
O O15 0.213239 0.000000 0.500000
O O16 0.500000 0.632759 0.005323
O O17 0.441111 0.500000 0.000000
O O18 0.417849 0.624006 0.170437
O O19 0.000000 0.388326 0.976773
O O20 0.927540 0.500000 0.000000
O O21 0.900720 0.344118 0.919622
#
# Coordination Sequence:
#
# PCOD9418254 Si02
#       8
#     8   8   8   8   8   8   8   8
#     4  10  21  34  55  81 112 145 178 216 261 318
#     4  12  26  38  51  74 110 150 181 210 257 320
#     4  10  21  34  55  81 112 145 178 216 261 318
#     4  12  21  37  54  80 108 140 178 218 267 323
#     4   8  16  34  52  76 107 140 178 218 257 306
#     4  11  22  36  56  79 104 137 179 232 271 303
#     4  11  22  40  60  77 102 141 185 232 273 309
#     4  12  21  37  54  80 108 140 178 218 267 323
#
# _framework density 16.428215000000002
#
# number of rings (size 3 to 8) (size 9 to 14) (size 15 to 20)
#    0.000    1.250    5.000    1.500    3.500    4.000 
#    0.000    0.000    0.000    0.000    0.000    5.250 
#    0.000    0.000    0.000    0.000    0.000    0.000 
#
# Total GULP energy -356675.658403 kJ/mol
# GULP energy per Si atom -5573.057163 kJ/mol
# Density = 1.639082 g / cm^3
# Si number density = 16.428215 Si / 1000 Ang^3
#
#
#
# Elastic Constant Matrix: (Units=GPa)
#
#
# Indices 1 2 3 4 5 6 
#
# 1 67.3000 31.3241 8.0274 0.0000 0.0000 0.0000
# 2 31.3241 120.0674 21.7999 0.0000 0.0000 0.0000
# 3 8.0274 21.7999 42.1411 0.0000 0.0000 0.0000
# 4 0.0000 0.0000 0.0000 17.1404 0.0000 0.0000
# 5 0.0000 0.0000 0.0000 0.0000 14.8256 0.0000
# 6 0.0000 0.0000 0.0000 0.0000 0.0000 8.1343
#
#
#
# Elastic Compliance Matrix: (Units=1/GPa)
#
#
# Indices 1 2 3 4 5 6 
#
# 1 0.016954 -0.004234 -0.001039 0.000000 0.000000 0.000000
# 2 -0.004234 0.010250 -0.004496 0.000000 0.000000 0.000000
# 3 -0.001039 -0.004496 0.026253 0.000000 0.000000 0.000000
# 4 0.000000 0.000000 0.000000 0.058342 0.000000 0.000000
# 5 0.000000 0.000000 0.000000 0.000000 0.067451 0.000000
# 6 0.000000 0.000000 0.000000 0.000000 0.000000 0.122936
#
#
# Mechanical properties :
#
#
# Convention : Reuss Voigt Hill
#
# Bulk Modulus (GPa) = 29.48236 39.09015 34.28625
# Shear Modulus (GPa) = 15.01370 19.24386 17.12878
#
# Velocity S-wave (km/s) = 3.02635 3.42627 3.23250
# Velocity P-wave (km/s) = 5.49517 6.28479 5.90320
#
# Compressibility (1/GPa) = 0.03391859
#
# Stress axis : x y z
#
# Youngs Moduli (GPa) = 58.98448 97.56500 38.09044
#
# Poissons Ratio (x) = 0.41312 0.03958
# Poissons Ratio (y) = 0.24976 0.17124
# Poissons Ratio (z) = 0.06129 0.43861
#
# Static dielectric constant tensor:
#      x y z
#    x 1.537170 0.000000 0.000000 
#    y 0.000000 1.569120 0.000000 
#    z 0.000000 0.000000 1.563920 
# 
# From -- ./inp_files/11939.got.cif
#   From: 2010.05.17/outbox.cif.g08.bks.cpg/sg53_6_cif.got.tgz:11939.got - 2010.06.03 12:45:16.
