data_PCOD9418849
_publ_section_title
;
Structure prediction by ZEFSAII (Michael W. Deem and Ramdas Pophale) SiO2 
 PCOD9418849
Probable space group: P M N A
;
_chemical_formula_sum "Si O2"
_cell_formula_units_Z 40
_cell_length_a 18.788301
_cell_length_b 10.411423
_cell_length_c 9.826611
_cell_angle_alpha 90.000000
_cell_angle_beta 90.000000
_cell_angle_gamma 90.000000
_cell_volume 1922.212358
_symmetry_space_group_name_H-M "P M N A"
_symmetry_group_IT_number 53
_symmetry_cell_setting 'orthorhombic'
loop_
_space_group_symop_operation_xyz
x,y,z
1/2-x,-y,1/2+z
x,-y,-z
1/2-x,y,1/2-z
-x,-y,-z
1/2+x,y,1/2-z
-x,y,z
1/2+x,-y,1/2+z
loop_
_atom_site_type_symbol
_atom_site_label
_atom_site_fract_x
_atom_site_fract_y
_atom_site_fract_z
Si Si1 0.223917 0.389267 0.598330
Si Si2 0.186134 0.149256 0.971746
Si Si3 0.082676 0.800915 0.778863
Si Si4 0.420353 0.099585 0.770757
Si Si5 0.918387 0.306046 0.506904
O O1 0.252625 0.500000 0.500000
O O2 0.250000 0.410016 0.750000
O O3 0.250487 0.249287 0.548543
O O4 0.138740 0.389236 0.587069
O O5 0.138832 0.147840 0.834607
O O6 0.136120 0.198858 0.094694
O O7 0.206750 0.000000 0.000000
O O8 0.101146 0.710928 0.651336
O O9 0.000000 0.776897 0.818539
O O10 0.085637 0.946750 0.722840
O O11 0.500000 0.127997 0.715178
O O12 0.415469 0.169280 0.914777
O O13 0.000000 0.349527 0.516191
#
# Coordination Sequence:
#
# PCOD9418849 Si02
#       5
#     8   8   8   8   8
#     4  12  28  48  67  92 130 173 217 267 328 384
#     4  10  21  39  65  98 130 169 213 269 320 381
#     4   9  18  32  59  99 135 168 209 257 319 384
#     4   9  16  32  59  93 133 171 208 262 321 375
#     4  10  21  39  64  90 124 168 217 263 313 380
#
# _framework density 20.809356999999999
#
# number of rings (size 3 to 8) (size 9 to 14) (size 15 to 20)
#    0.000    2.000    2.000    1.200    2.800    6.800 
#    0.000    0.000    0.000    3.000    0.000    0.000 
#    0.000    0.000    0.000    0.000    0.000    0.000 
#
# Total GULP energy -223397.037790 kJ/mol
# GULP energy per Si atom -5584.925945 kJ/mol
# Density = 2.076199 g / cm^3
# Si number density = 20.809357 Si / 1000 Ang^3
#
#
#
# Elastic Constant Matrix: (Units=GPa)
#
#
# Indices 1 2 3 4 5 6 
#
# 1 86.5795 32.7614 49.3768 0.0000 0.0000 0.0000
# 2 32.7614 54.6099 36.8581 0.0000 0.0000 0.0000
# 3 49.3768 36.8581 124.1231 0.0000 0.0000 0.0000
# 4 0.0000 0.0000 0.0000 21.1953 0.0000 0.0000
# 5 0.0000 0.0000 0.0000 0.0000 20.7208 0.0000
# 6 0.0000 0.0000 0.0000 0.0000 0.0000 -11.7197
#
#
#
# Elastic Compliance Matrix: (Units=1/GPa)
#
#
# Indices 1 2 3 4 5 6 
#
# 1 0.016825 -0.006974 -0.004622 0.000000 0.000000 0.000000
# 2 -0.006974 0.025792 -0.004885 0.000000 0.000000 0.000000
# 3 -0.004622 -0.004885 0.011346 0.000000 0.000000 0.000000
# 4 0.000000 0.000000 0.000000 0.047180 0.000000 0.000000
# 5 0.000000 0.000000 0.000000 0.000000 0.048261 0.000000
# 6 0.000000 0.000000 0.000000 0.000000 0.000000 -0.085326
#
#
# Mechanical properties :
#
#
# Convention : Reuss Voigt Hill
#
# Bulk Modulus (GPa) = 47.61578 55.92280 51.76929
# Shear Modulus (GPa) = 48.05836 15.79368 31.92602
#
# Velocity S-wave (km/s) = 4.81090 2.75793 3.92115
# Velocity P-wave (km/s) = 7.33425 6.08882 6.74036
#
# Compressibility (1/GPa) = 0.02100144
#
# Stress axis : x y z
#
# Youngs Moduli (GPa) = 59.43510 38.77116 88.13869
#
# Poissons Ratio (x) = 0.27039 0.40739
# Poissons Ratio (y) = 0.41450 0.43053
# Poissons Ratio (z) = 0.27472 0.18939
#
# Static dielectric constant tensor:
#      x y z
#    x 1.753530 0.000000 0.000000 
#    y 0.000000 1.767530 0.000000 
#    z 0.000000 0.000000 1.704410 
# 
# From -- ./inp_files/9624.got.cif
#   From: 2010.05.17/outbox.cif.g08.bks.cpg/sg53_5_cif.got.tgz:9624.got - 2010.06.03 12:45:16.
