data_PCOD9418738
_publ_section_title
;
Structure prediction by ZEFSAII (Michael W. Deem and Ramdas Pophale) SiO2 
 PCOD9418738
Probable space group: P M N A
;
_chemical_formula_sum "Si O2"
_cell_formula_units_Z 48
_cell_length_a 11.680162
_cell_length_b 14.002392
_cell_length_c 14.988883
_cell_angle_alpha 90.000000
_cell_angle_beta 90.000000
_cell_angle_gamma 90.000000
_cell_volume 2451.434917
_symmetry_space_group_name_H-M "P M N A"
_symmetry_group_IT_number 53
_symmetry_cell_setting 'orthorhombic'
loop_
_space_group_symop_operation_xyz
x,y,z
1/2-x,-y,1/2+z
x,-y,-z
1/2-x,y,1/2-z
-x,-y,-z
1/2+x,y,1/2-z
-x,y,z
1/2+x,-y,1/2+z
loop_
_atom_site_type_symbol
_atom_site_label
_atom_site_fract_x
_atom_site_fract_y
_atom_site_fract_z
Si Si1 0.863224 0.113012 0.002622
Si Si2 0.768036 0.766549 0.644305
Si Si3 0.369776 0.404954 0.803745
Si Si4 0.000000 0.088567 0.611337
Si Si5 0.500000 0.874365 0.899122
Si Si6 0.868529 0.578410 0.571687
Si Si7 0.712440 0.213673 0.852627
O O1 0.805103 0.174029 0.922496
O O2 0.000000 0.114998 0.994502
O O3 0.822974 0.165974 0.093335
O O4 0.826583 0.000000 0.000000
O O5 0.750000 0.753863 0.750000
O O6 0.785513 0.665552 0.593850
O O7 0.888414 0.818879 0.629883
O O8 0.250000 0.407658 0.750000
O O9 0.500000 0.382735 0.766588
O O10 0.378731 0.510559 0.842440
O O11 0.341912 0.318265 0.873197
O O12 0.000000 0.107541 0.505191
O O13 0.111701 0.138470 0.646243
O O14 0.000000 0.979816 0.639551
O O15 0.827945 0.500000 0.500000
O O16 0.000000 0.609134 0.548026
O O17 0.750000 0.218145 0.750000
#
# Coordination Sequence:
#
# PCOD9418738 Si02
#       7
#     8   8   8   4   4   8   8
#     4  11  26  45  63  91 133 178 223 277 344 416
#     4  12  25  43  67  97 136 180 228 282 343 413
#     4  10  21  38  62  92 126 163 210 264 327 395
#     4  11  22  40  63  93 128 167 225 289 334 404
#     4  11  24  40  64  92 124 174 226 284 336 393
#     4  10  21  38  65  96 125 166 217 277 333 400
#     4  11  23  39  65  95 127 169 217 278 344 409
#
# _framework density 19.580369999999998
#
# number of rings (size 3 to 8) (size 9 to 14) (size 15 to 20)
#    0.000    1.167    3.333    2.500    2.333    3.333 
#    0.000    0.833    0.000    2.000    0.000    0.000 
#    0.000    0.000    0.000    0.000    0.000    0.000 
#
# Total GULP energy -267477.416452 kJ/mol
# GULP energy per Si atom -5572.446176 kJ/mol
# Density = 1.953580 g / cm^3
# Si number density = 19.580370 Si / 1000 Ang^3
#
#
#
# Elastic Constant Matrix: (Units=GPa)
#
#
# Indices 1 2 3 4 5 6 
#
# 1 110.0278 36.5662 28.6958 0.0000 0.0000 0.0000
# 2 36.5662 128.8796 26.1198 0.0000 0.0000 0.0000
# 3 28.6958 26.1198 82.2725 0.0000 0.0000 0.0000
# 4 0.0000 0.0000 0.0000 26.9037 0.0000 0.0000
# 5 0.0000 0.0000 0.0000 0.0000 13.0609 0.0000
# 6 0.0000 0.0000 0.0000 0.0000 0.0000 29.1442
#
#
#
# Elastic Compliance Matrix: (Units=1/GPa)
#
#
# Indices 1 2 3 4 5 6 
#
# 1 0.010665 -0.002428 -0.002949 0.000000 0.000000 0.000000
# 2 -0.002428 0.008846 -0.001961 0.000000 0.000000 0.000000
# 3 -0.002949 -0.001961 0.013806 0.000000 0.000000 0.000000
# 4 0.000000 0.000000 0.000000 0.037170 0.000000 0.000000
# 5 0.000000 0.000000 0.000000 0.000000 0.076564 0.000000
# 6 0.000000 0.000000 0.000000 0.000000 0.000000 0.034312
#
#
# Mechanical properties :
#
#
# Convention : Reuss Voigt Hill
#
# Bulk Modulus (GPa) = 53.64964 55.99374 54.82169
# Shear Modulus (GPa) = 24.72161 29.14163 26.93162
#
# Velocity S-wave (km/s) = 3.55712 3.86205 3.71272
# Velocity P-wave (km/s) = 6.65808 6.96751 6.81455
#
# Compressibility (1/GPa) = 0.01863945
#
# Stress axis : x y z
#
# Youngs Moduli (GPa) = 93.76774 113.05026 72.43253
#
# Poissons Ratio (x) = 0.27451 0.21359
# Poissons Ratio (y) = 0.22769 0.14207
# Poissons Ratio (z) = 0.27650 0.22173
#
# Static dielectric constant tensor:
#      x y z
#    x 1.683220 0.000000 0.000000 
#    y 0.000000 1.740960 0.000000 
#    z 0.000000 0.000000 1.667660 
# 
# From -- ./inp_files/21815.got.cif
#   From: 2010.05.17/outbox.cif.g08.bks.cpg/sg53_11_cif.got.tgz:21815.got - 2010.06.03 12:45:16.
