data_PCOD9418564
_publ_section_title
;
Structure prediction by ZEFSAII (Michael W. Deem and Ramdas Pophale) SiO2 
 PCOD9418564
Probable space group: P M N A
;
_chemical_formula_sum "Si O2"
_cell_formula_units_Z 48
_cell_length_a 8.918581
_cell_length_b 9.215485
_cell_length_c 31.475702
_cell_angle_alpha 90.000000
_cell_angle_beta 90.000000
_cell_angle_gamma 90.000000
_cell_volume 2586.958027
_symmetry_space_group_name_H-M "P M N A"
_symmetry_group_IT_number 53
_symmetry_cell_setting 'orthorhombic'
loop_
_space_group_symop_operation_xyz
x,y,z
1/2-x,-y,1/2+z
x,-y,-z
1/2-x,y,1/2-z
-x,-y,-z
1/2+x,y,1/2-z
-x,y,z
1/2+x,-y,1/2+z
loop_
_atom_site_type_symbol
_atom_site_label
_atom_site_fract_x
_atom_site_fract_y
_atom_site_fract_z
Si Si1 0.180479 0.403750 0.541090
Si Si2 0.820639 0.922573 0.204500
Si Si3 0.820054 0.921527 0.623460
Si Si4 0.679945 0.417749 0.125515
Si Si5 0.321692 0.579938 0.295133
Si Si6 0.820815 0.913934 0.043336
O O1 0.218409 0.500000 0.500000
O O2 0.221457 0.491439 0.583628
O O3 0.260121 0.249180 0.540079
O O4 0.000000 0.382131 0.541073
O O5 0.750000 0.962701 0.250000
O O6 0.788508 0.751017 0.197543
O O7 0.000000 0.941464 0.205544
O O8 0.748835 0.012578 0.166365
O O9 0.781869 0.751256 0.620170
O O10 0.000000 0.936176 0.624257
O O11 0.754739 0.006936 0.583248
O O12 0.500000 0.427667 0.130408
O O13 0.756215 0.486485 0.166641
O O14 0.250000 0.538954 0.250000
O O15 0.500000 0.563457 0.292824
O O16 0.000000 0.913201 0.048992
O O17 0.785259 0.000000 0.000000
#
# Coordination Sequence:
#
# PCOD9418564 Si02
#       6
#     8   8   8   8   8   8
#     4  10  21  39  63  88 115 150 192 236 282 337
#     4  10  21  38  60  87 117 151 193 238 287 343
#     4  11  23  39  60  85 115 153 194 237 286 340
#     4  10  22  38  57  84 116 149 189 235 283 336
#     4  10  21  37  59  84 112 148 189 234 284 338
#     4  11  24  40  59  86 119 153 190 235 287 342
#
# _framework density 18.554613
#
# number of rings (size 3 to 8) (size 9 to 14) (size 15 to 20)
#    0.000    1.667    0.000    4.000    0.000   10.333 
#    0.000    0.000    0.000    0.000    0.000    0.000 
#    0.000    0.000    0.000    0.000    0.000    0.000 
#
# Total GULP energy -268384.707166 kJ/mol
# GULP energy per Si atom -5591.348066 kJ/mol
# Density = 1.851238 g / cm^3
# Si number density = 18.554613 Si / 1000 Ang^3
#
#
#
# Elastic Constant Matrix: (Units=GPa)
#
#
# Indices 1 2 3 4 5 6 
#
# 1 57.2063 77.9836 78.4464 0.0000 0.0000 0.0000
# 2 77.9836 163.2890 125.5935 0.0000 0.0000 0.0000
# 3 78.4464 125.5935 191.5465 0.0000 0.0000 0.0000
# 4 0.0000 0.0000 0.0000 39.6421 0.0000 0.0000
# 5 0.0000 0.0000 0.0000 0.0000 34.2428 0.0000
# 6 0.0000 0.0000 0.0000 0.0000 0.0000 18.6687
#
#
#
# Elastic Compliance Matrix: (Units=1/GPa)
#
#
# Indices 1 2 3 4 5 6 
#
# 1 0.061081 -0.020034 -0.011879 0.000000 0.000000 0.000000
# 2 -0.020034 0.018926 -0.004205 0.000000 0.000000 0.000000
# 3 -0.011879 -0.004205 0.012843 0.000000 0.000000 0.000000
# 4 0.000000 0.000000 0.000000 0.025226 0.000000 0.000000
# 5 0.000000 0.000000 0.000000 0.000000 0.029203 0.000000
# 6 0.000000 0.000000 0.000000 0.000000 0.000000 0.053566
#
#
# Mechanical properties :
#
#
# Convention : Reuss Voigt Hill
#
# Bulk Modulus (GPa) = 48.51158 108.45430 78.48294
# Shear Modulus (GPa) = 17.86023 27.17859 22.51941
#
# Velocity S-wave (km/s) = 3.10591 3.83141 3.48757
# Velocity P-wave (km/s) = 6.25014 8.84032 7.65557
#
# Compressibility (1/GPa) = 0.02061363
#
# Stress axis : x y z
#
# Youngs Moduli (GPa) = 16.37167 52.83742 77.86608
#
# Poissons Ratio (x) = 1.05856 0.92499
# Poissons Ratio (y) = 0.32799 0.32739
# Poissons Ratio (z) = 0.19448 0.22216
#
# Static dielectric constant tensor:
#      x y z
#    x 1.619740 0.000000 0.000000 
#    y 0.000000 1.613750 0.000000 
#    z 0.000000 0.000000 1.601260 
# 
# From -- ./inp_files/37668.got.cif
#   From: 2010.05.17/outbox.cif.g08.bks.cpg/sg53_19_cif.got.tgz:37668.got - 2010.06.03 12:45:16.
