data_PCOD9418343
_publ_section_title
;
Structure prediction by ZEFSAII (Michael W. Deem and Ramdas Pophale) SiO2 
 PCOD9418343
Probable space group: P M N A
;
_chemical_formula_sum "Si O2"
_cell_formula_units_Z 48
_cell_length_a 8.602502
_cell_length_b 32.243590
_cell_length_c 9.255501
_cell_angle_alpha 90.000000
_cell_angle_beta 90.000000
_cell_angle_gamma 90.000000
_cell_volume 2567.249657
_symmetry_space_group_name_H-M "P M N A"
_symmetry_group_IT_number 53
_symmetry_cell_setting 'orthorhombic'
loop_
_space_group_symop_operation_xyz
x,y,z
1/2-x,-y,1/2+z
x,-y,-z
1/2-x,y,1/2-z
-x,-y,-z
1/2+x,y,1/2-z
-x,y,z
1/2+x,-y,1/2+z
loop_
_atom_site_type_symbol
_atom_site_label
_atom_site_fract_x
_atom_site_fract_y
_atom_site_fract_z
Si Si1 0.187784 0.540776 0.587960
Si Si2 0.186591 0.041349 0.588044
Si Si3 0.311989 0.377671 0.911657
Si Si4 0.186533 0.794212 0.585911
Si Si5 0.312450 0.297003 0.086851
Si Si6 0.814795 0.880435 0.913823
O O1 0.238402 0.500000 0.500000
O O2 0.250000 0.540077 0.750000
O O3 0.237666 0.582414 0.504737
O O4 0.000000 0.540640 0.592688
O O5 0.250000 0.038934 0.750000
O O6 0.253032 0.081507 0.507306
O O7 0.000000 0.043862 0.590678
O O8 0.231389 0.000000 0.500000
O O9 0.250000 0.380463 0.750000
O O10 0.500000 0.377478 0.907924
O O11 0.259472 0.335278 0.989323
O O12 0.250000 0.793186 0.750000
O O13 0.230185 0.748739 0.526571
O O14 0.257798 0.836206 0.522774
O O15 0.000000 0.797922 0.587262
O O16 0.250000 0.301212 0.250000
O O17 0.500000 0.298099 0.094723
O O18 0.750000 0.884079 0.750000
O O19 0.000000 0.880777 0.907335
#
# Coordination Sequence:
#
# PCOD9418343 Si02
#       6
#     8   8   8   8   8   8
#     4  10  21  36  55  80 108 138 175 218 263 316
#     4  11  24  41  61  85 113 145 182 224 270 321
#     4  10  21  36  52  75 106 139 178 220 265 317
#     4   9  16  29  50  76 106 138 176 221 268 317
#     4   9  18  32  52  77 104 136 176 223 268 316
#     4  11  21  35  57  84 114 147 184 225 271 322
#
# _framework density 18.697053
#
# number of rings (size 3 to 8) (size 9 to 14) (size 15 to 20)
#    0.000    2.000    0.000    5.000    0.000    5.000 
#    0.000    0.833    0.000    2.000    0.000    0.000 
#    0.000    0.000    0.000    0.000    0.000    0.000 
#
# Total GULP energy -267969.546233 kJ/mol
# GULP energy per Si atom -5582.698880 kJ/mol
# Density = 1.865450 g / cm^3
# Si number density = 18.697053 Si / 1000 Ang^3
#
#
#
# Elastic Constant Matrix: (Units=GPa)
#
#
# Indices 1 2 3 4 5 6 
#
# 1 50.4968 55.9020 32.6125 0.0000 0.0000 0.0000
# 2 55.9020 234.4706 107.2098 0.0000 0.0000 0.0000
# 3 32.6125 107.2098 130.9377 0.0000 0.0000 0.0000
# 4 0.0000 0.0000 0.0000 34.1021 0.0000 0.0000
# 5 0.0000 0.0000 0.0000 0.0000 30.7263 0.0000
# 6 0.0000 0.0000 0.0000 0.0000 0.0000 70.9970
#
#
#
# Elastic Compliance Matrix: (Units=1/GPa)
#
#
# Indices 1 2 3 4 5 6 
#
# 1 0.027351 -0.005444 -0.002355 0.000000 0.000000 0.000000
# 2 -0.005444 0.007901 -0.005113 0.000000 0.000000 0.000000
# 3 -0.002355 -0.005113 0.012410 0.000000 0.000000 0.000000
# 4 0.000000 0.000000 0.000000 0.029324 0.000000 0.000000
# 5 0.000000 0.000000 0.000000 0.000000 0.032545 0.000000
# 6 0.000000 0.000000 0.000000 0.000000 0.000000 0.014085
#
#
# Mechanical properties :
#
#
# Convention : Reuss Voigt Hill
#
# Bulk Modulus (GPa) = 45.79157 89.70598 67.74878
# Shear Modulus (GPa) = 31.90411 41.84379 36.87395
#
# Velocity S-wave (km/s) = 4.13531 4.73587 4.44574
# Velocity P-wave (km/s) = 6.88081 8.83105 7.91622
#
# Compressibility (1/GPa) = 0.02183808
#
# Stress axis : x y z
#
# Youngs Moduli (GPa) = 36.56175 126.56798 80.57894
#
# Poissons Ratio (x) = 0.68908 0.18972
# Poissons Ratio (y) = 0.19906 0.41201
# Poissons Ratio (z) = 0.08608 0.64716
#
# Static dielectric constant tensor:
#      x y z
#    x 1.628870 0.000000 0.000000 
#    y 0.000000 1.681140 0.000000 
#    z 0.000000 0.000000 1.574490 
# 
# From -- ./inp_files/6730.got.cif
#   From: 2010.05.17/outbox.cif.g08.bks.cpg/sg53_4_cif.got.tgz:6730.got - 2010.06.03 12:45:16.
