data_PCOD9418245
_publ_section_title
;
Structure prediction by ZEFSAII (Michael W. Deem and Ramdas Pophale) SiO2 
 PCOD9418245
Probable space group: P M N A
;
_chemical_formula_sum "Si O2"
_cell_formula_units_Z 48
_cell_length_a 7.572740
_cell_length_b 32.242205
_cell_length_c 9.538083
_cell_angle_alpha 90.000000
_cell_angle_beta 90.000000
_cell_angle_gamma 90.000000
_cell_volume 2328.835852
_symmetry_space_group_name_H-M "P M N A"
_symmetry_group_IT_number 53
_symmetry_cell_setting 'orthorhombic'
loop_
_space_group_symop_operation_xyz
x,y,z
1/2-x,-y,1/2+z
x,-y,-z
1/2-x,y,1/2-z
-x,-y,-z
1/2+x,y,1/2-z
-x,y,z
1/2+x,-y,1/2+z
loop_
_atom_site_type_symbol
_atom_site_label
_atom_site_fract_x
_atom_site_fract_y
_atom_site_fract_z
Si Si1 0.211976 0.460857 0.586065
Si Si2 0.212043 0.881637 0.412692
Si Si3 0.287900 0.368827 0.914350
Si Si4 0.287822 0.960030 0.914499
Si Si5 0.712193 0.710163 0.914042
Si Si6 0.211957 0.211514 0.587512
O O1 0.282044 0.500000 0.500000
O O2 0.250000 0.466510 0.750000
O O3 0.279245 0.414868 0.546529
O O4 0.000000 0.460007 0.567587
O O5 0.250000 0.891633 0.250000
O O6 0.279588 0.917615 0.514491
O O7 0.280280 0.835054 0.441348
O O8 0.000000 0.880120 0.427308
O O9 0.250000 0.361849 0.750000
O O10 0.500000 0.369867 0.929407
O O11 0.219774 0.330992 0.007639
O O12 0.250000 0.962658 0.750000
O O13 0.500000 0.959673 0.930002
O O14 0.221094 0.000000 0.000000
O O15 0.750000 0.709474 0.750000
O O16 0.500000 0.710261 0.931729
O O17 0.780034 0.752014 0.988232
O O18 0.250000 0.221243 0.750000
O O19 0.000000 0.209936 0.571896
#
# Coordination Sequence:
#
# PCOD9418245 Si02
#       6
#     8   8   8   8   8   8
#     4   9  18  32  49  70  96 124 155 193 235 279
#     4   9  18  33  52  74  99 126 159 198 238 282
#     4   9  18  33  51  70  93 123 159 196 234 279
#     4  10  21  35  51  73 100 129 162 200 240 283
#     4  10  21  34  48  70  99 127 157 196 239 281
#     4   9  18  33  52  73  97 126 160 197 236 281
#
# _framework density 20.611155
#
# number of rings (size 3 to 8) (size 9 to 14) (size 15 to 20)
#    0.000    2.667    0.000    1.000    0.000    4.000 
#    0.000    0.000    0.000    0.000    0.000    0.000 
#    0.000    0.000    0.000    0.000    0.000    0.000 
#
# Total GULP energy -267911.129456 kJ/mol
# GULP energy per Si atom -5581.481864 kJ/mol
# Density = 2.056424 g / cm^3
# Si number density = 20.611155 Si / 1000 Ang^3
#
#
#
# Elastic Constant Matrix: (Units=GPa)
#
#
# Indices 1 2 3 4 5 6 
#
# 1 47.8149 10.5116 -6.1524 0.0000 0.0000 0.0000
# 2 10.5116 227.2910 153.6945 0.0000 0.0000 0.0000
# 3 -6.1524 153.6945 145.3409 0.0000 0.0000 0.0000
# 4 0.0000 0.0000 0.0000 41.4217 0.0000 0.0000
# 5 0.0000 0.0000 0.0000 0.0000 27.5692 0.0000
# 6 0.0000 0.0000 0.0000 0.0000 0.0000 8.8248
#
#
#
# Elastic Compliance Matrix: (Units=1/GPa)
#
#
# Indices 1 2 3 4 5 6 
#
# 1 0.023211 -0.006099 0.007432 0.000000 0.000000 0.000000
# 2 -0.006099 0.017044 -0.018281 0.000000 0.000000 0.000000
# 3 0.007432 -0.018281 0.026527 0.000000 0.000000 0.000000
# 4 0.000000 0.000000 0.000000 0.024142 0.000000 0.000000
# 5 0.000000 0.000000 0.000000 0.000000 0.036272 0.000000
# 6 0.000000 0.000000 0.000000 0.000000 0.000000 0.113317
#
#
# Mechanical properties :
#
#
# Convention : Reuss Voigt Hill
#
# Bulk Modulus (GPa) = 30.40879 81.83937 56.12408
# Shear Modulus (GPa) = 17.52104 33.05602 25.28853
#
# Velocity S-wave (km/s) = 2.91877 4.00908 3.50656
# Velocity P-wave (km/s) = 5.11317 7.82450 6.60936
#
# Compressibility (1/GPa) = 0.03288522
#
# Stress axis : x y z
#
# Youngs Moduli (GPa) = 43.08285 58.67286 37.69720
#
# Poissons Ratio (x) = 0.35785 -0.28017
# Poissons Ratio (y) = 0.26277 0.68916
# Poissons Ratio (z) = -0.32020 1.07262
#
# Static dielectric constant tensor:
#      x y z
#    x 1.750160 0.000000 0.000000 
#    y 0.000000 1.772220 0.000000 
#    z 0.000000 0.000000 1.667070 
# 
# From -- ./inp_files/6704.got.cif
#   From: 2010.05.17/outbox.cif.g08.bks.cpg/sg53_4_cif.got.tgz:6704.got - 2010.06.03 12:45:16.
