data_PCOD9418677
_publ_section_title
;
Structure prediction by ZEFSAII (Michael W. Deem and Ramdas Pophale) SiO2 
 PCOD9418677
Probable space group: P M N A
;
_chemical_formula_sum "Si O2"
_cell_formula_units_Z 48
_cell_length_a 8.703104
_cell_length_b 8.288247
_cell_length_c 35.349600
_cell_angle_alpha 90.000000
_cell_angle_beta 90.000000
_cell_angle_gamma 90.000000
_cell_volume 2549.889510
_symmetry_space_group_name_H-M "P M N A"
_symmetry_group_IT_number 53
_symmetry_cell_setting 'orthorhombic'
loop_
_space_group_symop_operation_xyz
x,y,z
1/2-x,-y,1/2+z
x,-y,-z
1/2-x,y,1/2-z
-x,-y,-z
1/2+x,y,1/2-z
-x,y,z
1/2+x,-y,1/2+z
loop_
_atom_site_type_symbol
_atom_site_label
_atom_site_fract_x
_atom_site_fract_y
_atom_site_fract_z
Si Si1 0.183493 0.199820 0.417363
Si Si2 0.685873 0.292003 0.165406
Si Si3 0.684814 0.607880 0.292654
Si Si4 0.827290 0.688113 0.501931
Si Si5 0.179631 0.927796 0.042155
Si Si6 0.185066 0.974768 0.207428
O O1 0.237355 0.275829 0.378385
O O2 0.242147 0.276225 0.456597
O O3 0.000000 0.214550 0.417492
O O4 0.231393 0.014735 0.424247
O O5 0.500000 0.294191 0.167395
O O6 0.748935 0.456575 0.183962
O O7 0.745276 0.127659 0.185337
O O8 0.750000 0.595491 0.250000
O O9 0.500000 0.595586 0.291639
O O10 0.723254 0.791373 0.306586
O O11 0.842515 0.500000 0.500000
O O12 0.730210 0.747377 0.466249
O O13 0.000000 0.761730 0.499632
O O14 0.000000 0.947724 0.047998
O O15 0.219235 0.000000 0.000000
O O16 0.250000 0.983434 0.250000
O O17 0.000000 0.988848 0.207714
#
# Coordination Sequence:
#
# PCOD9418677 Si02
#       6
#     8   8   8   8   8   8
#     4   9  19  35  52  74 103 139 178 217 264 321
#     4  11  22  36  56  82 115 151 187 229 280 332
#     4  10  21  38  60  84 112 147 187 230 276 328
#     4   9  17  32  54  76 101 134 177 221 263 317
#     4   9  17  30  50  73  98 130 168 212 260 309
#     4  10  21  38  60  84 112 146 189 231 275 331
#
# _framework density 18.824345000000001
#
# number of rings (size 3 to 8) (size 9 to 14) (size 15 to 20)
#    0.000    2.333    0.000    2.500    0.000    5.667 
#    3.000    0.000    0.000    0.000    0.000    0.000 
#    0.000    0.000    0.000    0.000    0.000    0.000 
#
# Total GULP energy -267244.618054 kJ/mol
# GULP energy per Si atom -5567.596209 kJ/mol
# Density = 1.878150 g / cm^3
# Si number density = 18.824345 Si / 1000 Ang^3
#
#
#
# Elastic Constant Matrix: (Units=GPa)
#
#
# Indices 1 2 3 4 5 6 
#
# 1 31.8897 25.5339 15.5471 0.0000 0.0000 0.0000
# 2 25.5339 105.1578 35.2553 0.0000 0.0000 0.0000
# 3 15.5471 35.2553 62.1379 0.0000 0.0000 0.0000
# 4 0.0000 0.0000 0.0000 13.6381 0.0000 0.0000
# 5 0.0000 0.0000 0.0000 0.0000 18.6236 0.0000
# 6 0.0000 0.0000 0.0000 0.0000 0.0000 28.9729
#
#
#
# Elastic Compliance Matrix: (Units=1/GPa)
#
#
# Indices 1 2 3 4 5 6 
#
# 1 0.040454 -0.007940 -0.005617 0.000000 0.000000 0.000000
# 2 -0.007940 0.013302 -0.005560 0.000000 0.000000 0.000000
# 3 -0.005617 -0.005560 0.020653 0.000000 0.000000 0.000000
# 4 0.000000 0.000000 0.000000 0.073324 0.000000 0.000000
# 5 0.000000 0.000000 0.000000 0.000000 0.053695 0.000000
# 6 0.000000 0.000000 0.000000 0.000000 0.000000 0.034515
#
#
# Mechanical properties :
#
#
# Convention : Reuss Voigt Hill
#
# Bulk Modulus (GPa) = 27.64358 39.09533 33.36946
# Shear Modulus (GPa) = 17.46815 20.43686 18.95250
#
# Velocity S-wave (km/s) = 3.04954 3.29851 3.17647
# Velocity P-wave (km/s) = 5.20735 5.94310 5.58735
#
# Compressibility (1/GPa) = 0.03617476
#
# Stress axis : x y z
#
# Youngs Moduli (GPa) = 24.71962 75.17905 48.41813
#
# Poissons Ratio (x) = 0.59689 0.27196
# Poissons Ratio (y) = 0.19626 0.26923
# Poissons Ratio (z) = 0.13885 0.41803
#
# Static dielectric constant tensor:
#      x y z
#    x 1.655180 0.000000 0.000000 
#    y 0.000000 1.773490 0.000000 
#    z 0.000000 0.000000 1.645640 
# 
# From -- ./inp_files/37777.got.cif
#   From: 2010.05.17/outbox.cif.g08.bks.cpg/sg53_19_cif.got.tgz:37777.got - 2010.06.03 12:45:16.
