data_PCOD9418490
_publ_section_title
;
Structure prediction by ZEFSAII (Michael W. Deem and Ramdas Pophale) SiO2 
 PCOD9418490
Probable space group: P M N A
;
_chemical_formula_sum "Si O2"
_cell_formula_units_Z 40
_cell_length_a 8.757773
_cell_length_b 25.934959
_cell_length_c 9.662730
_cell_angle_alpha 90.000000
_cell_angle_beta 90.000000
_cell_angle_gamma 90.000000
_cell_volume 2194.719864
_symmetry_space_group_name_H-M "P M N A"
_symmetry_group_IT_number 53
_symmetry_cell_setting 'orthorhombic'
loop_
_space_group_symop_operation_xyz
x,y,z
1/2-x,-y,1/2+z
x,-y,-z
1/2-x,y,1/2-z
-x,-y,-z
1/2+x,y,1/2-z
-x,y,z
1/2+x,-y,1/2+z
loop_
_atom_site_type_symbol
_atom_site_label
_atom_site_fract_x
_atom_site_fract_y
_atom_site_fract_z
Si Si1 0.682473 0.136061 0.597419
Si Si2 0.182924 0.548628 0.903468
Si Si3 0.683063 0.048889 0.096055
Si Si4 0.317673 0.656629 0.903942
Si Si5 0.182581 0.256213 0.901767
O O1 0.750000 0.124588 0.750000
O O2 0.500000 0.129291 0.602208
O O3 0.753758 0.098969 0.482920
O O4 0.715435 0.196152 0.565497
O O5 0.250000 0.540530 0.750000
O O6 0.254705 0.601853 0.958832
O O7 0.000000 0.554475 0.894398
O O8 0.218116 0.500000 0.000000
O O9 0.750000 0.044005 0.250000
O O10 0.500000 0.051414 0.104800
O O11 0.724782 0.000000 0.000000
O O12 0.250000 0.661519 0.750000
O O13 0.500000 0.655460 0.899010
O O14 0.258642 0.704175 0.993486
O O15 0.250000 0.266021 0.750000
O O16 0.000000 0.262865 0.901381
#
# Coordination Sequence:
#
# PCOD9418490 Si02
#       5
#     8   8   8   8   8
#     4  10  21  38  61  86 115 150 187 232 281 332
#     4  10  21  37  57  81 110 144 184 230 279 333
#     4  11  24  40  60  86 116 151 190 233 281 334
#     4  11  22  37  58  82 112 149 187 231 281 333
#     4  10  21  38  59  85 115 148 188 231 279 333
#
# _framework density 18.225560999999999
#
# number of rings (size 3 to 8) (size 9 to 14) (size 15 to 20)
#    0.000    1.600    0.000    6.000    0.000    8.800 
#    0.000    2.000    0.000    0.000    0.000    0.000 
#    0.000    0.000    0.000    0.000    0.000    0.000 
#
# Total GULP energy -223560.113612 kJ/mol
# GULP energy per Si atom -5589.002840 kJ/mol
# Density = 1.818408 g / cm^3
# Si number density = 18.225561 Si / 1000 Ang^3
#
#
#
# Elastic Constant Matrix: (Units=GPa)
#
#
# Indices 1 2 3 4 5 6 
#
# 1 105.4340 80.9548 67.9359 0.0000 0.0000 0.0000
# 2 80.9548 139.2372 106.5020 0.0000 0.0000 0.0000
# 3 67.9359 106.5020 124.1351 0.0000 0.0000 0.0000
# 4 0.0000 0.0000 0.0000 48.1791 0.0000 0.0000
# 5 0.0000 0.0000 0.0000 0.0000 36.8667 0.0000
# 6 0.0000 0.0000 0.0000 0.0000 0.0000 32.5265
#
#
#
# Elastic Compliance Matrix: (Units=1/GPa)
#
#
# Indices 1 2 3 4 5 6 
#
# 1 0.017386 -0.008234 -0.002450 0.000000 0.000000 0.000000
# 2 -0.008234 0.024793 -0.016765 0.000000 0.000000 0.000000
# 3 -0.002450 -0.016765 0.023780 0.000000 0.000000 0.000000
# 4 0.000000 0.000000 0.000000 0.020756 0.000000 0.000000
# 5 0.000000 0.000000 0.000000 0.000000 0.027125 0.000000
# 6 0.000000 0.000000 0.000000 0.000000 0.000000 0.030744
#
#
# Mechanical properties :
#
#
# Convention : Reuss Voigt Hill
#
# Bulk Modulus (GPa) = 90.41304 97.73242 94.07273
# Shear Modulus (GPa) = 24.61019 31.07537 27.84278
#
# Velocity S-wave (km/s) = 3.67865 4.13370 3.91279
# Velocity P-wave (km/s) = 8.23157 8.74777 8.49359
#
# Compressibility (1/GPa) = 0.01106035
#
# Stress axis : x y z
#
# Youngs Moduli (GPa) = 57.51799 40.33456 42.05248
#
# Poissons Ratio (x) = 0.33213 0.10304
# Poissons Ratio (y) = 0.47362 0.70499
# Poissons Ratio (z) = 0.14093 0.67619
#
# Static dielectric constant tensor:
#      x y z
#    x 1.606690 0.000000 0.000000 
#    y 0.000000 1.624000 0.000000 
#    z 0.000000 0.000000 1.570240 
# 
# From -- ./inp_files/6307.got.cif
#   From: 2010.05.17/outbox.cif.g08.bks.cpg/sg53_4_cif.got.tgz:6307.got - 2010.06.03 12:45:16.
