data_PCOD9418453
_publ_section_title
;
Structure prediction by ZEFSAII (Michael W. Deem and Ramdas Pophale) SiO2 
 PCOD9418453
Probable space group: P M N A
;
_chemical_formula_sum "Si O2"
_cell_formula_units_Z 64
_cell_length_a 7.535999
_cell_length_b 25.514527
_cell_length_c 14.084899
_cell_angle_alpha 90.000000
_cell_angle_beta 90.000000
_cell_angle_gamma 90.000000
_cell_volume 2708.208463
_symmetry_space_group_name_H-M "P M N A"
_symmetry_group_IT_number 53
_symmetry_cell_setting 'orthorhombic'
loop_
_space_group_symop_operation_xyz
x,y,z
1/2-x,-y,1/2+z
x,-y,-z
1/2-x,y,1/2-z
-x,-y,-z
1/2+x,y,1/2-z
-x,y,z
1/2+x,-y,1/2+z
loop_
_atom_site_type_symbol
_atom_site_label
_atom_site_fract_x
_atom_site_fract_y
_atom_site_fract_z
Si Si1 0.286720 0.472695 0.363824
Si Si2 0.799215 0.703656 0.361156
Si Si3 0.711637 0.414051 0.636898
Si Si4 0.712096 0.919491 0.360078
Si Si5 0.298921 0.253186 0.449526
Si Si6 0.213340 0.359145 0.137780
Si Si7 0.287904 0.965163 0.638469
Si Si8 0.217829 0.860092 0.964249
O O1 0.250000 0.472337 0.250000
O O2 0.500000 0.473367 0.376893
O O3 0.222452 0.529433 0.400277
O O4 0.220665 0.416010 0.398744
O O5 0.750000 0.706893 0.250000
O O6 0.783270 0.642498 0.392066
O O7 0.693700 0.737626 0.437100
O O8 0.000000 0.720746 0.370174
O O9 0.750000 0.415823 0.750000
O O10 0.500000 0.411727 0.621676
O O11 0.750000 0.911582 0.250000
O O12 0.500000 0.922023 0.370066
O O13 0.773238 0.873369 0.428282
O O14 0.779759 0.977199 0.391664
O O15 0.500000 0.251733 0.411483
O O16 0.214282 0.305800 0.407248
O O17 0.217468 0.196427 0.430395
O O18 0.250000 0.357370 0.250000
O O19 0.000000 0.360061 0.122030
O O20 0.250000 0.962886 0.750000
O O21 0.500000 0.965635 0.621726
O O22 0.222421 0.911453 0.592752
O O23 0.000000 0.857720 0.960386
#
# Coordination Sequence:
#
# PCOD9418453 Si02
#       8
#     8   8   8   8   8   8   8   8
#     4   8  14  25  44  71  98 126 161 201 250 306
#     4  11  22  37  56  76 101 133 169 211 260 311
#     4   9  15  26  47  73  99 126 160 203 252 308
#     4   9  17  31  52  77 104 133 167 207 252 302
#     4  10  21  37  54  74 102 137 179 219 253 297
#     4   9  18  33  53  75 102 136 171 211 258 306
#     4   9  17  31  52  78 106 135 167 205 251 301
#     4   9  18  33  53  74  99 136 176 210 247 295
#
# _framework density 23.631858999999999
#
# number of rings (size 3 to 8) (size 9 to 14) (size 15 to 20)
#    0.000    2.750    0.000    2.625    0.000    3.500 
#    0.000    3.750    0.000    6.750    0.000    0.000 
#    0.000    0.000    0.000    0.000    0.000    0.000 
#
# Total GULP energy -357151.478227 kJ/mol
# GULP energy per Si atom -5580.491847 kJ/mol
# Density = 2.357807 g / cm^3
# Si number density = 23.631859 Si / 1000 Ang^3
#
#
#
# Elastic Constant Matrix: (Units=GPa)
#
#
# Indices 1 2 3 4 5 6 
#
# 1 69.0010 -2.4565 -11.4199 0.0000 0.0000 0.0000
# 2 -2.4565 123.6760 18.3278 0.0000 0.0000 0.0000
# 3 -11.4199 18.3278 40.6972 0.0000 0.0000 0.0000
# 4 0.0000 0.0000 0.0000 25.1684 0.0000 0.0000
# 5 0.0000 0.0000 0.0000 0.0000 8.9832 0.0000
# 6 0.0000 0.0000 0.0000 0.0000 0.0000 -0.0829
#
#
#
# Elastic Compliance Matrix: (Units=1/GPa)
#
#
# Indices 1 2 3 4 5 6 
#
# 1 0.015213 -0.000354 0.004428 0.000000 0.000000 0.000000
# 2 -0.000354 0.008672 -0.004005 0.000000 0.000000 0.000000
# 3 0.004428 -0.004005 0.027618 0.000000 0.000000 0.000000
# 4 0.000000 0.000000 0.000000 0.039732 0.000000 0.000000
# 5 0.000000 0.000000 0.000000 0.000000 0.111319 0.000000
# 6 0.000000 0.000000 0.000000 0.000000 0.000000-12.058670
#
#
# Mechanical properties :
#
#
# Convention : Reuss Voigt Hill
#
# Bulk Modulus (GPa) = 19.36421 26.91964 23.14193
# Shear Modulus (GPa) = -0.42233 22.07526 10.82646
#
# Velocity S-wave (km/s) = -0.42320 3.05967 2.14272
# Velocity P-wave (km/s) = 2.82367 4.88857 3.99194
#
# Compressibility (1/GPa) = 0.05164166
#
# Stress axis : x y z
#
# Youngs Moduli (GPa) = 65.73398 115.31246 36.20841
#
# Poissons Ratio (x) = 0.04083 -0.16034
# Poissons Ratio (y) = 0.02327 0.14501
# Poissons Ratio (z) = -0.29109 0.46180
#
# Static dielectric constant tensor:
#      x y z
#    x 1.896210 0.000000 0.000000 
#    y 0.000000 1.916790 0.000000 
#    z 0.000000 0.000000 1.879550 
# 
# From -- ./inp_files/20828.got.cif
#   From: 2010.05.17/outbox.cif.g08.bks.cpg/sg53_11_cif.got.tgz:20828.got - 2010.06.03 12:45:16.
