data_PCOD9418275
_publ_section_title
;
Structure prediction by ZEFSAII (Michael W. Deem and Ramdas Pophale) SiO2 
 PCOD9418275
Probable space group: P M N A
;
_chemical_formula_sum "Si O2"
_cell_formula_units_Z 60
_cell_length_a 21.999421
_cell_length_b 5.322019
_cell_length_c 25.442172
_cell_angle_alpha 90.000000
_cell_angle_beta 90.000000
_cell_angle_gamma 90.000000
_cell_volume 2978.803503
_symmetry_space_group_name_H-M "P M N A"
_symmetry_group_IT_number 53
_symmetry_cell_setting 'orthorhombic'
loop_
_space_group_symop_operation_xyz
x,y,z
1/2-x,-y,1/2+z
x,-y,-z
1/2-x,y,1/2-z
-x,-y,-z
1/2+x,y,1/2-z
-x,y,z
1/2+x,-y,1/2+z
loop_
_atom_site_type_symbol
_atom_site_label
_atom_site_fract_x
_atom_site_fract_y
_atom_site_fract_z
Si Si1 0.930985 0.882117 0.347837
Si Si2 0.932864 0.130375 0.076527
Si Si3 0.261387 0.756247 0.810911
Si Si4 0.823268 0.240038 0.906426
Si Si5 0.381596 0.500000 0.500000
Si Si6 0.931385 0.381228 0.278538
Si Si7 0.804274 0.240741 0.637262
Si Si8 0.868015 0.619905 0.831100
O O1 0.927557 0.654059 0.305579
O O2 0.000000 0.875461 0.370027
O O3 0.923136 0.152728 0.319684
O O4 0.872169 0.816985 0.383121
O O5 0.920861 0.296384 0.129138
O O6 0.000000 0.014116 0.080083
O O7 0.873153 0.960337 0.076864
O O8 0.925999 0.290116 0.023613
O O9 0.250000 0.699052 0.750000
O O10 0.293392 0.023802 0.818927
O O11 0.194394 0.776390 0.836904
O O12 0.295450 0.520534 0.838560
O O13 0.837406 0.446376 0.951001
O O14 0.845893 0.346712 0.850200
O O15 0.751525 0.196928 0.902762
O O16 0.888011 0.366175 0.228754
O O17 0.000000 0.352115 0.258209
#
# Coordination Sequence:
#
# PCOD9418275 Si02
#       8
#     8   8   8   8   4   8   8   8
#     4  10  21  36  55  80 113 154 193 230 273 326
#     4  11  22  38  58  80 108 143 185 236 287 338
#     4  11  21  33  55  79 112 151 192 232 278 322
#     4  10  23  38  57  80 108 142 185 235 289 344
#     4  10  23  42  58  80 107 136 184 234 293 350
#     4  10  21  35  52  78 115 156 195 233 275 322
#     4  11  21  37  55  82 112 145 186 235 276 333
#     4  10  21  35  50  78 111 148 192 235 279 326
#
# _framework density 20.142315
#
# number of rings (size 3 to 8) (size 9 to 14) (size 15 to 20)
#    0.000    1.600    1.333    3.800    1.867    4.800 
#    0.000    0.000    0.000    0.000    0.000    0.467 
#    0.000    2.133    0.000    0.133    0.000    0.000 
#
# Total GULP energy -334391.380054 kJ/mol
# GULP energy per Si atom -5573.189668 kJ/mol
# Density = 2.009647 g / cm^3
# Si number density = 20.142315 Si / 1000 Ang^3
#
#
#
# Elastic Constant Matrix: (Units=GPa)
#
#
# Indices 1 2 3 4 5 6 
#
# 1 153.5203 16.5438 28.7573 0.0000 0.0000 0.0000
# 2 16.5438 82.0260 1.5095 0.0000 0.0000 0.0000
# 3 28.7573 1.5095 25.1541 0.0000 0.0000 0.0000
# 4 0.0000 0.0000 0.0000 20.4256 0.0000 0.0000
# 5 0.0000 0.0000 0.0000 0.0000 14.6466 0.0000
# 6 0.0000 0.0000 0.0000 0.0000 0.0000 21.6402
#
#
#
# Elastic Compliance Matrix: (Units=1/GPa)
#
#
# Indices 1 2 3 4 5 6 
#
# 1 0.008477 -0.001533 -0.009600 0.000000 0.000000 0.000000
# 2 -0.001533 0.012482 0.001004 0.000000 0.000000 0.000000
# 3 -0.009600 0.001004 0.050669 0.000000 0.000000 0.000000
# 4 0.000000 0.000000 0.000000 0.048958 0.000000 0.000000
# 5 0.000000 0.000000 0.000000 0.000000 0.068275 0.000000
# 6 0.000000 0.000000 0.000000 0.000000 0.000000 0.046210
#
#
# Mechanical properties :
#
#
# Convention : Reuss Voigt Hill
#
# Bulk Modulus (GPa) = 19.46635 39.36908 29.41771
# Shear Modulus (GPa) = 18.35173 25.60179 21.97676
#
# Velocity S-wave (km/s) = 3.02172 3.56904 3.30672
# Velocity P-wave (km/s) = 4.67545 6.04747 5.40517
#
# Compressibility (1/GPa) = 0.05137070
#
# Stress axis : x y z
#
# Youngs Moduli (GPa) = 117.96374 80.11542 19.73578
#
# Poissons Ratio (x) = 0.12283 0.18945
# Poissons Ratio (y) = 0.18085 -0.01981
# Poissons Ratio (z) = 1.13239 -0.08041
#
# Static dielectric constant tensor:
#      x y z
#    x 1.809510 0.000000 0.000000 
#    y 0.000000 1.820130 0.000000 
#    z 0.000000 0.000000 1.679030 
# 
# From -- ./inp_files/39071.got.cif
#   From: 2010.05.17/outbox.cif.g08.bks.cpg/sg53_20_cif.got.tgz:39071.got - 2010.06.03 12:45:16.
