data_PCOD9418374
_publ_section_title
;
Structure prediction by ZEFSAII (Michael W. Deem and Ramdas Pophale) SiO2 
 PCOD9418374
Probable space group: P M N A
;
_chemical_formula_sum "Si O2"
_cell_formula_units_Z 64
_cell_length_a 8.754075
_cell_length_b 12.167381
_cell_length_c 32.502413
_cell_angle_alpha 90.000000
_cell_angle_beta 90.000000
_cell_angle_gamma 90.000000
_cell_volume 3461.967408
_symmetry_space_group_name_H-M "P M N A"
_symmetry_group_IT_number 53
_symmetry_cell_setting 'orthorhombic'
loop_
_space_group_symop_operation_xyz
x,y,z
1/2-x,-y,1/2+z
x,-y,-z
1/2-x,y,1/2-z
-x,-y,-z
1/2+x,y,1/2-z
-x,y,z
1/2+x,-y,1/2+z
loop_
_atom_site_type_symbol
_atom_site_label
_atom_site_fract_x
_atom_site_fract_y
_atom_site_fract_z
Si Si1 0.818108 0.306828 0.705915
Si Si2 0.326269 0.853404 0.087276
Si Si3 0.319476 0.937844 0.292690
Si Si4 0.678886 0.351357 0.622086
Si Si5 0.321525 0.926680 0.864295
Si Si6 0.316607 0.746943 0.926313
Si Si7 0.173147 0.131316 0.996843
Si Si8 0.815078 0.485604 0.048389
O O1 0.750000 0.344128 0.750000
O O2 0.760521 0.180614 0.700395
O O3 0.763247 0.372498 0.665388
O O4 0.000000 0.307076 0.708186
O O5 0.500000 0.819800 0.096850
O O6 0.211841 0.775661 0.111662
O O7 0.286417 0.839348 0.039844
O O8 0.309985 0.980155 0.100126
O O9 0.250000 0.979710 0.250000
O O10 0.500000 0.919928 0.289663
O O11 0.278781 0.024308 0.327958
O O12 0.500000 0.370408 0.628221
O O13 0.726938 0.418255 0.580958
O O14 0.500000 0.924216 0.851632
O O15 0.279317 0.809582 0.883704
O O16 0.500000 0.752390 0.931036
O O17 0.257801 0.624105 0.932686
O O18 0.233877 0.815890 0.961800
O O19 0.000000 0.170515 0.987825
O O20 0.169132 0.000000 0.000000
O O21 0.000000 0.477099 0.048181
O O22 0.769119 0.500000 0.000000
#
# Coordination Sequence:
#
# PCOD9418374 Si02
#       8
#     8   8   8   8   8   8   8   8
#     4  11  21  35  56  85 121 156 194 241 295 353
#     4  11  21  34  54  80 115 150 187 233 283 339
#     4  11  21  34  56  84 119 158 194 233 286 350
#     4  11  22  37  59  86 118 154 195 241 294 348
#     4  10  21  36  54  82 118 150 185 234 288 341
#     4  11  23  39  60  83 112 149 193 241 287 342
#     4  11  22  34  51  76 110 148 187 230 278 336
#     4  10  23  43  63  84 115 155 200 251 298 349
#
# _framework density 18.486598999999998
#
# number of rings (size 3 to 8) (size 9 to 14) (size 15 to 20)
#    0.000    1.250    2.500    5.250    0.000    4.250 
#    0.000    0.000    0.000    0.750    0.000    5.250 
#    0.000    0.000    0.000    0.000    0.000    0.000 
#
# Total GULP energy -357285.390031 kJ/mol
# GULP energy per Si atom -5582.584219 kJ/mol
# Density = 1.844452 g / cm^3
# Si number density = 18.486599 Si / 1000 Ang^3
#
#
#
# Elastic Constant Matrix: (Units=GPa)
#
#
# Indices 1 2 3 4 5 6 
#
# 1 80.8555 25.1415 46.4946 0.0000 0.0000 0.0000
# 2 25.1415 61.7243 23.7929 0.0000 0.0000 0.0000
# 3 46.4946 23.7929 110.7090 0.0000 0.0000 0.0000
# 4 0.0000 0.0000 0.0000 23.5743 0.0000 0.0000
# 5 0.0000 0.0000 0.0000 0.0000 29.3305 0.0000
# 6 0.0000 0.0000 0.0000 0.0000 0.0000 16.9213
#
#
#
# Elastic Compliance Matrix: (Units=1/GPa)
#
#
# Indices 1 2 3 4 5 6 
#
# 1 0.017460 -0.004672 -0.006328 0.000000 0.000000 0.000000
# 2 -0.004672 0.018915 -0.002103 0.000000 0.000000 0.000000
# 3 -0.006328 -0.002103 0.012142 0.000000 0.000000 0.000000
# 4 0.000000 0.000000 0.000000 0.042419 0.000000 0.000000
# 5 0.000000 0.000000 0.000000 0.000000 0.034094 0.000000
# 6 0.000000 0.000000 0.000000 0.000000 0.000000 0.059097
#
#
# Mechanical properties :
#
#
# Convention : Reuss Voigt Hill
#
# Bulk Modulus (GPa) = 44.82340 49.34964 47.08652
# Shear Modulus (GPa) = 22.95993 24.48920 23.72457
#
# Velocity S-wave (km/s) = 3.52799 3.64359 3.58626
# Velocity P-wave (km/s) = 6.39490 6.66737 6.53255
#
# Compressibility (1/GPa) = 0.02230978
#
# Stress axis : x y z
#
# Youngs Moduli (GPa) = 57.27512 52.86879 82.35622
#
# Poissons Ratio (x) = 0.24701 0.52118
# Poissons Ratio (y) = 0.26760 0.17318
# Poissons Ratio (z) = 0.36246 0.11118
#
# Static dielectric constant tensor:
#      x y z
#    x 1.625360 0.000000 0.000000 
#    y 0.000000 1.630430 0.000000 
#    z 0.000000 0.000000 1.683820 
# 
# From -- ./inp_files/38212.got.cif
#   From: 2010.05.17/outbox.cif.g08.bks.cpg/sg53_20_cif.got.tgz:38212.got - 2010.06.03 12:45:16.
