data_PCOD9418667
_publ_section_title
;
Structure prediction by ZEFSAII (Michael W. Deem and Ramdas Pophale) SiO2 
 PCOD9418667
Probable space group: P M N A
;
_chemical_formula_sum "Si O2"
_cell_formula_units_Z 64
_cell_length_a 16.867244
_cell_length_b 14.799130
_cell_length_c 11.438611
_cell_angle_alpha 90.000000
_cell_angle_beta 90.000000
_cell_angle_gamma 90.000000
_cell_volume 2855.312217
_symmetry_space_group_name_H-M "P M N A"
_symmetry_group_IT_number 53
_symmetry_cell_setting 'orthorhombic'
loop_
_space_group_symop_operation_xyz
x,y,z
1/2-x,-y,1/2+z
x,-y,-z
1/2-x,y,1/2-z
-x,-y,-z
1/2+x,y,1/2-z
-x,y,z
1/2+x,-y,1/2+z
loop_
_atom_site_type_symbol
_atom_site_label
_atom_site_fract_x
_atom_site_fract_y
_atom_site_fract_z
Si Si1 0.096688 0.117581 0.284436
Si Si2 0.591326 0.954009 0.375388
Si Si3 0.590572 0.636478 0.982166
Si Si4 0.409352 0.148083 0.963841
Si Si5 0.596685 0.323234 0.277136
Si Si6 0.660730 0.202371 0.733575
Si Si7 0.197232 0.527909 0.869563
Si Si8 0.092271 0.606050 0.265090
O O1 0.123677 0.105778 0.418049
O O2 0.116888 0.216850 0.234201
O O3 0.000000 0.118005 0.288417
O O4 0.121878 0.033347 0.208330
O O5 0.500000 0.929313 0.342436
O O6 0.643628 0.864141 0.372577
O O7 0.588402 0.000000 0.500000
O O8 0.500000 0.604947 0.976367
O O9 0.625313 0.594505 0.101260
O O10 0.588706 0.744264 0.007459
O O11 0.619463 0.631552 0.849314
O O12 0.500000 0.117850 0.944698
O O13 0.361052 0.141423 0.846037
O O14 0.500000 0.331239 0.291533
O O15 0.649409 0.376682 0.370653
O O16 0.750000 0.234646 0.750000
O O17 0.605019 0.289145 0.734140
O O18 0.250000 0.528768 0.750000
O O19 0.133330 0.452754 0.832465
O O20 0.227095 0.500000 0.000000
O O21 0.000000 0.584613 0.269936
#
# Coordination Sequence:
#
# PCOD9418667 Si02
#       8
#     8   8   8   8   8   8   8   8
#     4   8  16  34  62  95 119 151 203 263 313 351
#     4  10  21  38  59  84 120 166 221 268 310 375
#     4   7  13  28  58  95 119 147 196 254 311 364
#     4   8  14  30  57  88 118 152 205 257 298 359
#     4   9  18  37  66  95 125 162 213 267 312 369
#     4  11  22  38  57  91 130 166 202 256 326 387
#     4  12  29  46  62  94 135 173 212 260 324 389
#     4  10  21  41  70  95 122 164 217 269 315 374
#
# _framework density 22.414362000000001
#
# number of rings (size 3 to 8) (size 9 to 14) (size 15 to 20)
#    0.000    2.625    0.000    4.125    1.750    2.500 
#    4.500    5.625    0.000    0.000    0.000    0.000 
#    0.000    0.000    0.000    0.000    0.000    0.000 
#
# Total GULP energy -356970.206366 kJ/mol
# GULP energy per Si atom -5577.659474 kJ/mol
# Density = 2.236335 g / cm^3
# Si number density = 22.414362 Si / 1000 Ang^3
#
#
#
# Elastic Constant Matrix: (Units=GPa)
#
#
# Indices 1 2 3 4 5 6 
#
# 1 34.8419 7.6756 28.1691 0.0000 0.0000 0.0000
# 2 7.6756 63.6453 12.7443 0.0000 0.0000 0.0000
# 3 28.1691 12.7443 48.8920 0.0000 0.0000 0.0000
# 4 0.0000 0.0000 0.0000 30.6325 0.0000 0.0000
# 5 0.0000 0.0000 0.0000 0.0000 22.8975 0.0000
# 6 0.0000 0.0000 0.0000 0.0000 0.0000 -8.0103
#
#
#
# Elastic Compliance Matrix: (Units=1/GPa)
#
#
# Indices 1 2 3 4 5 6 
#
# 1 0.053733 -0.000297 -0.030881 0.000000 0.000000 0.000000
# 2 -0.000297 0.016579 -0.004151 0.000000 0.000000 0.000000
# 3 -0.030881 -0.004151 0.039327 0.000000 0.000000 0.000000
# 4 0.000000 0.000000 0.000000 0.032645 0.000000 0.000000
# 5 0.000000 0.000000 0.000000 0.000000 0.043673 0.000000
# 6 0.000000 0.000000 0.000000 0.000000 0.000000 -0.124840
#
#
# Mechanical properties :
#
#
# Convention : Reuss Voigt Hill
#
# Bulk Modulus (GPa) = 25.65228 27.17303 26.41265
# Shear Modulus (GPa) = 34.53782 15.68994 25.11388
#
# Velocity S-wave (km/s) = 3.92966 2.64861 3.35092
# Velocity P-wave (km/s) = 5.66207 4.63712 5.17503
#
# Compressibility (1/GPa) = 0.03898289
#
# Stress axis : x y z
#
# Youngs Moduli (GPa) = 18.61044 60.31735 25.42767
#
# Poissons Ratio (x) = 0.01789 0.78523
# Poissons Ratio (y) = 0.00552 0.10554
# Poissons Ratio (z) = 0.57471 0.25036
#
# Static dielectric constant tensor:
#      x y z
#    x 1.850550 0.000000 0.000000 
#    y 0.000000 1.835470 0.000000 
#    z 0.000000 0.000000 1.893990 
# 
# From -- ./inp_files/17143.got.cif
#   From: 2010.05.17/outbox.cif.g08.bks.cpg/sg53_9_cif.got.tgz:17143.got - 2010.06.03 12:45:16.
