data_PCOD9418586
_publ_section_title
;
Structure prediction by ZEFSAII (Michael W. Deem and Ramdas Pophale) SiO2 
 PCOD9418586
Probable space group: P M N A
;
_chemical_formula_sum "Si O2"
_cell_formula_units_Z 64
_cell_length_a 26.779127
_cell_length_b 18.641442
_cell_length_c 6.049870
_cell_angle_alpha 90.000000
_cell_angle_beta 90.000000
_cell_angle_gamma 90.000000
_cell_volume 3020.104438
_symmetry_space_group_name_H-M "P M N A"
_symmetry_group_IT_number 53
_symmetry_cell_setting 'orthorhombic'
loop_
_space_group_symop_operation_xyz
x,y,z
1/2-x,-y,1/2+z
x,-y,-z
1/2-x,y,1/2-z
-x,-y,-z
1/2+x,y,1/2-z
-x,y,z
1/2+x,-y,1/2+z
loop_
_atom_site_type_symbol
_atom_site_label
_atom_site_fract_x
_atom_site_fract_y
_atom_site_fract_z
Si Si1 0.191417 0.525898 0.247094
Si Si2 0.617499 0.072620 0.372482
Si Si3 0.212697 0.074454 0.423349
Si Si4 0.444039 0.415133 0.013064
Si Si5 0.555219 0.307902 0.381011
Si Si6 0.348378 0.169665 0.764446
Si Si7 0.944030 0.167937 0.425734
Si Si8 0.361326 0.329122 0.738718
O O1 0.174164 0.500000 0.500000
O O2 0.250000 0.507994 0.250000
O O3 0.180419 0.610188 0.225809
O O4 0.171344 0.500000 0.000000
O O5 0.661320 0.054271 0.200503
O O6 0.640870 0.134678 0.527732
O O7 0.570294 0.106944 0.250574
O O8 0.605319 0.000000 0.500000
O O9 0.250000 0.110452 0.250000
O O10 0.195022 0.124222 0.620815
O O11 0.237236 0.000000 0.500000
O O12 0.500000 0.401743 0.920884
O O13 0.402311 0.367711 0.894902
O O14 0.435540 0.500000 0.000000
O O15 0.444934 0.384854 0.260885
O O16 0.500000 0.297428 0.487270
O O17 0.559181 0.244508 0.199780
O O18 0.603664 0.308053 0.531668
O O19 0.336964 0.253324 0.794577
O O20 0.401407 0.162396 0.891353
O O21 0.000000 0.160133 0.512630
#
# Coordination Sequence:
#
# PCOD9418586 Si02
#       8
#     8   8   8   8   8   8   8   8
#     4  10  25  49  72  99 133 176 228 283 342 412
#     4  11  22  42  64  92 128 164 212 265 315 382
#     4  11  24  43  70  97 123 166 207 260 334 416
#     4  10  22  38  59  92 132 168 218 276 328 392
#     4  10  21  37  59  92 131 171 219 267 320 394
#     4  11  24  41  61  95 133 165 215 269 321 385
#     4  10  22  39  61  90 127 176 220 264 319 381
#     4  12  23  38  66  93 128 176 220 267 341 393
#
# _framework density 21.191320000000001
#
# number of rings (size 3 to 8) (size 9 to 14) (size 15 to 20)
#    0.000    1.375    3.750    1.125    3.500    1.250 
#    2.250    3.125    0.000    0.000    0.000    0.000 
#    0.000    0.000    0.000    0.000    0.000    0.000 
#
# Total GULP energy -356858.637906 kJ/mol
# GULP energy per Si atom -5575.916217 kJ/mol
# Density = 2.114309 g / cm^3
# Si number density = 21.191320 Si / 1000 Ang^3
#
#
#
# Elastic Constant Matrix: (Units=GPa)
#
#
# Indices 1 2 3 4 5 6 
#
# 1 39.7862 -2.0714 7.6269 0.0000 0.0000 0.0000
# 2 -2.0714 119.3171 12.5158 0.0000 0.0000 0.0000
# 3 7.6269 12.5158 55.5495 0.0000 0.0000 0.0000
# 4 0.0000 0.0000 0.0000 29.0342 0.0000 0.0000
# 5 0.0000 0.0000 0.0000 0.0000 21.7086 0.0000
# 6 0.0000 0.0000 0.0000 0.0000 0.0000 24.1367
#
#
#
# Elastic Compliance Matrix: (Units=1/GPa)
#
#
# Indices 1 2 3 4 5 6 
#
# 1 0.025896 0.000842 -0.003745 0.000000 0.000000 0.000000
# 2 0.000842 0.008611 -0.002056 0.000000 0.000000 0.000000
# 3 -0.003745 -0.002056 0.018979 0.000000 0.000000 0.000000
# 4 0.000000 0.000000 0.000000 0.034442 0.000000 0.000000
# 5 0.000000 0.000000 0.000000 0.000000 0.046065 0.000000
# 6 0.000000 0.000000 0.000000 0.000000 0.000000 0.041431
#
#
# Mechanical properties :
#
#
# Convention : Reuss Voigt Hill
#
# Bulk Modulus (GPa) = 22.95193 27.86617 25.40905
# Shear Modulus (GPa) = 25.01689 28.08134 26.54912
#
# Velocity S-wave (km/s) = 3.43961 3.64419 3.54337
# Velocity P-wave (km/s) = 5.16031 5.55744 5.36256
#
# Compressibility (1/GPa) = 0.04356933
#
# Stress axis : x y z
#
# Youngs Moduli (GPa) = 38.61573 116.12641 52.68867
#
# Poissons Ratio (x) = -0.09783 0.19734
# Poissons Ratio (y) = -0.03253 0.10832
# Poissons Ratio (z) = 0.14463 0.23874
#
# Static dielectric constant tensor:
#      x y z
#    x 1.761420 0.000000 0.000000 
#    y 0.000000 1.759060 0.000000 
#    z 0.000000 0.000000 1.916070 
# 
# From -- ./inp_files/5472.got.cif
#   From: 2010.05.17/outbox.cif.g08.bks.cpg/sg53_3_cif.got.tgz:5472.got - 2010.06.03 12:45:16.
