data_PCOD9418396
_publ_section_title
;
Structure prediction by ZEFSAII (Michael W. Deem and Ramdas Pophale) SiO2 
 PCOD9418396
Probable space group: P M N A
;
_chemical_formula_sum "Si O2"
_cell_formula_units_Z 48
_cell_length_a 10.114039
_cell_length_b 30.090262
_cell_length_c 8.637823
_cell_angle_alpha 90.000000
_cell_angle_beta 90.000000
_cell_angle_gamma 90.000000
_cell_volume 2628.783945
_symmetry_space_group_name_H-M "P M N A"
_symmetry_group_IT_number 53
_symmetry_cell_setting 'orthorhombic'
loop_
_space_group_symop_operation_xyz
x,y,z
1/2-x,-y,1/2+z
x,-y,-z
1/2-x,y,1/2-z
-x,-y,-z
1/2+x,y,1/2-z
-x,y,z
1/2+x,-y,1/2+z
loop_
_atom_site_type_symbol
_atom_site_label
_atom_site_fract_x
_atom_site_fract_y
_atom_site_fract_z
Si Si1 0.754172 0.896954 0.435436
Si Si2 0.347010 0.281740 0.894844
Si Si3 0.500000 0.950903 0.933542
Si Si4 0.655182 0.631472 0.897232
Si Si5 0.500000 0.050982 0.438135
Si Si6 0.842268 0.807136 0.599114
Si Si7 0.154681 0.456278 0.603290
O O1 0.750000 0.896215 0.250000
O O2 0.873899 0.926085 0.499165
O O3 0.624777 0.921130 0.501041
O O4 0.782150 0.847888 0.501072
O O5 0.250000 0.279654 0.750000
O O6 0.500000 0.284481 0.842431
O O7 0.319484 0.325165 0.998240
O O8 0.334029 0.237969 0.000327
O O9 0.500000 0.950534 0.747885
O O10 0.500000 0.000000 0.000000
O O11 0.750000 0.631289 0.750000
O O12 0.500000 0.632420 0.850907
O O13 0.676411 0.587425 0.999428
O O14 0.500000 0.000000 0.500000
O O15 0.750000 0.803163 0.750000
O O16 0.000000 0.815145 0.633005
O O17 0.178063 0.500000 0.500000
O O18 0.250000 0.456000 0.750000
O O19 0.000000 0.456575 0.651102
#
# Coordination Sequence:
#
# PCOD9418396 Si02
#       7
#     8   8   4   8   4   8   8
#     4  12  25  43  65  93 126 161 202 250 301 358
#     4  10  22  40  61  89 123 158 203 251 303 362
#     4  12  24  44  66  92 128 160 204 250 295 360
#     4  10  21  37  58  85 119 157 202 254 306 366
#     4  12  26  44  68  96 124 166 204 246 305 356
#     4  11  24  42  64  92 124 159 201 249 301 362
#     4  10  21  36  55  83 117 155 202 253 306 366
#
# _framework density 18.259395000000001
#
# number of rings (size 3 to 8) (size 9 to 14) (size 15 to 20)
#    0.000    1.167    0.833    5.500    1.167    2.333 
#    0.000    0.000    0.000    0.000    0.000    0.000 
#    0.000    0.000    0.000    0.000    0.000    0.000 
#
# Total GULP energy -268339.557570 kJ/mol
# GULP energy per Si atom -5590.407449 kJ/mol
# Density = 1.821784 g / cm^3
# Si number density = 18.259395 Si / 1000 Ang^3
#
#
#
# Elastic Constant Matrix: (Units=GPa)
#
#
# Indices 1 2 3 4 5 6 
#
# 1 167.1607 87.5197 127.2211 0.0000 0.0000 0.0000
# 2 87.5197 179.0011 83.5467 0.0000 0.0000 0.0000
# 3 127.2211 83.5467 191.1252 0.0000 0.0000 0.0000
# 4 0.0000 0.0000 0.0000 20.0514 0.0000 0.0000
# 5 0.0000 0.0000 0.0000 0.0000 46.0303 0.0000
# 6 0.0000 0.0000 0.0000 0.0000 0.0000 26.8795
#
#
#
# Elastic Compliance Matrix: (Units=1/GPa)
#
#
# Indices 1 2 3 4 5 6 
#
# 1 0.013275 -0.002973 -0.007537 0.000000 0.000000 0.000000
# 2 -0.002973 0.007684 -0.001380 0.000000 0.000000 0.000000
# 3 -0.007537 -0.001380 0.010852 0.000000 0.000000 0.000000
# 4 0.000000 0.000000 0.000000 0.049872 0.000000 0.000000
# 5 0.000000 0.000000 0.000000 0.000000 0.021725 0.000000
# 6 0.000000 0.000000 0.000000 0.000000 0.000000 0.037203
#
#
# Mechanical properties :
#
#
# Convention : Reuss Voigt Hill
#
# Bulk Modulus (GPa) = 124.50507 125.98467 125.24487
# Shear Modulus (GPa) = 29.92801 34.52553 32.22677
#
# Velocity S-wave (km/s) = 4.05291 4.35309 4.20568
# Velocity P-wave (km/s) = 9.49928 9.71663 9.60857
#
# Compressibility (1/GPa) = 0.00803180
#
# Stress axis : x y z
#
# Youngs Moduli (GPa) = 75.33140 130.13636 92.14673
#
# Poissons Ratio (x) = 0.38687 0.69448
# Poissons Ratio (y) = 0.22394 0.12718
# Poissons Ratio (z) = 0.56775 0.17962
#
# Static dielectric constant tensor:
#      x y z
#    x 1.615550 0.000000 0.000000 
#    y 0.000000 1.626990 0.000000 
#    z 0.000000 0.000000 1.580430 
# 
# From -- ./inp_files/6832.got.cif
#   From: 2010.05.17/outbox.cif.g08.bks.cpg/sg53_4_cif.got.tgz:6832.got - 2010.06.03 12:45:16.
