data_PCOD9418140
_publ_section_title
;
Structure prediction by ZEFSAII (Michael W. Deem and Ramdas Pophale) SiO2 
 PCOD9418140
Probable space group: P M N A
;
_chemical_formula_sum "Si O2"
_cell_formula_units_Z 48
_cell_length_a 14.617520
_cell_length_b 9.930788
_cell_length_c 19.102797
_cell_angle_alpha 90.000000
_cell_angle_beta 90.000000
_cell_angle_gamma 90.000000
_cell_volume 2773.028723
_symmetry_space_group_name_H-M "P M N A"
_symmetry_group_IT_number 53
_symmetry_cell_setting 'orthorhombic'
loop_
_space_group_symop_operation_xyz
x,y,z
1/2-x,-y,1/2+z
x,-y,-z
1/2-x,y,1/2-z
-x,-y,-z
1/2+x,y,1/2-z
-x,y,z
1/2+x,-y,1/2+z
loop_
_atom_site_type_symbol
_atom_site_label
_atom_site_fract_x
_atom_site_fract_y
_atom_site_fract_z
Si Si1 0.798574 0.035583 0.676277
Si Si2 0.000000 0.950205 0.270457
Si Si3 0.303193 0.284631 0.180167
Si Si4 0.500000 0.555284 0.619031
Si Si5 0.500000 0.266940 0.240465
Si Si6 0.822949 0.870365 0.048569
Si Si7 0.196064 0.380102 0.050532
Si Si8 0.000000 0.768651 0.132373
O O1 0.750000 0.075498 0.750000
O O2 0.906423 0.063147 0.685735
O O3 0.752589 0.101133 0.608393
O O4 0.784270 0.874530 0.668985
O O5 0.000000 0.842699 0.207591
O O6 0.000000 0.105925 0.242089
O O7 0.250000 0.325897 0.250000
O O8 0.409978 0.297377 0.195765
O O9 0.262124 0.366722 0.116509
O O10 0.500000 0.644107 0.689619
O O11 0.408071 0.593966 0.576743
O O12 0.500000 0.394547 0.634520
O O13 0.912057 0.820747 0.090174
O O14 0.796961 0.754293 0.994658
O O15 0.840603 0.000000 0.000000
O O16 0.222715 0.500000 0.000000
#
# Coordination Sequence:
#
# PCOD9418140 Si02
#       8
#     8   4   8   4   4   8   8   4
#     4  10  20  39  63  93 124 156 209 256 299 369
#     4  10  22  40  68  92 124 161 207 257 307 355
#     4  10  20  39  65  91 120 161 210 252 297 368
#     4  12  24  41  60  92 132 160 202 254 312 376
#     4  10  22  40  68  94 116 163 216 252 290 370
#     4  12  24  39  62  93 125 160 205 255 315 365
#     4  12  24  42  61  90 130 165 201 252 315 367
#     4  12  24  40  58  97 130 159 193 264 319 368
#
# _framework density 17.309595000000002
#
# number of rings (size 3 to 8) (size 9 to 14) (size 15 to 20)
#    0.000    1.000    6.667    1.000    2.333    0.000 
#    3.000    4.167    0.000    0.000    0.000    0.000 
#    0.000    0.000    0.000    0.000    0.000    0.000 
#
# Total GULP energy -268053.157375 kJ/mol
# GULP energy per Si atom -5584.440779 kJ/mol
# Density = 1.727020 g / cm^3
# Si number density = 17.309595 Si / 1000 Ang^3
#
#
#
# Elastic Constant Matrix: (Units=GPa)
#
#
# Indices 1 2 3 4 5 6 
#
# 1 122.0481 40.2342 70.3881 0.0000 0.0000 0.0000
# 2 40.2342 103.6057 71.3672 0.0000 0.0000 0.0000
# 3 70.3881 71.3672 141.5232 0.0000 0.0000 0.0000
# 4 0.0000 0.0000 0.0000 40.7956 0.0000 0.0000
# 5 0.0000 0.0000 0.0000 0.0000 21.2590 0.0000
# 6 0.0000 0.0000 0.0000 0.0000 0.0000 -1.7716
#
#
#
# Elastic Compliance Matrix: (Units=1/GPa)
#
#
# Indices 1 2 3 4 5 6 
#
# 1 0.011533 -0.000808 -0.005328 0.000000 0.000000 0.000000
# 2 -0.000808 0.014846 -0.007084 0.000000 0.000000 0.000000
# 3 -0.005328 -0.007084 0.013289 0.000000 0.000000 0.000000
# 4 0.000000 0.000000 0.000000 0.024512 0.000000 0.000000
# 5 0.000000 0.000000 0.000000 0.000000 0.047039 0.000000
# 6 0.000000 0.000000 0.000000 0.000000 0.000000 -0.564477
#
#
# Mechanical properties :
#
#
# Convention : Reuss Voigt Hill
#
# Bulk Modulus (GPa) = 75.61343 81.23954 78.42649
# Shear Modulus (GPa) = -11.83692 24.40244 6.28276
#
# Velocity S-wave (km/s) = -2.61786 3.75876 1.90723
# Velocity P-wave (km/s) = 5.88559 8.11621 7.08918
#
# Compressibility (1/GPa) = 0.01322516
#
# Stress axis : x y z
#
# Youngs Moduli (GPa) = 86.70765 67.35867 75.25195
#
# Poissons Ratio (x) = 0.05445 0.40098
# Poissons Ratio (y) = 0.07009 0.53312
# Poissons Ratio (z) = 0.46202 0.47720
#
# Static dielectric constant tensor:
#      x y z
#    x 1.628260 0.000000 0.000000 
#    y 0.000000 1.565920 0.000000 
#    z 0.000000 0.000000 1.561680 
# 
# From -- ./inp_files/28348.got.cif
#   From: 2010.05.17/outbox.cif.g08.bks.cpg/sg53_15_cif.got.tgz:28348.got - 2010.06.03 12:45:16.
