data_PCOD9418766
_publ_section_title
;
Structure prediction by ZEFSAII (Michael W. Deem and Ramdas Pophale) SiO2 
 PCOD9418766
Probable space group: P M N A
;
_chemical_formula_sum "Si O2"
_cell_formula_units_Z 20
_cell_length_a 31.103940
_cell_length_b 5.044530
_cell_length_c 5.232294
_cell_angle_alpha 90.000000
_cell_angle_beta 90.000000
_cell_angle_gamma 90.000000
_cell_volume 820.971826
_symmetry_space_group_name_H-M "P M N A"
_symmetry_group_IT_number 53
_symmetry_cell_setting 'orthorhombic'
loop_
_space_group_symop_operation_xyz
x,y,z
1/2-x,-y,1/2+z
x,-y,-z
1/2-x,y,1/2-z
-x,-y,-z
1/2+x,y,1/2-z
-x,y,z
1/2+x,-y,1/2+z
loop_
_atom_site_type_symbol
_atom_site_label
_atom_site_fract_x
_atom_site_fract_y
_atom_site_fract_z
Si Si1 0.000000 0.249439 0.811054
Si Si2 0.223413 0.000000 0.500000
Si Si3 0.332530 0.500000 0.000000
Si Si4 0.408246 0.747976 0.317926
O O1 0.954037 0.238408 0.669065
O O2 0.000000 0.500000 0.000000
O O3 0.000000 0.000000 0.000000
O O4 0.197313 0.260345 0.399699
O O5 0.250000 0.909531 0.250000
O O6 0.365847 0.677225 0.164161
O O7 0.413404 0.500000 0.500000
O O8 0.402678 0.000000 0.500000
#
# Coordination Sequence:
#
# PCOD9418766 Si02
#       4
#     4   4   4   8
#     4   8  16  33  56  91 138 189 223 280 346 409
#     4  12  30  52  76 105 142 183 238 310 390 458
#     4  12  26  43  74 104 132 188 238 303 370 446
#     4  10  21  38  64  98 143 183 235 288 348 429
#
# _framework density 24.361370999999998
#
# number of rings (size 3 to 8) (size 9 to 14) (size 15 to 20)
#    0.000    1.600    0.000    3.600    8.400    0.800 
#    0.000    0.000    0.000   16.800    0.000    0.000 
#    0.000    0.000    0.000    0.000    0.000    0.000 
#
# Total GULP energy -111548.437490 kJ/mol
# GULP energy per Si atom -5577.421874 kJ/mol
# Density = 2.430592 g / cm^3
# Si number density = 24.361371 Si / 1000 Ang^3
#
#
#
# Elastic Constant Matrix: (Units=GPa)
#
#
# Indices 1 2 3 4 5 6 
#
# 1 127.6813 36.7212 34.5472 0.0000 0.0000 0.0000
# 2 36.7212 218.9074 27.7759 0.0000 0.0000 0.0000
# 3 34.5472 27.7759 55.7730 0.0000 0.0000 0.0000
# 4 0.0000 0.0000 0.0000 55.6019 0.0000 0.0000
# 5 0.0000 0.0000 0.0000 0.0000 25.7509 0.0000
# 6 0.0000 0.0000 0.0000 0.0000 0.0000 38.4181
#
#
#
# Elastic Compliance Matrix: (Units=1/GPa)
#
#
# Indices 1 2 3 4 5 6 
#
# 1 0.009576 -0.000911 -0.005478 0.000000 0.000000 0.000000
# 2 -0.000911 0.004963 -0.001907 0.000000 0.000000 0.000000
# 3 -0.005478 -0.001907 0.022273 0.000000 0.000000 0.000000
# 4 0.000000 0.000000 0.000000 0.017985 0.000000 0.000000
# 5 0.000000 0.000000 0.000000 0.000000 0.038834 0.000000
# 6 0.000000 0.000000 0.000000 0.000000 0.000000 0.026029
#
#
# Mechanical properties :
#
#
# Convention : Reuss Voigt Hill
#
# Bulk Modulus (GPa) = 49.45787 66.71670 58.08729
# Shear Modulus (GPa) = 34.96686 44.17536 39.57111
#
# Velocity S-wave (km/s) = 3.79270 4.26295 4.03468
# Velocity P-wave (km/s) = 6.28691 7.18860 6.75282
#
# Compressibility (1/GPa) = 0.02021923
#
# Stress axis : x y z
#
# Youngs Moduli (GPa) = 104.42467 201.49089 44.89789
#
# Poissons Ratio (x) = 0.18363 0.24595
# Poissons Ratio (y) = 0.09517 0.08563
# Poissons Ratio (z) = 0.57203 0.38427
#
# Static dielectric constant tensor:
#      x y z
#    x 2.153310 0.000000 0.000000 
#    y 0.000000 1.879330 0.000000 
#    z 0.000000 0.000000 2.059410 
# 
# From -- ./inp_files/3984.got.cif
#   From: 2010.05.17/outbox.cif.g08.bks.cpg/sg53_2_cif.got.tgz:3984.got - 2010.06.03 12:45:16.
