data_PCOD9418829
_publ_section_title
;
Structure prediction by ZEFSAII (Michael W. Deem and Ramdas Pophale) SiO2 
 PCOD9418829
Probable space group: P M N A
;
_chemical_formula_sum "Si O2"
_cell_formula_units_Z 48
_cell_length_a 15.150931
_cell_length_b 9.659608
_cell_length_c 15.823924
_cell_angle_alpha 90.000000
_cell_angle_beta 90.000000
_cell_angle_gamma 90.000000
_cell_volume 2315.863784
_symmetry_space_group_name_H-M "P M N A"
_symmetry_group_IT_number 53
_symmetry_cell_setting 'orthorhombic'
loop_
_space_group_symop_operation_xyz
x,y,z
1/2-x,-y,1/2+z
x,-y,-z
1/2-x,y,1/2-z
-x,-y,-z
1/2+x,y,1/2-z
-x,y,z
1/2+x,-y,1/2+z
loop_
_atom_site_type_symbol
_atom_site_label
_atom_site_fract_x
_atom_site_fract_y
_atom_site_fract_z
Si Si1 0.896819 0.938509 0.794861
Si Si2 0.146569 0.608562 0.062092
Si Si3 0.100244 0.744787 0.237455
Si Si4 0.220300 0.855608 0.951803
Si Si5 0.304250 0.507212 0.169071
Si Si6 0.099342 0.239272 0.376810
O O1 0.832568 0.873195 0.864162
O O2 0.894425 0.850568 0.709033
O O3 0.000000 0.940912 0.824187
O O4 0.869690 0.097738 0.777153
O O5 0.102404 0.662257 0.148348
O O6 0.234569 0.530369 0.095009
O O7 0.099738 0.500000 0.000000
O O8 0.172162 0.741821 0.008304
O O9 0.158369 0.655368 0.301567
O O10 0.000000 0.751372 0.268575
O O11 0.321005 0.811223 0.935397
O O12 0.217657 0.000000 0.000000
O O13 0.250000 0.450435 0.250000
O O14 0.379242 0.398662 0.145461
O O15 0.000000 0.224432 0.410699
#
# Coordination Sequence:
#
# PCOD9418829 Si02
#       6
#     8   8   8   8   8   8
#     4  10  23  41  64  93 124 161 204 249 301 366
#     4  11  23  40  60  91 122 161 203 246 304 368
#     4  10  22  40  62  91 122 158 202 250 302 362
#     4  12  24  40  65  90 124 164 199 252 310 362
#     4  10  21  39  63  86 120 161 206 249 298 364
#     4  11  24  42  63  89 120 161 211 253 299 361
#
# _framework density 20.726607000000001
#
# number of rings (size 3 to 8) (size 9 to 14) (size 15 to 20)
#    0.000    1.333    3.333    2.000    4.667    3.000 
#    0.000    2.500    0.000    0.000    0.000    0.000 
#    0.000    0.000    0.000    0.000    0.000    0.000 
#
# Total GULP energy -268332.242873 kJ/mol
# GULP energy per Si atom -5590.255060 kJ/mol
# Density = 2.067943 g / cm^3
# Si number density = 20.726607 Si / 1000 Ang^3
#
#
#
# Elastic Constant Matrix: (Units=GPa)
#
#
# Indices 1 2 3 4 5 6 
#
# 1 76.2512 12.7415 0.9080 0.0000 0.0000 0.0000
# 2 12.7415 92.2046 10.6242 0.0000 0.0000 0.0000
# 3 0.9080 10.6242 30.2747 0.0000 0.0000 0.0000
# 4 0.0000 0.0000 0.0000 25.1749 0.0000 0.0000
# 5 0.0000 0.0000 0.0000 0.0000 -6.1847 0.0000
# 6 0.0000 0.0000 0.0000 0.0000 0.0000 -22.3902
#
#
#
# Elastic Compliance Matrix: (Units=1/GPa)
#
#
# Indices 1 2 3 4 5 6 
#
# 1 0.013426 -0.001885 0.000259 0.000000 0.000000 0.000000
# 2 -0.001885 0.011567 -0.004003 0.000000 0.000000 0.000000
# 3 0.000259 -0.004003 0.034428 0.000000 0.000000 0.000000
# 4 0.000000 0.000000 0.000000 0.039722 0.000000 0.000000
# 5 0.000000 0.000000 0.000000 0.000000 -0.161688 0.000000
# 6 0.000000 0.000000 0.000000 0.000000 0.000000 -0.044662
#
#
# Mechanical properties :
#
#
# Convention : Reuss Voigt Hill
#
# Bulk Modulus (GPa) = 20.76264 27.47531 24.11898
# Shear Modulus (GPa) = -62.58242 10.95045 -25.81599
#
# Velocity S-wave (km/s) = -5.50089 2.30103 -3.53306
# Velocity P-wave (km/s) = 5.50520 4.51049 2.23190
#
# Compressibility (1/GPa) = 0.04816342
#
# Stress axis : x y z
#
# Youngs Moduli (GPa) = 74.47967 86.45163 29.04633
#
# Poissons Ratio (x) = 0.16298 -0.00752
# Poissons Ratio (y) = 0.14041 0.11626
# Poissons Ratio (z) = -0.01928 0.34604
#
# Static dielectric constant tensor:
#      x y z
#    x 1.734900 0.000000 0.000000 
#    y 0.000000 1.728190 0.000000 
#    z 0.000000 0.000000 1.711730 
# 
# From -- ./inp_files/23635.got.cif
#   From: 2010.05.17/outbox.cif.g08.bks.cpg/sg53_12_cif.got.tgz:23635.got - 2010.06.03 12:45:16.
