data_PCOD9418581
_publ_section_title
;
Structure prediction by ZEFSAII (Michael W. Deem and Ramdas Pophale) SiO2 
 PCOD9418581
Probable space group: P M N A
;
_chemical_formula_sum "Si O2"
_cell_formula_units_Z 56
_cell_length_a 8.794488
_cell_length_b 14.773659
_cell_length_c 21.732677
_cell_angle_alpha 90.000000
_cell_angle_beta 90.000000
_cell_angle_gamma 90.000000
_cell_volume 2823.656456
_symmetry_space_group_name_H-M "P M N A"
_symmetry_group_IT_number 53
_symmetry_cell_setting 'orthorhombic'
loop_
_space_group_symop_operation_xyz
x,y,z
1/2-x,-y,1/2+z
x,-y,-z
1/2-x,y,1/2-z
-x,-y,-z
1/2+x,y,1/2-z
-x,y,z
1/2+x,-y,1/2+z
loop_
_atom_site_type_symbol
_atom_site_label
_atom_site_fract_x
_atom_site_fract_y
_atom_site_fract_z
Si Si1 0.316364 0.958888 0.679630
Si Si2 0.183685 0.630675 0.315958
Si Si3 0.179339 0.762252 0.815184
Si Si4 0.179736 0.744574 0.071489
Si Si5 0.317086 0.058362 0.938877
Si Si6 0.326862 0.572923 0.848230
Si Si7 0.667522 0.595212 0.533143
O O1 0.250000 0.972665 0.750000
O O2 0.500000 0.967443 0.684358
O O3 0.281871 0.857243 0.652088
O O4 0.250640 0.023167 0.626351
O O5 0.250000 0.658143 0.250000
O O6 0.247113 0.694526 0.369673
O O7 0.232596 0.525485 0.327785
O O8 0.000000 0.632889 0.316154
O O9 0.250000 0.782812 0.750000
O O10 0.241565 0.663600 0.829464
O O11 0.000000 0.756453 0.813359
O O12 0.259591 0.838663 0.055522
O O13 0.000000 0.758990 0.082758
O O14 0.193398 0.675375 0.014483
O O15 0.500000 0.055300 0.935205
O O16 0.271670 0.000000 0.000000
O O17 0.500000 0.579255 0.827279
O O18 0.305787 0.580315 0.921005
O O19 0.653458 0.500000 0.500000
O O20 0.500000 0.611995 0.563726
#
# Coordination Sequence:
#
# PCOD9418581 Si02
#       7
#     8   8   8   8   8   8   8
#     4  10  22  42  68  96 127 167 215 268 326 391
#     4  11  24  41  62  91 127 167 212 260 310 367
#     4  10  21  37  59  89 125 163 205 253 305 366
#     4  11  24  43  67  93 124 163 208 258 313 375
#     4  11  26  46  68  97 132 168 211 268 327 386
#     4  11  23  36  58  90 126 168 208 253 305 363
#     4  10  21  39  62  89 122 161 202 247 302 364
#
# _framework density 19.832439000000001
#
# number of rings (size 3 to 8) (size 9 to 14) (size 15 to 20)
#    0.000    1.429    1.429    3.000    2.000    7.714 
#    0.000    2.857    0.000    0.000    0.000    0.000 
#    0.000    0.000    0.000    0.000    0.000    0.000 
#
# Total GULP energy -312131.763861 kJ/mol
# GULP energy per Si atom -5573.781498 kJ/mol
# Density = 1.978730 g / cm^3
# Si number density = 19.832439 Si / 1000 Ang^3
#
#
#
# Elastic Constant Matrix: (Units=GPa)
#
#
# Indices 1 2 3 4 5 6 
#
# 1 43.9577 28.0369 15.1184 0.0000 0.0000 0.0000
# 2 28.0369 133.3300 32.5566 0.0000 0.0000 0.0000
# 3 15.1184 32.5566 66.5355 0.0000 0.0000 0.0000
# 4 0.0000 0.0000 0.0000 26.7360 0.0000 0.0000
# 5 0.0000 0.0000 0.0000 0.0000 33.0841 0.0000
# 6 0.0000 0.0000 0.0000 0.0000 0.0000 39.4078
#
#
#
# Elastic Compliance Matrix: (Units=1/GPa)
#
#
# Indices 1 2 3 4 5 6 
#
# 1 0.027105 -0.004765 -0.003827 0.000000 0.000000 0.000000
# 2 -0.004765 0.009356 -0.003495 0.000000 0.000000 0.000000
# 3 -0.003827 -0.003495 0.017609 0.000000 0.000000 0.000000
# 4 0.000000 0.000000 0.000000 0.037403 0.000000 0.000000
# 5 0.000000 0.000000 0.000000 0.000000 0.030226 0.000000
# 6 0.000000 0.000000 0.000000 0.000000 0.000000 0.025376
#
#
# Mechanical properties :
#
#
# Convention : Reuss Voigt Hill
#
# Bulk Modulus (GPa) = 33.45045 43.91633 38.68339
# Shear Modulus (GPa) = 27.59170 31.05299 29.32234
#
# Velocity S-wave (km/s) = 3.73398 3.96127 3.84930
# Velocity P-wave (km/s) = 5.95763 6.56612 6.26926
#
# Compressibility (1/GPa) = 0.02989496
#
# Stress axis : x y z
#
# Youngs Moduli (GPa) = 36.89399 106.88742 56.78792
#
# Poissons Ratio (x) = 0.50933 0.21734
# Poissons Ratio (y) = 0.17580 0.19848
# Poissons Ratio (z) = 0.14120 0.37358
#
# Static dielectric constant tensor:
#      x y z
#    x 1.685820 0.000000 0.000000 
#    y 0.000000 1.020840 0.000000 
#    z 0.000000 0.000000 2.083410 
# 
# From -- ./inp_files/30803.got.cif
#   From: 2010.05.17/outbox.cif.g08.bks.cpg/sg53_16_cif.got.tgz:30803.got - 2010.06.03 12:45:16.
