data_PCOD9418443
_publ_section_title
;
Structure prediction by ZEFSAII (Michael W. Deem and Ramdas Pophale) SiO2 
 PCOD9418443
Probable space group: P M N A
;
_chemical_formula_sum "Si O2"
_cell_formula_units_Z 40
_cell_length_a 9.736255
_cell_length_b 22.850137
_cell_length_c 10.194854
_cell_angle_alpha 90.000000
_cell_angle_beta 90.000000
_cell_angle_gamma 90.000000
_cell_volume 2268.097703
_symmetry_space_group_name_H-M "P M N A"
_symmetry_group_IT_number 53
_symmetry_cell_setting 'orthorhombic'
loop_
_space_group_symop_operation_xyz
x,y,z
1/2-x,-y,1/2+z
x,-y,-z
1/2-x,y,1/2-z
-x,-y,-z
1/2+x,y,1/2-z
-x,y,z
1/2+x,-y,1/2+z
loop_
_atom_site_type_symbol
_atom_site_label
_atom_site_fract_x
_atom_site_fract_y
_atom_site_fract_z
Si Si1 0.838882 0.458718 0.119979
Si Si2 0.000000 0.067816 0.843387
Si Si3 0.750000 0.147195 0.750000
Si Si4 0.250000 0.855308 0.750000
Si Si5 0.662847 0.678606 0.615867
Si Si6 0.837630 0.223315 0.499190
Si Si7 0.500000 0.065762 0.343033
O O1 0.750000 0.468716 0.250000
O O2 0.827257 0.390141 0.082737
O O3 0.000000 0.469975 0.147881
O O4 0.796367 0.500000 0.000000
O O5 0.870130 0.104721 0.797568
O O6 0.000000 0.001029 0.792861
O O7 0.000000 0.064502 0.000115
O O8 0.801733 0.186961 0.629492
O O9 0.199035 0.815625 0.628892
O O10 0.370424 0.897520 0.703622
O O11 0.750000 0.686485 0.750000
O O12 0.500000 0.693186 0.631995
O O13 0.738862 0.720291 0.512624
O O14 0.000000 0.237850 0.496743
#
# Coordination Sequence:
#
# PCOD9418443 Si02
#       7
#     8   4   4   4   8   8   4
#     4   9  19  38  61  89 125 162 204 250 300 351
#     4  11  24  43  63  89 121 155 192 247 304 365
#     4  12  25  44  62  86 121 158 194 246 310 364
#     4  12  23  40  62  92 115 152 200 248 290 360
#     4  10  21  36  62  92 122 160 206 256 296 349
#     4  12  25  40  62  88 123 158 199 250 301 361
#     4  11  24  41  65  91 117 151 200 245 301 358
#
# _framework density 17.635926000000001
#
# number of rings (size 3 to 8) (size 9 to 14) (size 15 to 20)
#    0.000    1.200    5.000    1.200    2.800    1.200 
#    1.800    1.000    0.000    0.000    0.000    0.000 
#    0.000    0.000    0.000    0.000    0.000    0.000 
#
# Total GULP energy -223361.272647 kJ/mol
# GULP energy per Si atom -5584.031816 kJ/mol
# Density = 1.759579 g / cm^3
# Si number density = 17.635926 Si / 1000 Ang^3
#
#
#
# Elastic Constant Matrix: (Units=GPa)
#
#
# Indices 1 2 3 4 5 6 
#
# 1 158.4562 72.5788 53.3643 0.0000 0.0000 0.0000
# 2 72.5788 113.2928 64.4944 0.0000 0.0000 0.0000
# 3 53.3643 64.4944 103.2071 0.0000 0.0000 0.0000
# 4 0.0000 0.0000 0.0000 29.8643 0.0000 0.0000
# 5 0.0000 0.0000 0.0000 0.0000 -74.7865 0.0000
# 6 0.0000 0.0000 0.0000 0.0000 0.0000 33.6217
#
#
#
# Elastic Compliance Matrix: (Units=1/GPa)
#
#
# Indices 1 2 3 4 5 6 
#
# 1 0.009109 -0.004896 -0.001650 0.000000 0.000000 0.000000
# 2 -0.004896 0.016332 -0.007674 0.000000 0.000000 0.000000
# 3 -0.001650 -0.007674 0.015338 0.000000 0.000000 0.000000
# 4 0.000000 0.000000 0.000000 0.033485 0.000000 0.000000
# 5 0.000000 0.000000 0.000000 0.000000 -0.013371 0.000000
# 6 0.000000 0.000000 0.000000 0.000000 0.000000 0.029743
#
#
# Mechanical properties :
#
#
# Convention : Reuss Voigt Hill
#
# Bulk Modulus (GPa) = 81.05134 83.98123 82.51628
# Shear Modulus (GPa) = 40.58750 10.04113 25.31431
#
# Velocity S-wave (km/s) = 4.80251 2.38871 3.79276
# Velocity P-wave (km/s) = 8.76413 7.43846 8.12836
#
# Compressibility (1/GPa) = 0.01233786
#
# Stress axis : x y z
#
# Youngs Moduli (GPa) = 109.77727 61.22892 65.19587
#
# Poissons Ratio (x) = 0.29979 0.10760
# Poissons Ratio (y) = 0.53749 0.50034
# Poissons Ratio (z) = 0.18118 0.46989
#
# Static dielectric constant tensor:
#      x y z
#    x 1.577310 0.000000 0.000000 
#    y 0.000000 1.599050 0.000000 
#    z 0.000000 0.000000 1.578100 
# 
# From -- ./inp_files/6391.got.cif
#   From: 2010.05.17/outbox.cif.g08.bks.cpg/sg53_4_cif.got.tgz:6391.got - 2010.06.03 12:45:16.
