data_PCOD9418611
_publ_section_title
;
Structure prediction by ZEFSAII (Michael W. Deem and Ramdas Pophale) SiO2 
 PCOD9418611
Probable space group: P M N A
;
_chemical_formula_sum "Si O2"
_cell_formula_units_Z 48
_cell_length_a 18.341506
_cell_length_b 9.340180
_cell_length_c 14.440776
_cell_angle_alpha 90.000000
_cell_angle_beta 90.000000
_cell_angle_gamma 90.000000
_cell_volume 2473.892190
_symmetry_space_group_name_H-M "P M N A"
_symmetry_group_IT_number 53
_symmetry_cell_setting 'orthorhombic'
loop_
_space_group_symop_operation_xyz
x,y,z
1/2-x,-y,1/2+z
x,-y,-z
1/2-x,y,1/2-z
-x,-y,-z
1/2+x,y,1/2-z
-x,y,z
1/2+x,-y,1/2+z
loop_
_atom_site_type_symbol
_atom_site_label
_atom_site_fract_x
_atom_site_fract_y
_atom_site_fract_z
Si Si1 0.082258 0.158820 0.462193
Si Si2 0.337311 0.609609 0.083893
Si Si3 0.829514 0.382092 0.917478
Si Si4 0.915728 0.092851 0.906830
Si Si5 0.411601 0.866824 0.751271
Si Si6 0.913030 0.540095 0.757529
O O1 0.125068 0.252647 0.537270
O O2 0.113916 0.137962 0.358538
O O3 0.000000 0.221529 0.452309
O O4 0.076409 0.000000 0.500000
O O5 0.254291 0.638809 0.113049
O O6 0.381880 0.527815 0.163227
O O7 0.332797 0.500000 0.000000
O O8 0.865398 0.227223 0.932401
O O9 0.878140 0.447348 0.837127
O O10 0.831751 0.500000 0.000000
O O11 0.000000 0.137994 0.886091
O O12 0.889193 0.992931 0.820006
O O13 0.918338 0.000000 0.000000
O O14 0.500000 0.879070 0.754050
O O15 0.392984 0.705433 0.720673
O O16 0.000000 0.532308 0.755071
#
# Coordination Sequence:
#
# PCOD9418611 Si02
#       6
#     8   8   8   8   8   8
#     4  10  21  37  61  92 126 159 206 260 315 377
#     4  11  23  41  63  89 128 171 205 257 320 391
#     4  11  25  41  62  91 130 169 209 259 311 383
#     4  10  21  39  64  91 124 163 210 261 310 366
#     4   9  19  36  61  94 122 155 203 261 318 367
#     4  11  22  39  66  93 121 159 215 266 316 377
#
# _framework density 19.402623999999999
#
# number of rings (size 3 to 8) (size 9 to 14) (size 15 to 20)
#    0.000    1.667    1.667    2.500    2.333    4.000 
#    0.000    0.000    0.000    0.000    0.000    0.000 
#    0.000    0.000    0.000    0.000    0.000    0.000 
#
# Total GULP energy -267538.121667 kJ/mol
# GULP energy per Si atom -5573.710868 kJ/mol
# Density = 1.935846 g / cm^3
# Si number density = 19.402624 Si / 1000 Ang^3
#
#
#
# Elastic Constant Matrix: (Units=GPa)
#
#
# Indices 1 2 3 4 5 6 
#
# 1 88.1783 56.8161 21.6379 0.0000 0.0000 0.0000
# 2 56.8161 105.2230 30.6896 0.0000 0.0000 0.0000
# 3 21.6379 30.6896 66.1749 0.0000 0.0000 0.0000
# 4 0.0000 0.0000 0.0000 40.0537 0.0000 0.0000
# 5 0.0000 0.0000 0.0000 0.0000 39.8200 0.0000
# 6 0.0000 0.0000 0.0000 0.0000 0.0000 31.7309
#
#
#
# Elastic Compliance Matrix: (Units=1/GPa)
#
#
# Indices 1 2 3 4 5 6 
#
# 1 0.017528 -0.009012 -0.001552 0.000000 0.000000 0.000000
# 2 -0.009012 0.015623 -0.004299 0.000000 0.000000 0.000000
# 3 -0.001552 -0.004299 0.017613 0.000000 0.000000 0.000000
# 4 0.000000 0.000000 0.000000 0.024966 0.000000 0.000000
# 5 0.000000 0.000000 0.000000 0.000000 0.025113 0.000000
# 6 0.000000 0.000000 0.000000 0.000000 0.000000 0.031515
#
#
# Mechanical properties :
#
#
# Convention : Reuss Voigt Hill
#
# Bulk Modulus (GPa) = 47.53133 53.09593 50.31363
# Shear Modulus (GPa) = 29.56884 32.34978 30.95931
#
# Velocity S-wave (km/s) = 3.90803 4.08767 3.99886
# Velocity P-wave (km/s) = 6.70180 7.05007 6.87814
#
# Compressibility (1/GPa) = 0.02103876
#
# Stress axis : x y z
#
# Youngs Moduli (GPa) = 57.05138 64.00637 56.77740
#
# Poissons Ratio (x) = 0.57681 0.08812
# Poissons Ratio (y) = 0.51413 0.24408
# Poissons Ratio (z) = 0.08854 0.27516
#
# Static dielectric constant tensor:
#      x y z
#    x 1.699150 0.000000 0.000000 
#    y 0.000000 1.649970 0.000000 
#    z 0.000000 0.000000 1.867260 
# 
# From -- ./inp_files/23677.got.cif
#   From: 2010.05.17/outbox.cif.g08.bks.cpg/sg53_12_cif.got.tgz:23677.got - 2010.06.03 12:45:16.
