data_PCOD9418134
_publ_section_title
;
Structure prediction by ZEFSAII (Michael W. Deem and Ramdas Pophale) SiO2 
 PCOD9418134
Probable space group: P M N A
;
_chemical_formula_sum "Si O2"
_cell_formula_units_Z 64
_cell_length_a 8.627675
_cell_length_b 20.287823
_cell_length_c 18.714206
_cell_angle_alpha 90.000000
_cell_angle_beta 90.000000
_cell_angle_gamma 90.000000
_cell_volume 3275.673672
_symmetry_space_group_name_H-M "P M N A"
_symmetry_group_IT_number 53
_symmetry_cell_setting 'orthorhombic'
loop_
_space_group_symop_operation_xyz
x,y,z
1/2-x,-y,1/2+z
x,-y,-z
1/2-x,y,1/2-z
-x,-y,-z
1/2+x,y,1/2-z
-x,y,z
1/2+x,-y,1/2+z
loop_
_atom_site_type_symbol
_atom_site_label
_atom_site_fract_x
_atom_site_fract_y
_atom_site_fract_z
Si Si1 0.315828 0.054288 0.409931
Si Si2 0.312968 0.469426 0.923613
Si Si3 0.313837 0.289947 0.067991
Si Si4 0.686609 0.197206 0.670965
Si Si5 0.186713 0.590024 0.671214
Si Si6 0.184793 0.087453 0.563395
Si Si7 0.684276 0.677020 0.415610
Si Si8 0.314794 0.171434 0.174215
O O1 0.500000 0.044498 0.411117
O O2 0.261590 0.086956 0.484830
O O3 0.264544 0.103132 0.347555
O O4 0.231502 0.983914 0.405121
O O5 0.500000 0.468061 0.925303
O O6 0.263331 0.520162 0.862007
O O7 0.255580 0.395673 0.911379
O O8 0.262150 0.500000 0.000000
O O9 0.500000 0.293370 0.056893
O O10 0.267149 0.352686 0.116004
O O11 0.278971 0.224972 0.113335
O O12 0.232824 0.292967 0.991951
O O13 0.750000 0.184142 0.750000
O O14 0.500000 0.193149 0.670721
O O15 0.752546 0.144677 0.614316
O O16 0.733714 0.270400 0.644401
O O17 0.250000 0.601157 0.750000
O O18 0.000000 0.590916 0.674207
O O19 0.000000 0.092497 0.555488
O O20 0.500000 0.670841 0.412259
O O21 0.250000 0.194815 0.250000
O O22 0.500000 0.163925 0.177713
#
# Coordination Sequence:
#
# PCOD9418134 Si02
#       8
#     8   8   8   8   8   8   8   8
#     4  11  22  39  63  91 125 162 204 253 302 362
#     4  10  20  39  63  84 116 157 200 243 295 362
#     4  10  21  39  61  84 117 159 202 240 294 361
#     4  11  25  44  63  90 125 163 206 254 312 372
#     4  10  21  37  58  86 117 154 194 240 296 356
#     4  11  22  40  66  94 122 157 203 254 307 365
#     4  11  24  39  62  92 121 152 198 253 301 352
#     4  11  23  38  58  86 121 161 202 249 300 358
#
# _framework density 19.537966000000001
#
# number of rings (size 3 to 8) (size 9 to 14) (size 15 to 20)
#    0.000    1.375    1.250    5.250    0.000    7.250 
#    0.000    5.000    0.000    0.000    0.000    0.000 
#    0.000    0.000    0.000    0.000    0.000    0.000 
#
# Total GULP energy -357865.998223 kJ/mol
# GULP energy per Si atom -5591.656222 kJ/mol
# Density = 1.949350 g / cm^3
# Si number density = 19.537966 Si / 1000 Ang^3
#
#
#
# Elastic Constant Matrix: (Units=GPa)
#
#
# Indices 1 2 3 4 5 6 
#
# 1 39.7062 10.7969 2.1259 0.0000 0.0000 0.0000
# 2 10.7969 83.3456 10.7894 0.0000 0.0000 0.0000
# 3 2.1259 10.7894 35.1703 0.0000 0.0000 0.0000
# 4 0.0000 0.0000 0.0000 8.5883 0.0000 0.0000
# 5 0.0000 0.0000 0.0000 0.0000 27.7176 0.0000
# 6 0.0000 0.0000 0.0000 0.0000 0.0000 27.8307
#
#
#
# Elastic Compliance Matrix: (Units=1/GPa)
#
#
# Indices 1 2 3 4 5 6 
#
# 1 0.026115 -0.003310 -0.000563 0.000000 0.000000 0.000000
# 2 -0.003310 0.012914 -0.003762 0.000000 0.000000 0.000000
# 3 -0.000563 -0.003762 0.029621 0.000000 0.000000 0.000000
# 4 0.000000 0.000000 0.000000 0.116437 0.000000 0.000000
# 5 0.000000 0.000000 0.000000 0.000000 0.036078 0.000000
# 6 0.000000 0.000000 0.000000 0.000000 0.000000 0.035932
#
#
# Mechanical properties :
#
#
# Convention : Reuss Voigt Hill
#
# Bulk Modulus (GPa) = 18.73339 22.84960 20.79150
# Shear Modulus (GPa) = 17.23183 21.79465 19.51324
#
# Velocity S-wave (km/s) = 2.97301 3.34354 3.16370
# Velocity P-wave (km/s) = 4.62538 5.16004 4.90001
#
# Compressibility (1/GPa) = 0.05338063
#
# Stress axis : x y z
#
# Youngs Moduli (GPa) = 38.29187 77.43529 33.75970
#
# Poissons Ratio (x) = 0.25632 0.01901
# Poissons Ratio (y) = 0.12675 0.12699
# Poissons Ratio (z) = 0.02156 0.29128
#
# Static dielectric constant tensor:
#      x y z
#    x 1.659240 0.000000 0.000000 
#    y 0.000000 1.684350 0.000000 
#    z 0.000000 0.000000 1.663470 
# 
# From -- ./inp_files/26982.got.cif
#   From: 2010.05.17/outbox.cif.g08.bks.cpg/sg53_14_cif.got.tgz:26982.got - 2010.06.03 12:45:16.
