data_PCOD9418166
_publ_section_title
;
Structure prediction by ZEFSAII (Michael W. Deem and Ramdas Pophale) SiO2 
 PCOD9418166
Probable space group: P M N A
;
_chemical_formula_sum "Si O2"
_cell_formula_units_Z 56
_cell_length_a 15.341628
_cell_length_b 14.227492
_cell_length_c 12.732055
_cell_angle_alpha 90.000000
_cell_angle_beta 90.000000
_cell_angle_gamma 90.000000
_cell_volume 2779.062436
_symmetry_space_group_name_H-M "P M N A"
_symmetry_group_IT_number 53
_symmetry_cell_setting 'orthorhombic'
loop_
_space_group_symop_operation_xyz
x,y,z
1/2-x,-y,1/2+z
x,-y,-z
1/2-x,y,1/2-z
-x,-y,-z
1/2+x,y,1/2-z
-x,y,z
1/2+x,-y,1/2+z
loop_
_atom_site_type_symbol
_atom_site_label
_atom_site_fract_x
_atom_site_fract_y
_atom_site_fract_z
Si Si1 0.100511 0.582921 0.756952
Si Si2 0.597820 0.796143 0.074005
Si Si3 0.325331 0.373749 0.041644
Si Si4 0.782360 0.890540 0.024082
Si Si5 0.302254 0.589907 0.354590
Si Si6 0.690951 0.761601 0.660509
Si Si7 0.399334 0.222271 0.674636
O O1 0.127797 0.569500 0.634853
O O2 0.153598 0.509650 0.828707
O O3 0.119982 0.691146 0.790082
O O4 0.000000 0.562067 0.769518
O O5 0.500000 0.834672 0.054089
O O6 0.681457 0.856367 0.035717
O O7 0.606644 0.779317 0.198870
O O8 0.607409 0.696488 0.014866
O O9 0.257350 0.310270 0.105787
O O10 0.265791 0.414621 0.949066
O O11 0.834326 0.854648 0.126097
O O12 0.830514 0.835964 0.928389
O O13 0.785003 0.000000 0.000000
O O14 0.250000 0.616774 0.250000
O O15 0.369520 0.675671 0.369353
O O16 0.750000 0.809627 0.750000
O O17 0.500000 0.204551 0.646451
#
# Coordination Sequence:
#
# PCOD9418166 Si02
#       7
#     8   8   8   8   8   8   8
#     4  11  25  41  61  96 135 171 224 277 323 386
#     4  10  20  39  68  98 133 172 214 269 328 391
#     4  10  20  41  64  89 127 176 217 258 319 387
#     4  11  23  41  67  96 130 172 216 272 340 400
#     4  12  21  40  66  92 129 176 220 262 327 388
#     4   9  20  40  61  86 121 171 213 263 322 385
#     4  11  22  40  64  97 133 169 220 270 325 392
#
# _framework density 20.150680999999999
#
# number of rings (size 3 to 8) (size 9 to 14) (size 15 to 20)
#    0.000    1.429    4.286    2.571    0.000    4.571 
#    0.000    1.429    0.000    3.429    0.000    0.000 
#    0.000    0.000    0.000    0.000    0.000    0.000 
#
# Total GULP energy -312512.615537 kJ/mol
# GULP energy per Si atom -5580.582420 kJ/mol
# Density = 2.010482 g / cm^3
# Si number density = 20.150681 Si / 1000 Ang^3
#
#
#
# Elastic Constant Matrix: (Units=GPa)
#
#
# Indices 1 2 3 4 5 6 
#
# 1 113.7982 42.2653 31.0073 0.0000 0.0000 0.0000
# 2 42.2653 92.6545 13.3359 0.0000 0.0000 0.0000
# 3 31.0073 13.3359 79.4039 0.0000 0.0000 0.0000
# 4 0.0000 0.0000 0.0000 11.6052 0.0000 0.0000
# 5 0.0000 0.0000 0.0000 0.0000 15.5107 0.0000
# 6 0.0000 0.0000 0.0000 0.0000 0.0000 11.4512
#
#
#
# Elastic Compliance Matrix: (Units=1/GPa)
#
#
# Indices 1 2 3 4 5 6 
#
# 1 0.011561 -0.004738 -0.003719 0.000000 0.000000 0.000000
# 2 -0.004738 0.013002 -0.000333 0.000000 0.000000 0.000000
# 3 -0.003719 -0.000333 0.014102 0.000000 0.000000 0.000000
# 4 0.000000 0.000000 0.000000 0.086168 0.000000 0.000000
# 5 0.000000 0.000000 0.000000 0.000000 0.064472 0.000000
# 6 0.000000 0.000000 0.000000 0.000000 0.000000 0.087327
#
#
# Mechanical properties :
#
#
# Convention : Reuss Voigt Hill
#
# Bulk Modulus (GPa) = 47.42909 51.00819 49.21864
# Shear Modulus (GPa) = 16.59803 20.99662 18.79733
#
# Velocity S-wave (km/s) = 2.87312 3.23147 3.05755
# Velocity P-wave (km/s) = 5.88173 6.26830 6.07809
#
# Compressibility (1/GPa) = 0.02108411
#
# Stress axis : x y z
#
# Youngs Moduli (GPa) = 86.50120 76.91028 70.91212
#
# Poissons Ratio (x) = 0.36442 0.26370
# Poissons Ratio (y) = 0.40986 0.02364
# Poissons Ratio (z) = 0.32167 0.02564
#
# Static dielectric constant tensor:
#      x y z
#    x 1.700350 0.000000 0.000000 
#    y 0.000000 1.742870 0.000000 
#    z 0.000000 0.000000 1.784570 
# 
# From -- ./inp_files/16042.got.cif
#   From: 2010.05.17/outbox.cif.g08.bks.cpg/sg53_9_cif.got.tgz:16042.got - 2010.06.03 12:45:16.
