data_PCOD9418036
_publ_section_title
;
Structure prediction by ZEFSAII (Michael W. Deem and Ramdas Pophale) SiO2 
 PCOD9418036
Probable space group: P M N A
;
_chemical_formula_sum "Si O2"
_cell_formula_units_Z 58
_cell_length_a 10.756419
_cell_length_b 7.506653
_cell_length_c 35.324336
_cell_angle_alpha 90.000000
_cell_angle_beta 90.000000
_cell_angle_gamma 90.000000
_cell_volume 2852.253088
_symmetry_space_group_name_H-M "P M N A"
_symmetry_group_IT_number 53
_symmetry_cell_setting 'orthorhombic'
loop_
_space_group_symop_operation_xyz
x,y,z
1/2-x,-y,1/2+z
x,-y,-z
1/2-x,y,1/2-z
-x,-y,-z
1/2+x,y,1/2-z
-x,y,z
1/2+x,-y,1/2+z
loop_
_atom_site_type_symbol
_atom_site_label
_atom_site_fract_x
_atom_site_fract_y
_atom_site_fract_z
Si Si1 0.734893 0.997308 0.555387
Si Si2 0.135307 0.645411 0.225486
Si Si3 0.855093 0.074928 0.220156
Si Si4 0.642541 0.634587 0.969951
Si Si5 0.643630 0.850833 0.633879
Si Si6 0.361939 0.568223 0.362657
Si Si7 0.360480 0.678753 0.087852
Si Si8 0.000000 0.000000 0.000000
O O1 0.794004 0.822080 0.536594
O O2 0.711544 0.944469 0.599260
O O3 0.609214 0.032613 0.532474
O O4 0.823340 0.169251 0.557632
O O5 0.250000 0.580419 0.250000
O O6 0.144562 0.580802 0.182515
O O7 0.000000 0.591997 0.240818
O O8 0.139130 0.860524 0.224180
O O9 0.750000 0.138297 0.250000
O O10 0.814058 0.115289 0.176985
O O11 0.000000 0.139292 0.225218
O O12 0.500000 0.666302 0.981985
O O13 0.640062 0.513872 0.932272
O O14 0.704762 0.500000 0.000000
O O15 0.500000 0.909946 0.633245
O O16 0.646235 0.639223 0.626762
O O17 0.500000 0.634005 0.374332
O O18 0.248158 0.671122 0.381256
O O19 0.500000 0.713168 0.102278
#
# Coordination Sequence:
#
# PCOD9418036 Si02
#       8
#     8   8   8   8   8   8   8   2
#     4  12  23  43  63  97 130 170 215 279 326 391
#     4   9  18  33  54  81 118 161 210 261 321 377
#     4   9  18  34  56  85 119 163 208 259 311 383
#     4  10  22  43  66  88 124 167 206 261 328 389
#     4  10  20  38  62  86 127 170 210 262 329 387
#     4  10  21  38  61  91 120 169 215 266 327 390
#     4  11  24  41  65  94 124 165 214 262 321 395
#     4  12  28  40  68 104 132 162 234 276 330 392
#
# _framework density 20.334800999999999
#
# number of rings (size 3 to 8) (size 9 to 14) (size 15 to 20)
#    0.000    1.793    2.069    2.069    0.966    2.207 
#    0.000    8.621    0.000    0.000    0.000    0.000 
#    0.000    0.000    0.000    0.000    0.000    0.000 
#
# Total GULP energy -323202.687752 kJ/mol
# GULP energy per Si atom -5572.460134 kJ/mol
# Density = 2.028852 g / cm^3
# Si number density = 20.334801 Si / 1000 Ang^3
#
#
#
# Elastic Constant Matrix: (Units=GPa)
#
#
# Indices 1 2 3 4 5 6 
#
# 1 140.9241 32.3293 50.5947 0.0000 0.0000 0.0000
# 2 32.3293 75.6992 -3.1415 0.0000 0.0000 0.0000
# 3 50.5947 -3.1415 81.0103 0.0000 0.0000 0.0000
# 4 0.0000 0.0000 0.0000 28.0530 0.0000 0.0000
# 5 0.0000 0.0000 0.0000 0.0000 37.2822 0.0000
# 6 0.0000 0.0000 0.0000 0.0000 0.0000 13.4175
#
#
#
# Elastic Compliance Matrix: (Units=1/GPa)
#
#
# Indices 1 2 3 4 5 6 
#
# 1 0.010665 -0.004839 -0.006848 0.000000 0.000000 0.000000
# 2 -0.004839 0.015427 0.003620 0.000000 0.000000 0.000000
# 3 -0.006848 0.003620 0.016762 0.000000 0.000000 0.000000
# 4 0.000000 0.000000 0.000000 0.035647 0.000000 0.000000
# 5 0.000000 0.000000 0.000000 0.000000 0.026822 0.000000
# 6 0.000000 0.000000 0.000000 0.000000 0.000000 0.074529
#
#
# Mechanical properties :
#
#
# Convention : Reuss Voigt Hill
#
# Bulk Modulus (GPa) = 37.42558 50.79986 44.11272
# Shear Modulus (GPa) = 24.40307 30.27395 27.33851
#
# Velocity S-wave (km/s) = 3.46795 3.86265 3.67061
# Velocity P-wave (km/s) = 5.87199 6.70294 6.30118
#
# Compressibility (1/GPa) = 0.02671969
#
# Stress axis : x y z
#
# Youngs Moduli (GPa) = 93.76653 64.82146 59.66019
#
# Poissons Ratio (x) = 0.31366 0.40857
# Poissons Ratio (y) = 0.45372 -0.21599
# Poissons Ratio (z) = 0.64214 -0.23468
#
# Static dielectric constant tensor:
#      x y z
#    x 1.721150 0.000000 0.000000 
#    y 0.000000 1.750900 0.000000 
#    z 0.000000 0.000000 1.734320 
# 
# From -- ./inp_files/38676.got.cif
#   From: 2010.05.17/outbox.cif.g08.bks.cpg/sg53_20_cif.got.tgz:38676.got - 2010.06.03 12:45:16.
