data_PCOD9418182
_publ_section_title
;
Structure prediction by ZEFSAII (Michael W. Deem and Ramdas Pophale) SiO2 
 PCOD9418182
Probable space group: P M N A
;
_chemical_formula_sum "Si O2"
_cell_formula_units_Z 34
_cell_length_a 20.116470
_cell_length_b 9.691863
_cell_length_c 7.580177
_cell_angle_alpha 90.000000
_cell_angle_beta 90.000000
_cell_angle_gamma 90.000000
_cell_volume 1477.877329
_symmetry_space_group_name_H-M "P M N A"
_symmetry_group_IT_number 53
_symmetry_cell_setting 'orthorhombic'
loop_
_space_group_symop_operation_xyz
x,y,z
1/2-x,-y,1/2+z
x,-y,-z
1/2-x,y,1/2-z
-x,-y,-z
1/2+x,y,1/2-z
-x,y,z
1/2+x,-y,1/2+z
loop_
_atom_site_type_symbol
_atom_site_label
_atom_site_fract_x
_atom_site_fract_y
_atom_site_fract_z
Si Si1 0.365129 0.842322 0.511853
Si Si2 0.000000 0.279327 0.904134
Si Si3 0.756858 0.661754 0.538425
Si Si4 0.500000 0.560637 0.781642
Si Si5 0.895965 0.236787 0.415855
Si Si6 0.000000 0.000000 0.500000
O O1 0.433575 0.812176 0.407755
O O2 0.306799 0.738214 0.457691
O O3 0.381181 0.816528 0.717440
O O4 0.343755 0.000000 0.500000
O O5 0.000000 0.398795 0.758249
O O6 0.000000 0.362487 0.090600
O O7 0.756565 0.500000 0.500000
O O8 0.750000 0.676985 0.750000
O O9 0.826806 0.731130 0.489126
O O10 0.563769 0.621825 0.880889
O O11 0.942478 0.121693 0.499478
#
# Coordination Sequence:
#
# PCOD9418182 Si02
#       6
#     8   4   8   4   8   2
#     4  10  21  37  60  90 122 158 201 257 308 364
#     4   9  17  29  60  88 120 145 208 250 307 352
#     4  10  23  42  63  87 126 164 206 257 311 369
#     4   8  16  32  59  86 112 163 186 253 302 358
#     4   9  20  39  60  84 127 160 205 244 310 367
#     4  10  20  40  64  86 124 174 196 250 314 366
#
# _framework density 23.005967999999999
#
# number of rings (size 3 to 8) (size 9 to 14) (size 15 to 20)
#    0.000    2.588    0.000    1.059   11.529    0.000 
#    4.235    4.706    0.000    0.000    0.000    0.000 
#    0.000    0.000    0.000    0.000    0.000    0.000 
#
# Total GULP energy -189688.884283 kJ/mol
# GULP energy per Si atom -5579.084832 kJ/mol
# Density = 2.295361 g / cm^3
# Si number density = 23.005968 Si / 1000 Ang^3
#
#
#
# Elastic Constant Matrix: (Units=GPa)
#
#
# Indices 1 2 3 4 5 6 
#
# 1 211.0079 85.1175 18.6862 0.0000 0.0000 0.0000
# 2 85.1175 168.4163 14.8910 0.0000 0.0000 0.0000
# 3 18.6862 14.8910 68.5159 0.0000 0.0000 0.0000
# 4 0.0000 0.0000 0.0000 21.8510 0.0000 0.0000
# 5 0.0000 0.0000 0.0000 0.0000 -25.6797 0.0000
# 6 0.0000 0.0000 0.0000 0.0000 0.0000 12.7389
#
#
#
# Elastic Compliance Matrix: (Units=1/GPa)
#
#
# Indices 1 2 3 4 5 6 
#
# 1 0.006019 -0.002954 -0.001000 0.000000 0.000000 0.000000
# 2 -0.002954 0.007503 -0.000825 0.000000 0.000000 0.000000
# 3 -0.001000 -0.000825 0.015047 0.000000 0.000000 0.000000
# 4 0.000000 0.000000 0.000000 0.045765 0.000000 0.000000
# 5 0.000000 0.000000 0.000000 0.000000 -0.038941 0.000000
# 6 0.000000 0.000000 0.000000 0.000000 0.000000 0.078500
#
#
# Mechanical properties :
#
#
# Convention : Reuss Voigt Hill
#
# Bulk Modulus (GPa) = 52.59666 76.14770 64.37218
# Shear Modulus (GPa) = 38.52452 23.73172 31.12812
#
# Velocity S-wave (km/s) = 4.09656 3.21525 3.68237
# Velocity P-wave (km/s) = 6.72960 6.85236 6.79126
#
# Compressibility (1/GPa) = 0.01901261
#
# Stress axis : x y z
#
# Youngs Moduli (GPa) = 166.13606 133.27243 66.45787
#
# Poissons Ratio (x) = 0.39365 0.06643
# Poissons Ratio (y) = 0.49072 0.05484
# Poissons Ratio (z) = 0.16608 0.10998
#
# Static dielectric constant tensor:
#      x y z
#    x 1.854530 0.000000 0.000000 
#    y 0.000000 1.775450 0.000000 
#    z 0.000000 0.000000 1.920810 
# 
# From -- ./inp_files/10620.got.cif
#   From: 2010.05.17/outbox.cif.g08.bks.cpg/sg53_6_cif.got.tgz:10620.got - 2010.06.03 12:45:16.
