data_PCOD9418930
_publ_section_title
;
Structure prediction by ZEFSAII (Michael W. Deem and Ramdas Pophale) SiO2 
 PCOD9418930
Probable space group: P M N A
;
_chemical_formula_sum "Si O2"
_cell_formula_units_Z 64
_cell_length_a 17.327337
_cell_length_b 12.464633
_cell_length_c 13.920742
_cell_angle_alpha 90.000000
_cell_angle_beta 90.000000
_cell_angle_gamma 90.000000
_cell_volume 3006.586497
_symmetry_space_group_name_H-M "P M N A"
_symmetry_group_IT_number 53
_symmetry_cell_setting 'orthorhombic'
loop_
_space_group_symop_operation_xyz
x,y,z
1/2-x,-y,1/2+z
x,-y,-z
1/2-x,y,1/2-z
-x,-y,-z
1/2+x,y,1/2-z
-x,y,z
1/2+x,-y,1/2+z
loop_
_atom_site_type_symbol
_atom_site_label
_atom_site_fract_x
_atom_site_fract_y
_atom_site_fract_z
Si Si1 0.584602 0.437697 0.192266
Si Si2 0.634849 0.485272 0.399369
Si Si3 0.785977 0.588655 0.356319
Si Si4 0.091323 0.062903 0.098222
Si Si5 0.127972 0.217401 0.388569
Si Si6 0.709008 0.254983 0.356763
Si Si7 0.087500 0.768201 0.398936
Si Si8 0.591009 0.990425 0.195951
O O1 0.500000 0.461863 0.151066
O O2 0.589409 0.492589 0.298051
O O3 0.658214 0.484734 0.136796
O O4 0.596029 0.308642 0.184549
O O5 0.591012 0.500000 0.500000
O O6 0.706605 0.568078 0.412202
O O7 0.671743 0.368794 0.379120
O O8 0.750000 0.596237 0.250000
O O9 0.846672 0.682449 0.374789
O O10 0.146901 0.163262 0.119830
O O11 0.102427 0.985500 0.189897
O O12 0.000000 0.094649 0.096447
O O13 0.108478 0.000000 0.000000
O O14 0.215248 0.240634 0.420329
O O15 0.081589 0.222342 0.486646
O O16 0.127299 0.099706 0.343027
O O17 0.750000 0.250751 0.250000
O O18 0.000000 0.743902 0.361728
O O19 0.114221 0.882209 0.356465
O O20 0.500000 0.003325 0.177691
#
# Coordination Sequence:
#
# PCOD9418930 Si02
#       8
#     8   8   8   8   8   8   8   8
#     4  11  22  38  65  93 125 169 218 270 329 399
#     4  11  22  41  63  89 130 170 216 280 340 390
#     4  10  22  43  62  87 126 172 211 267 331 388
#     4  10  23  45  70  98 135 183 232 281 337 400
#     4  12  22  39  65 100 132 167 215 275 332 396
#     4  12  21  42  68  97 132 173 225 277 332 399
#     4  11  24  41  64  96 132 173 218 266 334 411
#     4  10  21  40  63  92 135 170 209 272 332 392
#
# _framework density 21.286598999999999
#
# number of rings (size 3 to 8) (size 9 to 14) (size 15 to 20)
#    0.000    1.125    3.750    3.000    0.000    3.750 
#    9.000    1.250    0.000    0.000    0.000    0.000 
#    0.000    0.000    0.000    0.000    0.000    0.000 
#
# Total GULP energy -356898.927230 kJ/mol
# GULP energy per Si atom -5576.545738 kJ/mol
# Density = 2.123815 g / cm^3
# Si number density = 21.286599 Si / 1000 Ang^3
#
#
#
# Elastic Constant Matrix: (Units=GPa)
#
#
# Indices 1 2 3 4 5 6 
#
# 1 96.6377 34.0109 24.6945 0.0000 0.0000 0.0000
# 2 34.0109 107.0671 16.2623 0.0000 0.0000 0.0000
# 3 24.6945 16.2623 39.7916 0.0000 0.0000 0.0000
# 4 0.0000 0.0000 0.0000 20.9597 0.0000 0.0000
# 5 0.0000 0.0000 0.0000 0.0000 1.5405 0.0000
# 6 0.0000 0.0000 0.0000 0.0000 0.0000 -4.5706
#
#
#
# Elastic Compliance Matrix: (Units=1/GPa)
#
#
# Indices 1 2 3 4 5 6 
#
# 1 0.013225 -0.003150 -0.006920 0.000000 0.000000 0.000000
# 2 -0.003150 0.010708 -0.002422 0.000000 0.000000 0.000000
# 3 -0.006920 -0.002422 0.030415 0.000000 0.000000 0.000000
# 4 0.000000 0.000000 0.000000 0.047711 0.000000 0.000000
# 5 0.000000 0.000000 0.000000 0.000000 0.649150 0.000000
# 6 0.000000 0.000000 0.000000 0.000000 0.000000 -0.218792
#
#
# Mechanical properties :
#
#
# Convention : Reuss Voigt Hill
#
# Bulk Modulus (GPa) = 34.05363 43.71466 38.88415
# Shear Modulus (GPa) = 8.81541 14.82117 11.81829
#
# Velocity S-wave (km/s) = 2.03722 2.64155 2.35882
# Velocity P-wave (km/s) = 4.64393 5.46668 5.07201
#
# Compressibility (1/GPa) = 0.02936544
#
# Stress axis : x y z
#
# Youngs Moduli (GPa) = 75.61538 93.38503 32.87844
#
# Poissons Ratio (x) = 0.29416 0.22752
# Poissons Ratio (y) = 0.23818 0.07962
# Poissons Ratio (z) = 0.52325 0.22614
#
# Static dielectric constant tensor:
#      x y z
#    x 1.803530 0.000000 0.000000 
#    y 0.000000 1.780010 0.000000 
#    z 0.000000 0.000000 1.839680 
# 
# From -- ./inp_files/23939.got.cif
#   From: 2010.05.17/outbox.cif.g08.bks.cpg/sg53_12_cif.got.tgz:23939.got - 2010.06.03 12:45:16.
