data_PCOD9418954
_publ_section_title
;
Structure prediction by ZEFSAII (Michael W. Deem and Ramdas Pophale) SiO2 
 PCOD9418954
Probable space group: P M N A
;
_chemical_formula_sum "Si O2"
_cell_formula_units_Z 58
_cell_length_a 17.877696
_cell_length_b 16.316728
_cell_length_c 10.133743
_cell_angle_alpha 90.000000
_cell_angle_beta 90.000000
_cell_angle_gamma 90.000000
_cell_volume 2956.068598
_symmetry_space_group_name_H-M "P M N A"
_symmetry_group_IT_number 53
_symmetry_cell_setting 'orthorhombic'
loop_
_space_group_symop_operation_xyz
x,y,z
1/2-x,-y,1/2+z
x,-y,-z
1/2-x,y,1/2-z
-x,-y,-z
1/2+x,y,1/2-z
-x,y,z
1/2+x,-y,1/2+z
loop_
_atom_site_type_symbol
_atom_site_label
_atom_site_fract_x
_atom_site_fract_y
_atom_site_fract_z
Si Si1 0.915929 0.829046 0.472780
Si Si2 0.665450 0.911411 0.786981
Si Si3 0.238990 0.425858 0.096932
Si Si4 0.000000 0.500000 0.500000
Si Si5 0.913925 0.151862 0.030137
Si Si6 0.165020 0.896456 0.231471
Si Si7 0.083332 0.339076 0.104829
Si Si8 0.107121 0.347490 0.417036
O O1 0.860529 0.874665 0.574208
O O2 0.889818 0.845952 0.325030
O O3 0.914591 0.732615 0.502188
O O4 0.000000 0.860293 0.494826
O O5 0.750000 0.885868 0.750000
O O6 0.610925 0.878804 0.673378
O O7 0.662475 0.009668 0.780659
O O8 0.250000 0.450719 0.250000
O O9 0.155250 0.393568 0.072188
O O10 0.303487 0.358950 0.074204
O O11 0.253570 0.500000 0.000000
O O12 0.935140 0.570315 0.536223
O O13 0.908570 0.250522 0.037085
O O14 0.000000 0.129540 0.003752
O O15 0.861407 0.113179 0.918638
O O16 0.250000 0.867454 0.250000
O O17 0.087053 0.330550 0.263885
O O18 0.000000 0.371896 0.071909
#
# Coordination Sequence:
#
# PCOD9418954 Si02
#       8
#     8   8   8   2   8   8   8   8
#     4  12  24  41  67  99 129 169 224 278 334 385
#     4  11  24  41  68  96 129 176 224 272 332 392
#     4  10  23  41  64  93 123 161 210 260 322 394
#     4  12  20  40  72  96 134 158 214 280 328 392
#     4  11  23  41  66  93 127 176 222 266 326 396
#     4  11  26  44  60  94 139 176 217 276 335 393
#     4  10  21  40  65  93 128 165 215 264 317 393
#     4  11  22  40  67  98 124 169 214 272 328 393
#
# _framework density 19.620653000000001
#
# number of rings (size 3 to 8) (size 9 to 14) (size 15 to 20)
#    0.000    1.103    3.448    2.483    3.862    5.793 
#    2.483    0.000    6.069    0.000    0.000    0.000 
#    0.000    0.000    0.000    0.000    0.000    0.000 
#
# Total GULP energy -323555.931753 kJ/mol
# GULP energy per Si atom -5578.550547 kJ/mol
# Density = 1.957600 g / cm^3
# Si number density = 19.620653 Si / 1000 Ang^3
#
#
#
# Elastic Constant Matrix: (Units=GPa)
#
#
# Indices 1 2 3 4 5 6 
#
# 1 126.1810 9.4584 -6.1337 0.0000 0.0000 0.0000
# 2 9.4584 49.9264 3.6455 0.0000 0.0000 0.0000
# 3 -6.1337 3.6455 24.1599 0.0000 0.0000 0.0000
# 4 0.0000 0.0000 0.0000 17.8670 0.0000 0.0000
# 5 0.0000 0.0000 0.0000 0.0000 17.7647 0.0000
# 6 0.0000 0.0000 0.0000 0.0000 0.0000 27.4368
#
#
#
# Elastic Compliance Matrix: (Units=1/GPa)
#
#
# Indices 1 2 3 4 5 6 
#
# 1 0.008167 -0.001718 0.002333 0.000000 0.000000 0.000000
# 2 -0.001718 0.020614 -0.003546 0.000000 0.000000 0.000000
# 3 0.002333 -0.003546 0.042518 0.000000 0.000000 0.000000
# 4 0.000000 0.000000 0.000000 0.055969 0.000000 0.000000
# 5 0.000000 0.000000 0.000000 0.000000 0.056291 0.000000
# 6 0.000000 0.000000 0.000000 0.000000 0.000000 0.036447
#
#
# Mechanical properties :
#
#
# Convention : Reuss Voigt Hill
#
# Bulk Modulus (GPa) = 15.28197 23.80084 19.54141
# Shear Modulus (GPa) = 20.18716 25.50017 22.84366
#
# Velocity S-wave (km/s) = 3.21108 3.60899 3.41584
# Velocity P-wave (km/s) = 4.64260 5.43353 5.05356
#
# Compressibility (1/GPa) = 0.06543657
#
# Stress axis : x y z
#
# Youngs Moduli (GPa) = 122.44005 48.51115 23.51932
#
# Poissons Ratio (x) = 0.08332 -0.05486
# Poissons Ratio (y) = 0.21030 0.08341
# Poissons Ratio (z) = -0.28561 0.17204
#
# Static dielectric constant tensor:
#      x y z
#    x 1.717480 0.000000 0.000000 
#    y 0.000000 1.670400 0.000000 
#    z 0.000000 0.000000 1.657900 
# 
# From -- ./inp_files/10172.got.cif
#   From: 2010.05.17/outbox.cif.g08.bks.cpg/sg53_6_cif.got.tgz:10172.got - 2010.06.03 12:45:16.
