data_PCOD9418725
_publ_section_title
;
Structure prediction by ZEFSAII (Michael W. Deem and Ramdas Pophale) SiO2 
 PCOD9418725
Probable space group: P M N A
;
_chemical_formula_sum "Si O2"
_cell_formula_units_Z 44
_cell_length_a 7.269626
_cell_length_b 31.138314
_cell_length_c 8.050370
_cell_angle_alpha 90.000000
_cell_angle_beta 90.000000
_cell_angle_gamma 90.000000
_cell_volume 1822.313126
_symmetry_space_group_name_H-M "P M N A"
_symmetry_group_IT_number 53
_symmetry_cell_setting 'orthorhombic'
loop_
_space_group_symop_operation_xyz
x,y,z
1/2-x,-y,1/2+z
x,-y,-z
1/2-x,y,1/2-z
-x,-y,-z
1/2+x,y,1/2-z
-x,y,z
1/2+x,-y,1/2+z
loop_
_atom_site_type_symbol
_atom_site_label
_atom_site_fract_x
_atom_site_fract_y
_atom_site_fract_z
Si Si1 0.217369 0.637481 0.940835
Si Si2 0.000000 0.794198 0.577897
Si Si3 0.782135 0.272181 0.939811
Si Si4 0.718046 0.861504 0.441827
Si Si5 0.218247 0.546284 0.055167
Si Si6 0.717809 0.046189 0.445116
O O1 0.250000 0.648532 0.750000
O O2 0.000000 0.634545 0.973146
O O3 0.280452 0.678154 0.046865
O O4 0.293518 0.589920 0.974428
O O5 0.839374 0.756894 0.558480
O O6 0.839222 0.831439 0.557446
O O7 0.750000 0.257394 0.750000
O O8 0.000000 0.268968 0.977541
O O9 0.750000 0.848393 0.250000
O O10 0.500000 0.857785 0.479113
O O11 0.780775 0.910938 0.462214
O O12 0.250000 0.550418 0.250000
O O13 0.000000 0.545131 0.018480
O O14 0.293112 0.500000 0.000000
O O15 0.750000 0.051816 0.250000
O O16 0.500000 0.044741 0.476637
O O17 0.794078 0.000000 0.500000
#
# Coordination Sequence:
#
# PCOD9418725 Si02
#       6
#     8   4   8   8   8   8
#     4  10  23  40  61  88 123 161 209 259 313 378
#     4  12  24  40  67  92 127 170 207 270 321 374
#     4  11  23  39  64  93 122 160 217 266 317 378
#     4  11  23  39  65  97 131 166 214 257 313 378
#     4  10  21  38  61  93 128 162 204 250 308 379
#     4  10  23  42  66  96 130 166 211 255 307 375
#
# _framework density 24.145136999999998
#
# number of rings (size 3 to 8) (size 9 to 14) (size 15 to 20)
#    0.000    1.455    1.818    2.727    2.545    1.455 
#    0.000    0.909    0.000    0.000    0.000    0.000 
#    0.000    0.000    0.000    0.000    0.000    0.000 
#
# Total GULP energy -245195.528115 kJ/mol
# GULP energy per Si atom -5572.625639 kJ/mol
# Density = 2.409018 g / cm^3
# Si number density = 24.145137 Si / 1000 Ang^3
#
#
#
# Elastic Constant Matrix: (Units=GPa)
#
#
# Indices 1 2 3 4 5 6 
#
# 1 166.2478 51.6713 -15.3454 0.0000 0.0000 0.0000
# 2 51.6713 194.8250 7.1806 0.0000 0.0000 0.0000
# 3 -15.3454 7.1806 58.1053 0.0000 0.0000 0.0000
# 4 0.0000 0.0000 0.0000 -66.0446 0.0000 0.0000
# 5 0.0000 0.0000 0.0000 0.0000 16.4978 0.0000
# 6 0.0000 0.0000 0.0000 0.0000 0.0000 -8.7126
#
#
#
# Elastic Compliance Matrix: (Units=1/GPa)
#
#
# Indices 1 2 3 4 5 6 
#
# 1 0.006784 -0.001874 0.002023 0.000000 0.000000 0.000000
# 2 -0.001874 0.005674 -0.001196 0.000000 0.000000 0.000000
# 3 0.002023 -0.001196 0.017892 0.000000 0.000000 0.000000
# 4 0.000000 0.000000 0.000000 -0.015141 0.000000 0.000000
# 5 0.000000 0.000000 0.000000 0.000000 0.060614 0.000000
# 6 0.000000 0.000000 0.000000 0.000000 0.000000 -0.114777
#
#
# Mechanical properties :
#
#
# Convention : Reuss Voigt Hill
#
# Bulk Modulus (GPa) = 35.38932 56.24346 45.81639
# Shear Modulus (GPa) = -182.20849 13.39289 -84.40780
#
# Velocity S-wave (km/s) = -8.69642 2.35772 -5.91899
# Velocity P-wave (km/s) = 9.28160 5.54584 5.26269
#
# Compressibility (1/GPa) = 0.02825712
#
# Stress axis : x y z
#
# Youngs Moduli (GPa) = 147.39921 176.24601 55.88998
#
# Poissons Ratio (x) = 0.33027 -0.11308
# Poissons Ratio (y) = 0.27621 0.06685
# Poissons Ratio (z) = -0.29823 0.21080
#
# Static dielectric constant tensor:
#      x y z
#    x 1.890310 0.000000 0.000000 
#    y 0.000000 1.957430 0.000000 
#    z 0.000000 0.000000 1.919730 
# 
# From -- ./inp_files/6534.got.cif
#   From: 2010.05.17/outbox.cif.g08.bks.cpg/sg53_4_cif.got.tgz:6534.got - 2010.06.03 12:45:16.
