data_PCOD9418885
_publ_section_title
;
Structure prediction by ZEFSAII (Michael W. Deem and Ramdas Pophale) SiO2 
 PCOD9418885
Probable space group: P M N A
;
_chemical_formula_sum "Si O2"
_cell_formula_units_Z 38
_cell_length_a 16.653874
_cell_length_b 11.252292
_cell_length_c 10.342072
_cell_angle_alpha 90.000000
_cell_angle_beta 90.000000
_cell_angle_gamma 90.000000
_cell_volume 1938.044859
_symmetry_space_group_name_H-M "P M N A"
_symmetry_group_IT_number 53
_symmetry_cell_setting 'orthorhombic'
loop_
_space_group_symop_operation_xyz
x,y,z
1/2-x,-y,1/2+z
x,-y,-z
1/2-x,y,1/2-z
-x,-y,-z
1/2+x,y,1/2-z
-x,y,z
1/2+x,-y,1/2+z
loop_
_atom_site_type_symbol
_atom_site_label
_atom_site_fract_x
_atom_site_fract_y
_atom_site_fract_z
Si Si1 0.850133 0.161989 0.076802
Si Si2 0.304678 0.218393 0.927585
Si Si3 0.000000 0.000000 0.000000
Si Si4 0.750000 0.979090 0.250000
Si Si5 0.813019 0.521539 0.357876
Si Si6 0.406321 0.708635 0.830391
O O1 0.875163 0.251717 0.190542
O O2 0.799366 0.059714 0.150989
O O3 0.788162 0.219675 0.975346
O O4 0.928776 0.102049 0.017584
O O5 0.308565 0.105265 0.834230
O O6 0.328604 0.338207 0.851903
O O7 0.357826 0.220906 0.057667
O O8 0.777039 0.500000 0.500000
O O9 0.750000 0.486206 0.250000
O O10 0.886869 0.430786 0.349793
O O11 0.500000 0.733217 0.842025
#
# Coordination Sequence:
#
# PCOD9418885 Si02
#       6
#     8   8   2   4   8   8
#     4  12  23  41  67  96 131 174 223 270 333 400
#     4  11  22  40  65  94 126 171 219 271 327 405
#     4  12  24  40  64 102 138 176 222 276 332 390
#     4  12  22  40  66  90 128 170 222 260 328 406
#     4  10  21  39  66  92 124 171 221 269 331 398
#     4  11  23  40  65  97 132 169 218 275 333 394
#
# _framework density 19.607389999999999
#
# number of rings (size 3 to 8) (size 9 to 14) (size 15 to 20)
#    0.000    0.842    6.316    2.526    0.000    3.789 
#    1.895    1.053    6.947    1.895    0.000    0.000 
#    0.000    0.000    0.000    0.000    0.000    0.000 
#
# Total GULP energy -211648.960057 kJ/mol
# GULP energy per Si atom -5569.709475 kJ/mol
# Density = 1.956276 g / cm^3
# Si number density = 19.607390 Si / 1000 Ang^3
#
#
#
# Elastic Constant Matrix: (Units=GPa)
#
#
# Indices 1 2 3 4 5 6 
#
# 1 77.8924 28.0693 10.7501 0.0000 0.0000 0.0000
# 2 28.0693 101.2292 10.5996 0.0000 0.0000 0.0000
# 3 10.7501 10.5996 48.3978 0.0000 0.0000 0.0000
# 4 0.0000 0.0000 0.0000 31.7921 0.0000 0.0000
# 5 0.0000 0.0000 0.0000 0.0000 11.6648 0.0000
# 6 0.0000 0.0000 0.0000 0.0000 0.0000 18.5418
#
#
#
# Elastic Compliance Matrix: (Units=1/GPa)
#
#
# Indices 1 2 3 4 5 6 
#
# 1 0.014531 -0.003778 -0.002400 0.000000 0.000000 0.000000
# 2 -0.003778 0.011093 -0.001590 0.000000 0.000000 0.000000
# 3 -0.002400 -0.001590 0.021544 0.000000 0.000000 0.000000
# 4 0.000000 0.000000 0.000000 0.031454 0.000000 0.000000
# 5 0.000000 0.000000 0.000000 0.000000 0.085728 0.000000
# 6 0.000000 0.000000 0.000000 0.000000 0.000000 0.053932
#
#
# Mechanical properties :
#
#
# Convention : Reuss Voigt Hill
#
# Bulk Modulus (GPa) = 31.61517 36.26191 33.93854
# Shear Modulus (GPa) = 20.46144 24.27308 22.36726
#
# Velocity S-wave (km/s) = 3.23392 3.52228 3.38117
# Velocity P-wave (km/s) = 5.48666 5.92250 5.70874
#
# Compressibility (1/GPa) = 0.03163039
#
# Stress axis : x y z
#
# Youngs Moduli (GPa) = 68.81902 90.14992 46.41770
#
# Poissons Ratio (x) = 0.34057 0.11141
# Poissons Ratio (y) = 0.25999 0.07382
# Poissons Ratio (z) = 0.16518 0.14336
#
# Static dielectric constant tensor:
#      x y z
#    x 1.646910 0.000000 0.000000 
#    y 0.000000 1.744670 0.000000 
#    z 0.000000 0.000000 1.742280 
# 
# From -- ./inp_files/15800.got.cif
#   From: 2010.05.17/outbox.cif.g08.bks.cpg/sg53_8_cif.got.tgz:15800.got - 2010.06.03 12:45:16.
