data_PCOD9418463
_publ_section_title
;
Structure prediction by ZEFSAII (Michael W. Deem and Ramdas Pophale) SiO2 
 PCOD9418463
Probable space group: P M N A
;
_chemical_formula_sum "Si O2"
_cell_formula_units_Z 64
_cell_length_a 16.102632
_cell_length_b 19.071488
_cell_length_c 9.598126
_cell_angle_alpha 90.000000
_cell_angle_beta 90.000000
_cell_angle_gamma 90.000000
_cell_volume 2947.595561
_symmetry_space_group_name_H-M "P M N A"
_symmetry_group_IT_number 53
_symmetry_cell_setting 'orthorhombic'
loop_
_space_group_symop_operation_xyz
x,y,z
1/2-x,-y,1/2+z
x,-y,-z
1/2-x,y,1/2-z
-x,-y,-z
1/2+x,y,1/2-z
-x,y,z
1/2+x,-y,1/2+z
loop_
_atom_site_type_symbol
_atom_site_label
_atom_site_fract_x
_atom_site_fract_y
_atom_site_fract_z
Si Si1 0.405042 0.421040 0.442791
Si Si2 0.094892 0.601950 0.616779
Si Si3 0.675813 0.986860 0.658482
Si Si4 0.811644 0.769155 0.370039
Si Si5 0.594677 0.153773 0.391219
Si Si6 0.825813 0.255419 0.327796
Si Si7 0.263820 0.608727 0.098016
Si Si8 0.904220 0.868065 0.202985
O O1 0.404425 0.500000 0.500000
O O2 0.500000 0.392089 0.467894
O O3 0.393398 0.423530 0.275866
O O4 0.325846 0.385050 0.520012
O O5 0.107165 0.686266 0.631190
O O6 0.167248 0.578768 0.509273
O O7 0.000000 0.585646 0.572479
O O8 0.750000 0.957515 0.750000
O O9 0.605650 0.927951 0.645410
O O10 0.703964 0.000000 0.500000
O O11 0.645924 0.060070 0.723989
O O12 0.750000 0.796606 0.250000
O O13 0.797776 0.783391 0.531893
O O14 0.803052 0.685097 0.365249
O O15 0.893546 0.809115 0.320224
O O16 0.500000 0.175537 0.381037
O O17 0.643411 0.200442 0.283308
O O18 0.620489 0.162415 0.551723
O O19 0.750000 0.294265 0.250000
O O20 0.250000 0.573519 0.250000
O O21 0.000000 0.888524 0.189727
#
# Coordination Sequence:
#
# PCOD9418463 Si02
#       8
#     8   8   8   8   8   8   8   8
#     4  10  22  42  68  97 129 169 219 270 321 381
#     4  10  21  39  64  93 128 169 211 260 317 374
#     4  10  21  37  56  78 106 144 191 243 305 375
#     4  10  21  37  55  81 117 153 195 242 296 362
#     4  10  21  37  57  82 110 146 197 252 309 373
#     4  11  21  35  58  86 120 159 205 254 305 367
#     4  10  22  39  62  92 128 169 211 257 312 376
#     4  10  21  37  57  79 111 153 193 244 306 370
#
# _framework density 21.712613999999999
#
# number of rings (size 3 to 8) (size 9 to 14) (size 15 to 20)
#    0.000    1.875    0.000    4.125    0.000    9.500 
#    0.000    4.375    0.000    4.875    0.000    0.000 
#    0.000    0.000    0.000    0.000    0.000    0.000 
#
# Total GULP energy -356934.189016 kJ/mol
# GULP energy per Si atom -5577.096703 kJ/mol
# Density = 2.166320 g / cm^3
# Si number density = 21.712614 Si / 1000 Ang^3
#
#
#
# Elastic Constant Matrix: (Units=GPa)
#
#
# Indices 1 2 3 4 5 6 
#
# 1 103.9089 17.6972 56.7911 0.0000 0.0000 0.0000
# 2 17.6972 63.2101 32.8466 0.0000 0.0000 0.0000
# 3 56.7911 32.8466 126.2127 0.0000 0.0000 0.0000
# 4 0.0000 0.0000 0.0000 21.2364 0.0000 0.0000
# 5 0.0000 0.0000 0.0000 0.0000 29.0900 0.0000
# 6 0.0000 0.0000 0.0000 0.0000 0.0000 -9.7016
#
#
#
# Elastic Compliance Matrix: (Units=1/GPa)
#
#
# Indices 1 2 3 4 5 6 
#
# 1 0.012788 -0.000683 -0.005576 0.000000 0.000000 0.000000
# 2 -0.000683 0.018331 -0.004463 0.000000 0.000000 0.000000
# 3 -0.005576 -0.004463 0.011594 0.000000 0.000000 0.000000
# 4 0.000000 0.000000 0.000000 0.047089 0.000000 0.000000
# 5 0.000000 0.000000 0.000000 0.000000 0.034376 0.000000
# 6 0.000000 0.000000 0.000000 0.000000 0.000000 -0.103076
#
#
# Mechanical properties :
#
#
# Convention : Reuss Voigt Hill
#
# Bulk Modulus (GPa) = 47.01958 56.44462 51.73210
# Shear Modulus (GPa) = 100.73456 20.52475 60.62965
#
# Velocity S-wave (km/s) = 6.81874 3.07789 5.29002
# Velocity P-wave (km/s) = 9.14855 6.21964 7.82240
#
# Compressibility (1/GPa) = 0.02126773
#
# Stress axis : x y z
#
# Youngs Moduli (GPa) = 78.19920 54.55317 86.25201
#
# Poissons Ratio (x) = 0.03723 0.48098
# Poissons Ratio (y) = 0.05337 0.38498
# Poissons Ratio (z) = 0.43607 0.24349
#
# Static dielectric constant tensor:
#      x y z
#    x 1.873390 0.000000 0.000000 
#    y 0.000000 1.775800 0.000000 
#    z 0.000000 0.000000 1.804140 
# 
# From -- ./inp_files/8931.got.cif
#   From: 2010.05.17/outbox.cif.g08.bks.cpg/sg53_5_cif.got.tgz:8931.got - 2010.06.03 12:45:16.
