data_PCOD9418045
_publ_section_title
;
Structure prediction by ZEFSAII (Michael W. Deem and Ramdas Pophale) SiO2 
 PCOD9418045
Probable space group: P M N A
;
_chemical_formula_sum "Si O2"
_cell_formula_units_Z 40
_cell_length_a 19.855135
_cell_length_b 9.691179
_cell_length_c 10.277247
_cell_angle_alpha 90.000000
_cell_angle_beta 90.000000
_cell_angle_gamma 90.000000
_cell_volume 1977.544449
_symmetry_space_group_name_H-M "P M N A"
_symmetry_group_IT_number 53
_symmetry_cell_setting 'orthorhombic'
loop_
_space_group_symop_operation_xyz
x,y,z
1/2-x,-y,1/2+z
x,-y,-z
1/2-x,y,1/2-z
-x,-y,-z
1/2+x,y,1/2-z
-x,y,z
1/2+x,-y,1/2+z
loop_
_atom_site_type_symbol
_atom_site_label
_atom_site_fract_x
_atom_site_fract_y
_atom_site_fract_z
Si Si1 0.577037 0.342301 0.752881
Si Si2 0.573062 0.941396 0.356782
Si Si3 0.187558 0.549867 0.852357
Si Si4 0.170992 0.836436 0.754246
Si Si5 0.921830 0.166720 0.482942
O O1 0.500000 0.394224 0.757751
O O2 0.629404 0.458068 0.713408
O O3 0.582123 0.221284 0.646000
O O4 0.589553 0.256238 0.886235
O O5 0.500000 0.967120 0.290405
O O6 0.631835 0.025539 0.290440
O O7 0.569474 0.000000 0.500000
O O8 0.250000 0.544279 0.750000
O O9 0.164068 0.709277 0.853510
O O10 0.202606 0.500000 0.000000
O O11 0.250000 0.866045 0.750000
O O12 0.134629 0.790117 0.621026
O O13 0.000000 0.193313 0.443449
O O14 0.915586 0.000000 0.500000
#
# Coordination Sequence:
#
# PCOD9418045 Si02
#       5
#     8   8   8   8   8
#     4  10  22  40  68  99 127 168 219 271 330 385
#     4  10  20  38  62  89 123 163 211 266 324 381
#     4  11  27  46  66  92 135 179 217 270 328 391
#     4  11  24  38  61  92 129 168 217 263 322 386
#     4  10  20  40  68  98 132 168 214 275 328 384
#
# _framework density 20.227107
#
# number of rings (size 3 to 8) (size 9 to 14) (size 15 to 20)
#    0.000    1.600    2.000    1.800    5.600    3.600 
#    0.000    2.000    0.000    0.000    0.000    0.000 
#    0.000    0.000    0.000    0.000    0.000    0.000 
#
# Total GULP energy -223161.870381 kJ/mol
# GULP energy per Si atom -5579.046760 kJ/mol
# Density = 2.018107 g / cm^3
# Si number density = 20.227107 Si / 1000 Ang^3
#
#
#
# Elastic Constant Matrix: (Units=GPa)
#
#
# Indices 1 2 3 4 5 6 
#
# 1 135.4043 48.9260 37.8314 0.0000 0.0000 0.0000
# 2 48.9260 48.5394 -16.9193 0.0000 0.0000 0.0000
# 3 37.8314 -16.9193 67.8998 0.0000 0.0000 0.0000
# 4 0.0000 0.0000 0.0000 31.1206 0.0000 0.0000
# 5 0.0000 0.0000 0.0000 0.0000 24.1593 0.0000
# 6 0.0000 0.0000 0.0000 0.0000 0.0000 2.9124
#
#
#
# Elastic Compliance Matrix: (Units=1/GPa)
#
#
# Indices 1 2 3 4 5 6 
#
# 1 0.026665 -0.035104 -0.023604 0.000000 0.000000 0.000000
# 2 -0.035104 0.068777 0.036697 0.000000 0.000000 0.000000
# 3 -0.023604 0.036697 0.037023 0.000000 0.000000 0.000000
# 4 0.000000 0.000000 0.000000 0.032133 0.000000 0.000000
# 5 0.000000 0.000000 0.000000 0.000000 0.041392 0.000000
# 6 0.000000 0.000000 0.000000 0.000000 0.000000 0.343356
#
#
# Mechanical properties :
#
#
# Convention : Reuss Voigt Hill
#
# Bulk Modulus (GPa) = 11.30684 43.50220 27.40452
# Shear Modulus (GPa) = 8.02763 23.77216 15.89990
#
# Velocity S-wave (km/s) = 1.99433 3.43193 2.80673
# Velocity P-wave (km/s) = 3.30231 6.10391 4.90729
#
# Compressibility (1/GPa) = 0.08844205
#
# Stress axis : x y z
#
# Youngs Moduli (GPa) = 37.50302 14.53968 27.01020
#
# Poissons Ratio (x) = 0.51041 0.63755
# Poissons Ratio (y) = 1.31652 -0.99119
# Poissons Ratio (z) = 0.88522 -0.53356
#
# Static dielectric constant tensor:
#      x y z
#    x 1.742260 0.000000 0.000000 
#    y 0.000000 1.701380 0.000000 
#    z 0.000000 0.000000 1.779780 
# 
# From -- ./inp_files/16705.got.cif
#   From: 2010.05.17/outbox.cif.g08.bks.cpg/sg53_9_cif.got.tgz:16705.got - 2010.06.03 12:45:16.
