data_PCOD9418763
_publ_section_title
;
Structure prediction by ZEFSAII (Michael W. Deem and Ramdas Pophale) SiO2 
 PCOD9418763
Probable space group: P M N A
;
_chemical_formula_sum "Si O2"
_cell_formula_units_Z 32
_cell_length_a 12.266840
_cell_length_b 6.741267
_cell_length_c 12.351169
_cell_angle_alpha 90.000000
_cell_angle_beta 90.000000
_cell_angle_gamma 90.000000
_cell_volume 1021.368109
_symmetry_space_group_name_H-M "P M N A"
_symmetry_group_IT_number 53
_symmetry_cell_setting 'orthorhombic'
loop_
_space_group_symop_operation_xyz
x,y,z
1/2-x,-y,1/2+z
x,-y,-z
1/2-x,y,1/2-z
-x,-y,-z
1/2+x,y,1/2-z
-x,y,z
1/2+x,-y,1/2+z
loop_
_atom_site_type_symbol
_atom_site_label
_atom_site_fract_x
_atom_site_fract_y
_atom_site_fract_z
Si Si1 0.123347 0.400309 0.382231
Si Si2 0.887173 0.933991 0.340138
Si Si3 0.123571 0.377000 0.086003
Si Si4 0.344662 0.130313 0.586030
O O1 0.122888 0.500000 0.500000
O O2 0.116073 0.167843 0.356053
O O3 0.257391 0.413238 0.359398
O O4 0.000000 0.468176 0.340475
O O5 0.000000 0.866193 0.389653
O O6 0.785202 0.848506 0.402158
O O7 0.881763 0.878924 0.213536
O O8 0.000000 0.361171 0.131070
O O9 0.136895 0.118284 0.060501
O O10 0.116396 0.364820 0.946757
#
# Coordination Sequence:
#
# PCOD9418763 Si02
#       4
#     8   8   8   8
#     4   9  18  37  65  96 136 181 227 283 354 427
#     4  10  22  39  64 101 139 180 237 295 353 424
#     4  10  21  38  64  95 131 179 230 283 352 421
#     4  11  22  40  64  99 134 183 232 294 354 419
#
# _framework density 31.330527
#
# number of rings (size 3 to 8) (size 9 to 14) (size 15 to 20)
#    0.000    2.000    2.500    0.750    0.000    3.500 
#    0.000    0.000   22.000    0.000    0.000    0.000 
#    0.000    0.000    0.000    0.000    0.000    0.000 
#
# Total GULP energy -178333.343382 kJ/mol
# GULP energy per Si atom -5572.916981 kJ/mol
# Density = 3.125922 g / cm^3
# Si number density = 31.330527 Si / 1000 Ang^3
#
#
#
# Elastic Constant Matrix: (Units=GPa)
#
#
# Indices 1 2 3 4 5 6 
#
# 1 423.3069 45.9660 64.4575 0.0000 0.0000 0.0000
# 2 45.9660 279.5666 94.0313 0.0000 0.0000 0.0000
# 3 64.4575 94.0313 243.8089 0.0000 0.0000 0.0000
# 4 0.0000 0.0000 0.0000 50.1863 0.0000 0.0000
# 5 0.0000 0.0000 0.0000 0.0000 -48.6736 0.0000
# 6 0.0000 0.0000 0.0000 0.0000 0.0000 46.2337
#
#
#
# Elastic Compliance Matrix: (Units=1/GPa)
#
#
# Indices 1 2 3 4 5 6 
#
# 1 0.002473 -0.000214 -0.000571 0.000000 0.000000 0.000000
# 2 -0.000214 0.004129 -0.001536 0.000000 0.000000 0.000000
# 3 -0.000571 -0.001536 0.004845 0.000000 0.000000 0.000000
# 4 0.000000 0.000000 0.000000 0.019926 0.000000 0.000000
# 5 0.000000 0.000000 0.000000 0.000000 -0.020545 0.000000
# 6 0.000000 0.000000 0.000000 0.000000 0.000000 0.021629
#
#
# Mechanical properties :
#
#
# Convention : Reuss Voigt Hill
#
# Bulk Modulus (GPa) = 146.97482 150.62133 148.79808
# Shear Modulus (GPa) = 127.01224 59.03112 93.02168
#
# Velocity S-wave (km/s) = 6.37397 4.34538 5.45480
# Velocity P-wave (km/s) = 10.05897 8.56480 9.34180
#
# Compressibility (1/GPa) = 0.00680389
#
# Stress axis : x y z
#
# Youngs Moduli (GPa) = 404.43484 242.20438 206.40737
#
# Poissons Ratio (x) = 0.05195 0.11785
# Poissons Ratio (y) = 0.08675 0.31697
# Poissons Ratio (z) = 0.23092 0.37194
#
# Static dielectric constant tensor:
#      x y z
#    x 2.236430 0.000000 0.000000 
#    y 0.000000 2.590900 0.000000 
#    z 0.000000 0.000000 2.392710 
# 
# From -- ./inp_files/22202.got.cif
#   From: 2010.05.17/outbox.cif.g08.bks.cpg/sg53_12_cif.got.tgz:22202.got - 2010.06.03 12:45:16.
