data_PCOD9418278
_publ_section_title
;
Structure prediction by ZEFSAII (Michael W. Deem and Ramdas Pophale) SiO2 
 PCOD9418278
Probable space group: P M N A
;
_chemical_formula_sum "Si O2"
_cell_formula_units_Z 64
_cell_length_a 14.403598
_cell_length_b 21.165634
_cell_length_c 9.523485
_cell_angle_alpha 90.000000
_cell_angle_beta 90.000000
_cell_angle_gamma 90.000000
_cell_volume 2903.341861
_symmetry_space_group_name_H-M "P M N A"
_symmetry_group_IT_number 53
_symmetry_cell_setting 'orthorhombic'
loop_
_space_group_symop_operation_xyz
x,y,z
1/2-x,-y,1/2+z
x,-y,-z
1/2-x,y,1/2-z
-x,-y,-z
1/2+x,y,1/2-z
-x,y,z
1/2+x,-y,1/2+z
loop_
_atom_site_type_symbol
_atom_site_label
_atom_site_fract_x
_atom_site_fract_y
_atom_site_fract_z
Si Si1 0.155318 1.000000 0.667798
Si Si2 0.608092 0.858921 0.842935
Si Si3 0.886706 0.622588 0.660716
Si Si4 0.386429 0.744197 0.340892
Si Si5 0.386706 0.377412 0.839283
Si Si6 0.113396 0.500000 0.838828
Si Si7 0.391908 0.141079 0.842933
Si Si8 0.886428 0.744196 0.840891
O O1 0.250000 0.999999 0.750000
O O2 0.110542 0.067681 0.700927
O O3 0.166279 0.000000 0.500000
O O4 0.110541 0.932318 0.700925
O O5 0.500000 0.842213 0.857051
O O6 0.644495 0.810156 0.728267
O O7 0.650018 0.852612 0.000001
O O8 0.853698 0.619641 0.500000
O O9 0.859062 0.562225 0.752912
O O10 0.859664 0.686650 0.739863
O O11 0.000000 0.622069 0.655755
O O12 0.500000 0.743603 0.347635
O O13 0.359664 0.686651 0.239863
O O14 0.355505 0.810157 0.271736
O O15 0.352785 0.736356 0.500000
O O16 0.500000 0.377930 0.844244
O O17 0.359062 0.437774 0.747087
O O18 0.000000 0.500000 0.843683
O O19 0.146074 0.500000 0.000000
O O20 0.500000 0.157785 0.857048
O O21 0.000000 0.743602 0.847635
#
# Coordination Sequence:
#
# PCOD9418278 Si02
#       8
#     8   8   8   8   8   8   8   8
#     4  10  21  35  51  71  95 122 150 184 228 276
#     4   9  17  31  50  69  89 117 154 191 226 269
#     4   9  15  22  32  47  70 103 142 180 218 264
#     4   9  16  25  38  58  82 107 139 182 228 268
#     4   9  15  22  32  47  70 103 142 180 218 264
#     4   9  15  21  29  43  67 101 140 181 222 263
#     4   9  17  31  50  69  89 117 154 191 226 269
#     4   9  16  25  38  58  82 107 139 182 228 268
#
# _framework density 22.043564
#
# number of rings (size 3 to 8) (size 9 to 14) (size 15 to 20)
#    0.000    2.875    0.000    2.250    0.000   10.000 
#    0.000    0.000    0.000    3.750    0.000    0.000 
#    0.000    0.000    0.000    1.125    0.000   16.500 
#
# Total GULP energy -357333.339663 kJ/mol
# GULP energy per Si atom -5583.333432 kJ/mol
# Density = 2.199339 g / cm^3
# Si number density = 22.043564 Si / 1000 Ang^3
#
#
#
# Elastic Constant Matrix: (Units=GPa)
#
#
# Indices 1 2 3 4 5 6 
#
# 1 49.8957 -6.9188 9.4691 0.0000 0.0000 0.0000
# 2 -6.9188 190.7724 135.6390 0.0000 0.0000 0.0000
# 3 9.4691 135.6390 199.1949 0.0000 0.0000 0.0000
# 4 0.0000 0.0000 0.0000 76.1759 0.0000 0.0000
# 5 0.0000 0.0000 0.0000 0.0000 6.4781 0.0000
# 6 0.0000 0.0000 0.0000 0.0000 0.0000 -47.9657
#
#
#
# Elastic Compliance Matrix: (Units=1/GPa)
#
#
# Indices 1 2 3 4 5 6 
#
# 1 0.020995 0.002852 -0.002940 0.000000 0.000000 0.000000
# 2 0.002852 0.010549 -0.007319 0.000000 0.000000 0.000000
# 3 -0.002940 -0.007319 0.010143 0.000000 0.000000 0.000000
# 4 0.000000 0.000000 0.000000 0.013128 0.000000 0.000000
# 5 0.000000 0.000000 0.000000 0.000000 0.154366 0.000000
# 6 0.000000 0.000000 0.000000 0.000000 0.000000 -0.020848
#
#
# Mechanical properties :
#
#
# Convention : Reuss Voigt Hill
#
# Bulk Modulus (GPa) = 37.21088 79.58239 58.39663
# Shear Modulus (GPa) = 23.57326 27.04924 25.31125
#
# Velocity S-wave (km/s) = 3.27371 3.50677 3.39224
# Velocity P-wave (km/s) = 5.58630 7.25102 6.47241
#
# Compressibility (1/GPa) = 0.02687386
#
# Stress axis : x y z
#
# Youngs Moduli (GPa) = 47.62999 94.79740 98.58550
#
# Poissons Ratio (x) = -0.27033 0.28983
# Poissons Ratio (y) = -0.13583 0.72151
# Poissons Ratio (z) = 0.14003 0.69379
#
# Static dielectric constant tensor:
#      x y z
#    x 1.840690 0.000000 0.000000 
#    y 0.000000 1.797800 0.000000 
#    z 0.000000 0.000000 1.767200 
# 
# From -- ./inp_files/10241.got.cif
#   From: 2010.05.17/outbox.cif.g08.bks.cpg/sg53_6_cif.got.tgz:10241.got - 2010.06.03 12:45:16.
