data_PCOD9418618
_publ_section_title
;
Structure prediction by ZEFSAII (Michael W. Deem and Ramdas Pophale) SiO2 
 PCOD9418618
Probable space group: P M N A
;
_chemical_formula_sum "Si O2"
_cell_formula_units_Z 48
_cell_length_a 29.233298
_cell_length_b 10.112048
_cell_length_c 8.866004
_cell_angle_alpha 90.000000
_cell_angle_beta 90.000000
_cell_angle_gamma 90.000000
_cell_volume 2620.866255
_symmetry_space_group_name_H-M "P M N A"
_symmetry_group_IT_number 53
_symmetry_cell_setting 'orthorhombic'
loop_
_space_group_symop_operation_xyz
x,y,z
1/2-x,-y,1/2+z
x,-y,-z
1/2-x,y,1/2-z
-x,-y,-z
1/2+x,y,1/2-z
-x,y,z
1/2+x,-y,1/2+z
loop_
_atom_site_type_symbol
_atom_site_label
_atom_site_fract_x
_atom_site_fract_y
_atom_site_fract_z
Si Si1 0.051074 0.908370 0.147822
Si Si2 0.298696 0.738584 0.175901
Si Si3 0.859874 0.988031 0.320818
Si Si4 0.448988 0.406895 0.648477
Si Si5 0.148025 0.501988 0.817339
Si Si6 0.301574 0.753367 0.813404
O O1 0.090601 0.970215 0.249207
O O2 0.058674 0.750487 0.116155
O O3 0.000000 0.916993 0.215422
O O4 0.051088 0.000000 0.000000
O O5 0.250000 0.765481 0.250000
O O6 0.332586 0.856070 0.218761
O O7 0.318274 0.605365 0.246377
O O8 0.297434 0.734414 0.994164
O O9 0.864925 0.000000 0.500000
O O10 0.828048 0.111004 0.275560
O O11 0.451037 0.500000 0.500000
O O12 0.500000 0.417360 0.719561
O O13 0.403799 0.462440 0.730629
O O14 0.166566 0.640235 0.756980
O O15 0.149878 0.500000 0.000000
O O16 0.250000 0.750870 0.750000
#
# Coordination Sequence:
#
# PCOD9418618 Si02
#       6
#     8   8   8   8   8   8
#     4  10  21  37  62  92 120 155 200 246 290 348
#     4  11  22  40  61  83 115 153 198 244 293 352
#     4  10  23  40  59  86 119 157 192 241 299 350
#     4   9  19  36  59  88 121 153 193 243 293 342
#     4  11  22  37  60  89 115 156 194 240 296 346
#     4  11  24  40  59  86 119 154 195 245 292 351
#
# _framework density 18.314554999999999
#
# number of rings (size 3 to 8) (size 9 to 14) (size 15 to 20)
#    0.000    1.667    1.667    2.500    4.667    1.667 
#    0.000    0.000    0.000    3.000    0.000    0.000 
#    0.000    0.000    0.000    0.000    0.000    0.000 
#
# Total GULP energy -267642.984945 kJ/mol
# GULP energy per Si atom -5575.895520 kJ/mol
# Density = 1.827287 g / cm^3
# Si number density = 18.314555 Si / 1000 Ang^3
#
#
#
# Elastic Constant Matrix: (Units=GPa)
#
#
# Indices 1 2 3 4 5 6 
#
# 1 133.9107 17.5872 26.2258 0.0000 0.0000 0.0000
# 2 17.5872 83.8789 19.2053 0.0000 0.0000 0.0000
# 3 26.2258 19.2053 29.5363 0.0000 0.0000 0.0000
# 4 0.0000 0.0000 0.0000 0.3644 0.0000 0.0000
# 5 0.0000 0.0000 0.0000 0.0000 33.1207 0.0000
# 6 0.0000 0.0000 0.0000 0.0000 0.0000 41.4433
#
#
#
# Elastic Compliance Matrix: (Units=1/GPa)
#
#
# Indices 1 2 3 4 5 6 
#
# 1 0.009040 -0.000068 -0.007983 0.000000 0.000000 0.000000
# 2 -0.000068 0.014008 -0.009048 0.000000 0.000000 0.000000
# 3 -0.007983 -0.009048 0.046828 0.000000 0.000000 0.000000
# 4 0.000000 0.000000 0.000000 2.743954 0.000000 0.000000
# 5 0.000000 0.000000 0.000000 0.000000 0.030193 0.000000
# 6 0.000000 0.000000 0.000000 0.000000 0.000000 0.024129
#
#
# Mechanical properties :
#
#
# Convention : Reuss Voigt Hill
#
# Bulk Modulus (GPa) = 28.02798 41.48472 34.75635
# Shear Modulus (GPa) = 1.71571 27.27287 14.49429
#
# Velocity S-wave (km/s) = 0.96894 3.86312 2.81625
# Velocity P-wave (km/s) = 4.07292 6.52677 5.44001
#
# Compressibility (1/GPa) = 0.03567863
#
# Stress axis : x y z
#
# Youngs Moduli (GPa) = 110.62034 71.38853 21.35477
#
# Poissons Ratio (x) = 0.00483 0.17047
# Poissons Ratio (y) = 0.00749 0.19322
# Poissons Ratio (z) = 0.88305 0.64594
#
# Static dielectric constant tensor:
#      x y z
#    x 1.683270 0.000000 0.000000 
#    y 0.000000 1.641310 0.000000 
#    z 0.000000 0.000000 1.607470 
# 
# From -- ./inp_files/13001.got.cif
#   From: 2010.05.17/outbox.cif.g08.bks.cpg/sg53_7_cif.got.tgz:13001.got - 2010.06.03 12:45:16.
