data_PCOD9418559
_publ_section_title
;
Structure prediction by ZEFSAII (Michael W. Deem and Ramdas Pophale) SiO2 
 PCOD9418559
Probable space group: P M N A
;
_chemical_formula_sum "Si O2"
_cell_formula_units_Z 56
_cell_length_a 14.419258
_cell_length_b 13.383102
_cell_length_c 14.111329
_cell_angle_alpha 90.000000
_cell_angle_beta 90.000000
_cell_angle_gamma 90.000000
_cell_volume 2723.125255
_symmetry_space_group_name_H-M "P M N A"
_symmetry_group_IT_number 53
_symmetry_cell_setting 'orthorhombic'
loop_
_space_group_symop_operation_xyz
x,y,z
1/2-x,-y,1/2+z
x,-y,-z
1/2-x,y,1/2-z
-x,-y,-z
1/2+x,y,1/2-z
-x,y,z
1/2+x,-y,1/2+z
loop_
_atom_site_type_symbol
_atom_site_label
_atom_site_fract_x
_atom_site_fract_y
_atom_site_fract_z
Si Si1 0.261649 0.243464 0.953186
Si Si2 0.289072 0.537078 0.106894
Si Si3 0.894374 0.463918 0.205858
Si Si4 0.605148 0.058285 0.267063
Si Si5 0.895009 0.910217 0.064774
Si Si6 0.105827 0.061441 0.595666
Si Si7 0.186355 0.737440 0.839204
O O1 0.289448 0.342962 0.897919
O O2 0.164047 0.189508 0.930302
O O3 0.336333 0.159535 0.926815
O O4 0.246168 0.268189 0.064689
O O5 0.355740 0.488868 0.187602
O O6 0.183823 0.510663 0.137476
O O7 0.309401 0.500000 0.000000
O O8 0.890905 0.347741 0.172874
O O9 0.000000 0.500330 0.197371
O O10 0.500000 0.090647 0.242640
O O11 0.649907 0.150910 0.321283
O O12 0.600815 0.962669 0.334328
O O13 0.650594 0.014620 0.172098
O O14 0.000000 0.890956 0.029171
O O15 0.853850 0.000000 0.000000
O O16 0.000000 0.085848 0.626626
O O17 0.100043 0.000000 0.500000
O O18 0.250000 0.713930 0.750000
#
# Coordination Sequence:
#
# PCOD9418559 Si02
#       7
#     8   8   8   8   8   8   8
#     4  12  24  40  69  93 131 183 218 275 340 399
#     4  11  24  48  67 101 139 172 231 292 347 417
#     4  11  25  46  72  99 135 176 227 291 355 408
#     4  10  22  38  61  93 133 172 214 269 321 390
#     4  10  21  37  58  96 136 166 213 265 322 400
#     4  10  23  42  62  95 136 173 220 267 320 397
#     4  12  22  40  67  98 128 170 230 278 329 398
#
# _framework density 20.564606999999999
#
# number of rings (size 3 to 8) (size 9 to 14) (size 15 to 20)
#    0.000    1.143    4.286    1.714    2.000    4.571 
#    0.000    5.000    0.000    0.000    0.000    0.000 
#    0.000    0.000    0.000    0.000    0.000    0.000 
#
# Total GULP energy -312430.244240 kJ/mol
# GULP energy per Si atom -5579.111504 kJ/mol
# Density = 2.051780 g / cm^3
# Si number density = 20.564607 Si / 1000 Ang^3
#
#
#
# Elastic Constant Matrix: (Units=GPa)
#
#
# Indices 1 2 3 4 5 6 
#
# 1 64.1569 12.5411 -17.7681 0.0000 0.0000 0.0000
# 2 12.5411 108.5805 7.2972 0.0000 0.0000 0.0000
# 3 -17.7681 7.2972 72.9095 0.0000 0.0000 0.0000
# 4 0.0000 0.0000 0.0000 31.6036 0.0000 0.0000
# 5 0.0000 0.0000 0.0000 0.0000 16.2224 0.0000
# 6 0.0000 0.0000 0.0000 0.0000 0.0000 21.2094
#
#
#
# Elastic Compliance Matrix: (Units=1/GPa)
#
#
# Indices 1 2 3 4 5 6 
#
# 1 0.017264 -0.002292 0.004437 0.000000 0.000000 0.000000
# 2 -0.002292 0.009576 -0.001517 0.000000 0.000000 0.000000
# 3 0.004437 -0.001517 0.014949 0.000000 0.000000 0.000000
# 4 0.000000 0.000000 0.000000 0.031642 0.000000 0.000000
# 5 0.000000 0.000000 0.000000 0.000000 0.061643 0.000000
# 6 0.000000 0.000000 0.000000 0.000000 0.000000 0.047149
#
#
# Mechanical properties :
#
#
# Convention : Reuss Voigt Hill
#
# Bulk Modulus (GPa) = 23.23237 27.75414 25.49326
# Shear Modulus (GPa) = 25.59956 30.04551 27.82254
#
# Velocity S-wave (km/s) = 3.53205 3.82649 3.68221
# Velocity P-wave (km/s) = 5.28731 5.74874 5.52285
#
# Compressibility (1/GPa) = 0.04304340
#
# Stress axis : x y z
#
# Youngs Moduli (GPa) = 57.92562 104.42284 66.89560
#
# Poissons Ratio (x) = 0.23935 -0.29678
# Poissons Ratio (y) = 0.13277 0.10148
# Poissons Ratio (z) = -0.25699 0.15842
#
# Static dielectric constant tensor:
#      x y z
#    x 1.792620 0.000000 0.000000 
#    y 0.000000 1.762950 0.000000 
#    z 0.000000 0.000000 1.846370 
# 
# From -- ./inp_files/22801.got.cif
#   From: 2010.05.17/outbox.cif.g08.bks.cpg/sg53_12_cif.got.tgz:22801.got - 2010.06.03 12:45:16.
