data_PCOD9418622
_publ_section_title
;
Structure prediction by ZEFSAII (Michael W. Deem and Ramdas Pophale) SiO2 
 PCOD9418622
Probable space group: P M N A
;
_chemical_formula_sum "Si O2"
_cell_formula_units_Z 64
_cell_length_a 30.675410
_cell_length_b 9.097505
_cell_length_c 11.375163
_cell_angle_alpha 90.000000
_cell_angle_beta 90.000000
_cell_angle_gamma 90.000000
_cell_volume 3174.463279
_symmetry_space_group_name_H-M "P M N A"
_symmetry_group_IT_number 53
_symmetry_cell_setting 'orthorhombic'
loop_
_space_group_symop_operation_xyz
x,y,z
1/2-x,-y,1/2+z
x,-y,-z
1/2-x,y,1/2-z
-x,-y,-z
1/2+x,y,1/2-z
-x,y,z
1/2+x,-y,1/2+z
loop_
_atom_site_type_symbol
_atom_site_label
_atom_site_fract_x
_atom_site_fract_y
_atom_site_fract_z
Si Si1 0.108492 0.282711 0.244610
Si Si2 0.800983 0.348966 0.764814
Si Si3 0.674536 0.832252 0.463732
Si Si4 0.048722 0.078314 0.374269
Si Si5 0.416859 0.324349 0.504071
Si Si6 0.294319 0.678538 0.673828
Si Si7 0.548905 0.777596 0.247332
Si Si8 0.117846 0.577884 0.374153
O O1 0.087110 0.190280 0.348040
O O2 0.160289 0.252453 0.225503
O O3 0.106866 0.452631 0.278851
O O4 0.078267 0.262953 0.128668
O O5 0.750000 0.339293 0.750000
O O6 0.813601 0.198984 0.830111
O O7 0.805108 0.504279 0.836575
O O8 0.832719 0.371238 0.653743
O O9 0.632559 0.727977 0.475618
O O10 0.710423 0.760638 0.549805
O O11 0.666310 0.000000 0.500000
O O12 0.000000 0.145796 0.370143
O O13 0.052826 0.000000 0.500000
O O14 0.051279 0.950932 0.276228
O O15 0.421554 0.500000 0.500000
O O16 0.442377 0.261884 0.616365
O O17 0.250000 0.692767 0.750000
O O18 0.500000 0.728448 0.215595
O O19 0.584006 0.704298 0.160236
O O20 0.114293 0.500000 0.500000
#
# Coordination Sequence:
#
# PCOD9418622 Si02
#       8
#     8   8   8   8   8   8   8   8
#     4  10  21  37  63  90 119 167 205 260 324 370
#     4  10  21  39  63  89 122 165 209 261 317 376
#     4  11  22  36  61  89 123 169 205 259 321 378
#     4  10  23  43  62  87 126 169 209 252 319 391
#     4  11  21  41  63  88 125 162 207 263 321 385
#     4   9  20  37  60  87 122 161 211 257 312 385
#     4  11  24  40  64  93 126 168 215 270 326 387
#     4  11  22  39  63  94 126 161 220 269 314 380
#
# _framework density 20.160888
#
# number of rings (size 3 to 8) (size 9 to 14) (size 15 to 20)
#    0.000    1.625    2.500    2.625    3.500    5.000 
#    0.000    1.875    0.000    0.000    0.000    0.000 
#    0.000    0.000    0.000    0.000    0.000    0.000 
#
# Total GULP energy -356542.798590 kJ/mol
# GULP energy per Si atom -5570.981228 kJ/mol
# Density = 2.011500 g / cm^3
# Si number density = 20.160888 Si / 1000 Ang^3
#
#
#
# Elastic Constant Matrix: (Units=GPa)
#
#
# Indices 1 2 3 4 5 6 
#
# 1 85.9681 12.6321 9.9799 0.0000 0.0000 0.0000
# 2 12.6321 28.7097 -2.0007 0.0000 0.0000 0.0000
# 3 9.9799 -2.0007 53.1262 0.0000 0.0000 0.0000
# 4 0.0000 0.0000 0.0000 30.5695 0.0000 0.0000
# 5 0.0000 0.0000 0.0000 0.0000 22.9160 0.0000
# 6 0.0000 0.0000 0.0000 0.0000 0.0000 12.8750
#
#
#
# Elastic Compliance Matrix: (Units=1/GPa)
#
#
# Indices 1 2 3 4 5 6 
#
# 1 0.012790 -0.005810 -0.002621 0.000000 0.000000 0.000000
# 2 -0.005810 0.037563 0.002506 0.000000 0.000000 0.000000
# 3 -0.002621 0.002506 0.019410 0.000000 0.000000 0.000000
# 4 0.000000 0.000000 0.000000 0.032712 0.000000 0.000000
# 5 0.000000 0.000000 0.000000 0.000000 0.043638 0.000000
# 6 0.000000 0.000000 0.000000 0.000000 0.000000 0.077670
#
#
# Mechanical properties :
#
#
# Convention : Reuss Voigt Hill
#
# Bulk Modulus (GPa) = 17.26782 23.22518 20.24650
# Shear Modulus (GPa) = 19.61260 23.08494 21.34877
#
# Velocity S-wave (km/s) = 3.12236 3.38751 3.25764
# Velocity P-wave (km/s) = 4.64570 5.18124 4.92076
#
# Compressibility (1/GPa) = 0.05791119
#
# Stress axis : x y z
#
# Youngs Moduli (GPa) = 78.18424 26.62229 51.52001
#
# Poissons Ratio (x) = 0.15468 0.13506
# Poissons Ratio (y) = 0.45427 -0.12911
# Poissons Ratio (z) = 0.20496 -0.06672
#
# Static dielectric constant tensor:
#      x y z
#    x 1.726750 0.000000 0.000000 
#    y 0.000000 1.706860 0.000000 
#    z 0.000000 0.000000 1.846210 
# 
# From -- ./inp_files/19066.got.cif
#   From: 2010.05.17/outbox.cif.g08.bks.cpg/sg53_10_cif.got.tgz:19066.got - 2010.06.03 12:45:16.
