data_PCOD9418976
_publ_section_title
;
Structure prediction by ZEFSAII (Michael W. Deem and Ramdas Pophale) SiO2 
 PCOD9418976
Probable space group: P M N A
;
_chemical_formula_sum "Si O2"
_cell_formula_units_Z 40
_cell_length_a 13.917111
_cell_length_b 15.937082
_cell_length_c 8.265628
_cell_angle_alpha 90.000000
_cell_angle_beta 90.000000
_cell_angle_gamma 90.000000
_cell_volume 1833.300910
_symmetry_space_group_name_H-M "P M N A"
_symmetry_group_IT_number 53
_symmetry_cell_setting 'orthorhombic'
loop_
_space_group_symop_operation_xyz
x,y,z
1/2-x,-y,1/2+z
x,-y,-z
1/2-x,y,1/2-z
-x,-y,-z
1/2+x,y,1/2-z
-x,y,z
1/2+x,-y,1/2+z
loop_
_atom_site_type_symbol
_atom_site_label
_atom_site_fract_x
_atom_site_fract_y
_atom_site_fract_z
Si Si1 0.500000 0.000000 0.000000
Si Si2 0.500000 0.500000 0.500000
Si Si3 0.350519 0.120063 0.822632
Si Si4 0.314950 0.252146 0.111410
Si Si5 0.000000 0.606265 0.327676
Si Si6 0.000000 0.318180 0.193991
Si Si7 0.000000 0.777055 0.142677
Si Si8 0.286624 0.412231 0.931119
O O1 0.416685 0.952334 0.107409
O O2 0.500000 0.440754 0.657052
O O3 0.500000 0.586499 0.626206
O O4 0.250000 0.091375 0.750000
O O5 0.406705 0.168165 0.679969
O O6 0.337145 0.187922 0.967908
O O7 0.250000 0.211657 0.250000
O O8 0.408693 0.291561 0.196964
O O9 0.258626 0.332637 0.037496
O O10 0.902141 0.585394 0.420475
O O11 0.000000 0.703498 0.277542
O O12 0.000000 0.260736 0.034311
O O13 0.250000 0.400840 0.750000
O O14 0.247212 0.500000 0.000000
#
# Coordination Sequence:
#
# PCOD9418976 Si02
#       8
#     2   2   8   8   4   4   4   8
#     4  10  26  46  78 116 146 178 244 292 378 462
#     4  10  24  34  62  86 128 186 240 296 370 406
#     4  11  23  47  76 107 148 192 237 300 375 456
#     4  12  25  41  67 100 137 186 244 293 361 434
#     4  11  22  39  63  83 130 176 235 291 361 406
#     4  11  23  41  64  96 141 181 250 309 355 425
#     4  10  21  40  70 100 131 186 238 289 353 443
#     4  12  26  41  62  91 134 184 243 301 358 422
#
# _framework density 21.818567000000002
#
# number of rings (size 3 to 8) (size 9 to 14) (size 15 to 20)
#    0.000    0.800    2.000    5.700    7.000    0.800 
#    0.000    2.000    0.000    7.200    0.000    0.000 
#    0.000    0.000    0.000    0.000    0.000    0.000 
#
# Total GULP energy -222881.570218 kJ/mol
# GULP energy per Si atom -5572.039255 kJ/mol
# Density = 2.176891 g / cm^3
# Si number density = 21.818567 Si / 1000 Ang^3
#
#
#
# Elastic Constant Matrix: (Units=GPa)
#
#
# Indices 1 2 3 4 5 6 
#
# 1 115.3728 44.5427 42.5882 0.0000 0.0000 0.0000
# 2 44.5427 54.9507 34.7412 0.0000 0.0000 0.0000
# 3 42.5882 34.7412 117.4311 0.0000 0.0000 0.0000
# 4 0.0000 0.0000 0.0000 37.7878 0.0000 0.0000
# 5 0.0000 0.0000 0.0000 0.0000 -111.0581 0.0000
# 6 0.0000 0.0000 0.0000 0.0000 0.0000 -63.5652
#
#
#
# Elastic Compliance Matrix: (Units=1/GPa)
#
#
# Indices 1 2 3 4 5 6 
#
# 1 0.012972 -0.009276 -0.001960 0.000000 0.000000 0.000000
# 2 -0.009276 0.029018 -0.005221 0.000000 0.000000 0.000000
# 3 -0.001960 -0.005221 0.010771 0.000000 0.000000 0.000000
# 4 0.000000 0.000000 0.000000 0.026464 0.000000 0.000000
# 5 0.000000 0.000000 0.000000 0.000000 -0.009004 0.000000
# 6 0.000000 0.000000 0.000000 0.000000 0.000000 -0.015732
#
#
# Mechanical properties :
#
#
# Convention : Reuss Voigt Hill
#
# Bulk Modulus (GPa) = 50.38478 59.05543 54.72011
# Shear Modulus (GPa) = 53.18098 -16.30828 18.43635
#
# Velocity S-wave (km/s) = 4.94238 -2.73692 2.91001
# Velocity P-wave (km/s) = 7.46406 4.13977 6.03531
#
# Compressibility (1/GPa) = 0.01984726
#
# Stress axis : x y z
#
# Youngs Moduli (GPa) = 77.08642 34.46164 92.84094
#
# Poissons Ratio (x) = 0.31966 0.18201
# Poissons Ratio (y) = 0.71505 0.48469
# Poissons Ratio (z) = 0.15112 0.17991
#
# Static dielectric constant tensor:
#      x y z
#    x 1.813490 0.000000 0.000000 
#    y 0.000000 1.773270 0.000000 
#    z 0.000000 0.000000 1.750300 
# 
# From -- ./inp_files/8520.got.cif
#   From: 2010.05.17/outbox.cif.g08.bks.cpg/sg53_5_cif.got.tgz:8520.got - 2010.06.03 12:45:16.
