data_PCOD9418995
_publ_section_title
;
Structure prediction by ZEFSAII (Michael W. Deem and Ramdas Pophale) SiO2 
 PCOD9418995
Probable space group: P M N A
;
_chemical_formula_sum "Si O2"
_cell_formula_units_Z 32
_cell_length_a 16.933403
_cell_length_b 16.175730
_cell_length_c 5.050874
_cell_angle_alpha 90.000000
_cell_angle_beta 90.000000
_cell_angle_gamma 90.000000
_cell_volume 1383.485680
_symmetry_space_group_name_H-M "P M N A"
_symmetry_group_IT_number 53
_symmetry_cell_setting 'orthorhombic'
loop_
_space_group_symop_operation_xyz
x,y,z
1/2-x,-y,1/2+z
x,-y,-z
1/2-x,y,1/2-z
-x,-y,-z
1/2+x,y,1/2-z
-x,y,z
1/2+x,-y,1/2+z
loop_
_atom_site_type_symbol
_atom_site_label
_atom_site_fract_x
_atom_site_fract_y
_atom_site_fract_z
Si Si1 0.904825 0.242454 0.698105
Si Si2 0.303397 0.000000 0.500000
Si Si3 0.404795 0.344436 0.309117
Si Si4 0.195887 0.500000 0.000000
Si Si5 0.589757 0.089612 0.141681
O O1 0.879987 0.271305 0.988025
O O2 0.877639 0.158746 0.555305
O O3 0.000000 0.233702 0.711386
O O4 0.887324 0.315548 0.488629
O O5 0.358114 0.925868 0.601551
O O6 0.250000 0.021796 0.750000
O O7 0.500000 0.355773 0.331463
O O8 0.358799 0.425577 0.396583
O O9 0.250000 0.525345 0.250000
O O10 0.500000 0.111640 0.218719
O O11 0.587017 0.000000 0.000000
#
# Coordination Sequence:
#
# PCOD9418995 Si02
#       5
#     8   4   8   4   8
#     4   9  20  37  64  97 126 157 210 267 312 367
#     4  12  25  42  59  86 132 174 220 268 323 384
#     4  10  21  41  66  94 126 164 206 257 316 380
#     4  12  25  42  67  94 130 162 206 256 313 390
#     4  10  22  41  69  97 125 170 224 277 323 370
#
# _framework density 23.129984
#
# number of rings (size 3 to 8) (size 9 to 14) (size 15 to 20)
#    0.000    1.750    1.250    2.250    3.500    0.000 
#    0.000   10.000    5.500    0.000    0.000    0.000 
#    0.000    0.000    0.000    0.000    0.000    0.000 
#
# Total GULP energy -179041.469043 kJ/mol
# GULP energy per Si atom -5595.045908 kJ/mol
# Density = 2.307734 g / cm^3
# Si number density = 23.129984 Si / 1000 Ang^3
#
#
#
# Elastic Constant Matrix: (Units=GPa)
#
#
# Indices 1 2 3 4 5 6 
#
# 1 63.5023 12.4997 26.5602 0.0000 0.0000 0.0000
# 2 12.4997 74.6099 -15.1200 0.0000 0.0000 0.0000
# 3 26.5602 -15.1200 108.4953 0.0000 0.0000 0.0000
# 4 0.0000 0.0000 0.0000 33.6694 0.0000 0.0000
# 5 0.0000 0.0000 0.0000 0.0000 -3.6712 0.0000
# 6 0.0000 0.0000 0.0000 0.0000 0.0000 -14.9101
#
#
#
# Elastic Compliance Matrix: (Units=1/GPa)
#
#
# Indices 1 2 3 4 5 6 
#
# 1 0.018734 -0.004186 -0.005169 0.000000 0.000000 0.000000
# 2 -0.004186 0.014728 0.003077 0.000000 0.000000 0.000000
# 3 -0.005169 0.003077 0.010911 0.000000 0.000000 0.000000
# 4 0.000000 0.000000 0.000000 0.029701 0.000000 0.000000
# 5 0.000000 0.000000 0.000000 0.000000 -0.272389 0.000000
# 6 0.000000 0.000000 0.000000 0.000000 0.000000 -0.067069
#
#
# Mechanical properties :
#
#
# Convention : Reuss Voigt Hill
#
# Bulk Modulus (GPa) = 31.43040 32.72082 32.07561
# Shear Modulus (GPa) = -20.64227 17.86211 -1.39008
#
# Velocity S-wave (km/s) = -2.99062 2.78195 -0.77607
# Velocity P-wave (km/s) = 1.30114 4.94937 3.61865
#
# Compressibility (1/GPa) = 0.03181633
#
# Stress axis : x y z
#
# Youngs Moduli (GPa) = 53.37993 67.89790 91.64759
#
# Poissons Ratio (x) = 0.28423 0.47377
# Poissons Ratio (y) = 0.22346 -0.28203
# Poissons Ratio (z) = 0.27595 -0.20894
#
# Static dielectric constant tensor:
#      x y z
#    x 1.879000 0.000000 0.000000 
#    y 0.000000 1.889810 0.000000 
#    z 0.000000 0.000000 1.867420 
# 
# From -- ./inp_files/2003.got.cif
#   From: 2010.05.17/outbox.cif.g08.bks.cpg/sg53_2_cif.got.tgz:2003.got - 2010.06.03 12:45:16.
