data_PCOD9418940
_publ_section_title
;
Structure prediction by ZEFSAII (Michael W. Deem and Ramdas Pophale) SiO2 
 PCOD9418940
Probable space group: P M N A
;
_chemical_formula_sum "Si O2"
_cell_formula_units_Z 48
_cell_length_a 33.226395
_cell_length_b 8.346304
_cell_length_c 8.962530
_cell_angle_alpha 90.000000
_cell_angle_beta 90.000000
_cell_angle_gamma 90.000000
_cell_volume 2485.467251
_symmetry_space_group_name_H-M "P M N A"
_symmetry_group_IT_number 53
_symmetry_cell_setting 'orthorhombic'
loop_
_space_group_symop_operation_xyz
x,y,z
1/2-x,-y,1/2+z
x,-y,-z
1/2-x,y,1/2-z
-x,-y,-z
1/2+x,y,1/2-z
-x,y,z
1/2+x,-y,1/2+z
loop_
_atom_site_type_symbol
_atom_site_label
_atom_site_fract_x
_atom_site_fract_y
_atom_site_fract_z
Si Si1 0.708351 0.571938 0.834317
Si Si2 0.145609 0.173933 0.430579
Si Si3 0.500000 0.121774 0.768216
Si Si4 0.579545 0.679009 0.748362
Si Si5 0.078467 0.824814 0.065833
Si Si6 0.865421 0.631825 0.268576
Si Si7 0.500000 0.239249 0.102832
O O1 0.750000 0.592767 0.750000
O O2 0.683497 0.737544 0.854338
O O3 0.678779 0.445626 0.750575
O O4 0.714866 0.500000 0.000000
O O5 0.108270 0.180956 0.316170
O O6 0.133678 0.287157 0.569436
O O7 0.153439 0.000000 0.500000
O O8 0.460009 0.164738 0.675125
O O9 0.500000 0.932333 0.809423
O O10 0.500000 0.208092 0.927427
O O11 0.569569 0.714264 0.577085
O O12 0.604566 0.517464 0.762475
O O13 0.539706 0.671516 0.845183
O O14 0.117640 0.757100 0.149660
O O15 0.085553 0.000000 0.000000
#
# Coordination Sequence:
#
# PCOD9418940 Si02
#       7
#     8   8   4   8   8   8   4
#     4   9  20  40  66  91 124 159 197 246 303 366
#     4  10  21  40  64  92 121 160 204 249 300 369
#     4  11  24  38  57  86 125 164 207 256 309 358
#     4  11  22  37  61  87 122 159 207 255 304 355
#     4  12  22  38  59  88 125 161 205 255 305 358
#     4  10  23  41  61  91 120 161 204 246 309 369
#     4  11  23  39  60  86 118 170 210 253 304 357
#
# _framework density 19.312265
#
# number of rings (size 3 to 8) (size 9 to 14) (size 15 to 20)
#    0.000    1.500    1.667    4.750    2.333    3.333 
#    0.000    7.500    0.000    5.000    0.000    0.000 
#    0.000    0.000    0.000    0.000    0.000    0.000 
#
# Total GULP energy -268299.508445 kJ/mol
# GULP energy per Si atom -5589.573093 kJ/mol
# Density = 1.926831 g / cm^3
# Si number density = 19.312265 Si / 1000 Ang^3
#
#
#
# Elastic Constant Matrix: (Units=GPa)
#
#
# Indices 1 2 3 4 5 6 
#
# 1 148.9719 46.0783 67.6572 0.0000 0.0000 0.0000
# 2 46.0783 66.4381 41.3156 0.0000 0.0000 0.0000
# 3 67.6572 41.3156 100.1683 0.0000 0.0000 0.0000
# 4 0.0000 0.0000 0.0000 14.2900 0.0000 0.0000
# 5 0.0000 0.0000 0.0000 0.0000 47.1054 0.0000
# 6 0.0000 0.0000 0.0000 0.0000 0.0000 12.5548
#
#
#
# Elastic Compliance Matrix: (Units=1/GPa)
#
#
# Indices 1 2 3 4 5 6 
#
# 1 0.010353 -0.003809 -0.005422 0.000000 0.000000 0.000000
# 2 -0.003809 0.021645 -0.006355 0.000000 0.000000 0.000000
# 3 -0.005422 -0.006355 0.016267 0.000000 0.000000 0.000000
# 4 0.000000 0.000000 0.000000 0.069979 0.000000 0.000000
# 5 0.000000 0.000000 0.000000 0.000000 0.021229 0.000000
# 6 0.000000 0.000000 0.000000 0.000000 0.000000 0.079651
#
#
# Mechanical properties :
#
#
# Convention : Reuss Voigt Hill
#
# Bulk Modulus (GPa) = 58.50278 69.52006 64.01142
# Shear Modulus (GPa) = 19.53173 25.49186 22.51180
#
# Velocity S-wave (km/s) = 3.18365 3.63710 3.41790
# Velocity P-wave (km/s) = 6.62367 7.32898 6.98523
#
# Compressibility (1/GPa) = 0.01709320
#
# Stress axis : x y z
#
# Youngs Moduli (GPa) = 96.58862 46.19935 61.47539
#
# Poissons Ratio (x) = 0.17596 0.33332
# Poissons Ratio (y) = 0.36788 0.39069
# Poissons Ratio (z) = 0.52370 0.29361
#
# Static dielectric constant tensor:
#      x y z
#    x 1.643590 0.000000 0.000000 
#    y 0.000000 1.704160 0.000000 
#    z 0.000000 0.000000 1.679350 
# 
# From -- ./inp_files/13100.got.cif
#   From: 2010.05.17/outbox.cif.g08.bks.cpg/sg53_7_cif.got.tgz:13100.got - 2010.06.03 12:45:16.
