data_PCOD9418664
_publ_section_title
;
Structure prediction by ZEFSAII (Michael W. Deem and Ramdas Pophale) SiO2 
 PCOD9418664
Probable space group: P M N A
;
_chemical_formula_sum "Si O2"
_cell_formula_units_Z 48
_cell_length_a 8.765992
_cell_length_b 17.869775
_cell_length_c 15.895822
_cell_angle_alpha 90.000000
_cell_angle_beta 90.000000
_cell_angle_gamma 90.000000
_cell_volume 2490.021776
_symmetry_space_group_name_H-M "P M N A"
_symmetry_group_IT_number 53
_symmetry_cell_setting 'orthorhombic'
loop_
_space_group_symop_operation_xyz
x,y,z
1/2-x,-y,1/2+z
x,-y,-z
1/2-x,y,1/2-z
-x,-y,-z
1/2+x,y,1/2-z
-x,y,z
1/2+x,-y,1/2+z
loop_
_atom_site_type_symbol
_atom_site_label
_atom_site_fract_x
_atom_site_fract_y
_atom_site_fract_z
Si Si1 0.816069 0.912924 0.502837
Si Si2 0.318038 0.650737 0.657363
Si Si3 0.831410 0.502092 0.401404
Si Si4 0.183479 0.190189 0.655135
Si Si5 0.183009 0.817404 0.844985
Si Si6 0.818387 0.653646 0.156856
O O1 0.774288 0.871350 0.415186
O O2 0.745577 0.873905 0.585150
O O3 0.000000 0.908032 0.509817
O O4 0.772614 0.000000 0.500000
O O5 0.250000 0.654122 0.750000
O O6 0.500000 0.643569 0.657725
O O7 0.246753 0.576102 0.620181
O O8 0.279475 0.733011 0.622035
O O9 0.850434 0.500000 0.500000
O O10 0.733259 0.575342 0.381972
O O11 0.000000 0.507909 0.360019
O O12 0.250000 0.177652 0.750000
O O13 0.245589 0.270106 0.621342
O O14 0.000000 0.193449 0.662533
O O15 0.250000 0.827331 0.750000
O O16 0.000000 0.822949 0.838380
O O17 0.750000 0.651147 0.250000
O O18 0.000000 0.660234 0.156811
#
# Coordination Sequence:
#
# PCOD9418664 Si02
#       6
#     8   8   8   8   8   8
#     4  10  23  42  64  92 126 162 200 247 306 367
#     4  10  21  38  59  84 114 152 197 243 294 347
#     4  11  24  38  54  81 116 155 197 240 292 346
#     4  10  21  39  63  90 122 160 203 250 302 360
#     4  10  22  40  64  93 124 162 205 251 304 362
#     4  11  22  38  60  83 114 152 196 244 293 349
#
# _framework density 19.276938000000001
#
# number of rings (size 3 to 8) (size 9 to 14) (size 15 to 20)
#    0.000    1.667    0.000    5.000    2.333    5.667 
#    0.000    1.667    0.000    0.000    0.000    0.000 
#    0.000    0.000    0.000    0.000    0.000    0.000 
#
# Total GULP energy -267826.663742 kJ/mol
# GULP energy per Si atom -5579.722161 kJ/mol
# Density = 1.923306 g / cm^3
# Si number density = 19.276938 Si / 1000 Ang^3
#
#
#
# Elastic Constant Matrix: (Units=GPa)
#
#
# Indices 1 2 3 4 5 6 
#
# 1 95.9577 69.2578 40.3667 0.0000 0.0000 0.0000
# 2 69.2578 200.8166 88.7633 0.0000 0.0000 0.0000
# 3 40.3667 88.7633 88.5807 0.0000 0.0000 0.0000
# 4 0.0000 0.0000 0.0000 42.7086 0.0000 0.0000
# 5 0.0000 0.0000 0.0000 0.0000 21.3373 0.0000
# 6 0.0000 0.0000 0.0000 0.0000 0.0000 35.3035
#
#
#
# Elastic Compliance Matrix: (Units=1/GPa)
#
#
# Indices 1 2 3 4 5 6 
#
# 1 0.014256 -0.003671 -0.002818 0.000000 0.000000 0.000000
# 2 -0.003671 0.009884 -0.008232 0.000000 0.000000 0.000000
# 3 -0.002818 -0.008232 0.020822 0.000000 0.000000 0.000000
# 4 0.000000 0.000000 0.000000 0.023415 0.000000 0.000000
# 5 0.000000 0.000000 0.000000 0.000000 0.046866 0.000000
# 6 0.000000 0.000000 0.000000 0.000000 0.000000 0.028326
#
#
# Mechanical properties :
#
#
# Convention : Reuss Voigt Hill
#
# Bulk Modulus (GPa) = 64.42897 86.90340 75.66618
# Shear Modulus (GPa) = 28.06078 32.33434 30.19756
#
# Velocity S-wave (km/s) = 3.81946 4.10000 3.96221
# Velocity P-wave (km/s) = 7.27643 8.22148 7.76335
#
# Compressibility (1/GPa) = 0.01552097
#
# Stress axis : x y z
#
# Youngs Moduli (GPa) = 70.14405 101.17067 48.02622
#
# Poissons Ratio (x) = 0.37142 0.13534
# Poissons Ratio (y) = 0.25751 0.39534
# Poissons Ratio (z) = 0.19766 0.83281
#
# Static dielectric constant tensor:
#      x y z
#    x 1.690270 0.000000 0.000000 
#    y 0.000000 1.781310 0.000000 
#    z 0.000000 0.000000 1.632760 
# 
# From -- ./inp_files/20127.got.cif
#   From: 2010.05.17/outbox.cif.g08.bks.cpg/sg53_11_cif.got.tgz:20127.got - 2010.06.03 12:45:16.
