data_PCOD9418683
_publ_section_title
;
Structure prediction by ZEFSAII (Michael W. Deem and Ramdas Pophale) SiO2 
 PCOD9418683
Probable space group: P M N A
;
_chemical_formula_sum "Si O2"
_cell_formula_units_Z 58
_cell_length_a 14.996270
_cell_length_b 18.182468
_cell_length_c 9.578956
_cell_angle_alpha 90.000000
_cell_angle_beta 90.000000
_cell_angle_gamma 90.000000
_cell_volume 2611.886264
_symmetry_space_group_name_H-M "P M N A"
_symmetry_group_IT_number 53
_symmetry_cell_setting 'orthorhombic'
loop_
_space_group_symop_operation_xyz
x,y,z
1/2-x,-y,1/2+z
x,-y,-z
1/2-x,y,1/2-z
-x,-y,-z
1/2+x,y,1/2-z
-x,y,z
1/2+x,-y,1/2+z
loop_
_atom_site_type_symbol
_atom_site_label
_atom_site_fract_x
_atom_site_fract_y
_atom_site_fract_z
Si Si1 0.143775 0.981596 0.752377
Si Si2 0.343884 0.421466 0.332295
Si Si3 0.391192 0.149073 0.677435
Si Si4 0.605838 0.718634 0.145855
Si Si5 0.341819 0.416017 0.665000
Si Si6 0.602883 0.716418 0.837219
Si Si7 0.500000 0.000000 0.000000
Si Si8 0.103771 0.169801 0.121144
O O1 0.250000 0.966560 0.750000
O O2 0.135582 0.065046 0.805343
O O3 0.080013 0.979353 0.615507
O O4 0.107535 0.916635 0.849611
O O5 0.250000 0.421373 0.250000
O O6 0.332443 0.407467 0.498026
O O7 0.385448 0.503108 0.315592
O O8 0.395135 0.355672 0.258189
O O9 0.500000 0.148950 0.677951
O O10 0.359655 0.203096 0.799416
O O11 0.357284 0.182079 0.531650
O O12 0.500000 0.726356 0.135066
O O13 0.617351 0.654679 0.259935
O O14 0.642328 0.701951 0.990984
O O15 0.250000 0.422558 0.750000
O O16 0.500000 0.737282 0.861236
O O17 0.643786 0.782905 0.747436
O O18 0.000000 0.192286 0.111274
#
# Coordination Sequence:
#
# PCOD9418683 Si02
#       8
#     8   8   8   8   8   8   2   8
#     4  12  27  43  71 103 139 193 244 291 372 440
#     4  10  21  38  60  85 118 160 207 264 330 397
#     4  10  21  41  64  89 129 177 223 284 351 410
#     4  10  22  38  61  91 125 168 213 264 332 403
#     4  10  21  38  60  85 118 160 207 264 330 397
#     4  10  22  38  61  91 125 168 213 264 332 403
#     4  12  28  48  74 106 160 188 236 348 348 434
#     4  10  21  41  64  89 129 177 223 284 351 410
#
# _framework density 22.206175000000002
#
# number of rings (size 3 to 8) (size 9 to 14) (size 15 to 20)
#    0.000    1.655    1.379    2.069    3.862    6.069 
#    0.000    5.517    0.000    0.000    0.000    0.000 
#    0.000    0.000    0.000    0.000    0.000    0.000 
#
# Total GULP energy -322913.697828 kJ/mol
# GULP energy per Si atom -5567.477549 kJ/mol
# Density = 2.215563 g / cm^3
# Si number density = 22.206175 Si / 1000 Ang^3
#
#
#
# Elastic Constant Matrix: (Units=GPa)
#
#
# Indices 1 2 3 4 5 6 
#
# 1 60.7366 -19.3921 -0.6440 0.0000 0.0000 0.0000
# 2 -19.3921 105.7103 35.6227 0.0000 0.0000 0.0000
# 3 -0.6440 35.6227 125.8831 0.0000 0.0000 0.0000
# 4 0.0000 0.0000 0.0000 52.3833 0.0000 0.0000
# 5 0.0000 0.0000 0.0000 0.0000 20.7633 0.0000
# 6 0.0000 0.0000 0.0000 0.0000 0.0000 22.2171
#
#
#
# Elastic Compliance Matrix: (Units=1/GPa)
#
#
# Indices 1 2 3 4 5 6 
#
# 1 0.017583 0.003532 -0.000910 0.000000 0.000000 0.000000
# 2 0.003532 0.011166 -0.003142 0.000000 0.000000 0.000000
# 3 -0.000910 -0.003142 0.008828 0.000000 0.000000 0.000000
# 4 0.000000 0.000000 0.000000 0.019090 0.000000 0.000000
# 5 0.000000 0.000000 0.000000 0.000000 0.048162 0.000000
# 6 0.000000 0.000000 0.000000 0.000000 0.000000 0.045010
#
#
# Mechanical properties :
#
#
# Convention : Reuss Voigt Hill
#
# Bulk Modulus (GPa) = 27.36837 35.94480 31.65659
# Shear Modulus (GPa) = 30.66394 37.52231 34.09312
#
# Velocity S-wave (km/s) = 3.72004 4.11508 3.92254
# Velocity P-wave (km/s) = 5.55005 6.22901 5.89931
#
# Compressibility (1/GPa) = 0.03653852
#
# Stress axis : x y z
#
# Youngs Moduli (GPa) = 56.87444 89.55365 113.27194
#
# Poissons Ratio (x) = -0.31630 0.10302
# Poissons Ratio (y) = -0.20088 0.35588
# Poissons Ratio (z) = 0.05173 0.28136
#
# Static dielectric constant tensor:
#      x y z
#    x 1.864270 0.000000 0.000000 
#    y 0.000000 1.823450 0.000000 
#    z 0.000000 0.000000 1.870670 
# 
# From -- ./inp_files/10148.got.cif
#   From: 2010.05.17/outbox.cif.g08.bks.cpg/sg53_6_cif.got.tgz:10148.got - 2010.06.03 12:45:16.
