data_PCOD9418116
_publ_section_title
;
Structure prediction by ZEFSAII (Michael W. Deem and Ramdas Pophale) SiO2 
 PCOD9418116
Probable space group: P M N A
;
_chemical_formula_sum "Si O2"
_cell_formula_units_Z 48
_cell_length_a 8.483583
_cell_length_b 14.907046
_cell_length_c 21.038544
_cell_angle_alpha 90.000000
_cell_angle_beta 90.000000
_cell_angle_gamma 90.000000
_cell_volume 2660.642876
_symmetry_space_group_name_H-M "P M N A"
_symmetry_group_IT_number 53
_symmetry_cell_setting 'orthorhombic'
loop_
_space_group_symop_operation_xyz
x,y,z
1/2-x,-y,1/2+z
x,-y,-z
1/2-x,y,1/2-z
-x,-y,-z
1/2+x,y,1/2-z
-x,y,z
1/2+x,-y,1/2+z
loop_
_atom_site_type_symbol
_atom_site_label
_atom_site_fract_x
_atom_site_fract_y
_atom_site_fract_z
Si Si1 0.189009 0.251517 0.372636
Si Si2 0.192064 0.442844 0.938335
Si Si3 0.809376 0.060029 0.561024
Si Si4 0.688994 0.751254 0.483009
Si Si5 0.690211 0.940987 0.819703
Si Si6 0.188730 0.560746 0.819810
O O1 0.240964 0.248702 0.446012
O O2 0.242517 0.159542 0.338897
O O3 0.257200 0.339703 0.339567
O O4 0.000000 0.254990 0.369682
O O5 0.245493 0.491910 0.874268
O O6 0.000000 0.444413 0.937846
O O7 0.242242 0.500000 0.000000
O O8 0.240560 0.340008 0.947787
O O9 0.742057 0.159054 0.552474
O O10 0.000000 0.065145 0.560712
O O11 0.763002 0.000000 0.500000
O O12 0.758625 0.009437 0.625090
O O13 0.500000 0.749494 0.488410
O O14 0.750000 0.964537 0.750000
O O15 0.500000 0.940806 0.819573
O O16 0.250000 0.538425 0.750000
O O17 0.000000 0.559300 0.819363
#
# Coordination Sequence:
#
# PCOD9418116 Si02
#       6
#     8   8   8   8   8   8
#     4  11  21  36  57  85 118 152 185 230 289 344
#     4   9  18  36  58  80 112 150 185 229 283 330
#     4  10  20  39  59  79 114 153 186 230 286 339
#     4  11  21  35  59  89 113 144 192 241 281 330
#     4  10  22  38  57  80 113 152 184 226 283 337
#     4  11  22  38  58  83 116 152 189 233 286 342
#
# _framework density 18.040752999999999
#
# number of rings (size 3 to 8) (size 9 to 14) (size 15 to 20)
#    0.000    1.667    3.333    2.000    0.000    3.667 
#    0.000    5.000    0.000    4.000    0.000    0.000 
#    0.000    0.000    0.000    0.000    0.000    0.000 
#
# Total GULP energy -268123.196358 kJ/mol
# GULP energy per Si atom -5585.899924 kJ/mol
# Density = 1.799969 g / cm^3
# Si number density = 18.040753 Si / 1000 Ang^3
#
#
#
# Elastic Constant Matrix: (Units=GPa)
#
#
# Indices 1 2 3 4 5 6 
#
# 1 25.1880 20.4356 23.3443 0.0000 0.0000 0.0000
# 2 20.4356 151.7496 88.8450 0.0000 0.0000 0.0000
# 3 23.3443 88.8450 177.3537 0.0000 0.0000 0.0000
# 4 0.0000 0.0000 0.0000 14.2664 0.0000 0.0000
# 5 0.0000 0.0000 0.0000 0.0000 82.1741 0.0000
# 6 0.0000 0.0000 0.0000 0.0000 0.0000 44.0459
#
#
#
# Elastic Compliance Matrix: (Units=1/GPa)
#
#
# Indices 1 2 3 4 5 6 
#
# 1 0.046723 -0.003808 -0.004242 0.000000 0.000000 0.000000
# 2 -0.003808 0.009635 -0.004325 0.000000 0.000000 0.000000
# 3 -0.004242 -0.004325 0.008364 0.000000 0.000000 0.000000
# 4 0.000000 0.000000 0.000000 0.070095 0.000000 0.000000
# 5 0.000000 0.000000 0.000000 0.000000 0.012169 0.000000
# 6 0.000000 0.000000 0.000000 0.000000 0.000000 0.022704
#
#
# Mechanical properties :
#
#
# Convention : Reuss Voigt Hill
#
# Bulk Modulus (GPa) = 25.01890 68.83791 46.92840
# Shear Modulus (GPa) = 24.06576 42.87505 33.47040
#
# Velocity S-wave (km/s) = 3.65631 4.88029 4.31195
# Velocity P-wave (km/s) = 5.63231 8.36637 7.13158
#
# Compressibility (1/GPa) = 0.03996979
#
# Stress axis : x y z
#
# Youngs Moduli (GPa) = 21.40278 103.78784 119.56549
#
# Poissons Ratio (x) = 0.39526 0.50722
# Poissons Ratio (y) = 0.08151 0.51717
# Poissons Ratio (z) = 0.09079 0.44892
#
# Static dielectric constant tensor:
#      x y z
#    x 1.622210 0.000000 0.000000 
#    y 0.000000 1.604100 0.000000 
#    z 0.000000 0.000000 1.604700 
# 
# From -- ./inp_files/30518.got.cif
#   From: 2010.05.17/outbox.cif.g08.bks.cpg/sg53_16_cif.got.tgz:30518.got - 2010.06.03 12:45:16.
