data_PCOD9418341
_publ_section_title
;
Structure prediction by ZEFSAII (Michael W. Deem and Ramdas Pophale) SiO2 
 PCOD9418341
Probable space group: P M N A
;
_chemical_formula_sum "Si O2"
_cell_formula_units_Z 48
_cell_length_a 8.429602
_cell_length_b 32.930995
_cell_length_c 9.265836
_cell_angle_alpha 90.000000
_cell_angle_beta 90.000000
_cell_angle_gamma 90.000000
_cell_volume 2572.151424
_symmetry_space_group_name_H-M "P M N A"
_symmetry_group_IT_number 53
_symmetry_cell_setting 'orthorhombic'
loop_
_space_group_symop_operation_xyz
x,y,z
1/2-x,-y,1/2+z
x,-y,-z
1/2-x,y,1/2-z
-x,-y,-z
1/2+x,y,1/2-z
-x,y,z
1/2+x,-y,1/2+z
loop_
_atom_site_type_symbol
_atom_site_label
_atom_site_fract_x
_atom_site_fract_y
_atom_site_fract_z
Si Si1 0.308281 0.540010 0.913551
Si Si2 0.810482 0.872222 0.915852
Si Si3 0.810513 0.788199 0.584399
Si Si4 0.691863 0.960683 0.585888
Si Si5 0.691901 0.619991 0.086837
Si Si6 0.691801 0.699252 0.914730
O O1 0.250000 0.539322 0.750000
O O2 0.500000 0.539936 0.912636
O O3 0.254742 0.500000 0.000000
O O4 0.255221 0.580809 0.995398
O O5 0.750000 0.872508 0.750000
O O6 0.750125 0.830182 0.983862
O O7 0.759701 0.916310 0.975780
O O8 0.000000 0.870623 0.913821
O O9 0.750000 0.788054 0.750000
O O10 0.759427 0.743929 0.527100
O O11 0.000000 0.789827 0.585643
O O12 0.750000 0.963076 0.750000
O O13 0.500000 0.961385 0.585911
O O14 0.749940 0.000000 0.500000
O O15 0.750000 0.617331 0.250000
O O16 0.500000 0.620173 0.086850
O O17 0.747090 0.661536 0.010453
O O18 0.750000 0.694953 0.750000
O O19 0.500000 0.698653 0.911699
#
# Coordination Sequence:
#
# PCOD9418341 Si02
#       6
#     8   8   8   8   8   8
#     4  10  21  36  55  80 107 134 167 206 246 291
#     4   9  15  24  40  62  88 116 147 185 229 275
#     4   9  15  24  40  63  90 116 146 187 232 276
#     4   9  18  31  46  66  92 120 152 191 232 277
#     4  10  21  36  52  73 101 132 168 205 241 285
#     4   9  18  31  48  71  97 124 156 196 239 284
#
# _framework density 18.661422000000002
#
# number of rings (size 3 to 8) (size 9 to 14) (size 15 to 20)
#    0.000    2.667    0.000    3.000    0.000    3.333 
#    0.000    0.000    0.000    1.000    0.000    7.000 
#    0.000    0.000    0.000    0.000    0.000    0.000 
#
# Total GULP energy -267436.529016 kJ/mol
# GULP energy per Si atom -5571.594355 kJ/mol
# Density = 1.861895 g / cm^3
# Si number density = 18.661422 Si / 1000 Ang^3
#
#
#
# Elastic Constant Matrix: (Units=GPa)
#
#
# Indices 1 2 3 4 5 6 
#
# 1 13.9976 33.1275 7.0304 0.0000 0.0000 0.0000
# 2 33.1275 249.9947 83.6513 0.0000 0.0000 0.0000
# 3 7.0304 83.6513 80.9139 0.0000 0.0000 0.0000
# 4 0.0000 0.0000 0.0000 24.6450 0.0000 0.0000
# 5 0.0000 0.0000 0.0000 0.0000 19.4338 0.0000
# 6 0.0000 0.0000 0.0000 0.0000 0.0000 21.2151
#
#
#
# Elastic Compliance Matrix: (Units=1/GPa)
#
#
# Indices 1 2 3 4 5 6 
#
# 1 0.107560 -0.017010 0.008240 0.000000 0.000000 0.000000
# 2 -0.017010 0.008806 -0.007626 0.000000 0.000000 0.000000
# 3 0.008240 -0.007626 0.019527 0.000000 0.000000 0.000000
# 4 0.000000 0.000000 0.000000 0.040576 0.000000 0.000000
# 5 0.000000 0.000000 0.000000 0.000000 0.051457 0.000000
# 6 0.000000 0.000000 0.000000 0.000000 0.000000 0.047136
#
#
# Mechanical properties :
#
#
# Convention : Reuss Voigt Hill
#
# Bulk Modulus (GPa) = 9.69923 65.83606 37.76765
# Shear Modulus (GPa) = 14.61046 27.79859 21.20453
#
# Velocity S-wave (km/s) = 2.80111 3.86376 3.37453
# Velocity P-wave (km/s) = 3.95859 7.43375 5.95529
#
# Compressibility (1/GPa) = 0.10310092
#
# Stress axis : x y z
#
# Youngs Moduli (GPa) = 9.29712 113.56059 51.21216
#
# Poissons Ratio (x) = 1.93172 -0.42201
# Poissons Ratio (y) = 0.15815 0.39053
# Poissons Ratio (z) = -0.07661 0.86599
#
# Static dielectric constant tensor:
#      x y z
#    x 1.638230 0.000000 0.000000 
#    y 0.000000 1.728660 0.000000 
#    z 0.000000 0.000000 1.594290 
# 
# From -- ./inp_files/6741.got.cif
#   From: 2010.05.17/outbox.cif.g08.bks.cpg/sg53_4_cif.got.tgz:6741.got - 2010.06.03 12:45:16.
