data_PCOD9418234
_publ_section_title
;
Structure prediction by ZEFSAII (Michael W. Deem and Ramdas Pophale) SiO2 
 PCOD9418234
Probable space group: P M N A
;
_chemical_formula_sum "Si O2"
_cell_formula_units_Z 48
_cell_length_a 19.003058
_cell_length_b 8.728427
_cell_length_c 15.675416
_cell_angle_alpha 90.000000
_cell_angle_beta 90.000000
_cell_angle_gamma 90.000000
_cell_volume 2600.031162
_symmetry_space_group_name_H-M "P M N A"
_symmetry_group_IT_number 53
_symmetry_cell_setting 'orthorhombic'
loop_
_space_group_symop_operation_xyz
x,y,z
1/2-x,-y,1/2+z
x,-y,-z
1/2-x,y,1/2-z
-x,-y,-z
1/2+x,y,1/2-z
-x,y,z
1/2+x,-y,1/2+z
loop_
_atom_site_type_symbol
_atom_site_label
_atom_site_fract_x
_atom_site_fract_y
_atom_site_fract_z
Si Si1 0.804064 0.464178 0.099079
Si Si2 0.177789 0.757873 0.552883
Si Si3 0.421102 0.471408 0.121354
Si Si4 0.800697 0.278797 0.638736
Si Si5 0.080183 0.721119 0.796661
Si Si6 0.324993 0.959923 0.786217
O O1 0.739592 0.344412 0.094404
O O2 0.769850 0.615184 0.144205
O O3 0.869072 0.381883 0.144441
O O4 0.820634 0.500000 0.000000
O O5 0.110592 0.644962 0.551356
O O6 0.201049 0.792479 0.457095
O O7 0.163619 0.893053 0.618774
O O8 0.500000 0.523208 0.103410
O O9 0.366175 0.605666 0.138630
O O10 0.422203 0.368689 0.206994
O O11 0.817366 0.142109 0.703537
O O12 0.000000 0.736660 0.828416
O O13 0.116293 0.884780 0.774744
O O14 0.250000 0.904041 0.750000
#
# Coordination Sequence:
#
# PCOD9418234 Si02
#       6
#     8   8   8   8   8   8
#     4   9  18  35  57  81 106 140 186 237 276 319
#     4   9  18  35  53  80 109 141 184 225 267 331
#     4   9  19  33  53  79 111 147 181 223 271 318
#     4  10  21  31  55  84 110 138 184 229 273 325
#     4  10  21  37  55  78 111 147 184 222 270 338
#     4  11  21  34  55  79 107 148 178 219 277 323
#
# _framework density 18.461317000000001
#
# number of rings (size 3 to 8) (size 9 to 14) (size 15 to 20)
#    0.000    2.333    1.667    2.000    2.333    2.333 
#    0.000    0.000    0.000    5.000    0.000    2.333 
#    0.000    0.000    0.000    0.000    0.000    0.000 
#
# Total GULP energy -267472.571782 kJ/mol
# GULP energy per Si atom -5572.345245 kJ/mol
# Density = 1.841930 g / cm^3
# Si number density = 18.461317 Si / 1000 Ang^3
#
#
#
# Elastic Constant Matrix: (Units=GPa)
#
#
# Indices 1 2 3 4 5 6 
#
# 1 142.7482 54.5255 31.8770 0.0000 0.0000 0.0000
# 2 54.5255 110.8229 35.1621 0.0000 0.0000 0.0000
# 3 31.8770 35.1621 38.7558 0.0000 0.0000 0.0000
# 4 0.0000 0.0000 0.0000 31.2645 0.0000 0.0000
# 5 0.0000 0.0000 0.0000 0.0000 22.7802 0.0000
# 6 0.0000 0.0000 0.0000 0.0000 0.0000 16.8483
#
#
#
# Elastic Compliance Matrix: (Units=1/GPa)
#
#
# Indices 1 2 3 4 5 6 
#
# 1 0.009240 -0.002998 -0.004880 0.000000 0.000000 0.000000
# 2 -0.002998 0.013643 -0.009913 0.000000 0.000000 0.000000
# 3 -0.004880 -0.009913 0.038810 0.000000 0.000000 0.000000
# 4 0.000000 0.000000 0.000000 0.031985 0.000000 0.000000
# 5 0.000000 0.000000 0.000000 0.000000 0.043898 0.000000
# 6 0.000000 0.000000 0.000000 0.000000 0.000000 0.059353
#
#
# Mechanical properties :
#
#
# Convention : Reuss Voigt Hill
#
# Bulk Modulus (GPa) = 38.29608 59.49512 48.89560
# Shear Modulus (GPa) = 20.72834 25.56275 23.14554
#
# Velocity S-wave (km/s) = 3.35445 3.72515 3.54465
# Velocity P-wave (km/s) = 5.98265 7.12735 6.57994
#
# Compressibility (1/GPa) = 0.02611233
#
# Stress axis : x y z
#
# Youngs Moduli (GPa) = 108.22223 73.29536 25.76644
#
# Poissons Ratio (x) = 0.21973 0.12575
# Poissons Ratio (y) = 0.32443 0.25541
# Poissons Ratio (z) = 0.52816 0.72655
#
# Static dielectric constant tensor:
#      x y z
#    x 1.630780 0.000000 0.000000 
#    y 0.000000 1.656350 0.000000 
#    z 0.000000 0.000000 1.689790 
# 
# From -- ./inp_files/23625.got.cif
#   From: 2010.05.17/outbox.cif.g08.bks.cpg/sg53_12_cif.got.tgz:23625.got - 2010.06.03 12:45:16.
