data_PCOD9418786
_publ_section_title
;
Structure prediction by ZEFSAII (Michael W. Deem and Ramdas Pophale) SiO2 
 PCOD9418786
Probable space group: P M N A
;
_chemical_formula_sum "Si O2"
_cell_formula_units_Z 40
_cell_length_a 10.296618
_cell_length_b 11.993628
_cell_length_c 15.796639
_cell_angle_alpha 90.000000
_cell_angle_beta 90.000000
_cell_angle_gamma 90.000000
_cell_volume 1950.787071
_symmetry_space_group_name_H-M "P M N A"
_symmetry_group_IT_number 53
_symmetry_cell_setting 'orthorhombic'
loop_
_space_group_symop_operation_xyz
x,y,z
1/2-x,-y,1/2+z
x,-y,-z
1/2-x,y,1/2-z
-x,-y,-z
1/2+x,y,1/2-z
-x,y,z
1/2+x,-y,1/2+z
loop_
_atom_site_type_symbol
_atom_site_label
_atom_site_fract_x
_atom_site_fract_y
_atom_site_fract_z
Si Si1 0.263409 0.231869 0.569675
Si Si2 0.655988 0.404845 0.430655
Si Si3 0.000000 0.865711 0.495459
Si Si4 0.750000 0.322100 0.250000
Si Si5 0.500000 0.066682 0.583520
Si Si6 0.500000 0.057616 0.761043
Si Si7 0.000000 0.187595 0.316216
Si Si8 0.250000 0.780821 0.250000
O O1 0.305576 0.297652 0.486403
O O2 0.127365 0.174046 0.552943
O O3 0.373004 0.140736 0.583530
O O4 0.261662 0.289452 0.662912
O O5 0.695223 0.500000 0.500000
O O6 0.500000 0.412724 0.420120
O O7 0.717084 0.392519 0.336248
O O8 0.000000 0.795765 0.582871
O O9 0.000000 0.000000 0.500000
O O10 0.626624 0.243515 0.226411
O O11 0.500000 0.998102 0.668906
O O12 0.500000 0.000000 0.500000
O O13 0.374250 0.137584 0.763990
O O14 0.500000 0.947910 0.816853
#
# Coordination Sequence:
#
# PCOD9418786 Si02
#       8
#     8   8   4   4   4   4   4   4
#     4  11  22  40  62  92 129 173 221 273 324 389
#     4  11  25  47  74  99 131 169 224 280 339 399
#     4  12  24  38  60  98 140 180 212 266 334 389
#     4  12  25  45  70 100 130 172 216 278 340 392
#     4  10  22  34  58  88 126 170 229 265 313 395
#     4  10  22  36  54  91 127 183 221 268 314 386
#     4  12  24  38  66  93 138 176 220 267 325 391
#     4  10  21  39  58  86 136 174 228 268 318 384
#
# _framework density 20.504543000000002
#
# number of rings (size 3 to 8) (size 9 to 14) (size 15 to 20)
#    0.000    1.000    4.000    3.000    2.800    4.000 
#    0.000    2.000    0.000    0.000    0.000    0.000 
#    0.000    0.000    0.000    0.000    0.000    0.000 
#
# Total GULP energy -222838.441776 kJ/mol
# GULP energy per Si atom -5570.961044 kJ/mol
# Density = 2.045787 g / cm^3
# Si number density = 20.504543 Si / 1000 Ang^3
#
#
#
# Elastic Constant Matrix: (Units=GPa)
#
#
# Indices 1 2 3 4 5 6 
#
# 1 124.1799 1.6634 18.1418 0.0000 0.0000 0.0000
# 2 1.6634 21.6922 19.3603 0.0000 0.0000 0.0000
# 3 18.1418 19.3603 200.0138 0.0000 0.0000 0.0000
# 4 0.0000 0.0000 0.0000 33.1447 0.0000 0.0000
# 5 0.0000 0.0000 0.0000 0.0000 38.5254 0.0000
# 6 0.0000 0.0000 0.0000 0.0000 0.0000 87.2626
#
#
#
# Elastic Compliance Matrix: (Units=1/GPa)
#
#
# Indices 1 2 3 4 5 6 
#
# 1 0.008161 0.000038 -0.000744 0.000000 0.000000 0.000000
# 2 0.000038 0.050459 -0.004888 0.000000 0.000000 0.000000
# 3 -0.000744 -0.004888 0.005540 0.000000 0.000000 0.000000
# 4 0.000000 0.000000 0.000000 0.030171 0.000000 0.000000
# 5 0.000000 0.000000 0.000000 0.000000 0.025957 0.000000
# 6 0.000000 0.000000 0.000000 0.000000 0.000000 0.011460
#
#
# Mechanical properties :
#
#
# Convention : Reuss Voigt Hill
#
# Bulk Modulus (GPa) = 18.87749 47.13522 33.00636
# Shear Modulus (GPa) = 31.13486 52.23455 41.68471
#
# Velocity S-wave (km/s) = 3.90094 5.05271 4.51372
# Velocity P-wave (km/s) = 5.43289 7.55497 6.58004
#
# Compressibility (1/GPa) = 0.05297314
#
# Stress axis : x y z
#
# Youngs Moduli (GPa) = 122.53396 19.81821 180.49814
#
# Poissons Ratio (x) = -0.00076 0.13428
# Poissons Ratio (y) = -0.00467 0.88220
# Poissons Ratio (z) = 0.09116 0.09686
#
# Static dielectric constant tensor:
#      x y z
#    x 1.682220 0.000000 0.000000 
#    y 0.000000 1.807300 0.000000 
#    z 0.000000 0.000000 1.822910 
# 
# From -- ./inp_files/19976.got.cif
#   From: 2010.05.17/outbox.cif.g08.bks.cpg/sg53_10_cif.got.tgz:19976.got - 2010.06.03 12:45:16.
