data_PCOD9418569
_publ_section_title
;
Structure prediction by ZEFSAII (Michael W. Deem and Ramdas Pophale) SiO2 
 PCOD9418569
Probable space group: P M N A
;
_chemical_formula_sum "Si O2"
_cell_formula_units_Z 40
_cell_length_a 17.173477
_cell_length_b 13.532121
_cell_length_c 8.470574
_cell_angle_alpha 90.000000
_cell_angle_beta 90.000000
_cell_angle_gamma 90.000000
_cell_volume 1968.506921
_symmetry_space_group_name_H-M "P M N A"
_symmetry_group_IT_number 53
_symmetry_cell_setting 'orthorhombic'
loop_
_space_group_symop_operation_xyz
x,y,z
1/2-x,-y,1/2+z
x,-y,-z
1/2-x,y,1/2-z
-x,-y,-z
1/2+x,y,1/2-z
-x,y,z
1/2+x,-y,1/2+z
loop_
_atom_site_type_symbol
_atom_site_label
_atom_site_fract_x
_atom_site_fract_y
_atom_site_fract_z
Si Si1 0.590811 0.612166 0.856608
Si Si2 0.089171 0.999137 0.192674
Si Si3 0.836727 0.202372 0.196060
Si Si4 0.162777 0.794583 0.180853
Si Si5 0.659569 0.412050 0.801466
O O1 0.500000 0.606887 0.901751
O O2 0.608060 0.712250 0.763207
O O3 0.614770 0.513130 0.762142
O O4 0.645588 0.607148 0.011970
O O5 0.119812 0.892069 0.243565
O O6 0.000000 0.012652 0.239606
O O7 0.138366 0.092749 0.250931
O O8 0.092027 0.000000 0.000000
O O9 0.750000 0.225587 0.250000
O O10 0.837068 0.200915 0.007414
O O11 0.250000 0.796217 0.250000
O O12 0.127768 0.688425 0.224821
O O13 0.750000 0.422821 0.750000
#
# Coordination Sequence:
#
# PCOD9418569 Si02
#       5
#     8   8   8   8   8
#     4  11  24  42  62  89 124 158 197 251 307 352
#     4   9  19  35  55  82 117 153 191 242 300 352
#     4  11  21  37  62  87 117 157 201 245 293 355
#     4  10  21  37  59  86 115 152 198 244 291 351
#     4  10  21  39  62  87 118 157 200 243 296 357
#
# _framework density 20.319970000000001
#
# number of rings (size 3 to 8) (size 9 to 14) (size 15 to 20)
#    0.000    1.800    0.000    5.400    0.000    6.400 
#    0.000    4.000    0.000    6.000    0.000    0.000 
#    0.000    0.000    0.000    0.000    0.000    0.000 
#
# Total GULP energy -223291.951495 kJ/mol
# GULP energy per Si atom -5582.298787 kJ/mol
# Density = 2.027372 g / cm^3
# Si number density = 20.319970 Si / 1000 Ang^3
#
#
#
# Elastic Constant Matrix: (Units=GPa)
#
#
# Indices 1 2 3 4 5 6 
#
# 1 87.9418 33.3606 22.2507 0.0000 0.0000 0.0000
# 2 33.3606 152.4285 27.8329 0.0000 0.0000 0.0000
# 3 22.2507 27.8329 43.6297 0.0000 0.0000 0.0000
# 4 0.0000 0.0000 0.0000 24.5643 0.0000 0.0000
# 5 0.0000 0.0000 0.0000 0.0000 11.8138 0.0000
# 6 0.0000 0.0000 0.0000 0.0000 0.0000 11.5848
#
#
#
# Elastic Compliance Matrix: (Units=1/GPa)
#
#
# Indices 1 2 3 4 5 6 
#
# 1 0.013538 -0.001927 -0.005675 0.000000 0.000000 0.000000
# 2 -0.001927 0.007700 -0.003929 0.000000 0.000000 0.000000
# 3 -0.005675 -0.003929 0.028321 0.000000 0.000000 0.000000
# 4 0.000000 0.000000 0.000000 0.040709 0.000000 0.000000
# 5 0.000000 0.000000 0.000000 0.000000 0.084647 0.000000
# 6 0.000000 0.000000 0.000000 0.000000 0.000000 0.086320
#
#
# Mechanical properties :
#
#
# Convention : Reuss Voigt Hill
#
# Bulk Modulus (GPa) = 37.74085 50.09870 43.91978
# Shear Modulus (GPa) = 17.05732 22.96296 20.01014
#
# Velocity S-wave (km/s) = 2.90045 3.36530 3.14148
# Velocity P-wave (km/s) = 5.46172 6.30942 5.90081
#
# Compressibility (1/GPa) = 0.02649649
#
# Stress axis : x y z
#
# Youngs Moduli (GPa) = 73.86653 129.87700 35.30942
#
# Poissons Ratio (x) = 0.25023 0.20038
# Poissons Ratio (y) = 0.14232 0.13874
# Poissons Ratio (z) = 0.41920 0.51032
#
# Static dielectric constant tensor:
#      x y z
#    x 1.701100 0.000000 0.000000 
#    y 0.000000 1.754720 0.000000 
#    z 0.000000 0.000000 1.728400 
# 
# From -- ./inp_files/8353.got.cif
#   From: 2010.05.17/outbox.cif.g08.bks.cpg/sg53_5_cif.got.tgz:8353.got - 2010.06.03 12:45:16.
