data_PCOD9418565
_publ_section_title
;
Structure prediction by ZEFSAII (Michael W. Deem and Ramdas Pophale) SiO2 
 PCOD9418565
Probable space group: P M N A
;
_chemical_formula_sum "Si O2"
_cell_formula_units_Z 64
_cell_length_a 19.502608
_cell_length_b 30.321922
_cell_length_c 5.433239
_cell_angle_alpha 90.000000
_cell_angle_beta 90.000000
_cell_angle_gamma 90.000000
_cell_volume 3212.981517
_symmetry_space_group_name_H-M "P M N A"
_symmetry_group_IT_number 53
_symmetry_cell_setting 'orthorhombic'
loop_
_space_group_symop_operation_xyz
x,y,z
1/2-x,-y,1/2+z
x,-y,-z
1/2-x,y,1/2-z
-x,-y,-z
1/2+x,y,1/2-z
-x,y,z
1/2+x,-y,1/2+z
loop_
_atom_site_type_symbol
_atom_site_label
_atom_site_fract_x
_atom_site_fract_y
_atom_site_fract_z
Si Si1 0.075245 0.619418 0.349029
Si Si2 0.421448 0.167540 0.894560
Si Si3 0.579790 0.481369 0.745112
Si Si4 0.422962 0.296979 0.480389
Si Si5 0.823456 0.756160 0.297840
Si Si6 0.318855 0.332420 0.100480
Si Si7 0.831401 0.972203 0.753156
Si Si8 0.421084 0.112234 0.397441
O O1 0.077415 0.571409 0.229442
O O2 0.073851 0.662472 0.173828
O O3 0.149609 0.624890 0.473201
O O4 0.000000 0.620277 0.483993
O O5 0.500000 0.181703 0.842947
O O6 0.371897 0.209006 0.928457
O O7 0.400857 0.137415 0.654173
O O8 0.421084 0.143212 0.156629
O O9 0.613409 0.500000 0.500000
O O10 0.500000 0.497305 0.746618
O O11 0.609386 0.500000 0.000000
O O12 0.500000 0.280776 0.438534
O O13 0.370606 0.259739 0.572047
O O14 0.386340 0.317496 0.247862
O O15 0.750000 0.777673 0.250000
O O16 0.805191 0.710692 0.436342
O O17 0.250000 0.340972 0.250000
O O18 0.750000 0.962139 0.750000
O O19 0.874328 0.928160 0.806372
O O20 0.847243 0.000000 0.500000
O O21 0.844161 0.000000 0.000000
O O22 0.500000 0.097356 0.439115
#
# Coordination Sequence:
#
# PCOD9418565 Si02
#       8
#     8   8   8   8   8   8   8   8
#     4   9  20  35  55  88 120 153 198 247 308 370
#     4  10  23  40  60  86 121 162 205 252 302 364
#     4   9  18  32  54  86 122 153 189 243 298 354
#     4  10  21  37  59  84 114 151 196 250 301 359
#     4  11  23  39  57  85 119 155 201 251 305 368
#     4  11  22  37  59  85 116 155 203 257 305 367
#     4  10  21  37  60  89 122 156 198 250 307 367
#     4  10  22  40  60  88 121 157 205 252 301 363
#
# _framework density 19.919195999999999
#
# number of rings (size 3 to 8) (size 9 to 14) (size 15 to 20)
#    0.000    2.000    1.250    1.500    3.500    3.000 
#    0.000    0.000    0.000    0.000    3.250    0.000 
#    0.000    0.000    0.000    0.000    0.000    0.000 
#
# Total GULP energy -356287.548168 kJ/mol
# GULP energy per Si atom -5566.992940 kJ/mol
# Density = 1.987386 g / cm^3
# Si number density = 19.919196 Si / 1000 Ang^3
#
#
#
# Elastic Constant Matrix: (Units=GPa)
#
#
# Indices 1 2 3 4 5 6 
#
# 1 96.5635 39.2090 26.4022 0.0000 0.0000 0.0000
# 2 39.2090 53.0868 8.5116 0.0000 0.0000 0.0000
# 3 26.4022 8.5116 86.2866 0.0000 0.0000 0.0000
# 4 0.0000 0.0000 0.0000 8.8663 0.0000 0.0000
# 5 0.0000 0.0000 0.0000 0.0000 15.3225 0.0000
# 6 0.0000 0.0000 0.0000 0.0000 0.0000 38.4642
#
#
#
# Elastic Compliance Matrix: (Units=1/GPa)
#
#
# Indices 1 2 3 4 5 6 
#
# 1 0.015914 -0.011149 -0.003769 0.000000 0.000000 0.000000
# 2 -0.011149 0.026951 0.000753 0.000000 0.000000 0.000000
# 3 -0.003769 0.000753 0.012668 0.000000 0.000000 0.000000
# 4 0.000000 0.000000 0.000000 0.112786 0.000000 0.000000
# 5 0.000000 0.000000 0.000000 0.000000 0.065263 0.000000
# 6 0.000000 0.000000 0.000000 0.000000 0.000000 0.025998
#
#
# Mechanical properties :
#
#
# Convention : Reuss Voigt Hill
#
# Bulk Modulus (GPa) = 36.76265 42.68695 39.72480
# Shear Modulus (GPa) = 16.83619 23.31821 20.07720
#
# Velocity S-wave (km/s) = 2.91043 3.42517 3.17824
# Velocity P-wave (km/s) = 5.45803 6.09254 5.78399
#
# Compressibility (1/GPa) = 0.02720152
#
# Stress axis : x y z
#
# Youngs Moduli (GPa) = 62.83947 37.10445 78.93645
#
# Poissons Ratio (x) = 0.41368 0.29755
# Poissons Ratio (y) = 0.70061 -0.05943
# Poissons Ratio (z) = 0.23687 -0.02794
#
# Static dielectric constant tensor:
#      x y z
#    x 1.805860 0.000000 0.000000 
#    y 0.000000 2.176550 0.000000 
#    z 0.000000 0.000000 1.787220 
# 
# From -- ./inp_files/2326.got.cif
#   From: 2010.05.17/outbox.cif.g08.bks.cpg/sg53_2_cif.got.tgz:2326.got - 2010.06.03 12:45:16.
