data_PCOD9418156
_publ_section_title
;
Structure prediction by ZEFSAII (Michael W. Deem and Ramdas Pophale) SiO2 
 PCOD9418156
Probable space group: P M N A
;
_chemical_formula_sum "Si O2"
_cell_formula_units_Z 56
_cell_length_a 15.453934
_cell_length_b 12.117378
_cell_length_c 13.948206
_cell_angle_alpha 90.000000
_cell_angle_beta 90.000000
_cell_angle_gamma 90.000000
_cell_volume 2611.957234
_symmetry_space_group_name_H-M "P M N A"
_symmetry_group_IT_number 53
_symmetry_cell_setting 'orthorhombic'
loop_
_space_group_symop_operation_xyz
x,y,z
1/2-x,-y,1/2+z
x,-y,-z
1/2-x,y,1/2-z
-x,-y,-z
1/2+x,y,1/2-z
-x,y,z
1/2+x,-y,1/2+z
loop_
_atom_site_type_symbol
_atom_site_label
_atom_site_fract_x
_atom_site_fract_y
_atom_site_fract_z
Si Si1 0.399866 0.342128 0.965457
Si Si2 0.092633 0.085791 0.589412
Si Si3 0.769242 0.274839 0.052079
Si Si4 0.901431 0.391457 0.933529
Si Si5 0.403166 0.714545 0.729031
Si Si6 0.812933 0.900634 0.662355
Si Si7 0.352760 0.524278 0.226570
O O1 0.500000 0.366758 0.996127
O O2 0.398727 0.211954 0.938882
O O3 0.376496 0.409536 0.869412
O O4 0.316119 0.350846 0.035840
O O5 0.000000 0.075459 0.639758
O O6 0.089696 0.000000 0.500000
O O7 0.163010 0.027177 0.653263
O O8 0.829828 0.292891 0.145756
O O9 0.733453 0.151734 0.069730
O O10 0.831952 0.300150 0.964093
O O11 0.892519 0.421449 0.822487
O O12 0.000000 0.358508 0.954251
O O13 0.883014 0.500000 0.000000
O O14 0.500000 0.725348 0.688622
O O15 0.387430 0.813863 0.804884
O O16 0.393080 0.597221 0.779425
O O17 0.750000 0.890000 0.750000
O O18 0.250000 0.518679 0.250000
#
# Coordination Sequence:
#
# PCOD9418156 Si02
#       7
#     8   8   8   8   8   8   8
#     4  11  24  40  64  97 129 166 211 267 332 386
#     4  10  20  39  66  88 117 161 213 261 316 391
#     4  11  21  38  60  92 122 159 212 259 308 372
#     4  11  22  38  63  88 122 175 218 248 302 381
#     4  11  23  40  64  92 128 168 213 262 314 377
#     4  10  22  38  62  93 125 162 209 267 323 374
#     4  12  23  40  61  93 135 168 205 258 321 387
#
# _framework density 21.439859999999999
#
# number of rings (size 3 to 8) (size 9 to 14) (size 15 to 20)
#    0.000    1.143    4.286    3.429    0.000    1.143 
#    0.000    0.000    0.000    3.000    0.000    5.000 
#    0.000    0.000    0.000    0.000    0.000    0.000 
#
# Total GULP energy -312451.693191 kJ/mol
# GULP energy per Si atom -5579.494521 kJ/mol
# Density = 2.139106 g / cm^3
# Si number density = 21.439860 Si / 1000 Ang^3
#
#
#
# Elastic Constant Matrix: (Units=GPa)
#
#
# Indices 1 2 3 4 5 6 
#
# 1 151.5457 23.9786 23.8566 0.0000 0.0000 0.0000
# 2 23.9786 84.9138 6.8636 0.0000 0.0000 0.0000
# 3 23.8566 6.8636 46.9380 0.0000 0.0000 0.0000
# 4 0.0000 0.0000 0.0000 22.2163 0.0000 0.0000
# 5 0.0000 0.0000 0.0000 0.0000 26.2556 0.0000
# 6 0.0000 0.0000 0.0000 0.0000 0.0000 21.2902
#
#
#
# Elastic Compliance Matrix: (Units=1/GPa)
#
#
# Indices 1 2 3 4 5 6 
#
# 1 0.007440 -0.001817 -0.003516 0.000000 0.000000 0.000000
# 2 -0.001817 0.012361 -0.000884 0.000000 0.000000 0.000000
# 3 -0.003516 -0.000884 0.023221 0.000000 0.000000 0.000000
# 4 0.000000 0.000000 0.000000 0.045012 0.000000 0.000000
# 5 0.000000 0.000000 0.000000 0.000000 0.038087 0.000000
# 6 0.000000 0.000000 0.000000 0.000000 0.000000 0.046970
#
#
# Mechanical properties :
#
#
# Convention : Reuss Voigt Hill
#
# Bulk Modulus (GPa) = 32.69190 43.64390 38.16790
# Shear Modulus (GPa) = 25.54676 29.19900 27.37288
#
# Velocity S-wave (km/s) = 3.45563 3.69440 3.57701
# Velocity P-wave (km/s) = 5.58598 6.21279 5.90770
#
# Compressibility (1/GPa) = 0.03058861
#
# Stress axis : x y z
#
# Youngs Moduli (GPa) = 134.41693 80.89877 43.06483
#
# Poissons Ratio (x) = 0.14697 0.15140
# Poissons Ratio (y) = 0.24419 0.03808
# Poissons Ratio (z) = 0.47255 0.07153
#
# Static dielectric constant tensor:
#      x y z
#    x 1.829440 0.000000 0.000000 
#    y 0.000000 1.834990 0.000000 
#    z 0.000000 0.000000 1.826470 
# 
# From -- ./inp_files/22788.got.cif
#   From: 2010.05.17/outbox.cif.g08.bks.cpg/sg53_12_cif.got.tgz:22788.got - 2010.06.03 12:45:16.
