data_PCOD9418113
_publ_section_title
;
Structure prediction by ZEFSAII (Michael W. Deem and Ramdas Pophale) SiO2 
 PCOD9418113
Probable space group: P M N A
;
_chemical_formula_sum "Si O2"
_cell_formula_units_Z 48
_cell_length_a 26.126013
_cell_length_b 5.609829
_cell_length_c 15.611768
_cell_angle_alpha 90.000000
_cell_angle_beta 90.000000
_cell_angle_gamma 90.000000
_cell_volume 2288.099207
_symmetry_space_group_name_H-M "P M N A"
_symmetry_group_IT_number 53
_symmetry_cell_setting 'orthorhombic'
loop_
_space_group_symop_operation_xyz
x,y,z
1/2-x,-y,1/2+z
x,-y,-z
1/2-x,y,1/2-z
-x,-y,-z
1/2+x,y,1/2-z
-x,y,z
1/2+x,-y,1/2+z
loop_
_atom_site_type_symbol
_atom_site_label
_atom_site_fract_x
_atom_site_fract_y
_atom_site_fract_z
Si Si1 0.277061 0.763367 0.085652
Si Si2 0.691414 0.000000 0.500000
Si Si3 0.331795 0.860124 0.807308
Si Si4 0.382946 0.259514 0.022253
Si Si5 0.750000 0.543577 0.750000
Si Si6 0.111234 0.988072 0.153656
Si Si7 0.561330 0.510342 0.600486
O O1 0.260561 0.592399 0.161876
O O2 0.288344 0.006787 0.137841
O O3 0.330599 0.726957 0.035782
O O4 0.231510 0.787482 0.018276
O O5 0.655610 0.005291 0.417597
O O6 0.367082 0.738914 0.878400
O O7 0.302078 0.691475 0.742234
O O8 0.364688 0.032120 0.748115
O O9 0.412755 0.500000 0.000000
O O10 0.405456 0.000000 0.000000
O O11 0.081795 0.242491 0.142641
O O12 0.080354 0.743467 0.137533
O O13 0.576908 0.500000 0.500000
O O14 0.500000 0.517689 0.604646
#
# Coordination Sequence:
#
# PCOD9418113 Si02
#       7
#     8   4   8   8   4   8   8
#     4  11  23  39  53  78 124 187 218 254 307 350
#     4  12  22  40  55  88 134 172 233 254 298 356
#     4  11  24  38  53  87 124 164 221 269 311 355
#     4  10  20  39  56  74 111 173 221 246 299 360
#     4  12  22  34  58  74 120 178 214 268 310 340
#     4  12  26  39  67 100 123 160 221 269 308 391
#     4  11  24  49  71  92 124 160 198 264 353 410
#
# _framework density 20.978110000000001
#
# number of rings (size 3 to 8) (size 9 to 14) (size 15 to 20)
#    0.000    0.833    5.833    3.000    4.667    1.333 
#    3.000    0.000    0.000    0.000    0.000    0.000 
#    0.000   56.000    0.000    0.000    0.000    0.000 
#
# Total GULP energy -267824.189755 kJ/mol
# GULP energy per Si atom -5579.670620 kJ/mol
# Density = 2.093036 g / cm^3
# Si number density = 20.978110 Si / 1000 Ang^3
#
#
#
# Elastic Constant Matrix: (Units=GPa)
#
#
# Indices 1 2 3 4 5 6 
#
# 1 33.3261 21.0314 11.1899 0.0000 0.0000 0.0000
# 2 21.0314 134.9232 17.0447 0.0000 0.0000 0.0000
# 3 11.1899 17.0447 90.0975 0.0000 0.0000 0.0000
# 4 0.0000 0.0000 0.0000 40.7089 0.0000 0.0000
# 5 0.0000 0.0000 0.0000 0.0000 2.6566 0.0000
# 6 0.0000 0.0000 0.0000 0.0000 0.0000 29.2445
#
#
#
# Elastic Compliance Matrix: (Units=1/GPa)
#
#
# Indices 1 2 3 4 5 6 
#
# 1 0.034223 -0.004915 -0.003321 0.000000 0.000000 0.000000
# 2 -0.004915 0.008299 -0.000960 0.000000 0.000000 0.000000
# 3 -0.003321 -0.000960 0.011693 0.000000 0.000000 0.000000
# 4 0.000000 0.000000 0.000000 0.024565 0.000000 0.000000
# 5 0.000000 0.000000 0.000000 0.000000 0.376424 0.000000
# 6 0.000000 0.000000 0.000000 0.000000 0.000000 0.034194
#
#
# Mechanical properties :
#
#
# Convention : Reuss Voigt Hill
#
# Bulk Modulus (GPa) = 27.91369 39.65319 33.78344
# Shear Modulus (GPa) = 9.62038 28.46073 19.04055
#
# Velocity S-wave (km/s) = 2.14380 3.68732 3.01597
# Velocity P-wave (km/s) = 4.41167 6.08865 5.31669
#
# Compressibility (1/GPa) = 0.03582472
#
# Stress axis : x y z
#
# Youngs Moduli (GPa) = 29.21989 120.49647 85.52108
#
# Poissons Ratio (x) = 0.59225 0.28398
# Poissons Ratio (y) = 0.14362 0.08206
# Poissons Ratio (z) = 0.09703 0.11562
#
# Static dielectric constant tensor:
#      x y z
#    x 1.709240 0.000000 0.000000 
#    y 0.000000 1.900520 0.000000 
#    z 0.000000 0.000000 1.744660 
# 
# From -- ./inp_files/25109.got.cif
#   From: 2010.05.17/outbox.cif.g08.bks.cpg/sg53_13_cif.got.tgz:25109.got - 2010.06.03 12:45:16.
