data_PCOD9418814
_publ_section_title
;
Structure prediction by ZEFSAII (Michael W. Deem and Ramdas Pophale) SiO2 
 PCOD9418814
Probable space group: P M N A
;
_chemical_formula_sum "Si O2"
_cell_formula_units_Z 48
_cell_length_a 8.593732
_cell_length_b 16.664247
_cell_length_c 18.684343
_cell_angle_alpha 90.000000
_cell_angle_beta 90.000000
_cell_angle_gamma 90.000000
_cell_volume 2675.748751
_symmetry_space_group_name_H-M "P M N A"
_symmetry_group_IT_number 53
_symmetry_cell_setting 'orthorhombic'
loop_
_space_group_symop_operation_xyz
x,y,z
1/2-x,-y,1/2+z
x,-y,-z
1/2-x,y,1/2-z
-x,-y,-z
1/2+x,y,1/2-z
-x,y,z
1/2+x,-y,1/2+z
loop_
_atom_site_type_symbol
_atom_site_label
_atom_site_fract_x
_atom_site_fract_y
_atom_site_fract_z
Si Si1 0.686014 0.656361 0.169859
Si Si2 0.186022 0.244348 0.957595
Si Si3 0.313671 0.165616 0.328143
Si Si4 0.313262 0.912182 0.969709
Si Si5 0.186338 0.675396 0.598691
Si Si6 0.186323 0.516459 0.830617
O O1 0.750000 0.667600 0.250000
O O2 0.500000 0.655076 0.170871
O O3 0.749199 0.724158 0.117201
O O4 0.749095 0.569573 0.144402
O O5 0.000000 0.247233 0.959069
O O6 0.244078 0.155835 0.978415
O O7 0.254274 0.300991 0.020093
O O8 0.250000 0.143792 0.250000
O O9 0.500000 0.167918 0.327950
O O10 0.254935 0.106741 0.391098
O O11 0.249241 0.253674 0.349838
O O12 0.500000 0.902924 0.966341
O O13 0.276654 0.000000 0.000000
O O14 0.252699 0.590293 0.623015
O O15 0.000000 0.675180 0.600844
O O16 0.250000 0.527809 0.750000
O O17 0.000000 0.514625 0.829412
#
# Coordination Sequence:
#
# PCOD9418814 Si02
#       6
#     8   8   8   8   8   8
#     4  11  22  39  59  81 109 145 187 231 277 323
#     4  11  22  38  59  84 111 143 182 224 274 330
#     4  11  21  35  56  83 115 149 185 226 274 328
#     4  10  21  39  62  87 115 146 181 224 275 331
#     4  11  21  35  54  80 112 147 186 228 275 326
#     4  11  21  35  53  78 110 147 189 231 276 324
#
# _framework density 17.938904000000001
#
# number of rings (size 3 to 8) (size 9 to 14) (size 15 to 20)
#    0.000    1.167    0.000   11.500    0.000    2.000 
#    0.000    4.167    0.000    4.000    0.000    0.000 
#    0.000    0.000    0.000    0.000    0.000    0.000 
#
# Total GULP energy -268394.482735 kJ/mol
# GULP energy per Si atom -5591.551724 kJ/mol
# Density = 1.789807 g / cm^3
# Si number density = 17.938904 Si / 1000 Ang^3
#
#
#
# Elastic Constant Matrix: (Units=GPa)
#
#
# Indices 1 2 3 4 5 6 
#
# 1 201.8475 73.0944 65.6923 0.0000 0.0000 0.0000
# 2 73.0944 118.9589 89.8305 0.0000 0.0000 0.0000
# 3 65.6923 89.8305 106.7179 0.0000 0.0000 0.0000
# 4 0.0000 0.0000 0.0000 17.0877 0.0000 0.0000
# 5 0.0000 0.0000 0.0000 0.0000 33.8465 0.0000
# 6 0.0000 0.0000 0.0000 0.0000 0.0000 31.3369
#
#
#
# Elastic Compliance Matrix: (Units=1/GPa)
#
#
# Indices 1 2 3 4 5 6 
#
# 1 0.006489 -0.002665 -0.001752 0.000000 0.000000 0.000000
# 2 -0.002665 0.024166 -0.018701 0.000000 0.000000 0.000000
# 3 -0.001752 -0.018701 0.026191 0.000000 0.000000 0.000000
# 4 0.000000 0.000000 0.000000 0.058522 0.000000 0.000000
# 5 0.000000 0.000000 0.000000 0.000000 0.029545 0.000000
# 6 0.000000 0.000000 0.000000 0.000000 0.000000 0.031911
#
#
# Mechanical properties :
#
#
# Convention : Reuss Voigt Hill
#
# Bulk Modulus (GPa) = 94.24661 98.30653 96.27657
# Shear Modulus (GPa) = 22.06573 29.71470 25.89021
#
# Velocity S-wave (km/s) = 3.51101 4.07435 3.80313
# Velocity P-wave (km/s) = 8.31191 8.77801 8.54814
#
# Compressibility (1/GPa) = 0.01061046
#
# Stress axis : x y z
#
# Youngs Moduli (GPa) = 154.10142 41.38107 38.18139
#
# Poissons Ratio (x) = 0.11026 0.06688
# Poissons Ratio (y) = 0.41061 0.71404
# Poissons Ratio (z) = 0.26993 0.77388
#
# Static dielectric constant tensor:
#      x y z
#    x 1.594200 0.000000 0.000000 
#    y 0.000000 1.595140 0.000000 
#    z 0.000000 0.000000 1.610090 
# 
# From -- ./inp_files/20251.got.cif
#   From: 2010.05.17/outbox.cif.g08.bks.cpg/sg53_11_cif.got.tgz:20251.got - 2010.06.03 12:45:16.
