data_PCOD9418548
_publ_section_title
;
Structure prediction by ZEFSAII (Michael W. Deem and Ramdas Pophale) SiO2 
 PCOD9418548
Probable space group: P M N A
;
_chemical_formula_sum "Si O2"
_cell_formula_units_Z 64
_cell_length_a 25.282340
_cell_length_b 14.607216
_cell_length_c 9.310183
_cell_angle_alpha 90.000000
_cell_angle_beta 90.000000
_cell_angle_gamma 90.000000
_cell_volume 3438.293421
_symmetry_space_group_name_H-M "P M N A"
_symmetry_group_IT_number 53
_symmetry_cell_setting 'orthorhombic'
loop_
_space_group_symop_operation_xyz
x,y,z
1/2-x,-y,1/2+z
x,-y,-z
1/2-x,y,1/2-z
-x,-y,-z
1/2+x,y,1/2-z
-x,y,z
1/2+x,-y,1/2+z
loop_
_atom_site_type_symbol
_atom_site_label
_atom_site_fract_x
_atom_site_fract_y
_atom_site_fract_z
Si Si1 0.062191 0.709648 0.424720
Si Si2 0.437577 0.711848 0.419076
Si Si3 0.149180 0.594187 0.583283
Si Si4 0.608021 0.090041 0.584769
Si Si5 0.765540 0.091175 0.915974
Si Si6 0.436970 0.915268 0.102203
Si Si7 0.650574 0.596637 0.574929
Si Si8 0.251562 0.273261 0.081792
O O1 0.072047 0.701343 0.252893
O O2 0.097970 0.642340 0.515779
O O3 0.074397 0.815487 0.463615
O O4 0.000000 0.693319 0.448442
O O5 0.500000 0.700177 0.444129
O O6 0.420054 0.815281 0.459363
O O7 0.401746 0.640853 0.505591
O O8 0.158098 0.500000 0.500000
O O9 0.144042 0.581638 0.754494
O O10 0.198981 0.660359 0.558960
O O11 0.670948 0.098743 0.567385
O O12 0.594675 0.075950 0.751242
O O13 0.589726 0.000000 0.500000
O O14 0.750000 0.084490 0.750000
O O15 0.743219 0.183409 0.985828
O O16 0.748002 0.000000 0.000000
O O17 0.500000 0.914994 0.136048
O O18 0.425670 0.000000 0.000000
O O19 0.662545 0.500000 0.500000
O O20 0.698379 0.668678 0.551338
O O21 0.250000 0.246476 0.250000
#
# Coordination Sequence:
#
# PCOD9418548 Si02
#       8
#     8   8   8   8   8   8   8   8
#     4   9  20  39  60  87 124 159 199 248 296 355
#     4  10  21  39  61  87 121 159 202 250 302 356
#     4  11  24  40  64  92 116 156 200 248 305 359
#     4  10  21  37  58  87 120 158 201 244 296 353
#     4  11  24  40  61  91 126 163 199 244 297 356
#     4   9  19  36  57  86 121 157 200 247 293 346
#     4  11  23  41  63  88 122 153 197 252 303 364
#     4  10  23  43  64  90 123 155 200 251 298 357
#
# _framework density 18.613886000000001
#
# number of rings (size 3 to 8) (size 9 to 14) (size 15 to 20)
#    0.000    1.875    1.250    2.625    3.500    4.500 
#    2.250    1.250    0.000    0.000    0.000    0.000 
#    0.000    0.000    0.000    0.000    0.000    0.000 
#
# Total GULP energy -357546.079988 kJ/mol
# GULP energy per Si atom -5586.657500 kJ/mol
# Density = 1.857152 g / cm^3
# Si number density = 18.613886 Si / 1000 Ang^3
#
#
#
# Elastic Constant Matrix: (Units=GPa)
#
#
# Indices 1 2 3 4 5 6 
#
# 1 56.7581 40.3493 49.0182 0.0000 0.0000 0.0000
# 2 40.3493 134.7810 92.8147 0.0000 0.0000 0.0000
# 3 49.0182 92.8147 94.1878 0.0000 0.0000 0.0000
# 4 0.0000 0.0000 0.0000 38.8120 0.0000 0.0000
# 5 0.0000 0.0000 0.0000 0.0000 31.0273 0.0000
# 6 0.0000 0.0000 0.0000 0.0000 0.0000 19.5196
#
#
#
# Elastic Compliance Matrix: (Units=1/GPa)
#
#
# Indices 1 2 3 4 5 6 
#
# 1 0.033572 0.006164 -0.023546 0.000000 0.000000 0.000000
# 2 0.006164 0.024216 -0.027071 0.000000 0.000000 0.000000
# 3 -0.023546 -0.027071 0.049548 0.000000 0.000000 0.000000
# 4 0.000000 0.000000 0.000000 0.025765 0.000000 0.000000
# 5 0.000000 0.000000 0.000000 0.000000 0.032230 0.000000
# 6 0.000000 0.000000 0.000000 0.000000 0.000000 0.051231
#
#
# Mechanical properties :
#
#
# Convention : Reuss Voigt Hill
#
# Bulk Modulus (GPa) = 54.26085 72.23238 63.24662
# Shear Modulus (GPa) = 16.04560 24.77474 20.41017
#
# Velocity S-wave (km/s) = 2.93921 3.65222 3.31494
# Velocity P-wave (km/s) = 6.38221 7.52827 6.97881
#
# Compressibility (1/GPa) = 0.01842949
#
# Stress axis : x y z
#
# Youngs Moduli (GPa) = 29.78690 41.29448 20.18237
#
# Poissons Ratio (x) = -0.25456 0.47522
# Poissons Ratio (y) = -0.18362 0.54637
# Poissons Ratio (z) = 0.70137 1.11790
#
# Static dielectric constant tensor:
#      x y z
#    x 1.630860 0.000000 0.000000 
#    y 0.000000 1.630130 0.000000 
#    z 0.000000 0.000000 1.614780 
# 
# From -- ./inp_files/11950.got.cif
#   From: 2010.05.17/outbox.cif.g08.bks.cpg/sg53_6_cif.got.tgz:11950.got - 2010.06.03 12:45:16.
