data_PCOD9418368
_publ_section_title
;
Structure prediction by ZEFSAII (Michael W. Deem and Ramdas Pophale) SiO2 
 PCOD9418368
Probable space group: P M N A
;
_chemical_formula_sum "Si O2"
_cell_formula_units_Z 56
_cell_length_a 14.418949
_cell_length_b 12.238403
_cell_length_c 15.238016
_cell_angle_alpha 90.000000
_cell_angle_beta 90.000000
_cell_angle_gamma 90.000000
_cell_volume 2688.975102
_symmetry_space_group_name_H-M "P M N A"
_symmetry_group_IT_number 53
_symmetry_cell_setting 'orthorhombic'
loop_
_space_group_symop_operation_xyz
x,y,z
1/2-x,-y,1/2+z
x,-y,-z
1/2-x,y,1/2-z
-x,-y,-z
1/2+x,y,1/2-z
-x,y,z
1/2+x,-y,1/2+z
loop_
_atom_site_type_symbol
_atom_site_label
_atom_site_fract_x
_atom_site_fract_y
_atom_site_fract_z
Si Si1 0.399279 0.308670 0.363744
Si Si2 0.694133 0.075385 0.075830
Si Si3 0.852313 0.470674 0.289189
Si Si4 0.199579 0.322717 0.448419
Si Si5 0.103775 0.934772 0.878848
Si Si6 0.894177 0.693551 0.367781
Si Si7 0.891477 0.074096 0.715414
O O1 0.500000 0.319171 0.408782
O O2 0.396868 0.390846 0.282339
O O3 0.309688 0.328687 0.425302
O O4 0.393075 0.183186 0.329349
O O5 0.665063 0.200600 0.075336
O O6 0.805271 0.076994 0.062965
O O7 0.669628 0.013720 0.164391
O O8 0.651401 0.000000 0.000000
O O9 0.750000 0.486692 0.250000
O O10 0.847366 0.409038 0.382885
O O11 0.893954 0.589524 0.304118
O O12 0.172817 0.333510 0.550290
O O13 0.000000 0.938899 0.917257
O O14 0.115361 0.040024 0.816908
O O15 0.866308 0.804167 0.316143
O O16 0.000000 0.709344 0.400707
O O17 0.000000 0.057863 0.692548
#
# Coordination Sequence:
#
# PCOD9418368 Si02
#       7
#     8   8   8   8   8   8   8
#     4   9  18  36  62  86 111 145 190 239 281 329
#     4  11  20  34  56  82 112 151 181 226 279 332
#     4  10  21  36  58  84 112 148 188 238 282 338
#     4  10  21  37  55  85 117 146 189 234 285 333
#     4   9  19  35  57  84 112 144 186 230 273 327
#     4  11  23  38  57  83 117 152 188 232 286 344
#     4  10  21  36  54  79 112 149 185 225 274 335
#
# _framework density 20.825778
#
# number of rings (size 3 to 8) (size 9 to 14) (size 15 to 20)
#    0.000    2.000    1.429    2.143    0.000    6.286 
#    0.000    0.000    0.000    7.714    0.000    0.000 
#    0.000    0.000    0.000    0.000    0.000    0.000 
#
# Total GULP energy -312118.546199 kJ/mol
# GULP energy per Si atom -5573.545468 kJ/mol
# Density = 2.077838 g / cm^3
# Si number density = 20.825778 Si / 1000 Ang^3
#
#
#
# Elastic Constant Matrix: (Units=GPa)
#
#
# Indices 1 2 3 4 5 6 
#
# 1 47.5366 9.8538 1.3626 0.0000 0.0000 0.0000
# 2 9.8538 125.7490 31.1716 0.0000 0.0000 0.0000
# 3 1.3626 31.1716 34.3611 0.0000 0.0000 0.0000
# 4 0.0000 0.0000 0.0000 25.8101 0.0000 0.0000
# 5 0.0000 0.0000 0.0000 0.0000 -9.0866 0.0000
# 6 0.0000 0.0000 0.0000 0.0000 0.0000 15.4338
#
#
#
# Elastic Compliance Matrix: (Units=1/GPa)
#
#
# Indices 1 2 3 4 5 6 
#
# 1 0.021404 -0.001892 0.000868 0.000000 0.000000 0.000000
# 2 -0.001892 0.010427 -0.009384 0.000000 0.000000 0.000000
# 3 0.000868 -0.009384 0.037581 0.000000 0.000000 0.000000
# 4 0.000000 0.000000 0.000000 0.038745 0.000000 0.000000
# 5 0.000000 0.000000 0.000000 0.000000 -0.110052 0.000000
# 6 0.000000 0.000000 0.000000 0.000000 0.000000 0.064793
#
#
# Mechanical properties :
#
#
# Convention : Reuss Voigt Hill
#
# Bulk Modulus (GPa) = 20.57824 32.49141 26.53483
# Shear Modulus (GPa) = 50.04417 17.44871 33.74644
#
# Velocity S-wave (km/s) = 4.90735 2.89769 4.02981
# Velocity P-wave (km/s) = 6.48167 5.17985 5.86698
#
# Compressibility (1/GPa) = 0.04859502
#
# Stress axis : x y z
#
# Youngs Moduli (GPa) = 46.72071 95.90684 26.60909
#
# Poissons Ratio (x) = 0.18149 -0.02309
# Poissons Ratio (y) = 0.08841 0.24970
# Poissons Ratio (z) = -0.04055 0.89998
#
# Static dielectric constant tensor:
#      x y z
#    x 1.789980 0.000000 0.000000 
#    y 0.000000 1.737530 0.000000 
#    z 0.000000 0.000000 1.742690 
# 
# From -- ./inp_files/22793.got.cif
#   From: 2010.05.17/outbox.cif.g08.bks.cpg/sg53_12_cif.got.tgz:22793.got - 2010.06.03 12:45:16.
