data_PCOD9418571
_publ_section_title
;
Structure prediction by ZEFSAII (Michael W. Deem and Ramdas Pophale) SiO2 
 PCOD9418571
Probable space group: P M N A
;
_chemical_formula_sum "Si O2"
_cell_formula_units_Z 64
_cell_length_a 8.167017
_cell_length_b 12.288437
_cell_length_c 31.574598
_cell_angle_alpha 90.000000
_cell_angle_beta 90.000000
_cell_angle_gamma 90.000000
_cell_volume 3168.822673
_symmetry_space_group_name_H-M "P M N A"
_symmetry_group_IT_number 53
_symmetry_cell_setting 'orthorhombic'
loop_
_space_group_symop_operation_xyz
x,y,z
1/2-x,-y,1/2+z
x,-y,-z
1/2-x,y,1/2-z
-x,-y,-z
1/2+x,y,1/2-z
-x,y,z
1/2+x,-y,1/2+z
loop_
_atom_site_type_symbol
_atom_site_label
_atom_site_fract_x
_atom_site_fract_y
_atom_site_fract_z
Si Si1 0.689957 0.008030 0.796211
Si Si2 0.802406 0.485624 0.795909
Si Si3 0.700137 0.631493 0.624754
Si Si4 0.809611 0.253165 0.589228
Si Si5 0.805467 0.121529 0.122701
Si Si6 0.309474 0.244319 0.683110
Si Si7 0.301561 0.476812 0.548126
Si Si8 0.801089 0.033429 0.952698
O O1 0.750000 0.973043 0.750000
O O2 0.500000 0.984512 0.800385
O O3 0.777708 0.946860 0.834701
O O4 0.719244 0.137378 0.800621
O O5 0.750000 0.527411 0.750000
O O6 0.745015 0.559977 0.834942
O O7 0.743917 0.360731 0.801124
O O8 0.000000 0.481980 0.798016
O O9 0.500000 0.632478 0.626269
O O10 0.759529 0.755656 0.626165
O O11 0.745940 0.570987 0.581291
O O12 0.705876 0.246562 0.632302
O O13 0.769348 0.364141 0.565188
O O14 0.766281 0.150468 0.560357
O O15 0.000000 0.249557 0.601262
O O16 0.000000 0.131559 0.116276
O O17 0.742660 0.053271 0.082500
O O18 0.500000 0.234005 0.695261
O O19 0.251050 0.500000 0.500000
O O20 0.500000 0.468742 0.548856
O O21 0.000000 0.038356 0.951132
O O22 0.753553 0.000000 0.000000
#
# Coordination Sequence:
#
# PCOD9418571 Si02
#       8
#     8   8   8   8   8   8   8   8
#     4  12  25  41  62  90 124 161 205 252 311 370
#     4  10  21  37  59  86 119 152 193 246 298 357
#     4   9  19  38  60  88 119 155 201 251 301 351
#     4  12  24  38  61  92 130 166 197 249 310 366
#     4  10  21  39  63  88 122 160 204 257 305 360
#     4  11  21  39  64  90 122 158 203 256 304 358
#     4  10  21  39  67  93 119 159 208 254 299 361
#     4  10  22  39  64  94 122 160 211 257 300 359
#
# _framework density 20.196777000000001
#
# number of rings (size 3 to 8) (size 9 to 14) (size 15 to 20)
#    0.000    1.500    2.500    3.000    1.750    3.000 
#    0.000    2.500    0.000    0.000    0.000    0.000 
#    0.000    0.000    0.000    0.000    0.000    0.000 
#
# Total GULP energy -357759.999330 kJ/mol
# GULP energy per Si atom -5589.999990 kJ/mol
# Density = 2.015081 g / cm^3
# Si number density = 20.196777 Si / 1000 Ang^3
#
#
#
# Elastic Constant Matrix: (Units=GPa)
#
#
# Indices 1 2 3 4 5 6 
#
# 1 10.7885 -0.3353 -9.7359 0.0000 0.0000 0.0000
# 2 -0.3353 131.9165 53.1028 0.0000 0.0000 0.0000
# 3 -9.7359 53.1028 141.8645 0.0000 0.0000 0.0000
# 4 0.0000 0.0000 0.0000 41.4389 0.0000 0.0000
# 5 0.0000 0.0000 0.0000 0.0000 12.2326 0.0000
# 6 0.0000 0.0000 0.0000 0.0000 0.0000 -0.0104
#
#
#
# Elastic Compliance Matrix: (Units=1/GPa)
#
#
# Indices 1 2 3 4 5 6 
#
# 1 0.099774 -0.002947 0.007950 0.000000 0.000000 0.000000
# 2 -0.002947 0.009012 -0.003576 0.000000 0.000000 0.000000
# 3 0.007950 -0.003576 0.008933 0.000000 0.000000 0.000000
# 4 0.000000 0.000000 0.000000 0.024132 0.000000 0.000000
# 5 0.000000 0.000000 0.000000 0.000000 0.081749 0.000000
# 6 0.000000 0.000000 0.000000 0.000000 0.000000-95.781563
#
#
# Mechanical properties :
#
#
# Convention : Reuss Voigt Hill
#
# Bulk Modulus (GPa) = 8.29355 41.18140 24.73747
# Shear Modulus (GPa) = -0.05234 26.83473 13.39119
#
# Velocity S-wave (km/s) = -0.16116 3.64904 2.57774
# Velocity P-wave (km/s) = 2.02006 6.17967 4.59723
#
# Compressibility (1/GPa) = 0.12057565
#
# Stress axis : x y z
#
# Youngs Moduli (GPa) = 10.02260 110.95716 111.94336
#
# Poissons Ratio (x) = 0.32697 -0.88999
# Poissons Ratio (y) = 0.02953 0.40029
# Poissons Ratio (z) = -0.07968 0.39676
#
# Static dielectric constant tensor:
#      x y z
#    x 1.702660 0.000000 0.000000 
#    y 0.000000 1.691820 0.000000 
#    z 0.000000 0.000000 1.680240 
# 
# From -- ./inp_files/38139.got.cif
#   From: 2010.05.17/outbox.cif.g08.bks.cpg/sg53_20_cif.got.tgz:38139.got - 2010.06.03 12:45:16.
