data_PCOD9418907
_publ_section_title
;
Structure prediction by ZEFSAII (Michael W. Deem and Ramdas Pophale) SiO2 
 PCOD9418907
Probable space group: P M N A
;
_chemical_formula_sum "Si O2"
_cell_formula_units_Z 48
_cell_length_a 8.531350
_cell_length_b 15.446087
_cell_length_c 19.746526
_cell_angle_alpha 90.000000
_cell_angle_beta 90.000000
_cell_angle_gamma 90.000000
_cell_volume 2602.117703
_symmetry_space_group_name_H-M "P M N A"
_symmetry_group_IT_number 53
_symmetry_cell_setting 'orthorhombic'
loop_
_space_group_symop_operation_xyz
x,y,z
1/2-x,-y,1/2+z
x,-y,-z
1/2-x,y,1/2-z
-x,-y,-z
1/2+x,y,1/2-z
-x,y,z
1/2+x,-y,1/2+z
loop_
_atom_site_type_symbol
_atom_site_label
_atom_site_fract_x
_atom_site_fract_y
_atom_site_fract_z
Si Si1 0.688519 0.227637 0.414188
Si Si2 0.188955 0.066859 0.175349
Si Si3 0.309190 0.461462 0.927479
Si Si4 0.688103 0.263927 0.935942
Si Si5 0.811361 0.611624 0.673673
Si Si6 0.188027 0.868760 0.175156
O O1 0.500000 0.229337 0.416439
O O2 0.739537 0.137500 0.379455
O O3 0.753784 0.238841 0.489428
O O4 0.748152 0.306021 0.367530
O O5 0.250000 0.090406 0.250000
O O6 0.000000 0.067699 0.177449
O O7 0.238966 0.968151 0.160559
O O8 0.500000 0.461414 0.928332
O O9 0.258000 0.362295 0.920532
O O10 0.260837 0.525668 0.867480
O O11 0.258053 0.500000 0.000000
O O12 0.500000 0.263452 0.935570
O O13 0.749666 0.197065 0.880528
O O14 0.750000 0.611642 0.750000
O O15 0.000000 0.614980 0.673910
O O16 0.250000 0.846738 0.250000
O O17 0.000000 0.866702 0.175652
#
# Coordination Sequence:
#
# PCOD9418907 Si02
#       6
#     8   8   8   8   8   8
#     4  11  22  37  57  86 118 152 192 236 286 342
#     4   9  20  37  58  81 113 153 191 234 287 340
#     4   9  18  37  60  80 109 151 191 231 283 338
#     4  11  22  38  61  87 115 152 192 236 289 343
#     4  11  22  38  59  85 116 150 190 237 288 344
#     4  10  21  40  61  84 114 150 192 239 287 340
#
# _framework density 18.446511999999998
#
# number of rings (size 3 to 8) (size 9 to 14) (size 15 to 20)
#    0.000    1.833    1.667    2.500    0.000    4.667 
#    0.000    9.167    0.000    0.000    0.000    0.000 
#    0.000    0.000    0.000    0.000    0.000    0.000 
#
# Total GULP energy -268116.276453 kJ/mol
# GULP energy per Si atom -5585.755759 kJ/mol
# Density = 1.840453 g / cm^3
# Si number density = 18.446512 Si / 1000 Ang^3
#
#
#
# Elastic Constant Matrix: (Units=GPa)
#
#
# Indices 1 2 3 4 5 6 
#
# 1 44.1033 37.6452 39.9898 0.0000 0.0000 0.0000
# 2 37.6452 162.9446 128.4008 0.0000 0.0000 0.0000
# 3 39.9898 128.4008 188.0352 0.0000 0.0000 0.0000
# 4 0.0000 0.0000 0.0000 43.8397 0.0000 0.0000
# 5 0.0000 0.0000 0.0000 0.0000 35.5601 0.0000
# 6 0.0000 0.0000 0.0000 0.0000 0.0000 23.7805
#
#
#
# Elastic Compliance Matrix: (Units=1/GPa)
#
#
# Indices 1 2 3 4 5 6 
#
# 1 0.029258 -0.004019 -0.003478 0.000000 0.000000 0.000000
# 2 -0.004019 0.013838 -0.008595 0.000000 0.000000 0.000000
# 3 -0.003478 -0.008595 0.011927 0.000000 0.000000 0.000000
# 4 0.000000 0.000000 0.000000 0.022810 0.000000 0.000000
# 5 0.000000 0.000000 0.000000 0.000000 0.028121 0.000000
# 6 0.000000 0.000000 0.000000 0.000000 0.000000 0.042051
#
#
# Mechanical properties :
#
#
# Convention : Reuss Voigt Hill
#
# Bulk Modulus (GPa) = 43.78332 89.68386 66.73359
# Shear Modulus (GPa) = 26.62364 33.23922 29.93143
#
# Velocity S-wave (km/s) = 3.80319 4.24951 4.03253
# Velocity P-wave (km/s) = 6.56296 8.53239 7.61164
#
# Compressibility (1/GPa) = 0.02283975
#
# Stress axis : x y z
#
# Youngs Moduli (GPa) = 34.17863 72.26328 83.84397
#
# Poissons Ratio (x) = 0.29041 0.29162
# Poissons Ratio (y) = 0.13735 0.72063
# Poissons Ratio (z) = 0.11888 0.62109
#
# Static dielectric constant tensor:
#      x y z
#    x 1.633980 0.000000 0.000000 
#    y 0.000000 1.638330 0.000000 
#    z 0.000000 0.000000 1.590230 
# 
# From -- ./inp_files/26221.got.cif
#   From: 2010.05.17/outbox.cif.g08.bks.cpg/sg53_14_cif.got.tgz:26221.got - 2010.06.03 12:45:16.
