data_PCOD9418293
_publ_section_title
;
Structure prediction by ZEFSAII (Michael W. Deem and Ramdas Pophale) SiO2 
 PCOD9418293
Probable space group: P M N A
;
_chemical_formula_sum "Si O2"
_cell_formula_units_Z 48
_cell_length_a 8.592615
_cell_length_b 31.322479
_cell_length_c 9.665262
_cell_angle_alpha 90.000000
_cell_angle_beta 90.000000
_cell_angle_gamma 90.000000
_cell_volume 2601.327973
_symmetry_space_group_name_H-M "P M N A"
_symmetry_group_IT_number 53
_symmetry_cell_setting 'orthorhombic'
loop_
_space_group_symop_operation_xyz
x,y,z
1/2-x,-y,1/2+z
x,-y,-z
1/2-x,y,1/2-z
-x,-y,-z
1/2+x,y,1/2-z
-x,y,z
1/2+x,-y,1/2+z
loop_
_atom_site_type_symbol
_atom_site_label
_atom_site_fract_x
_atom_site_fract_y
_atom_site_fract_z
Si Si1 0.313248 0.539904 0.904001
Si Si2 0.812034 0.117138 0.402059
Si Si3 0.187639 0.785267 0.598314
Si Si4 0.685782 0.368048 0.405733
Si Si5 0.688018 0.039984 0.905096
Si Si6 0.312908 0.707798 0.094903
O O1 0.250000 0.532371 0.750000
O O2 0.500000 0.544033 0.899959
O O3 0.242024 0.584943 0.951616
O O4 0.271706 0.500000 0.000000
O O5 0.750000 0.105281 0.250000
O O6 0.762072 0.165960 0.431037
O O7 0.761195 0.083311 0.517167
O O8 0.000000 0.116407 0.397053
O O9 0.250000 0.773340 0.750000
O O10 0.237414 0.751040 0.484470
O O11 0.000000 0.784930 0.603693
O O12 0.750000 0.361440 0.250000
O O13 0.500000 0.366680 0.401741
O O14 0.750718 0.331994 0.506686
O O15 0.750000 0.036902 0.750000
O O16 0.500000 0.039827 0.899763
O O17 0.737017 0.000000 0.000000
O O18 0.250000 0.706781 0.250000
O O19 0.500000 0.706510 0.096834
#
# Coordination Sequence:
#
# PCOD9418293 Si02
#       6
#     8   8   8   8   8   8
#     4  10  21  37  58  84 113 145 183 225 269 320
#     4   9  18  34  54  78 106 136 175 219 264 316
#     4   9  19  35  56  79 105 139 177 219 265 319
#     4  11  22  38  60  83 110 145 184 225 270 322
#     4  10  21  35  52  76 106 139 176 219 265 316
#     4  11  23  38  55  79 110 142 180 225 274 323
#
# _framework density 18.452113000000001
#
# number of rings (size 3 to 8) (size 9 to 14) (size 15 to 20)
#    0.000    2.000    0.000    4.500    0.000    6.333 
#    0.000    1.667    0.000    0.000    0.000    0.000 
#    0.000    0.000    0.000    0.000    0.000    0.000 
#
# Total GULP energy -268100.561142 kJ/mol
# GULP energy per Si atom -5585.428357 kJ/mol
# Density = 1.841012 g / cm^3
# Si number density = 18.452113 Si / 1000 Ang^3
#
#
#
# Elastic Constant Matrix: (Units=GPa)
#
#
# Indices 1 2 3 4 5 6 
#
# 1 50.4717 45.2623 39.9835 0.0000 0.0000 0.0000
# 2 45.2623 150.2770 124.1028 0.0000 0.0000 0.0000
# 3 39.9835 124.1028 154.7682 0.0000 0.0000 0.0000
# 4 0.0000 0.0000 0.0000 28.8304 0.0000 0.0000
# 5 0.0000 0.0000 0.0000 0.0000 33.0471 0.0000
# 6 0.0000 0.0000 0.0000 0.0000 0.0000 -60.3949
#
#
#
# Elastic Compliance Matrix: (Units=1/GPa)
#
#
# Indices 1 2 3 4 5 6 
#
# 1 0.027241 -0.007084 -0.001357 0.000000 0.000000 0.000000
# 2 -0.007084 0.021541 -0.015443 0.000000 0.000000 0.000000
# 3 -0.001357 -0.015443 0.019195 0.000000 0.000000 0.000000
# 4 0.000000 0.000000 0.000000 0.034686 0.000000 0.000000
# 5 0.000000 0.000000 0.000000 0.000000 0.030260 0.000000
# 6 0.000000 0.000000 0.000000 0.000000 0.000000 -0.016558
#
#
# Mechanical properties :
#
#
# Convention : Reuss Voigt Hill
#
# Bulk Modulus (GPa) = 49.48289 86.02380 67.75335
# Shear Modulus (GPa) = 29.26196 10.04106 19.65151
#
# Velocity S-wave (km/s) = 3.98657 2.33527 3.26697
# Velocity P-wave (km/s) = 6.93293 7.34796 7.14346
#
# Compressibility (1/GPa) = 0.02020901
#
# Stress axis : x y z
#
# Youngs Moduli (GPa) = 36.70923 46.42226 52.09652
#
# Poissons Ratio (x) = 0.32886 0.07070
# Poissons Ratio (y) = 0.26005 0.80453
# Poissons Ratio (z) = 0.04982 0.71690
#
# Static dielectric constant tensor:
#      x y z
#    x 1.622670 0.000000 0.000000 
#    y 0.000000 1.645200 0.000000 
#    z 0.000000 0.000000 1.589960 
# 
# From -- ./inp_files/6648.got.cif
#   From: 2010.05.17/outbox.cif.g08.bks.cpg/sg53_4_cif.got.tgz:6648.got - 2010.06.03 12:45:16.
