data_PCOD9418987
_publ_section_title
;
Structure prediction by ZEFSAII (Michael W. Deem and Ramdas Pophale) SiO2 
 PCOD9418987
Probable space group: P M N A
;
_chemical_formula_sum "Si O2"
_cell_formula_units_Z 32
_cell_length_a 16.566260
_cell_length_b 16.191717
_cell_length_c 5.142927
_cell_angle_alpha 90.000000
_cell_angle_beta 90.000000
_cell_angle_gamma 90.000000
_cell_volume 1379.519163
_symmetry_space_group_name_H-M "P M N A"
_symmetry_group_IT_number 53
_symmetry_cell_setting 'orthorhombic'
loop_
_space_group_symop_operation_xyz
x,y,z
1/2-x,-y,1/2+z
x,-y,-z
1/2-x,y,1/2-z
-x,-y,-z
1/2+x,y,1/2-z
-x,y,z
1/2+x,-y,1/2+z
loop_
_atom_site_type_symbol
_atom_site_label
_atom_site_fract_x
_atom_site_fract_y
_atom_site_fract_z
Si Si1 0.903488 0.251385 0.745779
Si Si2 0.250000 0.057420 0.250000
Si Si3 0.401821 0.348251 0.260483
Si Si4 0.303422 0.500000 0.500000
Si Si5 0.589112 0.096267 0.080548
O O1 0.877509 0.279178 0.028351
O O2 0.890897 0.157568 0.655999
O O3 0.000000 0.261213 0.745896
O O4 0.874601 0.314298 0.520162
O O5 0.165881 0.104807 0.236463
O O6 0.246978 0.000000 0.500000
O O7 0.500000 0.358396 0.255945
O O8 0.359409 0.430092 0.367768
O O9 0.250000 0.529208 0.250000
O O10 0.500000 0.119835 0.185526
O O11 0.583456 0.000000 0.000000
#
# Coordination Sequence:
#
# PCOD9418987 Si02
#       5
#     8   4   8   4   8
#     4   9  19  36  61  92 119 153 206 254 296 359
#     4  10  22  38  56  84 120 158 212 260 306 366
#     4  10  21  41  65  88 120 161 203 246 301 367
#     4  12  25  42  63  92 128 152 196 250 307 374
#     4   9  19  38  63  90 125 167 211 261 309 355
#
# _framework density 23.196487999999999
#
# number of rings (size 3 to 8) (size 9 to 14) (size 15 to 20)
#    0.000    2.250    0.000    1.875    0.000    4.500 
#    6.750   12.500    0.000    0.000    0.000    0.000 
#    0.000    0.000    0.000    0.000    0.000    0.000 
#
# Total GULP energy -178610.738939 kJ/mol
# GULP energy per Si atom -5581.585592 kJ/mol
# Density = 2.314369 g / cm^3
# Si number density = 23.196488 Si / 1000 Ang^3
#
#
#
# Elastic Constant Matrix: (Units=GPa)
#
#
# Indices 1 2 3 4 5 6 
#
# 1 119.2561 17.4393 28.1060 0.0000 0.0000 0.0000
# 2 17.4393 99.0950 1.1275 0.0000 0.0000 0.0000
# 3 28.1060 1.1275 95.5209 0.0000 0.0000 0.0000
# 4 0.0000 0.0000 0.0000 33.9693 0.0000 0.0000
# 5 0.0000 0.0000 0.0000 0.0000 282.7067 0.0000
# 6 0.0000 0.0000 0.0000 0.0000 0.0000 -7.5026
#
#
#
# Elastic Compliance Matrix: (Units=1/GPa)
#
#
# Indices 1 2 3 4 5 6 
#
# 1 0.009256 -0.001598 -0.002705 0.000000 0.000000 0.000000
# 2 -0.001598 0.010369 0.000348 0.000000 0.000000 0.000000
# 3 -0.002705 0.000348 0.011261 0.000000 0.000000 0.000000
# 4 0.000000 0.000000 0.000000 0.029438 0.000000 0.000000
# 5 0.000000 0.000000 0.000000 0.000000 0.003537 0.000000
# 6 0.000000 0.000000 0.000000 0.000000 0.000000 -0.133287
#
#
# Mechanical properties :
#
#
# Convention : Reuss Voigt Hill
#
# Bulk Modulus (GPa) = 43.52452 45.24637 44.38544
# Shear Modulus (GPa) = -92.83909 79.64797 -6.59556
#
# Velocity S-wave (km/s) = -6.33323 5.86607 -1.68805
# Velocity P-wave (km/s) = 5.88860 8.08882 3.92132
#
# Compressibility (1/GPa) = 0.02297556
#
# Stress axis : x y z
#
# Youngs Moduli (GPa) = 108.03245 96.44469 88.80478
#
# Poissons Ratio (x) = 0.15414 0.24019
# Poissons Ratio (y) = 0.17266 -0.03089
# Poissons Ratio (z) = 0.29220 -0.03355
#
# Static dielectric constant tensor:
#      x y z
#    x 1.917490 0.000000 0.000000 
#    y 0.000000 1.933380 0.000000 
#    z 0.000000 0.000000 1.904240 
# 
# From -- ./inp_files/1932.got.cif
#   From: 2010.05.17/outbox.cif.g08.bks.cpg/sg53_1_cif.got.tgz:1932.got - 2010.06.03 12:45:16.
