data_PCOD9418316
_publ_section_title
;
Structure prediction by ZEFSAII (Michael W. Deem and Ramdas Pophale) SiO2 
 PCOD9418316
Probable space group: P M N A
;
_chemical_formula_sum "Si O2"
_cell_formula_units_Z 40
_cell_length_a 7.697408
_cell_length_b 14.569377
_cell_length_c 17.101469
_cell_angle_alpha 90.000000
_cell_angle_beta 90.000000
_cell_angle_gamma 90.000000
_cell_volume 1917.868851
_symmetry_space_group_name_H-M "P M N A"
_symmetry_group_IT_number 53
_symmetry_cell_setting 'orthorhombic'
loop_
_space_group_symop_operation_xyz
x,y,z
1/2-x,-y,1/2+z
x,-y,-z
1/2-x,y,1/2-z
-x,-y,-z
1/2+x,y,1/2-z
-x,y,z
1/2+x,-y,1/2+z
loop_
_atom_site_type_symbol
_atom_site_label
_atom_site_fract_x
_atom_site_fract_y
_atom_site_fract_z
Si Si1 0.500000 0.883653 0.399584
Si Si2 0.705238 0.216876 0.157707
Si Si3 0.694916 0.573668 0.438047
Si Si4 0.000000 0.905295 0.913171
Si Si5 0.295459 0.417657 0.160823
Si Si6 0.299225 0.748645 0.159914
O O1 0.500000 0.890800 0.493642
O O2 0.333477 0.827978 0.367268
O O3 0.500000 0.991383 0.379840
O O4 0.750000 0.215064 0.250000
O O5 0.500000 0.201066 0.148565
O O6 0.743934 0.318781 0.122896
O O7 0.828098 0.144518 0.117386
O O8 0.777039 0.500000 0.500000
O O9 0.500000 0.596435 0.466040
O O10 0.688782 0.504388 0.365729
O O11 0.779712 0.664967 0.402757
O O12 0.250000 0.403023 0.250000
O O13 0.500000 0.435930 0.151370
O O14 0.250000 0.721113 0.250000
O O15 0.500000 0.778010 0.160366
#
# Coordination Sequence:
#
# PCOD9418316 Si02
#       6
#     4   8   8   4   8   8
#     4  11  28  50  68 107 128 186 231 293 379 401
#     4  10  21  39  66 102 135 180 223 274 348 421
#     4  11  24  39  63  97 134 179 223 275 337 404
#     4  11  26  46  73  96 148 165 230 309 349 436
#     4  10  21  35  56  88 127 165 211 256 318 392
#     4  12  25  48  75 100 141 186 245 297 347 428
#
# _framework density 20.856483999999998
#
# number of rings (size 3 to 8) (size 9 to 14) (size 15 to 20)
#    0.000    1.200    3.000    1.800    5.600    4.000 
#    0.000    2.000    0.000    0.000    0.000    0.000 
#    0.000    0.000    0.000    0.000    0.000    0.000 
#
# Total GULP energy -223128.913281 kJ/mol
# GULP energy per Si atom -5578.222832 kJ/mol
# Density = 2.080901 g / cm^3
# Si number density = 20.856484 Si / 1000 Ang^3
#
#
#
# Elastic Constant Matrix: (Units=GPa)
#
#
# Indices 1 2 3 4 5 6 
#
# 1 148.5332 59.1463 9.5180 0.0000 0.0000 0.0000
# 2 59.1463 100.1962 2.6909 0.0000 0.0000 0.0000
# 3 9.5180 2.6909 33.4167 0.0000 0.0000 0.0000
# 4 0.0000 0.0000 0.0000 34.1601 0.0000 0.0000
# 5 0.0000 0.0000 0.0000 0.0000 25.1540 0.0000
# 6 0.0000 0.0000 0.0000 0.0000 0.0000 -60.3050
#
#
#
# Elastic Compliance Matrix: (Units=1/GPa)
#
#
# Indices 1 2 3 4 5 6 
#
# 1 0.008950 -0.005226 -0.002128 0.000000 0.000000 0.000000
# 2 -0.005226 0.013054 0.000437 0.000000 0.000000 0.000000
# 3 -0.002128 0.000437 0.030496 0.000000 0.000000 0.000000
# 4 0.000000 0.000000 0.000000 0.029274 0.000000 0.000000
# 5 0.000000 0.000000 0.000000 0.000000 0.039755 0.000000
# 6 0.000000 0.000000 0.000000 0.000000 0.000000 -0.016582
#
#
# Mechanical properties :
#
#
# Convention : Reuss Voigt Hill
#
# Bulk Modulus (GPa) = 25.86274 47.20627 36.53451
# Shear Modulus (GPa) = 37.97404 13.85453 25.91429
#
# Velocity S-wave (km/s) = 4.27163 2.58016 3.52874
# Velocity P-wave (km/s) = 6.06270 5.61776 5.84447
#
# Compressibility (1/GPa) = 0.03866566
#
# Stress axis : x y z
#
# Youngs Moduli (GPa) = 111.73314 76.60718 32.79102
#
# Poissons Ratio (x) = 0.40035 0.06979
# Poissons Ratio (y) = 0.58392 -0.01434
# Poissons Ratio (z) = 0.23781 -0.03350
#
# Static dielectric constant tensor:
#      x y z
#    x 2.093410 0.000000 0.000000 
#    y 0.000000 1.779250 0.000000 
#    z 0.000000 0.000000 1.856320 
# 
# From -- ./inp_files/19928.got.cif
#   From: 2010.05.17/outbox.cif.g08.bks.cpg/sg53_10_cif.got.tgz:19928.got - 2010.06.03 12:45:16.
