data_PCOD9418808
_publ_section_title
;
Structure prediction by ZEFSAII (Michael W. Deem and Ramdas Pophale) SiO2 
 PCOD9418808
Probable space group: P M N A
;
_chemical_formula_sum "Si O2"
_cell_formula_units_Z 52
_cell_length_a 15.948234
_cell_length_b 7.672131
_cell_length_c 21.550036
_cell_angle_alpha 90.000000
_cell_angle_beta 90.000000
_cell_angle_gamma 90.000000
_cell_volume 2636.796472
_symmetry_space_group_name_H-M "P M N A"
_symmetry_group_IT_number 53
_symmetry_cell_setting 'orthorhombic'
loop_
_space_group_symop_operation_xyz
x,y,z
1/2-x,-y,1/2+z
x,-y,-z
1/2-x,y,1/2-z
-x,-y,-z
1/2+x,y,1/2-z
-x,y,z
1/2+x,-y,1/2+z
loop_
_atom_site_type_symbol
_atom_site_label
_atom_site_fract_x
_atom_site_fract_y
_atom_site_fract_z
Si Si1 0.279097 0.733396 0.453902
Si Si2 0.097482 0.334611 0.843045
Si Si3 0.592643 0.297499 0.117144
Si Si4 0.270275 0.132081 0.413802
Si Si5 0.850044 0.382526 0.257507
Si Si6 0.098243 0.060171 0.190078
Si Si7 0.864099 0.500000 0.500000
O O1 0.345365 0.657957 0.404786
O O2 0.300557 0.754398 0.527064
O O3 0.195820 0.619924 0.457374
O O4 0.263213 0.930984 0.433199
O O5 0.113579 0.490733 0.795185
O O6 0.000000 0.333539 0.861196
O O7 0.115053 0.147506 0.809203
O O8 0.500000 0.217803 0.128899
O O9 0.678848 0.187680 0.110401
O O10 0.614502 0.426517 0.174430
O O11 0.587897 0.386921 0.049917
O O12 0.341526 0.139606 0.362248
O O13 0.750000 0.392248 0.250000
O O14 0.879413 0.181650 0.248144
O O15 0.000000 0.081739 0.175811
#
# Coordination Sequence:
#
# PCOD9418808 Si02
#       7
#     8   8   8   8   8   8   4
#     4   9  19  36  61  85 122 158 199 249 298 366
#     4  10  22  39  60  93 129 161 203 252 305 368
#     4  11  22  39  61  85 117 156 204 256 309 365
#     4   9  19  38  59  87 118 160 204 247 304 360
#     4  12  23  40  63  88 123 165 203 254 309 367
#     4  10  21  39  61  88 125 161 202 253 303 362
#     4  10  21  40  59  86 116 154 203 250 304 364
#
# _framework density 19.7209
#
# number of rings (size 3 to 8) (size 9 to 14) (size 15 to 20)
#    0.000    1.846    1.538    2.538    2.154    1.231 
#    2.769   10.385    0.000    0.000    0.000    0.000 
#    0.000    0.000    0.000    0.000    0.000    0.000 
#
# Total GULP energy -289778.600451 kJ/mol
# GULP energy per Si atom -5572.665393 kJ/mol
# Density = 1.967601 g / cm^3
# Si number density = 19.720900 Si / 1000 Ang^3
#
#
#
# Elastic Constant Matrix: (Units=GPa)
#
#
# Indices 1 2 3 4 5 6 
#
# 1 107.6116 16.2768 44.0096 0.0000 0.0000 0.0000
# 2 16.2768 43.2386 27.6375 0.0000 0.0000 0.0000
# 3 44.0096 27.6375 95.4837 0.0000 0.0000 0.0000
# 4 0.0000 0.0000 0.0000 18.8260 0.0000 0.0000
# 5 0.0000 0.0000 0.0000 0.0000 -1.9586 0.0000
# 6 0.0000 0.0000 0.0000 0.0000 0.0000 -55.1807
#
#
#
# Elastic Compliance Matrix: (Units=1/GPa)
#
#
# Indices 1 2 3 4 5 6 
#
# 1 0.011498 -0.001154 -0.004965 0.000000 0.000000 0.000000
# 2 -0.001154 0.028494 -0.007715 0.000000 0.000000 0.000000
# 3 -0.004965 -0.007715 0.014995 0.000000 0.000000 0.000000
# 4 0.000000 0.000000 0.000000 0.053118 0.000000 0.000000
# 5 0.000000 0.000000 0.000000 0.000000 -0.510571 0.000000
# 6 0.000000 0.000000 0.000000 0.000000 0.000000 -0.018122
#
#
# Mechanical properties :
#
#
# Convention : Reuss Voigt Hill
#
# Bulk Modulus (GPa) = 36.60858 46.90908 41.75883
# Shear Modulus (GPa) = -13.02718 2.89801 -5.06458
#
# Velocity S-wave (km/s) = -2.57296 1.21355 -1.60428
# Velocity P-wave (km/s) = 3.12679 5.07954 4.21773
#
# Compressibility (1/GPa) = 0.02731600
#
# Stress axis : x y z
#
# Youngs Moduli (GPa) = 86.97174 35.09561 66.68987
#
# Poissons Ratio (x) = 0.04052 0.33114
# Poissons Ratio (y) = 0.10041 0.51453
# Poissons Ratio (z) = 0.43185 0.27077
#
# Static dielectric constant tensor:
#      x y z
#    x 1.671090 0.000000 0.000000 
#    y 0.000000 1.726940 0.000000 
#    z 0.000000 0.000000 1.786970 
# 
# From -- ./inp_files/32360.got.cif
#   From: 2010.05.17/outbox.cif.g08.bks.cpg/sg53_17_cif.got.tgz:32360.got - 2010.06.03 12:45:16.
