data_PCOD9418352
_publ_section_title
;
Structure prediction by ZEFSAII (Michael W. Deem and Ramdas Pophale) SiO2 
 PCOD9418352
Probable space group: P M N A
;
_chemical_formula_sum "Si O2"
_cell_formula_units_Z 64
_cell_length_a 22.467982
_cell_length_b 6.201094
_cell_length_c 23.201029
_cell_angle_alpha 90.000000
_cell_angle_beta 90.000000
_cell_angle_gamma 90.000000
_cell_volume 3232.508153
_symmetry_space_group_name_H-M "P M N A"
_symmetry_group_IT_number 53
_symmetry_cell_setting 'orthorhombic'
loop_
_space_group_symop_operation_xyz
x,y,z
1/2-x,-y,1/2+z
x,-y,-z
1/2-x,y,1/2-z
-x,-y,-z
1/2+x,y,1/2-z
-x,y,z
1/2+x,-y,1/2+z
loop_
_atom_site_type_symbol
_atom_site_label
_atom_site_fract_x
_atom_site_fract_y
_atom_site_fract_z
Si Si1 0.834897 0.737534 0.170879
Si Si2 0.564832 0.828902 0.176250
Si Si3 0.838846 0.895353 0.738196
Si Si4 0.807728 0.371926 0.552736
Si Si5 0.710707 0.018629 0.566887
Si Si6 0.930637 0.526044 0.766687
Si Si7 0.935733 0.206713 0.540504
Si Si8 0.743116 0.356794 0.149114
O O1 0.898726 0.647062 0.191124
O O2 0.788205 0.538955 0.172999
O O3 0.817005 0.932571 0.214036
O O4 0.831932 0.834521 0.106682
O O5 0.500000 0.911234 0.198164
O O6 0.570616 0.590828 0.203913
O O7 0.563487 0.842077 0.108199
O O8 0.620924 0.963124 0.195935
O O9 0.886382 0.728929 0.765872
O O10 0.790432 0.769740 0.699895
O O11 0.777105 0.500000 0.500000
O O12 0.874100 0.325958 0.533711
O O13 0.804217 0.514752 0.609923
O O14 0.772829 0.150883 0.564022
O O15 0.723290 0.802615 0.604016
O O16 0.691524 0.000000 0.500000
O O17 0.000000 0.570168 0.780342
O O18 0.000000 0.309351 0.529057
O O19 0.932804 0.000000 0.500000
#
# Coordination Sequence:
#
# PCOD9418352 Si02
#       8
#     8   8   8   8   8   8   8   8
#     4  10  25  41  62  95 127 159 205 263 311 379
#     4   9  19  36  55  81 116 156 209 263 306 362
#     4  11  22  38  62  90 121 165 205 254 315 372
#     4  11  22  36  58  85 117 159 216 264 310 374
#     4  11  22  41  64  89 122 162 205 254 323 384
#     4  10  21  40  64  90 122 162 207 255 316 383
#     4  10  21  36  53  76 114 162 216 274 323 361
#     4  11  24  40  62  92 128 170 207 264 318 380
#
# _framework density 19.798866
#
# number of rings (size 3 to 8) (size 9 to 14) (size 15 to 20)
#    0.000    1.625    1.250    3.000    1.750    6.750 
#    0.000    0.625    0.000    0.375    0.000    3.500 
#    0.000    0.000    0.000    0.000    0.000    0.000 
#
# Total GULP energy -357143.411697 kJ/mol
# GULP energy per Si atom -5580.365808 kJ/mol
# Density = 1.975380 g / cm^3
# Si number density = 19.798866 Si / 1000 Ang^3
#
#
#
# Elastic Constant Matrix: (Units=GPa)
#
#
# Indices 1 2 3 4 5 6 
#
# 1 70.7913 56.1347 53.2484 0.0000 0.0000 0.0000
# 2 56.1347 99.7127 71.9464 0.0000 0.0000 0.0000
# 3 53.2484 71.9464 125.4221 0.0000 0.0000 0.0000
# 4 0.0000 0.0000 0.0000 33.4409 0.0000 0.0000
# 5 0.0000 0.0000 0.0000 0.0000 -3.4860 0.0000
# 6 0.0000 0.0000 0.0000 0.0000 0.0000 3.9248
#
#
#
# Elastic Compliance Matrix: (Units=1/GPa)
#
#
# Indices 1 2 3 4 5 6 
#
# 1 0.027042 -0.011841 -0.004688 0.000000 0.000000 0.000000
# 2 -0.011841 0.022296 -0.007763 0.000000 0.000000 0.000000
# 3 -0.004688 -0.007763 0.014416 0.000000 0.000000 0.000000
# 4 0.000000 0.000000 0.000000 0.029903 0.000000 0.000000
# 5 0.000000 0.000000 0.000000 0.000000 -0.286863 0.000000
# 6 0.000000 0.000000 0.000000 0.000000 0.000000 0.254791
#
#
# Mechanical properties :
#
#
# Convention : Reuss Voigt Hill
#
# Bulk Modulus (GPa) = 65.91732 73.17611 69.54671
# Shear Modulus (GPa) = 43.39317 14.41572 28.90445
#
# Velocity S-wave (km/s) = 4.68664 2.70128 3.82501
# Velocity P-wave (km/s) = 7.91529 6.83880 7.39666
#
# Compressibility (1/GPa) = 0.01517052
#
# Stress axis : x y z
#
# Youngs Moduli (GPa) = 36.97980 44.85186 69.36520
#
# Poissons Ratio (x) = 0.53107 0.32522
# Poissons Ratio (y) = 0.43786 0.53845
# Poissons Ratio (z) = 0.17338 0.34816
#
# Static dielectric constant tensor:
#      x y z
#    x 1.711840 0.000000 0.000000 
#    y 0.000000 1.745590 0.000000 
#    z 0.000000 0.000000 1.801400 
# 
# From -- ./inp_files/35738.got.cif
#   From: 2010.05.17/outbox.cif.g08.bks.cpg/sg53_18_cif.got.tgz:35738.got - 2010.06.03 12:45:16.
