data_PCOD9418952
_publ_section_title
;
Structure prediction by ZEFSAII (Michael W. Deem and Ramdas Pophale) SiO2 
 PCOD9418952
Probable space group: P M N A
;
_chemical_formula_sum "Si O2"
_cell_formula_units_Z 54
_cell_length_a 15.191145
_cell_length_b 32.465126
_cell_length_c 5.108324
_cell_angle_alpha 90.000000
_cell_angle_beta 90.000000
_cell_angle_gamma 90.000000
_cell_volume 2519.335677
_symmetry_space_group_name_H-M "P M N A"
_symmetry_group_IT_number 53
_symmetry_cell_setting 'orthorhombic'
loop_
_space_group_symop_operation_xyz
x,y,z
1/2-x,-y,1/2+z
x,-y,-z
1/2-x,y,1/2-z
-x,-y,-z
1/2+x,y,1/2-z
-x,y,z
1/2+x,-y,1/2+z
loop_
_atom_site_type_symbol
_atom_site_label
_atom_site_fract_x
_atom_site_fract_y
_atom_site_fract_z
Si Si1 0.595599 0.756119 0.640347
Si Si2 0.500000 0.029277 0.753444
Si Si3 0.000000 0.500000 0.000000
Si Si4 0.145921 0.538599 0.321004
Si Si5 0.654396 0.287932 0.876123
Si Si6 0.314338 0.375455 0.998650
Si Si7 0.355547 0.098926 0.736439
Si Si8 0.144835 0.847881 0.740873
O O1 0.500000 0.743028 0.739088
O O2 0.605510 0.738064 0.349229
O O3 0.603452 0.805095 0.667214
O O4 0.659232 0.737036 0.855917
O O5 0.414698 0.058806 0.768497
O O6 0.500000 0.000000 0.500000
O O7 0.500000 0.000000 0.000000
O O8 0.078744 0.533639 0.082132
O O9 0.119501 0.500000 0.500000
O O10 0.250000 0.534064 0.250000
O O11 0.136037 0.581064 0.481469
O O12 0.750000 0.292148 0.750000
O O13 0.627614 0.334478 0.954401
O O14 0.250000 0.371673 0.250000
O O15 0.250000 0.377933 0.750000
O O16 0.250000 0.090994 0.750000
O O17 0.376708 0.117737 0.454264
O O18 0.376888 0.133532 0.956756
O O19 0.250000 0.841218 0.750000
#
# Coordination Sequence:
#
# PCOD9418952 Si02
#       8
#     8   4   2   8   8   8   8   8
#     4  12  25  39  63  99 138 173 220 286 353 412
#     4  12  26  42  66  96 129 179 222 270 346 410
#     4  12  26  44  68 112 130 190 226 280 386 430
#     4  11  23  44  71  99 143 178 236 302 359 436
#     4  11  22  43  65  91 130 181 233 278 333 426
#     4  10  22  41  72  98 126 182 233 277 347 412
#     4  10  23  41  65  95 130 168 223 281 332 406
#     4  10  21  40  65  93 123 172 220 272 339 401
#
# _framework density 21.434221000000001
#
# number of rings (size 3 to 8) (size 9 to 14) (size 15 to 20)
#    0.000    1.185    0.741    6.000    4.148    1.778 
#    2.667    0.000    0.000    0.000    0.000    0.000 
#    0.000    0.000    0.000    0.000    0.000    0.000 
#
# Total GULP energy -300962.466964 kJ/mol
# GULP energy per Si atom -5573.379018 kJ/mol
# Density = 2.138544 g / cm^3
# Si number density = 21.434221 Si / 1000 Ang^3
#
#
#
# Elastic Constant Matrix: (Units=GPa)
#
#
# Indices 1 2 3 4 5 6 
#
# 1 83.2428 41.3490 23.9645 0.0000 0.0000 0.0000
# 2 41.3490 155.1750 36.3812 0.0000 0.0000 0.0000
# 3 23.9645 36.3812 118.8502 0.0000 0.0000 0.0000
# 4 0.0000 0.0000 0.0000 42.5762 0.0000 0.0000
# 5 0.0000 0.0000 0.0000 0.0000 4.7934 0.0000
# 6 0.0000 0.0000 0.0000 0.0000 0.0000 -45.5650
#
#
#
# Elastic Compliance Matrix: (Units=1/GPa)
#
#
# Indices 1 2 3 4 5 6 
#
# 1 0.014209 -0.003355 -0.001838 0.000000 0.000000 0.000000
# 2 -0.003355 0.007735 -0.001691 0.000000 0.000000 0.000000
# 3 -0.001838 -0.001691 0.009302 0.000000 0.000000 0.000000
# 4 0.000000 0.000000 0.000000 0.023487 0.000000 0.000000
# 5 0.000000 0.000000 0.000000 0.000000 0.208619 0.000000
# 6 0.000000 0.000000 0.000000 0.000000 0.000000 -0.021947
#
#
# Mechanical properties :
#
#
# Convention : Reuss Voigt Hill
#
# Bulk Modulus (GPa) = 57.21748 62.29529 59.75639
# Shear Modulus (GPa) = 19.15709 17.39914 18.27811
#
# Velocity S-wave (km/s) = 2.99283 2.85221 2.92336
# Velocity P-wave (km/s) = 6.22054 6.32245 6.27170
#
# Compressibility (1/GPa) = 0.01747718
#
# Stress axis : x y z
#
# Youngs Moduli (GPa) = 70.37881 129.28395 107.50100
#
# Poissons Ratio (x) = 0.43378 0.19758
# Poissons Ratio (y) = 0.23614 0.18180
# Poissons Ratio (z) = 0.12935 0.21864
#
# Static dielectric constant tensor:
#      x y z
#    x 1.904460 0.000000 0.000000 
#    y 0.000000 1.797090 0.000000 
#    z 0.000000 0.000000 1.789880 
# 
# From -- ./inp_files/1500.got.cif
#   From: 2010.05.17/outbox.cif.g08.bks.cpg/sg53_1_cif.got.tgz:1500.got - 2010.06.03 12:45:16.
