data_PCOD9418070
_publ_section_title
;
Structure prediction by ZEFSAII (Michael W. Deem and Ramdas Pophale) SiO2 
 PCOD9418070
Probable space group: P M N A
;
_chemical_formula_sum "Si O2"
_cell_formula_units_Z 64
_cell_length_a 8.984444
_cell_length_b 20.140182
_cell_length_c 18.723849
_cell_angle_alpha 90.000000
_cell_angle_beta 90.000000
_cell_angle_gamma 90.000000
_cell_volume 3388.049345
_symmetry_space_group_name_H-M "P M N A"
_symmetry_group_IT_number 53
_symmetry_cell_setting 'orthorhombic'
loop_
_space_group_symop_operation_xyz
x,y,z
1/2-x,-y,1/2+z
x,-y,-z
1/2-x,y,1/2-z
-x,-y,-z
1/2+x,y,1/2-z
-x,y,z
1/2+x,-y,1/2+z
loop_
_atom_site_type_symbol
_atom_site_label
_atom_site_fract_x
_atom_site_fract_y
_atom_site_fract_z
Si Si1 0.322885 0.131576 0.920071
Si Si2 0.178045 0.711990 0.431250
Si Si3 0.676995 0.784334 0.674727
Si Si4 0.322231 0.904734 0.567775
Si Si5 0.821990 0.666323 0.592548
Si Si6 0.177365 0.605544 0.172082
Si Si7 0.822210 0.025102 0.825858
Si Si8 0.677754 0.487690 0.083911
O O1 0.500000 0.123308 0.914094
O O2 0.289744 0.210108 0.922475
O O3 0.242131 0.093864 0.855839
O O4 0.264685 0.100132 0.993959
O O5 0.215224 0.688583 0.511640
O O6 0.264939 0.667151 0.375100
O O7 0.000000 0.701786 0.421945
O O8 0.750000 0.802073 0.750000
O O9 0.500000 0.781783 0.682874
O O10 0.711984 0.839984 0.615444
O O11 0.739001 0.714398 0.646886
O O12 0.500000 0.905934 0.552943
O O13 0.285964 0.968683 0.615581
O O14 0.787030 0.588742 0.601319
O O15 0.000000 0.674670 0.601103
O O16 0.250000 0.608267 0.250000
O O17 0.233376 0.539481 0.131615
O O18 0.000000 0.606134 0.177411
O O19 0.750000 0.008524 0.750000
O O20 0.000000 0.027934 0.818884
O O21 0.500000 0.498107 0.094234
O O22 0.707917 0.500000 0.000000
#
# Coordination Sequence:
#
# PCOD9418070 Si02
#       8
#     8   8   8   8   8   8   8   8
#     4  11  23  39  65  95 123 159 205 254 304 369
#     4  10  21  41  65  91 123 161 204 250 307 367
#     4  11  23  38  59  88 124 160 201 248 300 358
#     4  10  22  40  62  90 123 162 203 253 306 362
#     4  10  20  38  64  90 120 160 200 245 302 363
#     4  12  26  42  64  93 127 164 208 258 308 365
#     4  11  24  42  62  87 124 164 206 255 310 367
#     4  10  20  39  66  91 121 160 201 248 304 363
#
# _framework density 18.889925000000002
#
# number of rings (size 3 to 8) (size 9 to 14) (size 15 to 20)
#    0.000    1.375    2.500    3.000    0.000    6.250 
#    0.000    0.000    0.000    0.000    0.000    0.000 
#    0.000    0.000    0.000    0.000    0.000    0.000 
#
# Total GULP energy -357913.893494 kJ/mol
# GULP energy per Si atom -5592.404586 kJ/mol
# Density = 1.884693 g / cm^3
# Si number density = 18.889925 Si / 1000 Ang^3
#
#
#
# Elastic Constant Matrix: (Units=GPa)
#
#
# Indices 1 2 3 4 5 6 
#
# 1 49.6782 41.7249 32.8145 0.0000 0.0000 0.0000
# 2 41.7249 92.7987 20.1751 0.0000 0.0000 0.0000
# 3 32.8145 20.1751 55.4660 0.0000 0.0000 0.0000
# 4 0.0000 0.0000 0.0000 18.4090 0.0000 0.0000
# 5 0.0000 0.0000 0.0000 0.0000 31.1173 0.0000
# 6 0.0000 0.0000 0.0000 0.0000 0.0000 36.8198
#
#
#
# Elastic Compliance Matrix: (Units=1/GPa)
#
#
# Indices 1 2 3 4 5 6 
#
# 1 0.050299 -0.017533 -0.023380 0.000000 0.000000 0.000000
# 2 -0.017533 0.017813 0.003893 0.000000 0.000000 0.000000
# 3 -0.023380 0.003893 0.030445 0.000000 0.000000 0.000000
# 4 0.000000 0.000000 0.000000 0.054321 0.000000 0.000000
# 5 0.000000 0.000000 0.000000 0.000000 0.032136 0.000000
# 6 0.000000 0.000000 0.000000 0.000000 0.000000 0.027159
#
#
# Mechanical properties :
#
#
# Convention : Reuss Voigt Hill
#
# Bulk Modulus (GPa) = 40.78712 43.04134 41.91423
# Shear Modulus (GPa) = 16.98452 24.15111 20.56782
#
# Velocity S-wave (km/s) = 3.00180 3.57952 3.30331
# Velocity P-wave (km/s) = 5.80115 6.31813 6.06515
#
# Compressibility (1/GPa) = 0.02451754
#
# Stress axis : x y z
#
# Youngs Moduli (GPa) = 19.88109 56.13938 32.84614
#
# Poissons Ratio (x) = 0.98428 0.76795
# Poissons Ratio (y) = 0.34857 -0.12789
# Poissons Ratio (z) = 0.46483 -0.21858
#
# Static dielectric constant tensor:
#      x y z
#    x 1.626980 0.000000 0.000000 
#    y 0.000000 1.645330 0.000000 
#    z 0.000000 0.000000 1.623790 
# 
# From -- ./inp_files/26807.got.cif
#   From: 2010.05.17/outbox.cif.g08.bks.cpg/sg53_14_cif.got.tgz:26807.got - 2010.06.03 12:45:16.
