data_PCOD9418992
_publ_section_title
;
Structure prediction by ZEFSAII (Michael W. Deem and Ramdas Pophale) SiO2 
 PCOD9418992
Probable space group: P M N A
;
_chemical_formula_sum "Si O2"
_cell_formula_units_Z 64
_cell_length_a 19.178050
_cell_length_b 9.932364
_cell_length_c 16.812797
_cell_angle_alpha 90.000000
_cell_angle_beta 90.000000
_cell_angle_gamma 90.000000
_cell_volume 3202.558289
_symmetry_space_group_name_H-M "P M N A"
_symmetry_group_IT_number 53
_symmetry_cell_setting 'orthorhombic'
loop_
_space_group_symop_operation_xyz
x,y,z
1/2-x,-y,1/2+z
x,-y,-z
1/2-x,y,1/2-z
-x,-y,-z
1/2+x,y,1/2-z
-x,y,z
1/2+x,-y,1/2+z
loop_
_atom_site_type_symbol
_atom_site_label
_atom_site_fract_x
_atom_site_fract_y
_atom_site_fract_z
Si Si1 0.666573 0.115927 0.550405
Si Si2 0.176931 0.039684 0.211842
Si Si3 0.918404 0.625387 0.560421
Si Si4 0.317885 0.156572 0.984990
Si Si5 0.082112 0.476642 0.727754
Si Si6 0.920588 0.718830 0.834783
Si Si7 0.920219 0.648292 0.016650
Si Si8 0.675676 0.782106 0.202476
O O1 0.734378 0.160684 0.499935
O O2 0.622414 0.247970 0.569805
O O3 0.627497 0.000000 0.500000
O O4 0.689974 0.039114 0.629487
O O5 0.250000 0.082029 0.250000
O O6 0.128474 0.165888 0.197777
O O7 0.144946 0.924445 0.267894
O O8 0.908546 0.500000 0.500000
O O9 0.865465 0.744057 0.536829
O O10 0.906909 0.567231 0.648712
O O11 0.000000 0.667945 0.553710
O O12 0.321551 0.204774 0.893055
O O13 0.337888 0.000000 0.000000
O O14 0.099424 0.571872 0.802261
O O15 0.128764 0.344960 0.723754
O O16 0.000000 0.441364 0.730531
O O17 0.920324 0.716995 0.929893
O O18 0.000000 0.741631 0.807418
O O19 0.000000 0.631740 0.045138
O O20 0.890704 0.500000 0.000000
O O21 0.750000 0.769580 0.250000
#
# Coordination Sequence:
#
# PCOD9418992 Si02
#       8
#     8   8   8   8   8   8   8   8
#     4  11  22  41  62  89 121 165 208 252 309 367
#     4  11  23  41  62  88 128 165 204 258 315 368
#     4  10  21  41  66  91 123 164 207 257 310 366
#     4  11  24  40  63  92 124 163 210 258 308 366
#     4  10  23  43  66  92 127 165 207 258 315 373
#     4  10  23  42  63  93 126 163 210 255 310 377
#     4  10  23  42  64  93 128 163 208 263 309 362
#     4  11  23  42  61  89 127 163 205 254 310 374
#
# _framework density 19.984024999999999
#
# number of rings (size 3 to 8) (size 9 to 14) (size 15 to 20)
#    0.000    1.500    5.000    0.000    3.500    2.500 
#    2.250    0.000    0.000    0.000    0.000    0.000 
#    0.000    0.000    0.000    0.000    0.000    0.000 
#
# Total GULP energy -357242.620729 kJ/mol
# GULP energy per Si atom -5581.915949 kJ/mol
# Density = 1.993854 g / cm^3
# Si number density = 19.984025 Si / 1000 Ang^3
#
#
#
# Elastic Constant Matrix: (Units=GPa)
#
#
# Indices 1 2 3 4 5 6 
#
# 1 66.1243 71.4480 9.6468 0.0000 0.0000 0.0000
# 2 71.4480 126.6580 0.2370 0.0000 0.0000 0.0000
# 3 9.6468 0.2370 47.3740 0.0000 0.0000 0.0000
# 4 0.0000 0.0000 0.0000 29.7279 0.0000 0.0000
# 5 0.0000 0.0000 0.0000 0.0000 18.5639 0.0000
# 6 0.0000 0.0000 0.0000 0.0000 0.0000 49.1332
#
#
#
# Elastic Compliance Matrix: (Units=1/GPa)
#
#
# Indices 1 2 3 4 5 6 
#
# 1 0.041824 -0.023577 -0.008399 0.000000 0.000000 0.000000
# 2 -0.023577 0.021186 0.004695 0.000000 0.000000 0.000000
# 3 -0.008399 0.004695 0.022795 0.000000 0.000000 0.000000
# 4 0.000000 0.000000 0.000000 0.033638 0.000000 0.000000
# 5 0.000000 0.000000 0.000000 0.000000 0.053868 0.000000
# 6 0.000000 0.000000 0.000000 0.000000 0.000000 0.020353
#
#
# Mechanical properties :
#
#
# Convention : Reuss Voigt Hill
#
# Bulk Modulus (GPa) = 32.00613 44.75777 38.38195
# Shear Modulus (GPa) = 19.33188 30.07331 24.70259
#
# Velocity S-wave (km/s) = 3.11363 3.88347 3.51966
# Velocity P-wave (km/s) = 5.38301 6.52333 5.98041
#
# Compressibility (1/GPa) = 0.03124401
#
# Stress axis : x y z
#
# Youngs Moduli (GPa) = 23.90998 47.20022 43.86862
#
# Poissons Ratio (x) = 1.11284 0.36843
# Poissons Ratio (y) = 0.56373 -0.20596
# Poissons Ratio (z) = 0.20081 -0.22160
#
# Static dielectric constant tensor:
#      x y z
#    x 1.717870 0.000000 0.000000 
#    y 0.000000 1.695830 0.000000 
#    z 0.000000 0.000000 1.779050 
# 
# From -- ./inp_files/29397.got.cif
#   From: 2010.05.17/outbox.cif.g08.bks.cpg/sg53_15_cif.got.tgz:29397.got - 2010.06.03 12:45:16.
