data_PCOD9418695
_publ_section_title
;
Structure prediction by ZEFSAII (Michael W. Deem and Ramdas Pophale) SiO2 
 PCOD9418695
Probable space group: P M N A
;
_chemical_formula_sum "Si O2"
_cell_formula_units_Z 56
_cell_length_a 14.812120
_cell_length_b 13.678243
_cell_length_c 13.159468
_cell_angle_alpha 90.000000
_cell_angle_beta 90.000000
_cell_angle_gamma 90.000000
_cell_volume 2666.157916
_symmetry_space_group_name_H-M "P M N A"
_symmetry_group_IT_number 53
_symmetry_cell_setting 'orthorhombic'
loop_
_space_group_symop_operation_xyz
x,y,z
1/2-x,-y,1/2+z
x,-y,-z
1/2-x,y,1/2-z
-x,-y,-z
1/2+x,y,1/2-z
-x,y,z
1/2+x,-y,1/2+z
loop_
_atom_site_type_symbol
_atom_site_label
_atom_site_fract_x
_atom_site_fract_y
_atom_site_fract_z
Si Si1 0.104217 0.275200 0.832461
Si Si2 0.902140 0.366135 0.616855
Si Si3 0.777322 0.396203 0.985849
Si Si4 0.892053 0.067618 0.097171
Si Si5 0.896912 0.149413 0.515055
Si Si6 0.248164 0.774662 0.870441
Si Si7 0.109961 0.074572 0.725311
O O1 0.104606 0.348477 0.736768
O O2 0.165976 0.321426 0.917509
O O3 0.137989 0.171983 0.787181
O O4 0.000000 0.261302 0.865565
O O5 0.815190 0.418700 0.574188
O O6 0.900869 0.256651 0.568559
O O7 0.000000 0.410100 0.593007
O O8 0.825168 0.500000 0.000000
O O9 0.752906 0.335275 0.086157
O O10 0.840708 0.168986 0.091901
O O11 0.000000 0.079619 0.098196
O O12 0.864287 0.014545 0.202543
O O13 0.870215 0.000000 0.000000
O O14 0.831182 0.165532 0.420873
O O15 0.862093 0.080142 0.607110
O O16 0.000000 0.122613 0.486265
O O17 0.250000 0.774582 0.750000
O O18 0.000000 0.078714 0.720823
#
# Coordination Sequence:
#
# PCOD9418695 Si02
#       7
#     8   8   8   8   8   8   8
#     4   9  17  33  59  88 113 135 172 234 297 346
#     4   8  16  33  58  85 106 129 173 235 293 336
#     4  11  23  37  56  79 111 153 194 236 283 345
#     4  10  21  38  60  87 122 161 196 234 286 349
#     4   8  16  35  61  85 109 141 187 240 287 335
#     4  11  25  40  55  82 119 158 197 239 295 355
#     4   8  15  32  61  90 112 142 190 243 289 337
#
# _framework density 21.004006
#
# number of rings (size 3 to 8) (size 9 to 14) (size 15 to 20)
#    0.000    2.714    0.000    3.000    0.000    5.143 
#    0.000    2.857    0.000    3.000    0.000    1.000 
#    0.000    0.000    0.000    0.000    0.000    0.000 
#
# Total GULP energy -312782.636795 kJ/mol
# GULP energy per Si atom -5585.404228 kJ/mol
# Density = 2.095620 g / cm^3
# Si number density = 21.004006 Si / 1000 Ang^3
#
#
#
# Elastic Constant Matrix: (Units=GPa)
#
#
# Indices 1 2 3 4 5 6 
#
# 1 60.5130 14.8417 47.7746 0.0000 0.0000 0.0000
# 2 14.8417 71.6499 30.8108 0.0000 0.0000 0.0000
# 3 47.7746 30.8108 131.8034 0.0000 0.0000 0.0000
# 4 0.0000 0.0000 0.0000 20.4233 0.0000 0.0000
# 5 0.0000 0.0000 0.0000 0.0000 -51.2293 0.0000
# 6 0.0000 0.0000 0.0000 0.0000 0.0000 -539.5175
#
#
#
# Elastic Compliance Matrix: (Units=1/GPa)
#
#
# Indices 1 2 3 4 5 6 
#
# 1 0.023263 -0.001326 -0.008122 0.000000 0.000000 0.000000
# 2 -0.001326 0.015592 -0.003164 0.000000 0.000000 0.000000
# 3 -0.008122 -0.003164 0.011271 0.000000 0.000000 0.000000
# 4 0.000000 0.000000 0.000000 0.048964 0.000000 0.000000
# 5 0.000000 0.000000 0.000000 0.000000 -0.019520 0.000000
# 6 0.000000 0.000000 0.000000 0.000000 0.000000 -0.001854
#
#
# Mechanical properties :
#
#
# Convention : Reuss Voigt Hill
#
# Bulk Modulus (GPa) = 40.15900 50.09118 45.12509
# Shear Modulus (GPa) = 44.94749 -102.69540 -28.87396
#
# Velocity S-wave (km/s) = 4.63098 -6.99996 -3.71170
# Velocity P-wave (km/s) = 6.91056 6.43680 1.77812
#
# Compressibility (1/GPa) = 0.02490102
#
# Stress axis : x y z
#
# Youngs Moduli (GPa) = 42.98679 64.13501 88.72531
#
# Poissons Ratio (x) = 0.08505 0.72064
# Poissons Ratio (y) = 0.05700 0.28074
# Poissons Ratio (z) = 0.34914 0.20294
#
# Static dielectric constant tensor:
#      x y z
#    x 1.777880 0.000000 0.000000 
#    y 0.000000 1.761050 0.000000 
#    z 0.000000 0.000000 1.755260 
# 
# From -- ./inp_files/16051.got.cif
#   From: 2010.05.17/outbox.cif.g08.bks.cpg/sg53_9_cif.got.tgz:16051.got - 2010.06.03 12:45:16.
