data_PCOD9418776
_publ_section_title
;
Structure prediction by ZEFSAII (Michael W. Deem and Ramdas Pophale) SiO2 
 PCOD9418776
Probable space group: P M N A
;
_chemical_formula_sum "Si O2"
_cell_formula_units_Z 56
_cell_length_a 14.182098
_cell_length_b 13.673588
_cell_length_c 14.203385
_cell_angle_alpha 90.000000
_cell_angle_beta 90.000000
_cell_angle_gamma 90.000000
_cell_volume 2754.322763
_symmetry_space_group_name_H-M "P M N A"
_symmetry_group_IT_number 53
_symmetry_cell_setting 'orthorhombic'
loop_
_space_group_symop_operation_xyz
x,y,z
1/2-x,-y,1/2+z
x,-y,-z
1/2-x,y,1/2-z
-x,-y,-z
1/2+x,y,1/2-z
-x,y,z
1/2+x,-y,1/2+z
loop_
_atom_site_type_symbol
_atom_site_label
_atom_site_fract_x
_atom_site_fract_y
_atom_site_fract_z
Si Si1 0.390965 0.499924 0.290936
Si Si2 0.395381 0.097764 0.672312
Si Si3 0.102689 0.687975 0.086898
Si Si4 0.888443 0.100549 0.609422
Si Si5 0.250268 0.938644 0.862134
Si Si6 0.205391 0.556370 0.599963
Si Si7 0.222836 0.751535 0.523937
O O1 0.500000 0.466792 0.301894
O O2 0.387699 0.611699 0.328074
O O3 0.357375 0.491207 0.183087
O O4 0.312027 0.447264 0.356292
O O5 0.500000 0.054345 0.675434
O O6 0.398198 0.201069 0.622216
O O7 0.367066 0.118579 0.779916
O O8 0.327290 0.022146 0.621787
O O9 0.000000 0.666798 0.041676
O O10 0.194894 0.687478 0.023694
O O11 0.838978 0.186489 0.550156
O O12 0.000000 0.101102 0.593480
O O13 0.845401 0.990938 0.600606
O O14 0.250000 0.923468 0.750000
O O15 0.233665 0.836608 0.911900
O O16 0.198651 0.500000 0.500000
O O17 0.171436 0.668265 0.584358
#
# Coordination Sequence:
#
# PCOD9418776 Si02
#       7
#     8   8   8   8   8   8   8
#     4  10  24  46  69  93 131 175 216 270 331 395
#     4   9  19  37  61  92 125 161 203 255 314 374
#     4  10  21  38  66  97 123 161 212 262 323 383
#     4  10  22  39  61  89 124 167 211 251 306 380
#     4  10  22  39  60  86 128 170 205 255 313 384
#     4  11  25  43  68  99 130 168 221 279 330 388
#     4  12  24  38  64  95 125 165 212 268 321 375
#
# _framework density 20.331676000000002
#
# number of rings (size 3 to 8) (size 9 to 14) (size 15 to 20)
#    0.000    1.714    2.857    0.429    4.000    3.429 
#    0.000    1.429    0.000    0.000    0.000    0.000 
#    0.000    0.000    0.000    0.000    0.000    0.000 
#
# Total GULP energy -312367.892100 kJ/mol
# GULP energy per Si atom -5577.998073 kJ/mol
# Density = 2.028540 g / cm^3
# Si number density = 20.331676 Si / 1000 Ang^3
#
#
#
# Elastic Constant Matrix: (Units=GPa)
#
#
# Indices 1 2 3 4 5 6 
#
# 1 91.2138 36.2185 39.1788 0.0000 0.0000 0.0000
# 2 36.2185 104.8612 31.2333 0.0000 0.0000 0.0000
# 3 39.1788 31.2333 95.6206 0.0000 0.0000 0.0000
# 4 0.0000 0.0000 0.0000 35.3626 0.0000 0.0000
# 5 0.0000 0.0000 0.0000 0.0000 9.5677 0.0000
# 6 0.0000 0.0000 0.0000 0.0000 0.0000 7.1835
#
#
#
# Elastic Compliance Matrix: (Units=1/GPa)
#
#
# Indices 1 2 3 4 5 6 
#
# 1 0.014416 -0.003567 -0.004742 0.000000 0.000000 0.000000
# 2 -0.003567 0.011447 -0.002277 0.000000 0.000000 0.000000
# 3 -0.004742 -0.002277 0.013145 0.000000 0.000000 0.000000
# 4 0.000000 0.000000 0.000000 0.028278 0.000000 0.000000
# 5 0.000000 0.000000 0.000000 0.000000 0.104518 0.000000
# 6 0.000000 0.000000 0.000000 0.000000 0.000000 0.139207
#
#
# Mechanical properties :
#
#
# Convention : Reuss Voigt Hill
#
# Bulk Modulus (GPa) = 56.06781 56.10629 56.08705
# Shear Modulus (GPa) = 14.78725 22.76043 18.77384
#
# Velocity S-wave (km/s) = 2.69978 3.34946 3.04201
# Velocity P-wave (km/s) = 6.11186 6.52793 6.32332
#
# Compressibility (1/GPa) = 0.01783555
#
# Stress axis : x y z
#
# Youngs Moduli (GPa) = 69.36596 87.36085 76.07618
#
# Poissons Ratio (x) = 0.31161 0.36073
# Poissons Ratio (y) = 0.24743 0.17326
# Poissons Ratio (z) = 0.32891 0.19896
#
# Static dielectric constant tensor:
#      x y z
#    x 1.794200 0.000000 0.000000 
#    y 0.000000 1.716600 0.000000 
#    z 0.000000 0.000000 1.764780 
# 
# From -- ./inp_files/22936.got.cif
#   From: 2010.05.17/outbox.cif.g08.bks.cpg/sg53_12_cif.got.tgz:22936.got - 2010.06.03 12:45:16.
