data_PCOD9418646
_publ_section_title
;
Structure prediction by ZEFSAII (Michael W. Deem and Ramdas Pophale) SiO2 
 PCOD9418646
Probable space group: P M N A
;
_chemical_formula_sum "Si O2"
_cell_formula_units_Z 56
_cell_length_a 7.635740
_cell_length_b 14.879777
_cell_length_c 21.069378
_cell_angle_alpha 90.000000
_cell_angle_beta 90.000000
_cell_angle_gamma 90.000000
_cell_volume 2393.862874
_symmetry_space_group_name_H-M "P M N A"
_symmetry_group_IT_number 53
_symmetry_cell_setting 'orthorhombic'
loop_
_space_group_symop_operation_xyz
x,y,z
1/2-x,-y,1/2+z
x,-y,-z
1/2-x,y,1/2-z
-x,-y,-z
1/2+x,y,1/2-z
-x,y,z
1/2+x,-y,1/2+z
loop_
_atom_site_type_symbol
_atom_site_label
_atom_site_fract_x
_atom_site_fract_y
_atom_site_fract_z
Si Si1 0.208700 0.039152 0.683200
Si Si2 0.213524 0.897479 0.982228
Si Si3 0.710189 0.648351 0.820461
Si Si4 0.285344 0.507162 0.926026
Si Si5 0.296552 0.153268 0.159411
Si Si6 0.803774 0.365270 0.676435
Si Si7 0.198760 0.198058 0.898339
O O1 0.250000 0.084079 0.750000
O O2 0.298554 0.098229 0.630350
O O3 0.000000 0.037266 0.671714
O O4 0.283768 0.938621 0.685693
O O5 0.284814 0.866006 0.915153
O O6 0.000000 0.897116 0.981470
O O7 0.272719 0.821653 0.032445
O O8 0.267863 0.000000 0.000000
O O9 0.750000 0.609472 0.750000
O O10 0.500000 0.651930 0.824998
O O11 0.768140 0.592912 0.882643
O O12 0.781179 0.750455 0.823190
O O13 0.500000 0.507118 0.929722
O O14 0.222450 0.425777 0.879980
O O15 0.226600 0.500000 0.000000
O O16 0.500000 0.155529 0.179340
O O17 0.750000 0.367392 0.750000
O O18 0.796066 0.264803 0.648634
O O19 0.000000 0.399941 0.679052
O O20 0.000000 0.230773 0.902368
#
# Coordination Sequence:
#
# PCOD9418646 Si02
#       7
#     8   8   8   8   8   8   8
#     4  11  22  36  54  81 115 153 197 243 292 345
#     4  10  21  38  58  82 115 158 199 244 302 354
#     4  10  21  39  63  91 122 157 199 245 297 355
#     4   9  20  39  64  93 122 156 197 243 297 357
#     4  10  22  36  57  87 117 153 198 245 290 350
#     4  11  23  40  65  92 121 159 200 248 302 356
#     4  11  23  39  59  84 118 156 198 245 297 357
#
# _framework density 23.393153999999999
#
# number of rings (size 3 to 8) (size 9 to 14) (size 15 to 20)
#    0.000    1.714    1.429    2.571    2.000    2.571 
#    0.000    0.714    0.000    2.143    0.000    0.000 
#    0.000    0.000    0.000    0.000    0.000    0.000 
#
# Total GULP energy -312487.607523 kJ/mol
# GULP energy per Si atom -5580.135849 kJ/mol
# Density = 2.333991 g / cm^3
# Si number density = 23.393154 Si / 1000 Ang^3
#
#
#
# Elastic Constant Matrix: (Units=GPa)
#
#
# Indices 1 2 3 4 5 6 
#
# 1 53.4669 -0.3270 -5.4183 0.0000 0.0000 0.0000
# 2 -0.3270 102.6896 43.9563 0.0000 0.0000 0.0000
# 3 -5.4183 43.9563 187.4631 0.0000 0.0000 0.0000
# 4 0.0000 0.0000 0.0000 31.3988 0.0000 0.0000
# 5 0.0000 0.0000 0.0000 0.0000 18.7320 0.0000
# 6 0.0000 0.0000 0.0000 0.0000 0.0000 -19.8082
#
#
#
# Elastic Compliance Matrix: (Units=1/GPa)
#
#
# Indices 1 2 3 4 5 6 
#
# 1 0.018761 -0.000192 0.000587 0.000000 0.000000 0.000000
# 2 -0.000192 0.010826 -0.002544 0.000000 0.000000 0.000000
# 3 0.000587 -0.002544 0.005948 0.000000 0.000000 0.000000
# 4 0.000000 0.000000 0.000000 0.031848 0.000000 0.000000
# 5 0.000000 0.000000 0.000000 0.000000 0.053385 0.000000
# 6 0.000000 0.000000 0.000000 0.000000 0.000000 -0.050484
#
#
# Mechanical properties :
#
#
# Convention : Reuss Voigt Hill
#
# Bulk Modulus (GPa) = 32.01149 46.67129 39.34139
# Shear Modulus (GPa) = 58.82721 26.42510 42.62615
#
# Velocity S-wave (km/s) = 5.02014 3.36461 4.27331
# Velocity P-wave (km/s) = 6.87868 5.92354 6.41890
#
# Compressibility (1/GPa) = 0.03123879
#
# Stress axis : x y z
#
# Youngs Moduli (GPa) = 53.30069 92.36602 168.12649
#
# Poissons Ratio (x) = 0.01770 -0.09872
# Poissons Ratio (y) = 0.01021 0.42774
# Poissons Ratio (z) = -0.03130 0.23499
#
# Static dielectric constant tensor:
#      x y z
#    x 1.927580 0.000000 0.000000 
#    y 0.000000 1.911470 0.000000 
#    z 0.000000 0.000000 1.931880 
# 
# From -- ./inp_files/30756.got.cif
#   From: 2010.05.17/outbox.cif.g08.bks.cpg/sg53_16_cif.got.tgz:30756.got - 2010.06.03 12:45:16.
