data_PCOD9418727
_publ_section_title
;
Structure prediction by ZEFSAII (Michael W. Deem and Ramdas Pophale) SiO2 
 PCOD9418727
Probable space group: P M N A
;
_chemical_formula_sum "Si O2"
_cell_formula_units_Z 48
_cell_length_a 8.834659
_cell_length_b 17.752514
_cell_length_c 15.328282
_cell_angle_alpha 90.000000
_cell_angle_beta 90.000000
_cell_angle_gamma 90.000000
_cell_volume 2404.048012
_symmetry_space_group_name_H-M "P M N A"
_symmetry_group_IT_number 53
_symmetry_cell_setting 'orthorhombic'
loop_
_space_group_symop_operation_xyz
x,y,z
1/2-x,-y,1/2+z
x,-y,-z
1/2-x,y,1/2-z
-x,-y,-z
1/2+x,y,1/2-z
-x,y,z
1/2+x,-y,1/2+z
loop_
_atom_site_type_symbol
_atom_site_label
_atom_site_fract_x
_atom_site_fract_y
_atom_site_fract_z
Si Si1 0.822672 0.124651 0.342666
Si Si2 0.819655 0.614609 0.660270
Si Si3 0.818700 0.448087 0.842406
Si Si4 0.179745 0.830242 0.023139
Si Si5 0.319898 0.326669 0.970225
Si Si6 0.177172 0.943322 0.342863
O O1 0.750000 0.145459 0.250000
O O2 0.736198 0.158912 0.424421
O O3 0.000000 0.145327 0.345306
O O4 0.811039 0.033702 0.351490
O O5 0.750000 0.645796 0.750000
O O6 0.745006 0.532576 0.645703
O O7 0.791829 0.662506 0.573614
O O8 0.000000 0.605317 0.671087
O O9 0.750000 0.421310 0.750000
O O10 0.000000 0.449476 0.839088
O O11 0.759692 0.393844 0.918107
O O12 0.238657 0.899997 0.080260
O O13 0.000000 0.825696 0.026646
O O14 0.253583 0.753342 0.058065
O O15 0.500000 0.330067 0.956014
O O16 0.250000 0.922603 0.250000
O O17 0.000000 0.923720 0.344558
#
# Coordination Sequence:
#
# PCOD9418727 Si02
#       6
#     8   8   8   8   8   8
#     4  10  21  39  63  89 117 152 194 241 290 342
#     4  10  21  38  62  88 115 150 191 237 286 338
#     4  11  22  38  62  89 117 150 191 238 287 342
#     4  12  25  39  58  86 120 157 196 238 290 349
#     4  11  24  41  59  83 118 156 195 239 289 343
#     4  10  21  39  63  89 117 151 194 241 290 344
#
# _framework density 19.966324
#
# number of rings (size 3 to 8) (size 9 to 14) (size 15 to 20)
#    0.000    1.333    0.000    7.000    0.000   10.000 
#    0.000    5.000    0.000    0.000    0.000    0.000 
#    0.000    0.000    0.000    0.000    0.000    0.000 
#
# Total GULP energy -268553.221968 kJ/mol
# GULP energy per Si atom -5594.858791 kJ/mol
# Density = 1.992088 g / cm^3
# Si number density = 19.966324 Si / 1000 Ang^3
#
#
#
# Elastic Constant Matrix: (Units=GPa)
#
#
# Indices 1 2 3 4 5 6 
#
# 1 133.9333 27.5256 40.0539 0.0000 0.0000 0.0000
# 2 27.5256 23.5756 13.1719 0.0000 0.0000 0.0000
# 3 40.0539 13.1719 74.0551 0.0000 0.0000 0.0000
# 4 0.0000 0.0000 0.0000 -36.5663 0.0000 0.0000
# 5 0.0000 0.0000 0.0000 0.0000 38.2412 0.0000
# 6 0.0000 0.0000 0.0000 0.0000 0.0000 117.8289
#
#
#
# Elastic Compliance Matrix: (Units=1/GPa)
#
#
# Indices 1 2 3 4 5 6 
#
# 1 0.010791 -0.010369 -0.003992 0.000000 0.000000 0.000000
# 2 -0.010369 0.057060 -0.004541 0.000000 0.000000 0.000000
# 3 -0.003992 -0.004541 0.016470 0.000000 0.000000 0.000000
# 4 0.000000 0.000000 0.000000 -0.027348 0.000000 0.000000
# 5 0.000000 0.000000 0.000000 0.000000 0.026150 0.000000
# 6 0.000000 0.000000 0.000000 0.000000 0.000000 0.008487
#
#
# Mechanical properties :
#
#
# Convention : Reuss Voigt Hill
#
# Bulk Modulus (GPa) = 21.49729 43.67409 32.58569
# Shear Modulus (GPa) = 34.50157 33.95492 34.22824
#
# Velocity S-wave (km/s) = 4.16142 4.12832 4.14490
# Velocity P-wave (km/s) = 5.82065 6.68172 6.26600
#
# Compressibility (1/GPa) = 0.04651749
#
# Stress axis : x y z
#
# Youngs Moduli (GPa) = 92.66703 17.52544 60.71461
#
# Poissons Ratio (x) = 0.18172 0.24240
# Poissons Ratio (y) = 0.96084 0.27570
# Poissons Ratio (z) = 0.36996 0.07958
#
# Static dielectric constant tensor:
#      x y z
#    x 1.660700 0.000000 0.000000 
#    y 0.000000 1.692680 0.000000 
#    z 0.000000 0.000000 1.692480 
# 
# From -- ./inp_files/20148.got.cif
#   From: 2010.05.17/outbox.cif.g08.bks.cpg/sg53_11_cif.got.tgz:20148.got - 2010.06.03 12:45:16.
