data_PCOD9418319
_publ_section_title
;
Structure prediction by ZEFSAII (Michael W. Deem and Ramdas Pophale) SiO2 
 PCOD9418319
Probable space group: P M N A
;
_chemical_formula_sum "Si O2"
_cell_formula_units_Z 64
_cell_length_a 17.105412
_cell_length_b 10.125022
_cell_length_c 18.610394
_cell_angle_alpha 90.000000
_cell_angle_beta 90.000000
_cell_angle_gamma 90.000000
_cell_volume 3223.183879
_symmetry_space_group_name_H-M "P M N A"
_symmetry_group_IT_number 53
_symmetry_cell_setting 'orthorhombic'
loop_
_space_group_symop_operation_xyz
x,y,z
1/2-x,-y,1/2+z
x,-y,-z
1/2-x,y,1/2-z
-x,-y,-z
1/2+x,y,1/2-z
-x,y,z
1/2+x,-y,1/2+z
loop_
_atom_site_type_symbol
_atom_site_label
_atom_site_fract_x
_atom_site_fract_y
_atom_site_fract_z
Si Si1 0.630492 0.119182 0.546284
Si Si2 0.093242 0.986010 0.200684
Si Si3 0.908966 0.631876 0.547686
Si Si4 0.310620 0.142431 0.970471
Si Si5 0.094348 0.502031 0.699788
Si Si6 0.904777 0.717278 0.815571
Si Si7 0.910371 0.632077 0.970548
Si Si8 0.673244 0.785530 0.198162
O O1 0.629375 0.074638 0.628178
O O2 0.717670 0.142987 0.517277
O O3 0.588739 0.256641 0.531200
O O4 0.594600 0.000000 0.500000
O O5 0.116264 0.892417 0.265710
O O6 0.000000 0.986781 0.190718
O O7 0.120842 0.137366 0.209554
O O8 0.903424 0.500000 0.500000
O O9 0.854828 0.743903 0.514111
O O10 0.888791 0.585896 0.628003
O O11 0.000000 0.675558 0.546762
O O12 0.317374 0.170641 0.884932
O O13 0.339009 0.000000 0.000000
O O14 0.118526 0.594805 0.766113
O O15 0.136757 0.361293 0.699468
O O16 0.000000 0.480595 0.702181
O O17 0.877622 0.691682 0.896980
O O18 0.000000 0.721293 0.813658
O O19 0.000000 0.596956 0.951588
O O20 0.870651 0.500000 0.000000
O O21 0.750000 0.786286 0.250000
#
# Coordination Sequence:
#
# PCOD9418319 Si02
#       8
#     8   8   8   8   8   8   8   8
#     4  11  22  41  62  88 125 172 212 256 310 374
#     4  11  23  39  66  94 124 170 213 259 318 378
#     4  10  21  42  70  94 121 163 211 266 323 384
#     4  11  26  44  64  93 130 169 213 263 319 377
#     4  10  22  43  69  95 127 164 213 269 327 387
#     4   9  20  38  59  91 126 159 207 264 314 373
#     4  10  21  35  57  90 126 163 211 262 307 365
#     4  12  25  44  62  93 132 168 211 262 320 389
#
# _framework density 19.856142999999999
#
# number of rings (size 3 to 8) (size 9 to 14) (size 15 to 20)
#    0.000    1.500    3.750    0.750    3.500    1.750 
#    2.250    0.625    0.000    0.000    0.000    0.000 
#    0.000    0.000    0.000    0.000    0.000    0.000 
#
# Total GULP energy -357226.655031 kJ/mol
# GULP energy per Si atom -5581.666485 kJ/mol
# Density = 1.981095 g / cm^3
# Si number density = 19.856143 Si / 1000 Ang^3
#
#
#
# Elastic Constant Matrix: (Units=GPa)
#
#
# Indices 1 2 3 4 5 6 
#
# 1 47.1037 43.8846 13.0025 0.0000 0.0000 0.0000
# 2 43.8846 161.3605 64.6087 0.0000 0.0000 0.0000
# 3 13.0025 64.6087 87.3925 0.0000 0.0000 0.0000
# 4 0.0000 0.0000 0.0000 33.2465 0.0000 0.0000
# 5 0.0000 0.0000 0.0000 0.0000 26.1508 0.0000
# 6 0.0000 0.0000 0.0000 0.0000 0.0000 25.2588
#
#
#
# Elastic Compliance Matrix: (Units=1/GPa)
#
#
# Indices 1 2 3 4 5 6 
#
# 1 0.028711 -0.008662 0.002132 0.000000 0.000000 0.000000
# 2 -0.008662 0.011417 -0.007151 0.000000 0.000000 0.000000
# 3 0.002132 -0.007151 0.016412 0.000000 0.000000 0.000000
# 4 0.000000 0.000000 0.000000 0.030078 0.000000 0.000000
# 5 0.000000 0.000000 0.000000 0.000000 0.038240 0.000000
# 6 0.000000 0.000000 0.000000 0.000000 0.000000 0.039590
#
#
# Mechanical properties :
#
#
# Convention : Reuss Voigt Hill
#
# Bulk Modulus (GPa) = 34.27306 59.87202 47.07254
# Shear Modulus (GPa) = 24.80930 28.55529 26.68230
#
# Velocity S-wave (km/s) = 3.53859 3.79635 3.66974
# Velocity P-wave (km/s) = 5.83041 7.03099 6.45866
#
# Compressibility (1/GPa) = 0.02917743
#
# Stress axis : x y z
#
# Youngs Moduli (GPa) = 34.82930 87.59213 60.92968
#
# Poissons Ratio (x) = 0.75875 -0.12991
# Poissons Ratio (y) = 0.30170 0.43573
# Poissons Ratio (z) = -0.07426 0.62640
#
# Static dielectric constant tensor:
#      x y z
#    x 1.718370 0.000000 0.000000 
#    y 0.000000 1.688690 0.000000 
#    z 0.000000 0.000000 1.714140 
# 
# From -- ./inp_files/29396.got.cif
#   From: 2010.05.17/outbox.cif.g08.bks.cpg/sg53_15_cif.got.tgz:29396.got - 2010.06.03 12:45:16.
