data_PCOD9418632
_publ_section_title
;
Structure prediction by ZEFSAII (Michael W. Deem and Ramdas Pophale) SiO2 
 PCOD9418632
Probable space group: P M N A
;
_chemical_formula_sum "Si O2"
_cell_formula_units_Z 64
_cell_length_a 29.152759
_cell_length_b 11.695615
_cell_length_c 9.070239
_cell_angle_alpha 90.000000
_cell_angle_beta 90.000000
_cell_angle_gamma 90.000000
_cell_volume 3092.583660
_symmetry_space_group_name_H-M "P M N A"
_symmetry_group_IT_number 53
_symmetry_cell_setting 'orthorhombic'
loop_
_space_group_symop_operation_xyz
x,y,z
1/2-x,-y,1/2+z
x,-y,-z
1/2-x,y,1/2-z
-x,-y,-z
1/2+x,y,1/2-z
-x,y,z
1/2+x,-y,1/2+z
loop_
_atom_site_type_symbol
_atom_site_label
_atom_site_fract_x
_atom_site_fract_y
_atom_site_fract_z
Si Si1 0.406425 0.613244 0.417868
Si Si2 0.947313 0.703661 0.359108
Si Si3 0.389305 0.741885 0.705850
Si Si4 0.885729 0.495266 0.352848
Si Si5 0.702455 0.132181 0.679283
Si Si6 0.381098 0.099037 0.881012
Si Si7 0.296296 0.144357 0.334155
Si Si8 0.052502 0.039810 0.169139
O O1 0.427551 0.500000 0.500000
O O2 0.439519 0.694442 0.319824
O O3 0.384528 0.688739 0.542954
O O4 0.371187 0.559216 0.298106
O O5 0.928744 0.577217 0.393390
O O6 0.914205 0.797847 0.432544
O O7 0.000000 0.723273 0.394375
O O8 0.397045 0.632900 0.808132
O O9 0.341766 0.805135 0.741514
O O10 0.430543 0.831223 0.694489
O O11 0.855468 0.500000 0.500000
O O12 0.750000 0.170879 0.750000
O O13 0.660827 0.155877 0.791734
O O14 0.701311 0.170734 0.509084
O O15 0.702116 0.993205 0.675290
O O16 0.412982 0.035586 0.763001
O O17 0.368344 0.000000 0.000000
O O18 0.250000 0.181741 0.250000
O O19 0.000000 0.024314 0.215991
O O20 0.056585 0.000000 0.000000
#
# Coordination Sequence:
#
# PCOD9418632 Si02
#       8
#     8   8   8   8   8   8   8   8
#     4   8  18  36  59  87 115 162 211 264 316 374
#     4  10  22  39  61  89 129 171 220 274 320 378
#     4  11  20  39  64  91 128 166 207 264 326 385
#     4   9  22  40  60  88 114 168 220 271 313 373
#     4  10  22  39  63  93 128 168 213 258 315 393
#     4  12  26  41  63  94 134 177 215 266 330 390
#     4  10  21  37  65  97 130 163 209 264 323 388
#     4  11  24  39  59  91 130 173 215 263 326 398
#
# _framework density 20.694671
#
# number of rings (size 3 to 8) (size 9 to 14) (size 15 to 20)
#    0.750    1.125    1.250    2.625    5.250    3.500 
#    0.000    0.000    0.000    3.000    0.000    0.000 
#    0.000    0.000    0.000    0.000    0.000    0.000 
#
# Total GULP energy -356479.071345 kJ/mol
# GULP energy per Si atom -5569.985490 kJ/mol
# Density = 2.064757 g / cm^3
# Si number density = 20.694671 Si / 1000 Ang^3
#
#
#
# Elastic Constant Matrix: (Units=GPa)
#
#
# Indices 1 2 3 4 5 6 
#
# 1 109.5409 22.1773 24.4965 0.0000 0.0000 0.0000
# 2 22.1773 76.9689 18.2070 0.0000 0.0000 0.0000
# 3 24.4965 18.2070 81.9079 0.0000 0.0000 0.0000
# 4 0.0000 0.0000 0.0000 30.2956 0.0000 0.0000
# 5 0.0000 0.0000 0.0000 0.0000 20.0966 0.0000
# 6 0.0000 0.0000 0.0000 0.0000 0.0000 8.6768
#
#
#
# Elastic Compliance Matrix: (Units=1/GPa)
#
#
# Indices 1 2 3 4 5 6 
#
# 1 0.010165 -0.002332 -0.002522 0.000000 0.000000 0.000000
# 2 -0.002332 0.014249 -0.002470 0.000000 0.000000 0.000000
# 3 -0.002522 -0.002470 0.013512 0.000000 0.000000 0.000000
# 4 0.000000 0.000000 0.000000 0.033008 0.000000 0.000000
# 5 0.000000 0.000000 0.000000 0.000000 0.049760 0.000000
# 6 0.000000 0.000000 0.000000 0.000000 0.000000 0.115250
#
#
# Mechanical properties :
#
#
# Convention : Reuss Voigt Hill
#
# Bulk Modulus (GPa) = 42.95883 44.24214 43.60048
# Shear Modulus (GPa) = 19.35359 25.38293 22.36826
#
# Velocity S-wave (km/s) = 3.06142 3.50600 3.29123
# Velocity P-wave (km/s) = 5.77060 6.14934 5.96298
#
# Compressibility (1/GPa) = 0.02327810
#
# Stress axis : x y z
#
# Youngs Moduli (GPa) = 98.37543 70.18282 74.00841
#
# Poissons Ratio (x) = 0.16370 0.18662
# Poissons Ratio (y) = 0.22945 0.18278
# Poissons Ratio (z) = 0.24807 0.17333
#
# Static dielectric constant tensor:
#      x y z
#    x 1.711570 0.000000 0.000000 
#    y 0.000000 1.777800 0.000000 
#    z 0.000000 0.000000 1.882830 
# 
# From -- ./inp_files/13254.got.cif
#   From: 2010.05.17/outbox.cif.g08.bks.cpg/sg53_7_cif.got.tgz:13254.got - 2010.06.03 12:45:16.
