data_PCOD9418680
_publ_section_title
;
Structure prediction by ZEFSAII (Michael W. Deem and Ramdas Pophale) SiO2 
 PCOD9418680
Probable space group: P M N A
;
_chemical_formula_sum "Si O2"
_cell_formula_units_Z 48
_cell_length_a 8.782014
_cell_length_b 30.801517
_cell_length_c 9.713103
_cell_angle_alpha 90.000000
_cell_angle_beta 90.000000
_cell_angle_gamma 90.000000
_cell_volume 2627.388082
_symmetry_space_group_name_H-M "P M N A"
_symmetry_group_IT_number 53
_symmetry_cell_setting 'orthorhombic'
loop_
_space_group_symop_operation_xyz
x,y,z
1/2-x,-y,1/2+z
x,-y,-z
1/2-x,y,1/2-z
-x,-y,-z
1/2+x,y,1/2-z
-x,y,z
1/2+x,-y,1/2+z
loop_
_atom_site_type_symbol
_atom_site_label
_atom_site_fract_x
_atom_site_fract_y
_atom_site_fract_z
Si Si1 0.316253 0.538598 0.098716
Si Si2 0.181625 0.888713 0.101207
Si Si3 0.681674 0.786215 0.398409
Si Si4 0.682951 0.284523 0.097746
Si Si5 0.183348 0.363427 0.598220
Si Si6 0.182451 0.040743 0.402571
O O1 0.250000 0.532077 0.250000
O O2 0.500000 0.537241 0.104772
O O3 0.272572 0.587566 0.054499
O O4 0.263780 0.500000 0.000000
O O5 0.250000 0.901531 0.250000
O O6 0.213224 0.837461 0.081726
O O7 0.000000 0.894922 0.104069
O O8 0.254149 0.917000 0.980490
O O9 0.750000 0.773562 0.250000
O O10 0.500000 0.780098 0.396808
O O11 0.756303 0.757239 0.515925
O O12 0.750000 0.286134 0.250000
O O13 0.500000 0.283430 0.103527
O O14 0.731065 0.326781 0.009416
O O15 0.250000 0.355333 0.750000
O O16 0.000000 0.362035 0.608466
O O17 0.250000 0.036205 0.250000
O O18 0.000000 0.042898 0.393396
O O19 0.223763 0.000000 0.500000
#
# Coordination Sequence:
#
# PCOD9418680 Si02
#       6
#     8   8   8   8   8   8
#     4   9  18  33  52  75 104 136 172 215 262 315
#     4  10  21  38  61  87 115 147 184 227 273 324
#     4  10  21  38  60  85 112 145 184 224 270 325
#     4  11  23  37  54  78 109 143 180 225 275 324
#     4   9  19  35  54  76 102 136 177 218 263 318
#     4  11  24  40  60  86 116 151 189 230 276 326
#
# _framework density 18.269095
#
# number of rings (size 3 to 8) (size 9 to 14) (size 15 to 20)
#    0.000    2.000    0.000    3.000    0.000    9.000 
#    0.000    0.000    0.000    0.000    0.000    0.000 
#    0.000    0.000    0.000    0.000    0.000    0.000 
#
# Total GULP energy -268117.660730 kJ/mol
# GULP energy per Si atom -5585.784599 kJ/mol
# Density = 1.822751 g / cm^3
# Si number density = 18.269095 Si / 1000 Ang^3
#
#
#
# Elastic Constant Matrix: (Units=GPa)
#
#
# Indices 1 2 3 4 5 6 
#
# 1 42.8148 52.4251 54.8413 0.0000 0.0000 0.0000
# 2 52.4251 106.1556 100.6732 0.0000 0.0000 0.0000
# 3 54.8413 100.6732 165.4714 0.0000 0.0000 0.0000
# 4 0.0000 0.0000 0.0000 34.6707 0.0000 0.0000
# 5 0.0000 0.0000 0.0000 0.0000 38.8386 0.0000
# 6 0.0000 0.0000 0.0000 0.0000 0.0000 607.7095
#
#
#
# Elastic Compliance Matrix: (Units=1/GPa)
#
#
# Indices 1 2 3 4 5 6 
#
# 1 0.060425 -0.025646 -0.004423 0.000000 0.000000 0.000000
# 2 -0.025646 0.033154 -0.011671 0.000000 0.000000 0.000000
# 3 -0.004423 -0.011671 0.014610 0.000000 0.000000 0.000000
# 4 0.000000 0.000000 0.000000 0.028843 0.000000 0.000000
# 5 0.000000 0.000000 0.000000 0.000000 0.025748 0.000000
# 6 0.000000 0.000000 0.000000 0.000000 0.000000 0.001646
#
#
# Mechanical properties :
#
#
# Convention : Reuss Voigt Hill
#
# Bulk Modulus (GPa) = 40.47298 81.14678 60.80988
# Shear Modulus (GPa) = 19.52046 143.34391 81.43219
#
# Velocity S-wave (km/s) = 3.27233 8.86752 6.68360
# Velocity P-wave (km/s) = 6.03982 12.22120 9.63943
#
# Compressibility (1/GPa) = 0.02470784
#
# Stress axis : x y z
#
# Youngs Moduli (GPa) = 16.54952 30.16226 68.44632
#
# Poissons Ratio (x) = 0.77355 0.30274
# Poissons Ratio (y) = 0.42443 0.79885
# Poissons Ratio (z) = 0.07320 0.35203
#
# Static dielectric constant tensor:
#      x y z
#    x 1.612100 0.000000 0.000000 
#    y 0.000000 1.640040 0.000000 
#    z 0.000000 0.000000 1.577300 
# 
# From -- ./inp_files/6591.got.cif
#   From: 2010.05.17/outbox.cif.g08.bks.cpg/sg53_4_cif.got.tgz:6591.got - 2010.06.03 12:45:16.
