data_PCOD9418501
_publ_section_title
;
Structure prediction by ZEFSAII (Michael W. Deem and Ramdas Pophale) SiO2 
 PCOD9418501
Probable space group: P M N A
;
_chemical_formula_sum "Si O2"
_cell_formula_units_Z 48
_cell_length_a 8.737890
_cell_length_b 31.612961
_cell_length_c 9.128994
_cell_angle_alpha 90.000000
_cell_angle_beta 90.000000
_cell_angle_gamma 90.000000
_cell_volume 2521.707269
_symmetry_space_group_name_H-M "P M N A"
_symmetry_group_IT_number 53
_symmetry_cell_setting 'orthorhombic'
loop_
_space_group_symop_operation_xyz
x,y,z
1/2-x,-y,1/2+z
x,-y,-z
1/2-x,y,1/2-z
-x,-y,-z
1/2+x,y,1/2-z
-x,y,z
1/2+x,-y,1/2+z
loop_
_atom_site_type_symbol
_atom_site_label
_atom_site_fract_x
_atom_site_fract_y
_atom_site_fract_z
Si Si1 0.816603 0.122757 0.913182
Si Si2 0.815947 0.711260 0.413411
Si Si3 0.816472 0.957106 0.586779
Si Si4 0.816413 0.208755 0.086823
Si Si5 0.315079 0.542209 0.086861
Si Si6 0.184513 0.626307 0.587011
O O1 0.750000 0.123979 0.750000
O O2 0.000000 0.119124 0.906345
O O3 0.749453 0.082991 0.000459
O O4 0.778067 0.165926 0.998949
O O5 0.750000 0.711327 0.250000
O O6 0.752363 0.751205 0.502208
O O7 0.770893 0.668133 0.496921
O O8 0.000000 0.713340 0.407790
O O9 0.750000 0.958464 0.750000
O O10 0.000000 0.953946 0.593586
O O11 0.776289 0.000000 0.500000
O O12 0.750000 0.206701 0.250000
O O13 0.000000 0.212586 0.093178
O O14 0.250000 0.542329 0.250000
O O15 0.500000 0.542436 0.094639
O O16 0.267706 0.500000 0.000000
O O17 0.266036 0.584057 0.998627
O O18 0.250000 0.627330 0.750000
O O19 0.000000 0.625696 0.595758
#
# Coordination Sequence:
#
# PCOD9418501 Si02
#       6
#     8   8   8   8   8   8
#     4  11  24  41  63  90 121 157 197 243 293 347
#     4  11  23  39  60  86 117 153 194 240 291 347
#     4  11  24  41  63  91 123 159 199 244 293 347
#     4  11  24  41  62  89 120 155 196 242 292 347
#     4  10  21  37  57  83 114 148 189 235 284 340
#     4  10  22  38  57  84 115 149 191 237 286 343
#
# _framework density 19.034723
#
# number of rings (size 3 to 8) (size 9 to 14) (size 15 to 20)
#    0.000    1.333    0.000    5.000    0.000   11.667 
#    0.000    0.000    0.000    0.000    0.000    0.000 
#    0.000    0.000    0.000    0.000    0.000    0.000 
#
# Total GULP energy -268553.396482 kJ/mol
# GULP energy per Si atom -5594.862427 kJ/mol
# Density = 1.899140 g / cm^3
# Si number density = 19.034723 Si / 1000 Ang^3
#
#
#
# Elastic Constant Matrix: (Units=GPa)
#
#
# Indices 1 2 3 4 5 6 
#
# 1 46.3196 76.8179 67.3742 0.0000 0.0000 0.0000
# 2 76.8179 235.8113 146.2804 0.0000 0.0000 0.0000
# 3 67.3742 146.2804 244.0362 0.0000 0.0000 0.0000
# 4 0.0000 0.0000 0.0000 42.3215 0.0000 0.0000
# 5 0.0000 0.0000 0.0000 0.0000 44.6834 0.0000
# 6 0.0000 0.0000 0.0000 0.0000 0.0000 653.9056
#
#
#
# Elastic Compliance Matrix: (Units=1/GPa)
#
#
# Indices 1 2 3 4 5 6 
#
# 1 0.053310 -0.013112 -0.006859 0.000000 0.000000 0.000000
# 2 -0.013112 0.009976 -0.002360 0.000000 0.000000 0.000000
# 3 -0.006859 -0.002360 0.007406 0.000000 0.000000 0.000000
# 4 0.000000 0.000000 0.000000 0.023629 0.000000 0.000000
# 5 0.000000 0.000000 0.000000 0.000000 0.022380 0.000000
# 6 0.000000 0.000000 0.000000 0.000000 0.000000 0.001529
#
#
# Mechanical properties :
#
#
# Convention : Reuss Voigt Hill
#
# Bulk Modulus (GPa) = 38.41476 123.01246 80.71361
# Shear Modulus (GPa) = 29.14309 163.89506 96.51908
#
# Velocity S-wave (km/s) = 3.91711 9.28925 7.12860
# Velocity P-wave (km/s) = 6.37836 13.40966 10.50006
#
# Compressibility (1/GPa) = 0.02603166
#
# Stress axis : x y z
#
# Youngs Moduli (GPa) = 18.75806 100.24243 135.02967
#
# Poissons Ratio (x) = 1.31436 0.92611
# Poissons Ratio (y) = 0.24595 0.31864
# Poissons Ratio (z) = 0.12865 0.23655
#
# Static dielectric constant tensor:
#      x y z
#    x 1.642770 0.000000 0.000000 
#    y 0.000000 1.641460 0.000000 
#    z 0.000000 0.000000 1.603170 
# 
# From -- ./inp_files/6641.got.cif
#   From: 2010.05.17/outbox.cif.g08.bks.cpg/sg53_4_cif.got.tgz:6641.got - 2010.06.03 12:45:16.
