data_PCOD9418644
_publ_section_title
;
Structure prediction by ZEFSAII (Michael W. Deem and Ramdas Pophale) SiO2 
 PCOD9418644
Probable space group: P M N A
;
_chemical_formula_sum "Si O2"
_cell_formula_units_Z 56
_cell_length_a 9.055913
_cell_length_b 14.411446
_cell_length_c 20.994235
_cell_angle_alpha 90.000000
_cell_angle_beta 90.000000
_cell_angle_gamma 90.000000
_cell_volume 2739.932442
_symmetry_space_group_name_H-M "P M N A"
_symmetry_group_IT_number 53
_symmetry_cell_setting 'orthorhombic'
loop_
_space_group_symop_operation_xyz
x,y,z
1/2-x,-y,1/2+z
x,-y,-z
1/2-x,y,1/2-z
-x,-y,-z
1/2+x,y,1/2-z
-x,y,z
1/2+x,-y,1/2+z
loop_
_atom_site_type_symbol
_atom_site_label
_atom_site_fract_x
_atom_site_fract_y
_atom_site_fract_z
Si Si1 0.175132 0.521308 0.074799
Si Si2 0.678607 0.655135 0.180567
Si Si3 0.665533 0.656997 0.922023
Si Si4 0.172985 0.863549 0.364717
Si Si5 0.337421 0.788458 0.802305
Si Si6 0.824770 0.162831 0.485019
Si Si7 0.825530 0.947573 0.871029
O O1 0.256475 0.595735 0.120576
O O2 0.223118 0.421127 0.100440
O O3 0.000000 0.539164 0.075678
O O4 0.219125 0.500000 0.000000
O O5 0.750000 0.631338 0.250000
O O6 0.500000 0.642974 0.182590
O O7 0.709798 0.764191 0.166039
O O8 0.500000 0.620636 0.938298
O O9 0.649697 0.727021 0.864102
O O10 0.721518 0.728957 0.975653
O O11 0.191597 0.857684 0.441099
O O12 0.000000 0.882584 0.351478
O O13 0.270880 0.952003 0.348448
O O14 0.250000 0.731578 0.750000
O O15 0.500000 0.817085 0.781984
O O16 0.236515 0.874640 0.820522
O O17 0.743632 0.090965 0.438032
O O18 0.000000 0.157982 0.469648
O O19 0.000000 0.945264 0.876891
#
# Coordination Sequence:
#
# PCOD9418644 Si02
#       7
#     8   8   8   8   8   8   8
#     4  11  24  41  64  95 128 161 200 251 308 366
#     4  11  25  45  67  90 121 162 209 261 315 376
#     4   9  19  36  59  86 115 149 188 232 287 349
#     4  10  21  38  60  83 112 156 202 245 297 353
#     4  10  21  38  58  81 111 147 189 236 285 341
#     4   9  18  35  58  85 118 153 193 243 296 353
#     4  11  22  34  53  84 120 157 196 243 297 352
#
# _framework density 20.438461
#
# number of rings (size 3 to 8) (size 9 to 14) (size 15 to 20)
#    0.000    1.857    0.000    4.714    0.000    9.714 
#    0.000    2.857    0.000    0.000    0.000    0.000 
#    0.000    0.000    0.000    0.000    0.000    0.000 
#
# Total GULP energy -312112.601778 kJ/mol
# GULP energy per Si atom -5573.439317 kJ/mol
# Density = 2.039194 g / cm^3
# Si number density = 20.438461 Si / 1000 Ang^3
#
#
#
# Elastic Constant Matrix: (Units=GPa)
#
#
# Indices 1 2 3 4 5 6 
#
# 1 73.1126 38.9783 39.1510 0.0000 0.0000 0.0000
# 2 38.9783 88.6189 20.2554 0.0000 0.0000 0.0000
# 3 39.1510 20.2554 85.0764 0.0000 0.0000 0.0000
# 4 0.0000 0.0000 0.0000 -2.2765 0.0000 0.0000
# 5 0.0000 0.0000 0.0000 0.0000 11.0152 0.0000
# 6 0.0000 0.0000 0.0000 0.0000 0.0000 25.2552
#
#
#
# Elastic Compliance Matrix: (Units=1/GPa)
#
#
# Indices 1 2 3 4 5 6 
#
# 1 0.022422 -0.007935 -0.008429 0.000000 0.000000 0.000000
# 2 -0.007935 0.014742 0.000142 0.000000 0.000000 0.000000
# 3 -0.008429 0.000142 0.015599 0.000000 0.000000 0.000000
# 4 0.000000 0.000000 0.000000 -0.439265 0.000000 0.000000
# 5 0.000000 0.000000 0.000000 0.000000 0.090784 0.000000
# 6 0.000000 0.000000 0.000000 0.000000 0.000000 0.039596
#
#
# Mechanical properties :
#
#
# Convention : Reuss Voigt Hill
#
# Bulk Modulus (GPa) = 49.21677 49.28637 49.25157
# Shear Modulus (GPa) = -23.05152 16.69367 -3.17893
#
# Velocity S-wave (km/s) = -3.36199 2.86103 -1.24850
# Velocity P-wave (km/s) = 3.01033 5.92291 4.69803
#
# Compressibility (1/GPa) = 0.02031828
#
# Stress axis : x y z
#
# Youngs Moduli (GPa) = 44.59972 67.83264 64.10588
#
# Poissons Ratio (x) = 0.53828 0.54034
# Poissons Ratio (y) = 0.35392 -0.00910
# Poissons Ratio (z) = 0.37592 -0.00962
#
# Static dielectric constant tensor:
#      x y z
#    x 1.767710 0.000000 0.000000 
#    y 0.000000 1.779370 0.000000 
#    z 0.000000 0.000000 1.991350 
# 
# From -- ./inp_files/30721.got.cif
#   From: 2010.05.17/outbox.cif.g08.bks.cpg/sg53_16_cif.got.tgz:30721.got - 2010.06.03 12:45:16.
