data_PCOD9418082
_publ_section_title
;
Structure prediction by ZEFSAII (Michael W. Deem and Ramdas Pophale) SiO2 
 PCOD9418082
Probable space group: P M N A
;
_chemical_formula_sum "Si O2"
_cell_formula_units_Z 40
_cell_length_a 18.747658
_cell_length_b 11.862674
_cell_length_c 8.543775
_cell_angle_alpha 90.000000
_cell_angle_beta 90.000000
_cell_angle_gamma 90.000000
_cell_volume 1900.112963
_symmetry_space_group_name_H-M "P M N A"
_symmetry_group_IT_number 53
_symmetry_cell_setting 'orthorhombic'
loop_
_space_group_symop_operation_xyz
x,y,z
1/2-x,-y,1/2+z
x,-y,-z
1/2-x,y,1/2-z
-x,-y,-z
1/2+x,y,1/2-z
-x,y,z
1/2+x,-y,1/2+z
loop_
_atom_site_type_symbol
_atom_site_label
_atom_site_fract_x
_atom_site_fract_y
_atom_site_fract_z
Si Si1 0.418650 0.261447 0.416251
Si Si2 0.172869 0.534059 0.816531
Si Si3 0.581653 0.913558 0.144717
Si Si4 0.814960 0.942467 0.848167
Si Si5 0.418930 0.332040 0.783228
O O1 0.500000 0.243413 0.366897
O O2 0.382630 0.363255 0.321721
O O3 0.371694 0.151806 0.390860
O O4 0.418577 0.292027 0.600836
O O5 0.250000 0.564283 0.750000
O O6 0.138421 0.431770 0.716517
O O7 0.180549 0.500000 0.000000
O O8 0.500000 0.917115 0.209210
O O9 0.595917 0.780731 0.115684
O O10 0.641264 0.960627 0.259627
O O11 0.582837 0.000000 0.000000
O O12 0.750000 0.894107 0.750000
O O13 0.782096 0.000000 0.000000
O O14 0.500000 0.371077 0.817650
#
# Coordination Sequence:
#
# PCOD9418082 Si02
#       5
#     8   8   8   8   8
#     4  10  20  38  65  90 116 156 214 266 308 372
#     4  10  21  39  60  91 123 162 204 257 318 379
#     4  10  21  39  61  89 122 161 209 257 309 371
#     4  12  24  39  58  89 124 164 203 256 323 388
#     4   9  18  36  63  89 117 160 212 258 305 367
#
# _framework density 21.051379000000001
#
# number of rings (size 3 to 8) (size 9 to 14) (size 15 to 20)
#    0.000    1.800    2.000    2.400    0.000    4.000 
#   10.800    0.000    0.000    1.200    0.000    0.000 
#    0.000    0.000    0.000    0.000    0.000    0.000 
#
# Total GULP energy -223422.415240 kJ/mol
# GULP energy per Si atom -5585.560381 kJ/mol
# Density = 2.100347 g / cm^3
# Si number density = 21.051379 Si / 1000 Ang^3
#
#
#
# Elastic Constant Matrix: (Units=GPa)
#
#
# Indices 1 2 3 4 5 6 
#
# 1 104.8241 32.7738 22.7441 0.0000 0.0000 0.0000
# 2 32.7738 86.9896 13.6884 0.0000 0.0000 0.0000
# 3 22.7441 13.6884 26.2651 0.0000 0.0000 0.0000
# 4 0.0000 0.0000 0.0000 29.2057 0.0000 0.0000
# 5 0.0000 0.0000 0.0000 0.0000 17.1659 0.0000
# 6 0.0000 0.0000 0.0000 0.0000 0.0000 9.4862
#
#
#
# Elastic Compliance Matrix: (Units=1/GPa)
#
#
# Indices 1 2 3 4 5 6 
#
# 1 0.012555 -0.003289 -0.009158 0.000000 0.000000 0.000000
# 2 -0.003289 0.013384 -0.004127 0.000000 0.000000 0.000000
# 3 -0.009158 -0.004127 0.048154 0.000000 0.000000 0.000000
# 4 0.000000 0.000000 0.000000 0.034240 0.000000 0.000000
# 5 0.000000 0.000000 0.000000 0.000000 0.058255 0.000000
# 6 0.000000 0.000000 0.000000 0.000000 0.000000 0.105417
#
#
# Mechanical properties :
#
#
# Convention : Reuss Voigt Hill
#
# Bulk Modulus (GPa) = 24.42272 39.61016 32.01644
# Shear Modulus (GPa) = 15.68370 21.09638 18.39004
#
# Velocity S-wave (km/s) = 2.73247 3.16909 2.95884
# Velocity P-wave (km/s) = 4.64562 5.67870 5.18794
#
# Compressibility (1/GPa) = 0.04094548
#
# Stress axis : x y z
#
# Youngs Moduli (GPa) = 79.64834 74.71452 20.76653
#
# Poissons Ratio (x) = 0.24575 0.19018
# Poissons Ratio (y) = 0.26198 0.08571
# Poissons Ratio (z) = 0.72941 0.30836
#
# Static dielectric constant tensor:
#      x y z
#    x 1.705360 0.000000 0.000000 
#    y 0.000000 1.754790 0.000000 
#    z 0.000000 0.000000 1.792030 
# 
# From -- ./inp_files/9600.got.cif
#   From: 2010.05.17/outbox.cif.g08.bks.cpg/sg53_5_cif.got.tgz:9600.got - 2010.06.03 12:45:16.
