data_PCOD9418425
_publ_section_title
;
Structure prediction by ZEFSAII (Michael W. Deem and Ramdas Pophale) SiO2 
 PCOD9418425
Probable space group: P M N A
;
_chemical_formula_sum "Si O2"
_cell_formula_units_Z 32
_cell_length_a 15.871948
_cell_length_b 7.097776
_cell_length_c 12.195142
_cell_angle_alpha 90.000000
_cell_angle_beta 90.000000
_cell_angle_gamma 90.000000
_cell_volume 1373.850205
_symmetry_space_group_name_H-M "P M N A"
_symmetry_group_IT_number 53
_symmetry_cell_setting 'orthorhombic'
loop_
_space_group_symop_operation_xyz
x,y,z
1/2-x,-y,1/2+z
x,-y,-z
1/2-x,y,1/2-z
-x,-y,-z
1/2+x,y,1/2-z
-x,y,z
1/2+x,-y,1/2+z
loop_
_atom_site_type_symbol
_atom_site_label
_atom_site_fract_x
_atom_site_fract_y
_atom_site_fract_z
Si Si1 0.092387 0.569933 0.374269
Si Si2 0.092967 0.014332 0.342212
Si Si3 0.268999 0.720857 0.866346
Si Si4 0.907172 0.835412 0.909664
O O1 0.088428 0.500000 0.500000
O O2 0.102502 0.791010 0.354064
O O3 0.177308 0.464691 0.337714
O O4 0.000000 0.516709 0.325005
O O5 0.000000 0.067854 0.383351
O O6 0.161405 0.134097 0.409414
O O7 0.407285 0.073433 0.287136
O O8 0.250000 0.813157 0.750000
O O9 0.178118 0.710988 0.922498
O O10 0.000000 0.743795 0.923363
O O11 0.900979 0.000000 0.000000
#
# Coordination Sequence:
#
# PCOD9418425 Si02
#       4
#     8   8   8   8
#     4  10  22  38  58  89 121 151 192 242 300 365
#     4   9  19  37  60  85 117 152 189 240 300 353
#     4  10  21  36  58  84 112 154 196 241 291 353
#     4   9  19  36  59  85 114 156 205 245 290 351
#
# _framework density 23.292204000000002
#
# number of rings (size 3 to 8) (size 9 to 14) (size 15 to 20)
#    0.000    2.500    0.000    0.750    3.500    4.000 
#    0.000    3.750    0.000    2.250    0.000    0.000 
#    0.000    0.000    0.000    0.000    0.000    0.000 
#
# Total GULP energy -178152.116012 kJ/mol
# GULP energy per Si atom -5567.253625 kJ/mol
# Density = 2.323919 g / cm^3
# Si number density = 23.292204 Si / 1000 Ang^3
#
#
#
# Elastic Constant Matrix: (Units=GPa)
#
#
# Indices 1 2 3 4 5 6 
#
# 1 274.3418 76.5237 4.7179 0.0000 0.0000 0.0000
# 2 76.5237 105.5564 -19.8287 0.0000 0.0000 0.0000
# 3 4.7179 -19.8287 53.3818 0.0000 0.0000 0.0000
# 4 0.0000 0.0000 0.0000 16.8238 0.0000 0.0000
# 5 0.0000 0.0000 0.0000 0.0000 5.2147 0.0000
# 6 0.0000 0.0000 0.0000 0.0000 0.0000 22.1964
#
#
#
# Elastic Compliance Matrix: (Units=1/GPa)
#
#
# Indices 1 2 3 4 5 6 
#
# 1 0.004728 -0.003769 -0.001818 0.000000 0.000000 0.000000
# 2 -0.003769 0.013189 0.005232 0.000000 0.000000 0.000000
# 3 -0.001818 0.005232 0.020837 0.000000 0.000000 0.000000
# 4 0.000000 0.000000 0.000000 0.059440 0.000000 0.000000
# 5 0.000000 0.000000 0.000000 0.000000 0.191767 0.000000
# 6 0.000000 0.000000 0.000000 0.000000 0.000000 0.045052
#
#
# Mechanical properties :
#
#
# Convention : Reuss Voigt Hill
#
# Bulk Modulus (GPa) = 26.28515 61.78952 44.03733
# Shear Modulus (GPa) = 14.35123 33.63812 23.99468
#
# Velocity S-wave (km/s) = 2.48491 3.80436 3.21309
# Velocity P-wave (km/s) = 4.42069 6.77371 5.71951
#
# Compressibility (1/GPa) = 0.03804430
#
# Stress axis : x y z
#
# Youngs Moduli (GPa) = 211.52455 75.82300 47.99141
#
# Poissons Ratio (x) = 0.28576 0.08724
# Poissons Ratio (y) = 0.79718 -0.25109
# Poissons Ratio (z) = 0.38449 -0.39671
#
# Static dielectric constant tensor:
#      x y z
#    x 2.090030 0.000000 0.000000 
#    y 0.000000 1.923950 0.000000 
#    z 0.000000 0.000000 1.958830 
# 
# From -- ./inp_files/21455.got.cif
#   From: 2010.05.17/outbox.cif.g08.bks.cpg/sg53_11_cif.got.tgz:21455.got - 2010.06.03 12:45:16.
