data_PCOD9418437
_publ_section_title
;
Structure prediction by ZEFSAII (Michael W. Deem and Ramdas Pophale) SiO2 
 PCOD9418437
Probable space group: P M N A
;
_chemical_formula_sum "Si O2"
_cell_formula_units_Z 58
_cell_length_a 16.789092
_cell_length_b 14.679692
_cell_length_c 11.768445
_cell_angle_alpha 90.000000
_cell_angle_beta 90.000000
_cell_angle_gamma 90.000000
_cell_volume 2900.435650
_symmetry_space_group_name_H-M "P M N A"
_symmetry_group_IT_number 53
_symmetry_cell_setting 'orthorhombic'
loop_
_space_group_symop_operation_xyz
x,y,z
1/2-x,-y,1/2+z
x,-y,-z
1/2-x,y,1/2-z
-x,-y,-z
1/2+x,y,1/2-z
-x,y,z
1/2+x,-y,1/2+z
loop_
_atom_site_type_symbol
_atom_site_label
_atom_site_fract_x
_atom_site_fract_y
_atom_site_fract_z
Si Si1 0.824763 0.843753 0.685990
Si Si2 0.409951 0.686922 0.917420
Si Si3 0.093036 0.341835 0.669461
Si Si4 0.591412 0.197377 0.637229
Si Si5 0.500000 0.000000 0.000000
Si Si6 0.228451 0.901061 0.032580
Si Si7 0.796572 0.483162 0.370571
Si Si8 0.367336 0.039836 0.807303
O O1 0.750000 0.800267 0.750000
O O2 0.894390 0.773568 0.661463
O O3 0.788438 0.872553 0.565739
O O4 0.850470 0.938764 0.741911
O O5 0.500000 0.653195 0.905327
O O6 0.348971 0.607434 0.887409
O O7 0.399399 0.713279 0.050565
O O8 0.112664 0.281296 0.779177
O O9 0.146888 0.429919 0.652463
O O10 0.000000 0.367518 0.679234
O O11 0.500000 0.208987 0.596757
O O12 0.660962 0.175308 0.548110
O O13 0.597203 0.107928 0.715787
O O14 0.430480 0.973577 0.092776
O O15 0.285981 0.918726 0.140122
O O16 0.193471 0.000000 0.000000
O O17 0.759371 0.500000 0.500000
O O18 0.750000 0.473423 0.250000
#
# Coordination Sequence:
#
# PCOD9418437 Si02
#       8
#     8   8   8   8   2   8   8   8
#     4  11  22  36  53  76 107 149 188 230 277 344
#     4  10  21  36  60  85 114 147 190 244 299 348
#     4   9  20  36  59  87 113 143 191 247 296 344
#     4  11  22  35  56  83 114 152 191 236 291 357
#     4  12  20  32  56  80 108 134 192 236 292 332
#     4  10  21  38  53  76 114 153 190 240 299 347
#     4  10  21  39  62  90 120 154 193 244 305 371
#     4  11  21  34  54  79 110 139 184 241 285 334
#
# _framework density 19.996995999999999
#
# number of rings (size 3 to 8) (size 9 to 14) (size 15 to 20)
#    0.000    1.655    2.759    3.724    0.966    5.241 
#    0.000    0.690    0.000    3.310    0.000    0.000 
#    0.000    0.000    0.000    0.000    0.000    0.000 
#
# Total GULP energy -322985.612475 kJ/mol
# GULP energy per Si atom -5568.717456 kJ/mol
# Density = 1.995148 g / cm^3
# Si number density = 19.996996 Si / 1000 Ang^3
#
#
#
# Elastic Constant Matrix: (Units=GPa)
#
#
# Indices 1 2 3 4 5 6 
#
# 1 58.7024 16.0118 27.7336 0.0000 0.0000 0.0000
# 2 16.0118 52.1896 10.3638 0.0000 0.0000 0.0000
# 3 27.7336 10.3638 64.7342 0.0000 0.0000 0.0000
# 4 0.0000 0.0000 0.0000 26.2896 0.0000 0.0000
# 5 0.0000 0.0000 0.0000 0.0000 33.3013 0.0000
# 6 0.0000 0.0000 0.0000 0.0000 0.0000 77.9537
#
#
#
# Elastic Compliance Matrix: (Units=1/GPa)
#
#
# Indices 1 2 3 4 5 6 
#
# 1 0.022639 -0.005185 -0.008869 0.000000 0.000000 0.000000
# 2 -0.005185 0.020977 -0.001137 0.000000 0.000000 0.000000
# 3 -0.008869 -0.001137 0.019430 0.000000 0.000000 0.000000
# 4 0.000000 0.000000 0.000000 0.038038 0.000000 0.000000
# 5 0.000000 0.000000 0.000000 0.000000 0.030029 0.000000
# 6 0.000000 0.000000 0.000000 0.000000 0.000000 0.012828
#
#
# Mechanical properties :
#
#
# Convention : Reuss Voigt Hill
#
# Bulk Modulus (GPa) = 30.61436 31.53829 31.07633
# Shear Modulus (GPa) = 26.99616 35.61005 31.30311
#
# Velocity S-wave (km/s) = 3.67824 4.22450 3.96079
# Velocity P-wave (km/s) = 5.77771 6.29292 6.04081
#
# Compressibility (1/GPa) = 0.03266441
#
# Stress axis : x y z
#
# Youngs Moduli (GPa) = 44.17064 47.67043 51.46775
#
# Poissons Ratio (x) = 0.24715 0.45648
# Poissons Ratio (y) = 0.22901 0.05853
# Poissons Ratio (z) = 0.39176 0.05421
#
# Static dielectric constant tensor:
#      x y z
#    x 1.723270 0.000000 0.000000 
#    y 0.000000 1.720210 0.000000 
#    z 0.000000 0.000000 1.766800 
# 
# From -- ./inp_files/17066.got.cif
#   From: 2010.05.17/outbox.cif.g08.bks.cpg/sg53_9_cif.got.tgz:17066.got - 2010.06.03 12:45:16.
