data_PCOD9418615
_publ_section_title
;
Structure prediction by ZEFSAII (Michael W. Deem and Ramdas Pophale) SiO2 
 PCOD9418615
Probable space group: P M N A
;
_chemical_formula_sum "Si O2"
_cell_formula_units_Z 64
_cell_length_a 14.459544
_cell_length_b 18.236278
_cell_length_c 11.407147
_cell_angle_alpha 90.000000
_cell_angle_beta 90.000000
_cell_angle_gamma 90.000000
_cell_volume 3007.930791
_symmetry_space_group_name_H-M "P M N A"
_symmetry_group_IT_number 53
_symmetry_cell_setting 'orthorhombic'
loop_
_space_group_symop_operation_xyz
x,y,z
1/2-x,-y,1/2+z
x,-y,-z
1/2-x,y,1/2-z
-x,-y,-z
1/2+x,y,1/2-z
-x,y,z
1/2+x,-y,1/2+z
loop_
_atom_site_type_symbol
_atom_site_label
_atom_site_fract_x
_atom_site_fract_y
_atom_site_fract_z
Si Si1 0.211955 0.295941 0.564386
Si Si2 0.891665 0.661502 0.196751
Si Si3 0.146666 0.096976 0.748158
Si Si4 0.838214 0.866485 0.499243
Si Si5 0.364176 0.083659 0.501505
Si Si6 0.607099 0.516019 0.677147
Si Si7 0.805225 0.437182 0.414498
Si Si8 0.104923 0.930182 0.745884
O O1 0.148117 0.310967 0.678534
O O2 0.318784 0.305597 0.603996
O O3 0.192067 0.217335 0.510193
O O4 0.188428 0.358540 0.471853
O O5 0.883555 0.572408 0.190167
O O6 0.000000 0.679913 0.181414
O O7 0.250000 0.131260 0.750000
O O8 0.106048 0.117419 0.621246
O O9 0.155136 0.008573 0.749959
O O10 0.103673 0.117941 0.874574
O O11 0.746335 0.915595 0.487805
O O12 0.876192 0.885956 0.627163
O O13 0.381886 0.112261 0.369688
O O14 0.398241 0.000000 0.500000
O O15 0.500000 0.531246 0.640308
O O16 0.632456 0.553654 0.800111
O O17 0.695583 0.544987 0.604453
O O18 0.840508 0.500000 0.500000
O O19 0.000000 0.953598 0.741470
#
# Coordination Sequence:
#
# PCOD9418615 Si02
#       8
#     8   8   8   8   8   8   8   8
#     4  11  23  38  63  86 125 171 202 256 317 377
#     4  10  21  38  61  93 122 156 207 264 323 376
#     4   9  19  36  64  92 110 147 212 259 301 378
#     4  11  22  37  62  86 119 168 212 244 309 381
#     4   9  19  38  63  87 111 151 206 254 302 373
#     4  10  21  37  62  90 121 154 201 269 322 369
#     4  11  19  38  59  91 119 152 213 256 302 380
#     4  11  22  38  59  89 127 160 199 260 321 374
#
# _framework density 21.277086000000001
#
# number of rings (size 3 to 8) (size 9 to 14) (size 15 to 20)
#    0.000    1.750    2.500    3.750    5.250    5.250 
#    4.500    0.625    0.000    0.000    0.000    0.000 
#    0.000    0.000    0.000    0.000    0.000    0.000 
#
# Total GULP energy -356773.937964 kJ/mol
# GULP energy per Si atom -5574.592781 kJ/mol
# Density = 2.122866 g / cm^3
# Si number density = 21.277086 Si / 1000 Ang^3
#
#
#
# Elastic Constant Matrix: (Units=GPa)
#
#
# Indices 1 2 3 4 5 6 
#
# 1 100.9270 9.7629 13.6604 0.0000 0.0000 0.0000
# 2 9.7629 93.1709 37.5753 0.0000 0.0000 0.0000
# 3 13.6604 37.5753 183.2306 0.0000 0.0000 0.0000
# 4 0.0000 0.0000 0.0000 12.0255 0.0000 0.0000
# 5 0.0000 0.0000 0.0000 0.0000 166.2106 0.0000
# 6 0.0000 0.0000 0.0000 0.0000 0.0000 170.0571
#
#
#
# Elastic Compliance Matrix: (Units=1/GPa)
#
#
# Indices 1 2 3 4 5 6 
#
# 1 0.010066 -0.000820 -0.000582 0.000000 0.000000 0.000000
# 2 -0.000820 0.011767 -0.002352 0.000000 0.000000 0.000000
# 3 -0.000582 -0.002352 0.005983 0.000000 0.000000 0.000000
# 4 0.000000 0.000000 0.000000 0.083157 0.000000 0.000000
# 5 0.000000 0.000000 0.000000 0.000000 0.006016 0.000000
# 6 0.000000 0.000000 0.000000 0.000000 0.000000 0.005880
#
#
# Mechanical properties :
#
#
# Convention : Reuss Voigt Hill
#
# Bulk Modulus (GPa) = 49.24054 55.48064 52.36059
# Shear Modulus (GPa) = 36.45680 90.74731 63.60206
#
# Velocity S-wave (km/s) = 4.14385 6.53780 5.47331
# Velocity P-wave (km/s) = 6.78882 9.11715 8.03774
#
# Compressibility (1/GPa) = 0.02030847
#
# Stress axis : x y z
#
# Youngs Moduli (GPa) = 99.34147 84.98024 167.13045
#
# Poissons Ratio (x) = 0.06968 0.09732
# Poissons Ratio (y) = 0.08145 0.39310
# Poissons Ratio (z) = 0.05785 0.19988
#
# Static dielectric constant tensor:
#      x y z
#    x 1.790410 0.000000 0.000000 
#    y 0.000000 1.723530 0.000000 
#    z 0.000000 0.000000 1.781560 
# 
# From -- ./inp_files/16249.got.cif
#   From: 2010.05.17/outbox.cif.g08.bks.cpg/sg53_9_cif.got.tgz:16249.got - 2010.06.03 12:45:16.
