data_PCOD9418167
_publ_section_title
;
Structure prediction by ZEFSAII (Michael W. Deem and Ramdas Pophale) SiO2 
 PCOD9418167
Probable space group: P M N A
;
_chemical_formula_sum "Si O2"
_cell_formula_units_Z 64
_cell_length_a 15.053302
_cell_length_b 16.974734
_cell_length_c 11.428211
_cell_angle_alpha 90.000000
_cell_angle_beta 90.000000
_cell_angle_gamma 90.000000
_cell_volume 2920.202727
_symmetry_space_group_name_H-M "P M N A"
_symmetry_group_IT_number 53
_symmetry_cell_setting 'orthorhombic'
loop_
_space_group_symop_operation_xyz
x,y,z
1/2-x,-y,1/2+z
x,-y,-z
1/2-x,y,1/2-z
-x,-y,-z
1/2+x,y,1/2-z
-x,y,z
1/2+x,-y,1/2+z
loop_
_atom_site_type_symbol
_atom_site_label
_atom_site_fract_x
_atom_site_fract_y
_atom_site_fract_z
Si Si1 0.599862 0.290245 0.884224
Si Si2 0.726454 0.306043 0.464527
Si Si3 0.402041 0.090417 0.039070
Si Si4 0.795685 0.863022 0.968758
Si Si5 0.898491 0.379445 0.845230
Si Si6 0.401170 0.036297 0.294950
Si Si7 0.854039 0.141418 0.775488
Si Si8 0.289314 0.475267 0.376057
O O1 0.500000 0.297718 0.930112
O O2 0.616376 0.359933 0.790612
O O3 0.605245 0.211731 0.801358
O O4 0.673821 0.296650 0.984521
O O5 0.700534 0.222589 0.409262
O O6 0.667445 0.325478 0.579394
O O7 0.707657 0.381239 0.384420
O O8 0.500000 0.124147 0.006893
O O9 0.307534 0.123230 0.996726
O O10 0.395969 0.089933 0.179748
O O11 0.404298 0.000000 0.000000
O O12 0.828879 0.933893 0.887328
O O13 0.857240 0.854593 0.083346
O O14 0.876481 0.469650 0.876371
O O15 0.000000 0.360173 0.872825
O O16 0.500000 0.043391 0.346237
O O17 0.388587 0.946610 0.251811
O O18 0.750000 0.144956 0.750000
O O19 0.242670 0.500000 0.500000
O O20 0.250000 0.495893 0.250000
#
# Coordination Sequence:
#
# PCOD9418167 Si02
#       8
#     8   8   8   8   8   8   8   8
#     4  11  22  39  67 101 137 175 225 289 349 409
#     4  11  23  40  63  96 136 175 223 280 344 418
#     4  10  22  41  62  86 117 168 229 282 338 412
#     4  12  23  38  62  90 131 173 218 286 345 413
#     4  10  20  39  68  99 132 173 224 279 335 405
#     4  11  25  40  58  87 127 173 225 279 345 419
#     4  12  21  38  63  92 129 169 225 279 347 413
#     4  10  22  41  70 100 138 183 228 279 341 418
#
# _framework density 21.916285999999999
#
# number of rings (size 3 to 8) (size 9 to 14) (size 15 to 20)
#    0.000    1.125    2.500    5.250    0.000    5.750 
#    0.000    0.625    0.000    5.250    0.000    0.000 
#    0.000    0.000    0.000    0.000    0.000    0.000 
#
# Total GULP energy -357227.888462 kJ/mol
# GULP energy per Si atom -5581.685757 kJ/mol
# Density = 2.186640 g / cm^3
# Si number density = 21.916286 Si / 1000 Ang^3
#
#
#
# Elastic Constant Matrix: (Units=GPa)
#
#
# Indices 1 2 3 4 5 6 
#
# 1 92.6508 11.2596 8.6468 0.0000 0.0000 0.0000
# 2 11.2596 110.3829 6.9731 0.0000 0.0000 0.0000
# 3 8.6468 6.9731 66.4337 0.0000 0.0000 0.0000
# 4 0.0000 0.0000 0.0000 29.3479 0.0000 0.0000
# 5 0.0000 0.0000 0.0000 0.0000 -0.2328 0.0000
# 6 0.0000 0.0000 0.0000 0.0000 0.0000 14.9075
#
#
#
# Elastic Compliance Matrix: (Units=1/GPa)
#
#
# Indices 1 2 3 4 5 6 
#
# 1 0.011044 -0.001043 -0.001328 0.000000 0.000000 0.000000
# 2 -0.001043 0.009218 -0.000832 0.000000 0.000000 0.000000
# 3 -0.001328 -0.000832 0.015313 0.000000 0.000000 0.000000
# 4 0.000000 0.000000 0.000000 0.034074 0.000000 0.000000
# 5 0.000000 0.000000 0.000000 0.000000 -4.295602 0.000000
# 6 0.000000 0.000000 0.000000 0.000000 0.000000 0.067080
#
#
# Mechanical properties :
#
#
# Convention : Reuss Voigt Hill
#
# Bulk Modulus (GPa) = 34.28193 35.91406 35.09799
# Shear Modulus (GPa) = -1.20693 24.97705 11.88506
#
# Velocity S-wave (km/s) = -0.74290 3.37954 2.33125
# Velocity P-wave (km/s) = 3.86527 5.62591 4.82655
#
# Compressibility (1/GPa) = 0.02916988
#
# Stress axis : x y z
#
# Youngs Moduli (GPa) = 90.54805 108.48013 65.30500
#
# Poissons Ratio (x) = 0.11311 0.08672
# Poissons Ratio (y) = 0.09441 0.05433
# Poissons Ratio (z) = 0.12025 0.09024
#
# Static dielectric constant tensor:
#      x y z
#    x 1.784360 0.000000 0.000000 
#    y 0.000000 1.845340 0.000000 
#    z 0.000000 0.000000 1.845690 
# 
# From -- ./inp_files/16264.got.cif
#   From: 2010.05.17/outbox.cif.g08.bks.cpg/sg53_9_cif.got.tgz:16264.got - 2010.06.03 12:45:16.
