data_PCOD9418071
_publ_section_title
;
Structure prediction by ZEFSAII (Michael W. Deem and Ramdas Pophale) SiO2 
 PCOD9418071
Probable space group: P M N A
;
_chemical_formula_sum "Si O2"
_cell_formula_units_Z 46
_cell_length_a 23.407539
_cell_length_b 17.979666
_cell_length_c 5.704802
_cell_angle_alpha 90.000000
_cell_angle_beta 90.000000
_cell_angle_gamma 90.000000
_cell_volume 2400.921447
_symmetry_space_group_name_H-M "P M N A"
_symmetry_group_IT_number 53
_symmetry_cell_setting 'orthorhombic'
loop_
_space_group_symop_operation_xyz
x,y,z
1/2-x,-y,1/2+z
x,-y,-z
1/2-x,y,1/2-z
-x,-y,-z
1/2+x,y,1/2-z
-x,y,z
1/2+x,-y,1/2+z
loop_
_atom_site_type_symbol
_atom_site_label
_atom_site_fract_x
_atom_site_fract_y
_atom_site_fract_z
Si Si1 0.151338 0.171190 0.018034
Si Si2 0.680865 0.537722 0.750014
Si Si3 0.000000 0.000000 0.000000
Si Si4 0.750000 0.759686 0.250000
Si Si5 0.661561 0.701057 0.898252
Si Si6 0.432806 0.793823 0.135084
Si Si7 0.602049 0.938250 0.826220
O O1 0.164323 0.234749 0.205926
O O2 0.148176 0.093171 0.145175
O O3 0.199842 0.185548 0.830207
O O4 0.090459 0.184651 0.892305
O O5 0.663508 0.500000 0.500000
O O6 0.750000 0.538276 0.750000
O O7 0.659053 0.622021 0.773348
O O8 0.663647 0.500000 0.000000
O O9 0.950305 0.026280 0.186787
O O10 0.781761 0.707779 0.440429
O O11 0.605768 0.724428 0.049098
O O12 0.500000 0.779476 0.133476
O O13 0.419211 0.865480 0.971825
O O14 0.625339 0.000000 0.000000
#
# Coordination Sequence:
#
# PCOD9418071 Si02
#       7
#     8   8   2   4   8   8   8
#     4  10  22  36  61  91 118 160 203 262 308 381
#     4  10  22  35  60  96 135 168 209 260 321 380
#     4  12  22  36  60  86 124 144 190 256 314 384
#     4  10  20  38  64  90 120 160 216 258 312 372
#     4  10  22  38  63  93 125 165 208 259 310 372
#     4  10  22  39  60  93 121 156 210 256 313 372
#     4  11  23  36  57  93 116 156 194 258 325 378
#
# _framework density 19.159310999999999
#
# number of rings (size 3 to 8) (size 9 to 14) (size 15 to 20)
#    0.000    1.739    0.870    2.870   12.174    0.696 
#    0.000    0.000    0.000    1.043  307.478    0.000 
#    0.000    0.000    0.000    0.000    0.000    0.000 
#
# Total GULP energy -256158.527900 kJ/mol
# GULP energy per Si atom -5568.663650 kJ/mol
# Density = 1.911570 g / cm^3
# Si number density = 19.159311 Si / 1000 Ang^3
#
#
#
# Elastic Constant Matrix: (Units=GPa)
#
#
# Indices 1 2 3 4 5 6 
#
# 1 64.3289 14.4502 14.7065 0.0000 0.0000 0.0000
# 2 14.4502 90.4814 42.3632 0.0000 0.0000 0.0000
# 3 14.7065 42.3632 93.6267 0.0000 0.0000 0.0000
# 4 0.0000 0.0000 0.0000 35.3637 0.0000 0.0000
# 5 0.0000 0.0000 0.0000 0.0000 6.8898 0.0000
# 6 0.0000 0.0000 0.0000 0.0000 0.0000 248.7665
#
#
#
# Elastic Compliance Matrix: (Units=1/GPa)
#
#
# Indices 1 2 3 4 5 6 
#
# 1 0.016349 -0.001787 -0.001759 0.000000 0.000000 0.000000
# 2 -0.001787 0.014218 -0.006152 0.000000 0.000000 0.000000
# 3 -0.001759 -0.006152 0.013741 0.000000 0.000000 0.000000
# 4 0.000000 0.000000 0.000000 0.028278 0.000000 0.000000
# 5 0.000000 0.000000 0.000000 0.000000 0.145143 0.000000
# 6 0.000000 0.000000 0.000000 0.000000 0.000000 0.004020
#
#
# Mechanical properties :
#
#
# Convention : Reuss Voigt Hill
#
# Bulk Modulus (GPa) = 40.14523 43.49741 41.82132
# Shear Modulus (GPa) = 20.04413 69.99846 45.02129
#
# Velocity S-wave (km/s) = 3.23798 6.05097 4.85277
# Velocity P-wave (km/s) = 5.91424 8.45998 7.29896
#
# Compressibility (1/GPa) = 0.02490956
#
# Stress axis : x y z
#
# Youngs Moduli (GPa) = 61.16663 70.33335 72.77557
#
# Poissons Ratio (x) = 0.12570 0.12804
# Poissons Ratio (y) = 0.10932 0.44775
# Poissons Ratio (z) = 0.10761 0.43272
#
# Static dielectric constant tensor:
#      x y z
#    x 1.648630 0.000000 0.000000 
#    y 0.000000 1.668020 0.000000 
#    z 0.000000 0.000000 1.766110 
# 
# From -- ./inp_files/3768.got.cif
#   From: 2010.05.17/outbox.cif.g08.bks.cpg/sg53_2_cif.got.tgz:3768.got - 2010.06.03 12:45:16.
