data_PCOD9418430
_publ_section_title
;
Structure prediction by ZEFSAII (Michael W. Deem and Ramdas Pophale) SiO2 
 PCOD9418430
Probable space group: P M N A
;
_chemical_formula_sum "Si O2"
_cell_formula_units_Z 48
_cell_length_a 8.827606
_cell_length_b 14.717050
_cell_length_c 20.828933
_cell_angle_alpha 90.000000
_cell_angle_beta 90.000000
_cell_angle_gamma 90.000000
_cell_volume 2706.018302
_symmetry_space_group_name_H-M "P M N A"
_symmetry_group_IT_number 53
_symmetry_cell_setting 'orthorhombic'
loop_
_space_group_symop_operation_xyz
x,y,z
1/2-x,-y,1/2+z
x,-y,-z
1/2-x,y,1/2-z
-x,-y,-z
1/2+x,y,1/2-z
-x,y,z
1/2+x,-y,1/2+z
loop_
_atom_site_type_symbol
_atom_site_label
_atom_site_fract_x
_atom_site_fract_y
_atom_site_fract_z
Si Si1 0.181462 0.057905 0.436287
Si Si2 0.681191 0.753005 0.522062
Si Si3 0.181134 0.560674 0.318401
Si Si4 0.818151 0.945208 0.180700
Si Si5 0.818160 0.746118 0.129208
Si Si6 0.182323 0.436713 0.439087
O O1 0.242305 0.159289 0.446548
O O2 0.000000 0.057995 0.430409
O O3 0.222442 0.000000 0.500000
O O4 0.254201 0.010150 0.374633
O O5 0.500000 0.760602 0.526747
O O6 0.721613 0.750174 0.446242
O O7 0.738344 0.659884 0.553366
O O8 0.250000 0.535248 0.250000
O O9 0.239635 0.660262 0.338289
O O10 0.224517 0.490498 0.374619
O O11 0.000000 0.562734 0.314433
O O12 0.750000 0.967307 0.250000
O O13 0.776104 0.841462 0.161916
O O14 0.000000 0.950987 0.182088
O O15 0.000000 0.735325 0.134188
O O16 0.222123 0.500000 0.500000
O O17 0.000000 0.424295 0.439939
#
# Coordination Sequence:
#
# PCOD9418430 Si02
#       6
#     8   8   8   8   8   8
#     4  11  23  39  62  89 119 158 201 245 295 354
#     4  11  22  37  61  92 121 152 195 249 297 346
#     4  11  23  38  59  85 120 158 195 242 294 351
#     4  11  23  40  60  87 124 160 199 245 297 356
#     4  10  21  36  58  89 123 156 192 240 298 354
#     4  10  21  39  60  85 117 155 197 243 293 349
#
# _framework density 17.738240000000001
#
# number of rings (size 3 to 8) (size 9 to 14) (size 15 to 20)
#    0.000    1.333    3.333    2.500    0.000    5.667 
#    0.000    0.833    0.000    2.000    0.000    0.000 
#    0.000    0.000    0.000    0.000    0.000    0.000 
#
# Total GULP energy -268354.085738 kJ/mol
# GULP energy per Si atom -5590.710120 kJ/mol
# Density = 1.769787 g / cm^3
# Si number density = 17.738240 Si / 1000 Ang^3
#
#
#
# Elastic Constant Matrix: (Units=GPa)
#
#
# Indices 1 2 3 4 5 6 
#
# 1 47.2267 51.4469 59.9393 0.0000 0.0000 0.0000
# 2 51.4469 139.5113 85.2418 0.0000 0.0000 0.0000
# 3 59.9393 85.2418 176.7415 0.0000 0.0000 0.0000
# 4 0.0000 0.0000 0.0000 18.0079 0.0000 0.0000
# 5 0.0000 0.0000 0.0000 0.0000 25.7152 0.0000
# 6 0.0000 0.0000 0.0000 0.0000 0.0000 27.0855
#
#
#
# Elastic Compliance Matrix: (Units=1/GPa)
#
#
# Indices 1 2 3 4 5 6 
#
# 1 0.046005 -0.010537 -0.010520 0.000000 0.000000 0.000000
# 2 -0.010537 0.012576 -0.002492 0.000000 0.000000 0.000000
# 3 -0.010520 -0.002492 0.010427 0.000000 0.000000 0.000000
# 4 0.000000 0.000000 0.000000 0.055531 0.000000 0.000000
# 5 0.000000 0.000000 0.000000 0.000000 0.038888 0.000000
# 6 0.000000 0.000000 0.000000 0.000000 0.000000 0.036920
#
#
# Mechanical properties :
#
#
# Convention : Reuss Voigt Hill
#
# Bulk Modulus (GPa) = 45.64013 84.08171 64.86092
# Shear Modulus (GPa) = 19.62717 25.28516 22.45617
#
# Velocity S-wave (km/s) = 3.33000 3.77962 3.56191
# Velocity P-wave (km/s) = 6.36953 8.15792 7.31856
#
# Compressibility (1/GPa) = 0.02191054
#
# Stress axis : x y z
#
# Youngs Moduli (GPa) = 21.73679 79.51498 95.90100
#
# Poissons Ratio (x) = 0.83788 1.00885
# Poissons Ratio (y) = 0.22905 0.23897
# Poissons Ratio (z) = 0.22867 0.19814
#
# Static dielectric constant tensor:
#      x y z
#    x 1.587860 0.000000 0.000000 
#    y 0.000000 1.567880 0.000000 
#    z 0.000000 0.000000 1.589370 
# 
# From -- ./inp_files/26149.got.cif
#   From: 2010.05.17/outbox.cif.g08.bks.cpg/sg53_14_cif.got.tgz:26149.got - 2010.06.03 12:45:16.
