data_PCOD9418791
_publ_section_title
;
Structure prediction by ZEFSAII (Michael W. Deem and Ramdas Pophale) SiO2 
 PCOD9418791
Probable space group: P M N A
;
_chemical_formula_sum "Si O2"
_cell_formula_units_Z 40
_cell_length_a 20.934910
_cell_length_b 13.220403
_cell_length_c 7.381953
_cell_angle_alpha 90.000000
_cell_angle_beta 90.000000
_cell_angle_gamma 90.000000
_cell_volume 2043.087976
_symmetry_space_group_name_H-M "P M N A"
_symmetry_group_IT_number 53
_symmetry_cell_setting 'orthorhombic'
loop_
_space_group_symop_operation_xyz
x,y,z
1/2-x,-y,1/2+z
x,-y,-z
1/2-x,y,1/2-z
-x,-y,-z
1/2+x,y,1/2-z
-x,y,z
1/2+x,-y,1/2+z
loop_
_atom_site_type_symbol
_atom_site_label
_atom_site_fract_x
_atom_site_fract_y
_atom_site_fract_z
Si Si1 0.427078 0.833741 0.568548
Si Si2 0.750000 0.149200 0.750000
Si Si3 0.829933 0.000000 0.000000
Si Si4 0.071516 0.338575 0.357510
Si Si5 0.364469 0.706057 0.239685
Si Si6 0.678272 0.512063 0.784480
O O1 0.500000 0.865712 0.528326
O O2 0.378853 0.925962 0.603575
O O3 0.428352 0.764752 0.745990
O O4 0.400882 0.766260 0.399127
O O5 0.715153 0.075295 0.610343
O O6 0.694596 0.223303 0.823008
O O7 0.092369 0.318409 0.564601
O O8 0.121374 0.410146 0.252734
O O9 0.000000 0.382260 0.354411
O O10 0.335617 0.597598 0.302439
O O11 0.750000 0.548532 0.750000
O O12 0.675647 0.500000 0.000000
#
# Coordination Sequence:
#
# PCOD9418791 Si02
#       6
#     8   4   4   8   8   8
#     4  10  22  40  61  85 116 156 197 245 300 352
#     4  10  22  38  60  88 114 152 200 244 306 352
#     4  10  23  38  60  86 117 150 198 256 292 354
#     4  10  23  39  60  91 122 160 201 241 296 357
#     4  10  21  39  60  85 121 154 196 244 296 354
#     4  10  22  36  59  87 121 159 197 245 292 356
#
# _framework density 19.578209000000001
#
# number of rings (size 3 to 8) (size 9 to 14) (size 15 to 20)
#    0.000    2.000    1.000    0.900    5.600    6.000 
#    0.000    2.000    0.000    6.000    0.000    0.000 
#    0.000    0.000    0.000    0.000    0.000    0.000 
#
# Total GULP energy -223054.983368 kJ/mol
# GULP energy per Si atom -5576.374584 kJ/mol
# Density = 1.953365 g / cm^3
# Si number density = 19.578209 Si / 1000 Ang^3
#
#
#
# Elastic Constant Matrix: (Units=GPa)
#
#
# Indices 1 2 3 4 5 6 
#
# 1 141.4547 29.6764 2.7776 0.0000 0.0000 0.0000
# 2 29.6764 53.7920 -17.4498 0.0000 0.0000 0.0000
# 3 2.7776 -17.4498 24.7910 0.0000 0.0000 0.0000
# 4 0.0000 0.0000 0.0000 20.4817 0.0000 0.0000
# 5 0.0000 0.0000 0.0000 0.0000 24.9091 0.0000
# 6 0.0000 0.0000 0.0000 0.0000 0.0000 60.5251
#
#
#
# Elastic Compliance Matrix: (Units=1/GPa)
#
#
# Indices 1 2 3 4 5 6 
#
# 1 0.008544 -0.006511 -0.005540 0.000000 0.000000 0.000000
# 2 -0.006511 0.029052 0.021179 0.000000 0.000000 0.000000
# 3 -0.005540 0.021179 0.055865 0.000000 0.000000 0.000000
# 4 0.000000 0.000000 0.000000 0.048824 0.000000 0.000000
# 5 0.000000 0.000000 0.000000 0.000000 0.040146 0.000000
# 6 0.000000 0.000000 0.000000 0.000000 0.000000 0.016522
#
#
# Mechanical properties :
#
#
# Convention : Reuss Voigt Hill
#
# Bulk Modulus (GPa) = 8.95116 27.78289 18.36702
# Shear Modulus (GPa) = 22.94235 34.85207 28.89721
#
# Velocity S-wave (km/s) = 3.42692 4.22375 3.84603
# Velocity P-wave (km/s) = 4.49892 6.16509 5.39669
#
# Compressibility (1/GPa) = 0.11171741
#
# Stress axis : x y z
#
# Youngs Moduli (GPa) = 117.03938 34.42059 17.90019
#
# Poissons Ratio (x) = 0.22411 0.09917
# Poissons Ratio (y) = 0.76203 -0.37911
# Poissons Ratio (z) = 0.64842 -0.72899
#
# Static dielectric constant tensor:
#      x y z
#    x 1.807830 0.000000 0.000000 
#    y 0.000000 1.704410 0.000000 
#    z 0.000000 0.000000 1.666460 
# 
# From -- ./inp_files/10813.got.cif
#   From: 2010.05.17/outbox.cif.g08.bks.cpg/sg53_6_cif.got.tgz:10813.got - 2010.06.03 12:45:16.
