data_PCOD9418593
_publ_section_title
;
Structure prediction by ZEFSAII (Michael W. Deem and Ramdas Pophale) SiO2 
 PCOD9418593
Probable space group: P M N A
;
_chemical_formula_sum "Si O2"
_cell_formula_units_Z 48
_cell_length_a 17.823122
_cell_length_b 12.380984
_cell_length_c 10.948478
_cell_angle_alpha 90.000000
_cell_angle_beta 90.000000
_cell_angle_gamma 90.000000
_cell_volume 2415.976426
_symmetry_space_group_name_H-M "P M N A"
_symmetry_group_IT_number 53
_symmetry_cell_setting 'orthorhombic'
loop_
_space_group_symop_operation_xyz
x,y,z
1/2-x,-y,1/2+z
x,-y,-z
1/2-x,y,1/2-z
-x,-y,-z
1/2+x,y,1/2-z
-x,y,z
1/2+x,-y,1/2+z
loop_
_atom_site_type_symbol
_atom_site_label
_atom_site_fract_x
_atom_site_fract_y
_atom_site_fract_z
Si Si1 0.303630 0.609502 0.557558
Si Si2 0.654433 0.268105 0.060283
Si Si3 0.414705 0.661147 0.337330
Si Si4 0.413771 0.048966 0.138107
Si Si5 0.587328 0.557080 0.782331
Si Si6 0.164671 0.159955 0.705974
O O1 0.266835 0.500000 0.500000
O O2 0.240133 0.697112 0.582161
O O3 0.360432 0.637414 0.449194
O O4 0.353445 0.593441 0.678311
O O5 0.620147 0.168989 0.137715
O O6 0.607683 0.375514 0.096692
O O7 0.653859 0.219643 0.923977
O O8 0.500000 0.651294 0.377722
O O9 0.403982 0.572837 0.228494
O O10 0.393467 0.778280 0.291471
O O11 0.500000 0.049376 0.182539
O O12 0.359052 0.964542 0.203203
O O13 0.416554 0.000000 0.000000
O O14 0.500000 0.579594 0.751845
O O15 0.250000 0.174732 0.750000
#
# Coordination Sequence:
#
# PCOD9418593 Si02
#       6
#     8   8   8   8   8   8
#     4  10  21  37  60  86 122 163 202 247 304 363
#     4  11  22  37  61  89 122 154 198 257 305 363
#     4  10  21  38  60  87 122 163 205 247 300 363
#     4   9  20  39  60  82 113 155 197 245 304 359
#     4  10  22  37  58  88 122 161 203 247 300 363
#     4  11  22  37  60  90 123 157 203 253 304 364
#
# _framework density 19.867743999999998
#
# number of rings (size 3 to 8) (size 9 to 14) (size 15 to 20)
#    0.000    1.833    1.667    2.000    2.333    5.333 
#    0.000    1.667    0.000    0.000    0.000    4.667 
#    0.000    0.000    0.000    0.000    0.000    0.000 
#
# Total GULP energy -267584.142656 kJ/mol
# GULP energy per Si atom -5574.669639 kJ/mol
# Density = 1.982252 g / cm^3
# Si number density = 19.867744 Si / 1000 Ang^3
#
#
#
# Elastic Constant Matrix: (Units=GPa)
#
#
# Indices 1 2 3 4 5 6 
#
# 1 104.1285 42.9930 9.9965 0.0000 0.0000 0.0000
# 2 42.9930 74.0271 12.1402 0.0000 0.0000 0.0000
# 3 9.9965 12.1402 32.7127 0.0000 0.0000 0.0000
# 4 0.0000 0.0000 0.0000 24.8642 0.0000 0.0000
# 5 0.0000 0.0000 0.0000 0.0000 31.3837 0.0000
# 6 0.0000 0.0000 0.0000 0.0000 0.0000 38.0576
#
#
#
# Elastic Compliance Matrix: (Units=1/GPa)
#
#
# Indices 1 2 3 4 5 6 
#
# 1 0.012678 -0.007164 -0.001216 0.000000 0.000000 0.000000
# 2 -0.007164 0.018432 -0.004651 0.000000 0.000000 0.000000
# 3 -0.001216 -0.004651 0.032667 0.000000 0.000000 0.000000
# 4 0.000000 0.000000 0.000000 0.040218 0.000000 0.000000
# 5 0.000000 0.000000 0.000000 0.000000 0.031864 0.000000
# 6 0.000000 0.000000 0.000000 0.000000 0.000000 0.026276
#
#
# Mechanical properties :
#
#
# Convention : Reuss Voigt Hill
#
# Bulk Modulus (GPa) = 26.51430 37.90307 32.20869
# Shear Modulus (GPa) = 24.90439 28.57699 26.74069
#
# Velocity S-wave (km/s) = 3.54433 3.79669 3.67268
# Velocity P-wave (km/s) = 5.48854 6.19184 5.85077
#
# Compressibility (1/GPa) = 0.03771550
#
# Stress axis : x y z
#
# Youngs Moduli (GPa) = 78.87681 54.25398 30.61210
#
# Poissons Ratio (x) = 0.38866 0.03721
# Poissons Ratio (y) = 0.56505 0.14238
# Poissons Ratio (z) = 0.09589 0.25235
#
# Static dielectric constant tensor:
#      x y z
#    x 1.668770 0.000000 0.000000 
#    y 0.000000 1.704950 0.000000 
#    z 0.000000 0.000000 1.741040 
# 
# From -- ./inp_files/16931.got.cif
#   From: 2010.05.17/outbox.cif.g08.bks.cpg/sg53_9_cif.got.tgz:16931.got - 2010.06.03 12:45:16.
