data_PCOD9418023
_publ_section_title
;
Structure prediction by ZEFSAII (Michael W. Deem and Ramdas Pophale) SiO2 
 PCOD9418023
Probable space group: P M N A
;
_chemical_formula_sum "Si O2"
_cell_formula_units_Z 48
_cell_length_a 10.218961
_cell_length_b 14.230406
_cell_length_c 14.824824
_cell_angle_alpha 90.000000
_cell_angle_beta 90.000000
_cell_angle_gamma 90.000000
_cell_volume 2155.825371
_symmetry_space_group_name_H-M "P M N A"
_symmetry_group_IT_number 53
_symmetry_cell_setting 'orthorhombic'
loop_
_space_group_symop_operation_xyz
x,y,z
1/2-x,-y,1/2+z
x,-y,-z
1/2-x,y,1/2-z
-x,-y,-z
1/2+x,y,1/2-z
-x,y,z
1/2+x,-y,1/2+z
loop_
_atom_site_type_symbol
_atom_site_label
_atom_site_fract_x
_atom_site_fract_y
_atom_site_fract_z
Si Si1 0.254242 0.690571 0.901123
Si Si2 0.000000 0.812742 0.901158
Si Si3 0.646939 0.494249 0.610385
Si Si4 0.000000 0.000172 0.654637
Si Si5 0.650457 0.337387 0.901951
Si Si6 0.000000 0.788362 0.686335
Si Si7 0.000000 0.029228 0.874559
Si Si8 0.237162 0.126682 0.642203
O O1 0.189743 0.597639 0.858958
O O2 0.364678 0.738538 0.840598
O O3 0.133686 0.759121 0.929423
O O4 0.332187 0.657773 0.990142
O O5 0.000000 0.801777 0.792855
O O6 0.000000 0.924864 0.915980
O O7 0.643045 0.500000 0.500000
O O8 0.500000 0.471247 0.640513
O O9 0.751130 0.415212 0.636415
O O10 0.000000 0.013859 0.764492
O O11 0.125590 0.052901 0.616279
O O12 0.000000 0.889889 0.638488
O O13 0.500000 0.352453 0.876030
O O14 0.694825 0.232119 0.878766
O O15 0.126887 0.090412 0.896695
O O16 0.250000 0.121890 0.750000
#
# Coordination Sequence:
#
# PCOD9418023 Si02
#       8
#     8   4   8   4   8   4   4   8
#     4  11  22  39  62  91 122 155 199 248 297 354
#     4  11  22  41  61  85 124 158 206 247 291 349
#     4   9  20  38  62  86 116 157 194 232 290 362
#     4   9  18  37  58  81 120 160 203 235 288 359
#     4  11  23  39  63  90 119 156 199 247 298 355
#     4  11  22  37  63  91 118 164 202 241 293 355
#     4   9  20  35  60  85 108 166 207 235 282 365
#     4  10  20  38  61  86 119 155 199 246 294 351
#
# _framework density 22.265255
#
# number of rings (size 3 to 8) (size 9 to 14) (size 15 to 20)
#    0.000    1.833    2.500    1.500    3.500    3.667 
#    0.000    6.667    0.000    0.000    0.000    0.000 
#    0.000    0.000    0.000    0.000    0.000    0.000 
#
# Total GULP energy -268423.165835 kJ/mol
# GULP energy per Si atom -5592.149288 kJ/mol
# Density = 2.221458 g / cm^3
# Si number density = 22.265255 Si / 1000 Ang^3
#
#
#
# Elastic Constant Matrix: (Units=GPa)
#
#
# Indices 1 2 3 4 5 6 
#
# 1 239.1312 114.0410 16.2599 0.0000 0.0000 0.0000
# 2 114.0410 174.0927 2.2191 0.0000 0.0000 0.0000
# 3 16.2599 2.2191 30.6584 0.0000 0.0000 0.0000
# 4 0.0000 0.0000 0.0000 32.8347 0.0000 0.0000
# 5 0.0000 0.0000 0.0000 0.0000 -17.2813 0.0000
# 6 0.0000 0.0000 0.0000 0.0000 0.0000 41.7042
#
#
#
# Elastic Compliance Matrix: (Units=1/GPa)
#
#
# Indices 1 2 3 4 5 6 
#
# 1 0.006358 -0.004126 -0.003074 0.000000 0.000000 0.000000
# 2 -0.004126 0.008427 0.001578 0.000000 0.000000 0.000000
# 3 -0.003074 0.001578 0.034133 0.000000 0.000000 0.000000
# 4 0.000000 0.000000 0.000000 0.030456 0.000000 0.000000
# 5 0.000000 0.000000 0.000000 0.000000 -0.057866 0.000000
# 6 0.000000 0.000000 0.000000 0.000000 0.000000 0.023978
#
#
# Mechanical properties :
#
#
# Convention : Reuss Voigt Hill
#
# Bulk Modulus (GPa) = 26.54217 78.76917 52.65567
# Shear Modulus (GPa) = 72.16283 32.20901 52.18592
#
# Velocity S-wave (km/s) = 5.69920 3.80755 4.84656
# Velocity P-wave (km/s) = 7.43334 7.40164 7.41751
#
# Compressibility (1/GPa) = 0.03767589
#
# Stress axis : x y z
#
# Youngs Moduli (GPa) = 157.27045 118.67015 29.29690
#
# Poissons Ratio (x) = 0.48963 0.09005
# Poissons Ratio (y) = 0.64890 -0.04624
# Poissons Ratio (z) = 0.48339 -0.18730
#
# Static dielectric constant tensor:
#      x y z
#    x 1.774690 0.000000 0.000000 
#    y 0.000000 1.790860 0.000000 
#    z 0.000000 0.000000 1.869100 
# 
# From -- ./inp_files/26357.got.cif
#   From: 2010.05.17/outbox.cif.g08.bks.cpg/sg53_14_cif.got.tgz:26357.got - 2010.06.03 12:45:16.
