data_PCOD9418268
_publ_section_title
;
Structure prediction by ZEFSAII (Michael W. Deem and Ramdas Pophale) SiO2 
 PCOD9418268
Probable space group: P M N A
;
_chemical_formula_sum "Si O2"
_cell_formula_units_Z 40
_cell_length_a 7.406956
_cell_length_b 28.190448
_cell_length_c 8.917818
_cell_angle_alpha 90.000000
_cell_angle_beta 90.000000
_cell_angle_gamma 90.000000
_cell_volume 1862.088626
_symmetry_space_group_name_H-M "P M N A"
_symmetry_group_IT_number 53
_symmetry_cell_setting 'orthorhombic'
loop_
_space_group_symop_operation_xyz
x,y,z
1/2-x,-y,1/2+z
x,-y,-z
1/2-x,y,1/2-z
-x,-y,-z
1/2+x,y,1/2-z
-x,y,z
1/2+x,-y,1/2+z
loop_
_atom_site_type_symbol
_atom_site_label
_atom_site_fract_x
_atom_site_fract_y
_atom_site_fract_z
Si Si1 0.283893 0.355289 0.572167
Si Si2 0.715739 0.548263 0.574296
Si Si3 0.215951 0.252581 0.929557
Si Si4 0.216010 0.849381 0.070340
Si Si5 0.216041 0.951869 0.072513
O O1 0.250000 0.358696 0.750000
O O2 0.500000 0.354295 0.550491
O O3 0.212391 0.402592 0.494098
O O4 0.214506 0.303803 0.516659
O O5 0.786965 0.500000 0.500000
O O6 0.750000 0.546901 0.750000
O O7 0.500000 0.548693 0.547920
O O8 0.250000 0.252709 0.750000
O O9 0.285775 0.201607 0.987185
O O10 0.000000 0.252345 0.951451
O O11 0.250000 0.849463 0.250000
O O12 0.285139 0.900535 0.015195
O O13 0.000000 0.849235 0.048894
O O14 0.250000 0.953876 0.250000
O O15 0.000000 0.951399 0.048906
O O16 0.288480 0.000000 0.000000
#
# Coordination Sequence:
#
# PCOD9418268 Si02
#       5
#     8   8   8   8   8
#     4   9  17  29  46  69  93 115 142 176 214 257
#     4  10  21  35  50  69  92 118 149 182 215 254
#     4   8  13  22  38  60  84 108 135 170 210 249
#     4   8  13  22  37  57  80 106 136 171 210 249
#     4   9  17  28  42  61  84 110 142 178 215 257
#
# _framework density 21.481255000000001
#
# number of rings (size 3 to 8) (size 9 to 14) (size 15 to 20)
#    0.000    3.200    0.000    0.600    0.000    1.600 
#    0.000    0.000    0.000    1.200    0.000    0.000 
#    0.000    0.000    0.000    0.000    0.000    0.000 
#
# Total GULP energy -222770.041095 kJ/mol
# GULP energy per Si atom -5569.251027 kJ/mol
# Density = 2.143236 g / cm^3
# Si number density = 21.481255 Si / 1000 Ang^3
#
#
#
# Elastic Constant Matrix: (Units=GPa)
#
#
# Indices 1 2 3 4 5 6 
#
# 1 79.8693 17.3715 -8.9159 0.0000 0.0000 0.0000
# 2 17.3715 335.4389 71.0123 0.0000 0.0000 0.0000
# 3 -8.9159 71.0123 36.0056 0.0000 0.0000 0.0000
# 4 0.0000 0.0000 0.0000 35.9923 0.0000 0.0000
# 5 0.0000 0.0000 0.0000 0.0000 11.9751 0.0000
# 6 0.0000 0.0000 0.0000 0.0000 0.0000 7.7219
#
#
#
# Elastic Compliance Matrix: (Units=1/GPa)
#
#
# Indices 1 2 3 4 5 6 
#
# 1 0.014004 -0.002505 0.008409 0.000000 0.000000 0.000000
# 2 -0.002505 0.005566 -0.011599 0.000000 0.000000 0.000000
# 3 0.008409 -0.011599 0.052732 0.000000 0.000000 0.000000
# 4 0.000000 0.000000 0.000000 0.027784 0.000000 0.000000
# 5 0.000000 0.000000 0.000000 0.000000 0.083507 0.000000
# 6 0.000000 0.000000 0.000000 0.000000 0.000000 0.129502
#
#
# Mechanical properties :
#
#
# Convention : Reuss Voigt Hill
#
# Bulk Modulus (GPa) = 16.41711 67.80549 42.11130
# Shear Modulus (GPa) = 14.50167 35.92761 25.21464
#
# Velocity S-wave (km/s) = 2.60106 4.09407 3.42979
# Velocity P-wave (km/s) = 4.08409 7.34725 5.94398
#
# Compressibility (1/GPa) = 0.06091204
#
# Stress axis : x y z
#
# Youngs Moduli (GPa) = 71.40759 179.65044 18.96399
#
# Poissons Ratio (x) = 0.45011 -0.15947
# Poissons Ratio (y) = 0.17891 0.21996
# Poissons Ratio (z) = -0.60048 2.08372
#
# Static dielectric constant tensor:
#      x y z
#    x 1.781870 0.000000 0.000000 
#    y 0.000000 1.894370 0.000000 
#    z 0.000000 0.000000 1.700130 
# 
# From -- ./inp_files/769.got.cif
#   From: 2010.05.17/outbox.cif.g08.bks.cpg/sg53_1_cif.got.tgz:769.got - 2010.06.03 12:45:16.
