data_PCOD9418858
_publ_section_title
;
Structure prediction by ZEFSAII (Michael W. Deem and Ramdas Pophale) SiO2 
 PCOD9418858
Probable space group: P M N A
;
_chemical_formula_sum "Si O2"
_cell_formula_units_Z 40
_cell_length_a 21.423747
_cell_length_b 10.119102
_cell_length_c 8.534935
_cell_angle_alpha 90.000000
_cell_angle_beta 90.000000
_cell_angle_gamma 90.000000
_cell_volume 1850.280716
_symmetry_space_group_name_H-M "P M N A"
_symmetry_group_IT_number 53
_symmetry_cell_setting 'orthorhombic'
loop_
_space_group_symop_operation_xyz
x,y,z
1/2-x,-y,1/2+z
x,-y,-z
1/2-x,y,1/2-z
-x,-y,-z
1/2+x,y,1/2-z
-x,y,z
1/2+x,-y,1/2+z
loop_
_atom_site_type_symbol
_atom_site_label
_atom_site_fract_x
_atom_site_fract_y
_atom_site_fract_z
Si Si1 0.191944 0.113953 0.129197
Si Si2 0.883094 0.645261 0.442995
Si Si3 0.259335 0.643055 0.438477
Si Si4 0.428677 0.200224 0.199431
Si Si5 0.429129 0.500747 0.315880
O O1 0.250000 0.101529 0.250000
O O2 0.126843 0.116135 0.225377
O O3 0.201281 0.246811 0.027186
O O4 0.193184 0.000000 0.000000
O O5 0.907190 0.500000 0.500000
O O6 0.812293 0.658681 0.499212
O O7 0.919529 0.768561 0.514210
O O8 0.886819 0.615257 0.259095
O O9 0.280179 0.500000 0.500000
O O10 0.250000 0.651482 0.250000
O O11 0.500000 0.159427 0.232394
O O12 0.418215 0.349610 0.264652
O O13 0.425310 0.500000 0.500000
O O14 0.500000 0.535108 0.268687
#
# Coordination Sequence:
#
# PCOD9418858 Si02
#       5
#     8   8   8   8   8
#     4  12  26  47  68  95 133 177 223 276 343 406
#     4   9  18  33  57  89 130 174 213 262 329 386
#     4  11  24  38  66 103 134 170 222 281 331 395
#     4  10  21  39  64  92 127 174 225 273 328 398
#     4   9  18  31  53  92 137 174 210 263 330 392
#
# _framework density 21.618341000000001
#
# number of rings (size 3 to 8) (size 9 to 14) (size 15 to 20)
#    0.000    1.800    2.000    1.800    8.400    2.800 
#    0.000    0.000    0.000    0.600    0.000    0.000 
#    0.000    0.000    0.000    0.000    0.000    0.000 
#
# Total GULP energy -223156.150945 kJ/mol
# GULP energy per Si atom -5578.903774 kJ/mol
# Density = 2.156914 g / cm^3
# Si number density = 21.618341 Si / 1000 Ang^3
#
#
#
# Elastic Constant Matrix: (Units=GPa)
#
#
# Indices 1 2 3 4 5 6 
#
# 1 149.4680 39.2258 36.8230 0.0000 0.0000 0.0000
# 2 39.2258 65.4668 29.4700 0.0000 0.0000 0.0000
# 3 36.8230 29.4700 94.1189 0.0000 0.0000 0.0000
# 4 0.0000 0.0000 0.0000 28.4390 0.0000 0.0000
# 5 0.0000 0.0000 0.0000 0.0000 26.7852 0.0000
# 6 0.0000 0.0000 0.0000 0.0000 0.0000 8.9105
#
#
#
# Elastic Compliance Matrix: (Units=1/GPa)
#
#
# Indices 1 2 3 4 5 6 
#
# 1 0.008236 -0.004056 -0.001952 0.000000 0.000000 0.000000
# 2 -0.004056 0.019779 -0.004606 0.000000 0.000000 0.000000
# 3 -0.001952 -0.004606 0.012831 0.000000 0.000000 0.000000
# 4 0.000000 0.000000 0.000000 0.035163 0.000000 0.000000
# 5 0.000000 0.000000 0.000000 0.000000 0.037334 0.000000
# 6 0.000000 0.000000 0.000000 0.000000 0.000000 0.112227
#
#
# Mechanical properties :
#
#
# Convention : Reuss Voigt Hill
#
# Bulk Modulus (GPa) = 50.97675 57.78793 54.38234
# Shear Modulus (GPa) = 19.73661 26.39593 23.06627
#
# Velocity S-wave (km/s) = 3.02480 3.49807 3.27001
# Velocity P-wave (km/s) = 5.98588 6.56539 6.28232
#
# Compressibility (1/GPa) = 0.01961679
#
# Stress axis : x y z
#
# Youngs Moduli (GPa) = 121.42207 50.55993 77.93694
#
# Poissons Ratio (x) = 0.20506 0.15215
# Poissons Ratio (y) = 0.49247 0.35899
# Poissons Ratio (z) = 0.23704 0.23289
#
# Static dielectric constant tensor:
#      x y z
#    x 1.855320 0.000000 0.000000 
#    y 0.000000 1.756690 0.000000 
#    z 0.000000 0.000000 2.002550 
# 
# From -- ./inp_files/11566.got.cif
#   From: 2010.05.17/outbox.cif.g08.bks.cpg/sg53_6_cif.got.tgz:11566.got - 2010.06.03 12:45:16.
