data_PCOD9418346
_publ_section_title
;
Structure prediction by ZEFSAII (Michael W. Deem and Ramdas Pophale) SiO2 
 PCOD9418346
Probable space group: P M N A
;
_chemical_formula_sum "Si O2"
_cell_formula_units_Z 32
_cell_length_a 26.837162
_cell_length_b 13.015758
_cell_length_c 5.061843
_cell_angle_alpha 90.000000
_cell_angle_beta 90.000000
_cell_angle_gamma 90.000000
_cell_volume 1768.132161
_symmetry_space_group_name_H-M "P M N A"
_symmetry_group_IT_number 53
_symmetry_cell_setting 'orthorhombic'
loop_
_space_group_symop_operation_xyz
x,y,z
1/2-x,-y,1/2+z
x,-y,-z
1/2-x,y,1/2-z
-x,-y,-z
1/2+x,y,1/2-z
-x,y,z
1/2+x,-y,1/2+z
loop_
_atom_site_type_symbol
_atom_site_label
_atom_site_fract_x
_atom_site_fract_y
_atom_site_fract_z
Si Si1 0.901006 0.211273 0.328961
Si Si2 0.442967 0.897041 0.352951
Si Si3 0.692855 0.074536 0.250201
Si Si4 0.942573 0.428515 0.246070
O O1 0.916297 0.151432 0.598039
O O2 0.847008 0.165982 0.253531
O O3 0.907474 0.333406 0.328530
O O4 0.938291 0.181383 0.092615
O O5 0.500000 0.917621 0.275745
O O6 0.423279 0.000000 0.500000
O O7 0.750000 0.112588 0.250000
O O8 0.687450 0.000000 0.500000
O O9 0.685109 0.000000 0.000000
O O10 0.945006 0.500000 0.500000
O O11 0.000000 0.393821 0.189232
O O12 0.926346 0.500000 0.000000
#
# Coordination Sequence:
#
# PCOD9418346 Si02
#       4
#     8   8   8   8
#     4  12  21  35  57  77 106 146 184 221 271 323
#     4  11  22  33  49  79 114 143 173 212 266 335
#     4  10  21  37  57  82 110 140 178 222 268 324
#     4  10  21  36  53  75 104 140 184 228 268 316
#
# _framework density 18.098195
#
# number of rings (size 3 to 8) (size 9 to 14) (size 15 to 20)
#    0.000    1.250    0.000    8.250    0.000    4.000 
#    0.000    0.000    0.000    1.500    0.000    0.000 
#    0.000    0.000    0.000    0.000    0.000    0.000 
#
# Total GULP energy -178481.308407 kJ/mol
# GULP energy per Si atom -5577.540888 kJ/mol
# Density = 1.805700 g / cm^3
# Si number density = 18.098195 Si / 1000 Ang^3
#
#
#
# Elastic Constant Matrix: (Units=GPa)
#
#
# Indices 1 2 3 4 5 6 
#
# 1 107.7743 80.6172 30.3581 0.0000 0.0000 0.0000
# 2 80.6172 120.5063 42.9694 0.0000 0.0000 0.0000
# 3 30.3581 42.9694 144.9267 0.0000 0.0000 0.0000
# 4 0.0000 0.0000 0.0000 18.1808 0.0000 0.0000
# 5 0.0000 0.0000 0.0000 0.0000 44.7083 0.0000
# 6 0.0000 0.0000 0.0000 0.0000 0.0000 48.3701
#
#
#
# Elastic Compliance Matrix: (Units=1/GPa)
#
#
# Indices 1 2 3 4 5 6 
#
# 1 0.018580 -0.012347 -0.000231 0.000000 0.000000 0.000000
# 2 -0.012347 0.017485 -0.002598 0.000000 0.000000 0.000000
# 3 -0.000231 -0.002598 0.007719 0.000000 0.000000 0.000000
# 4 0.000000 0.000000 0.000000 0.055003 0.000000 0.000000
# 5 0.000000 0.000000 0.000000 0.000000 0.022367 0.000000
# 6 0.000000 0.000000 0.000000 0.000000 0.000000 0.020674
#
#
# Mechanical properties :
#
#
# Convention : Reuss Voigt Hill
#
# Bulk Modulus (GPa) = 74.45389 75.67739 75.06564
# Shear Modulus (GPa) = 28.30358 36.86934 32.58646
#
# Velocity S-wave (km/s) = 3.95889 4.51841 4.24788
# Velocity P-wave (km/s) = 7.88196 8.31427 8.10100
#
# Compressibility (1/GPa) = 0.01343113
#
# Stress axis : x y z
#
# Youngs Moduli (GPa) = 53.82236 57.19297 129.55662
#
# Poissons Ratio (x) = 0.70617 0.02994
# Poissons Ratio (y) = 0.66455 0.33654
# Poissons Ratio (z) = 0.01244 0.14857
#
# Static dielectric constant tensor:
#      x y z
#    x 1.638320 0.000000 0.000000 
#    y 0.000000 1.770360 0.000000 
#    z 0.000000 0.000000 1.113300 
# 
# From -- ./inp_files/4235.got.cif
#   From: 2010.05.17/outbox.cif.g08.bks.cpg/sg53_3_cif.got.tgz:4235.got - 2010.06.03 12:45:16.
