data_PCOD9418473
_publ_section_title
;
Structure prediction by ZEFSAII (Michael W. Deem and Ramdas Pophale) SiO2 
 PCOD9418473
Probable space group: P M N A
;
_chemical_formula_sum "Si O2"
_cell_formula_units_Z 64
_cell_length_a 14.524985
_cell_length_b 22.513370
_cell_length_c 9.117881
_cell_angle_alpha 90.000000
_cell_angle_beta 90.000000
_cell_angle_gamma 90.000000
_cell_volume 2981.605091
_symmetry_space_group_name_H-M "P M N A"
_symmetry_group_IT_number 53
_symmetry_cell_setting 'orthorhombic'
loop_
_space_group_symop_operation_xyz
x,y,z
1/2-x,-y,1/2+z
x,-y,-z
1/2-x,y,1/2-z
-x,-y,-z
1/2+x,y,1/2-z
-x,y,z
1/2+x,-y,1/2+z
loop_
_atom_site_type_symbol
_atom_site_label
_atom_site_fract_x
_atom_site_fract_y
_atom_site_fract_z
Si Si1 0.099168 0.546454 0.314991
Si Si2 0.804266 0.353059 0.547454
Si Si3 0.606312 0.758211 0.112906
Si Si4 0.392380 0.137360 0.652279
Si Si5 0.732907 0.836198 0.922047
Si Si6 0.856941 0.413754 0.275957
Si Si7 0.389924 0.065227 0.938268
Si Si8 0.098599 0.371711 0.959008
O O1 0.181747 0.580126 0.394284
O O2 0.102756 0.476218 0.326754
O O3 0.000000 0.567386 0.375518
O O4 0.102224 0.571763 0.149728
O O5 0.863545 0.308692 0.645591
O O6 0.852611 0.359154 0.389527
O O7 0.696709 0.338356 0.549286
O O8 0.500000 0.761170 0.064392
O O9 0.615622 0.803371 0.248009
O O10 0.680382 0.779756 0.992217
O O11 0.500000 0.129826 0.610316
O O12 0.323807 0.146349 0.516379
O O13 0.366956 0.084502 0.769169
O O14 0.750000 0.829240 0.750000
O O15 0.661605 0.889007 0.956809
O O16 0.750000 0.427557 0.250000
O O17 0.901183 0.394718 0.124798
O O18 0.500000 0.073499 0.947753
O O19 0.368079 0.000000 0.000000
O O20 0.000000 0.340275 0.930270
#
# Coordination Sequence:
#
# PCOD9418473 Si02
#       8
#     8   8   8   8   8   8   8   8
#     4  11  22  35  55  82 109 142 183 228 284 351
#     4  11  23  39  60  84 109 140 186 243 297 349
#     4  10  22  42  62  81 112 155 201 251 309 368
#     4   9  20  40  65  90 122 167 213 256 304 362
#     4  11  23  37  61  93 126 164 208 258 309 359
#     4  10  21  37  56  79 110 143 177 225 288 355
#     4   9  18  36  63  94 130 173 215 254 301 355
#     4  10  22  38  56  79 110 148 182 218 279 360
#
# _framework density 21.464949000000001
#
# number of rings (size 3 to 8) (size 9 to 14) (size 15 to 20)
#    0.000    1.875    0.000    5.250    0.000   11.000 
#    0.000    1.875    0.000    3.375    0.000    0.000 
#    0.000    0.000    0.000    0.000    0.000    0.000 
#
# Total GULP energy -357223.194116 kJ/mol
# GULP energy per Si atom -5581.612408 kJ/mol
# Density = 2.141609 g / cm^3
# Si number density = 21.464949 Si / 1000 Ang^3
#
#
#
# Elastic Constant Matrix: (Units=GPa)
#
#
# Indices 1 2 3 4 5 6 
#
# 1 108.8143 18.0172 36.4160 0.0000 0.0000 0.0000
# 2 18.0172 65.7642 10.9392 0.0000 0.0000 0.0000
# 3 36.4160 10.9392 119.7610 0.0000 0.0000 0.0000
# 4 0.0000 0.0000 0.0000 6.5915 0.0000 0.0000
# 5 0.0000 0.0000 0.0000 0.0000 24.0897 0.0000
# 6 0.0000 0.0000 0.0000 0.0000 0.0000 12.1332
#
#
#
# Elastic Compliance Matrix: (Units=1/GPa)
#
#
# Indices 1 2 3 4 5 6 
#
# 1 0.010592 -0.002403 -0.003001 0.000000 0.000000 0.000000
# 2 -0.002403 0.015985 -0.000730 0.000000 0.000000 0.000000
# 3 -0.003001 -0.000730 0.009329 0.000000 0.000000 0.000000
# 4 0.000000 0.000000 0.000000 0.151711 0.000000 0.000000
# 5 0.000000 0.000000 0.000000 0.000000 0.041512 0.000000
# 6 0.000000 0.000000 0.000000 0.000000 0.000000 0.082419
#
#
# Mechanical properties :
#
#
# Convention : Reuss Voigt Hill
#
# Bulk Modulus (GPa) = 42.30160 47.23158 44.76659
# Shear Modulus (GPa) = 15.07409 23.82734 19.45072
#
# Velocity S-wave (km/s) = 2.65290 3.33537 3.01352
# Velocity P-wave (km/s) = 5.39759 6.07328 5.74537
#
# Compressibility (1/GPa) = 0.02363977
#
# Stress axis : x y z
#
# Youngs Moduli (GPa) = 94.40882 62.55694 107.18999
#
# Poissons Ratio (x) = 0.15030 0.32171
# Poissons Ratio (y) = 0.22683 0.07820
# Poissons Ratio (z) = 0.28335 0.04564
#
# Static dielectric constant tensor:
#      x y z
#    x 1.792430 0.000000 0.000000 
#    y 0.000000 1.807910 0.000000 
#    z 0.000000 0.000000 1.839810 
# 
# From -- ./inp_files/8944.got.cif
#   From: 2010.05.17/outbox.cif.g08.bks.cpg/sg53_5_cif.got.tgz:8944.got - 2010.06.03 12:45:16.
