data_PCOD9418395
_publ_section_title
;
Structure prediction by ZEFSAII (Michael W. Deem and Ramdas Pophale) SiO2 
 PCOD9418395
Probable space group: P M N A
;
_chemical_formula_sum "Si O2"
_cell_formula_units_Z 64
_cell_length_a 23.516043
_cell_length_b 15.175847
_cell_length_c 8.660194
_cell_angle_alpha 90.000000
_cell_angle_beta 90.000000
_cell_angle_gamma 90.000000
_cell_volume 3090.614273
_symmetry_space_group_name_H-M "P M N A"
_symmetry_group_IT_number 53
_symmetry_cell_setting 'orthorhombic'
loop_
_space_group_symop_operation_xyz
x,y,z
1/2-x,-y,1/2+z
x,-y,-z
1/2-x,y,1/2-z
-x,-y,-z
1/2+x,y,1/2-z
-x,y,z
1/2+x,-y,1/2+z
loop_
_atom_site_type_symbol
_atom_site_label
_atom_site_fract_x
_atom_site_fract_y
_atom_site_fract_z
Si Si1 0.768474 0.407497 0.575802
Si Si2 0.272376 0.145583 0.405071
Si Si3 0.157732 0.098920 0.568062
Si Si4 0.122361 0.401697 0.439574
Si Si5 0.435630 0.730207 0.412371
Si Si6 0.166714 0.331796 0.120906
Si Si7 0.882538 0.915200 0.076680
Si Si8 0.564336 0.242622 0.950599
O O1 0.783616 0.500000 0.500000
O O2 0.750000 0.411997 0.750000
O O3 0.828371 0.359775 0.551179
O O4 0.715790 0.376096 0.477924
O O5 0.250000 0.100297 0.250000
O O6 0.219062 0.143451 0.524521
O O7 0.302314 0.237438 0.347859
O O8 0.324915 0.097737 0.480776
O O9 0.139462 0.086430 0.746866
O O10 0.109524 0.166775 0.506259
O O11 0.157558 0.000000 0.500000
O O12 0.105697 0.500000 0.500000
O O13 0.150001 0.390117 0.269313
O O14 0.072644 0.330107 0.447709
O O15 0.500000 0.703754 0.449702
O O16 0.388227 0.680800 0.512751
O O17 0.423849 0.832693 0.445523
O O18 0.427584 0.725258 0.227273
O O19 0.910530 0.000000 0.000000
O O20 0.500000 0.208336 0.962545
#
# Coordination Sequence:
#
# PCOD9418395 Si02
#       8
#     8   8   8   8   8   8   8   8
#     4  11  21  35  57  85 117 150 186 233 291 356
#     4  11  21  35  56  83 119 154 193 241 295 360
#     4  11  22  37  60  89 124 162 203 252 307 370
#     4  11  23  40  62  92 126 159 203 256 313 374
#     4   9  21  40  60  82 111 155 206 254 306 363
#     4  11  22  37  60  88 119 155 198 247 303 364
#     4  10  21  36  55  83 117 155 199 249 306 365
#     4  10  22  42  63  85 120 164 210 259 311 369
#
# _framework density 20.707858000000002
#
# number of rings (size 3 to 8) (size 9 to 14) (size 15 to 20)
#    0.000    1.500    0.000    6.375    0.000    4.250 
#    0.000    0.000    0.000    1.875    0.000    0.000 
#    0.000    0.000    0.000    0.000    0.000    0.000 
#
# Total GULP energy -356791.411430 kJ/mol
# GULP energy per Si atom -5574.865804 kJ/mol
# Density = 2.066073 g / cm^3
# Si number density = 20.707858 Si / 1000 Ang^3
#
#
#
# Elastic Constant Matrix: (Units=GPa)
#
#
# Indices 1 2 3 4 5 6 
#
# 1 94.8526 7.7829 -11.7596 0.0000 0.0000 0.0000
# 2 7.7829 75.4694 3.1109 0.0000 0.0000 0.0000
# 3 -11.7596 3.1109 26.6473 0.0000 0.0000 0.0000
# 4 0.0000 0.0000 0.0000 26.4313 0.0000 0.0000
# 5 0.0000 0.0000 0.0000 0.0000 25.5229 0.0000
# 6 0.0000 0.0000 0.0000 0.0000 0.0000 37.4352
#
#
#
# Elastic Compliance Matrix: (Units=1/GPa)
#
#
# Indices 1 2 3 4 5 6 
#
# 1 0.011293 -0.001377 0.005145 0.000000 0.000000 0.000000
# 2 -0.001377 0.013482 -0.002182 0.000000 0.000000 0.000000
# 3 0.005145 -0.002182 0.040052 0.000000 0.000000 0.000000
# 4 0.000000 0.000000 0.000000 0.037834 0.000000 0.000000
# 5 0.000000 0.000000 0.000000 0.000000 0.039181 0.000000
# 6 0.000000 0.000000 0.000000 0.000000 0.000000 0.026713
#
#
# Mechanical properties :
#
#
# Convention : Reuss Voigt Hill
#
# Bulk Modulus (GPa) = 14.70573 21.69307 18.19940
# Shear Modulus (GPa) = 26.58875 31.06690 28.82782
#
# Velocity S-wave (km/s) = 3.58717 3.87750 3.73516
# Velocity P-wave (km/s) = 4.92687 5.52677 5.23542
#
# Compressibility (1/GPa) = 0.06800072
#
# Stress axis : x y z
#
# Youngs Moduli (GPa) = 88.54691 74.17130 24.96740
#
# Poissons Ratio (x) = 0.10211 -0.12845
# Poissons Ratio (y) = 0.12190 0.05447
# Poissons Ratio (z) = -0.45554 0.16181
#
# Static dielectric constant tensor:
#      x y z
#    x 1.766440 0.000000 0.000000 
#    y 0.000000 1.959950 0.000000 
#    z 0.000000 0.000000 1.764260 
# 
# From -- ./inp_files/11959.got.cif
#   From: 2010.05.17/outbox.cif.g08.bks.cpg/sg53_6_cif.got.tgz:11959.got - 2010.06.03 12:45:16.
