data_PCOD9418385
_publ_section_title
;
Structure prediction by ZEFSAII (Michael W. Deem and Ramdas Pophale) SiO2 
 PCOD9418385
Probable space group: P M N A
;
_chemical_formula_sum "Si O2"
_cell_formula_units_Z 48
_cell_length_a 8.461276
_cell_length_b 31.875311
_cell_length_c 9.170990
_cell_angle_alpha 90.000000
_cell_angle_beta 90.000000
_cell_angle_gamma 90.000000
_cell_volume 2473.469231
_symmetry_space_group_name_H-M "P M N A"
_symmetry_group_IT_number 53
_symmetry_cell_setting 'orthorhombic'
loop_
_space_group_symop_operation_xyz
x,y,z
1/2-x,-y,1/2+z
x,-y,-z
1/2-x,y,1/2-z
-x,-y,-z
1/2+x,y,1/2-z
-x,y,z
1/2+x,-y,1/2+z
loop_
_atom_site_type_symbol
_atom_site_label
_atom_site_fract_x
_atom_site_fract_y
_atom_site_fract_z
Si Si1 0.689714 0.125589 0.084814
Si Si2 0.190989 0.290966 0.084810
Si Si3 0.691090 0.625443 0.415182
Si Si4 0.808936 0.458192 0.084836
Si Si5 0.310287 0.792811 0.415178
Si Si6 0.691012 0.958213 0.084775
O O1 0.750000 0.125471 0.250000
O O2 0.500000 0.126126 0.085877
O O3 0.750032 0.166433 0.000270
O O4 0.743036 0.083529 0.000750
O O5 0.250000 0.290550 0.250000
O O6 0.000000 0.291090 0.086583
O O7 0.244143 0.332889 0.000789
O O8 0.243106 0.249337 0.998668
O O9 0.750000 0.625608 0.250000
O O10 0.500000 0.625477 0.413561
O O11 0.743865 0.583565 0.499657
O O12 0.750000 0.458134 0.250000
O O13 0.000000 0.458198 0.086465
O O14 0.756054 0.500000 0.000000
O O15 0.250000 0.792881 0.250000
O O16 0.500000 0.793335 0.414123
O O17 0.750000 0.957999 0.250000
O O18 0.500000 0.958373 0.086563
O O19 0.744354 0.000000 0.000000
#
# Coordination Sequence:
#
# PCOD9418385 Si02
#       6
#     8   8   8   8   8   8
#     4  11  23  39  60  86 116 150 189 232 280 333
#     4  10  22  38  57  82 111 145 185 229 276 329
#     4  10  21  37  56  81 111 143 183 227 273 327
#     4  10  21  36  55  81 111 143 182 226 272 326
#     4  11  23  39  59  84 114 148 188 232 280 333
#     4  10  22  39  59  85 115 148 187 230 277 330
#
# _framework density 19.405942
#
# number of rings (size 3 to 8) (size 9 to 14) (size 15 to 20)
#    0.000    1.667    0.000    4.000    0.000    7.333 
#    0.000    0.000    0.000    0.000    0.000    0.000 
#    0.000    0.000    0.000    0.000    0.000    0.000 
#
# Total GULP energy -268395.985705 kJ/mol
# GULP energy per Si atom -5591.583036 kJ/mol
# Density = 1.936177 g / cm^3
# Si number density = 19.405942 Si / 1000 Ang^3
#
#
#
# Elastic Constant Matrix: (Units=GPa)
#
#
# Indices 1 2 3 4 5 6 
#
# 1 18.3463 37.3567 29.0184 0.0000 0.0000 0.0000
# 2 37.3567 248.7622 151.5458 0.0000 0.0000 0.0000
# 3 29.0184 151.5458 241.8456 0.0000 0.0000 0.0000
# 4 0.0000 0.0000 0.0000 47.8160 0.0000 0.0000
# 5 0.0000 0.0000 0.0000 0.0000 43.5740 0.0000
# 6 0.0000 0.0000 0.0000 0.0000 0.0000 -84.9572
#
#
#
# Elastic Compliance Matrix: (Units=1/GPa)
#
#
# Indices 1 2 3 4 5 6 
#
# 1 0.080165 -0.009994 -0.003357 0.000000 0.000000 0.000000
# 2 -0.009994 0.007748 -0.003656 0.000000 0.000000 0.000000
# 3 -0.003357 -0.003656 0.006828 0.000000 0.000000 0.000000
# 4 0.000000 0.000000 0.000000 0.020913 0.000000 0.000000
# 5 0.000000 0.000000 0.000000 0.000000 0.022949 0.000000
# 6 0.000000 0.000000 0.000000 0.000000 0.000000 -0.011771
#
#
# Mechanical properties :
#
#
# Convention : Reuss Voigt Hill
#
# Bulk Modulus (GPa) = 16.46651 104.97732 60.72191
# Shear Modulus (GPa) = 27.61077 20.68878 24.14977
#
# Velocity S-wave (km/s) = 3.77609 3.26867 3.53151
# Velocity P-wave (km/s) = 5.24553 8.27396 6.92727
#
# Compressibility (1/GPa) = 0.06072934
#
# Stress axis : x y z
#
# Youngs Moduli (GPa) = 12.47425 129.06951 146.44637
#
# Poissons Ratio (x) = 1.28987 0.49156
# Poissons Ratio (y) = 0.12466 0.53538
# Poissons Ratio (z) = 0.04187 0.47185
#
# Static dielectric constant tensor:
#      x y z
#    x 1.672930 0.000000 0.000000 
#    y 0.000000 1.673070 0.000000 
#    z 0.000000 0.000000 1.613010 
# 
# From -- ./inp_files/6631.got.cif
#   From: 2010.05.17/outbox.cif.g08.bks.cpg/sg53_4_cif.got.tgz:6631.got - 2010.06.03 12:45:16.
