data_PCOD9418457
_publ_section_title
;
Structure prediction by ZEFSAII (Michael W. Deem and Ramdas Pophale) SiO2 
 PCOD9418457
Probable space group: P M N A
;
_chemical_formula_sum "Si O2"
_cell_formula_units_Z 40
_cell_length_a 32.719714
_cell_length_b 5.006727
_cell_length_c 12.062346
_cell_angle_alpha 90.000000
_cell_angle_beta 90.000000
_cell_angle_gamma 90.000000
_cell_volume 1976.037545
_symmetry_space_group_name_H-M "P M N A"
_symmetry_group_IT_number 53
_symmetry_cell_setting 'orthorhombic'
loop_
_space_group_symop_operation_xyz
x,y,z
1/2-x,-y,1/2+z
x,-y,-z
1/2-x,y,1/2-z
-x,-y,-z
1/2+x,y,1/2-z
-x,y,z
1/2+x,-y,1/2+z
loop_
_atom_site_type_symbol
_atom_site_label
_atom_site_fract_x
_atom_site_fract_y
_atom_site_fract_z
Si Si1 0.671308 0.944616 0.622083
Si Si2 0.727590 0.552439 0.371138
Si Si3 0.086017 0.036077 0.226804
Si Si4 0.454598 0.746028 0.075786
Si Si5 0.451476 0.453356 0.623912
O O1 0.709020 0.150067 0.633595
O O2 0.633983 0.978624 0.704578
O O3 0.653924 0.000000 0.500000
O O4 0.689683 0.650861 0.629603
O O5 0.745684 0.500000 0.500000
O O6 0.750000 0.510158 0.250000
O O7 0.076196 0.871349 0.337163
O O8 0.059509 0.853919 0.144321
O O9 0.070011 0.338551 0.209242
O O10 0.500000 0.672282 0.123376
O O11 0.440734 0.500000 0.000000
O O12 0.461088 0.000000 0.000000
O O13 0.435902 0.500000 0.500000
O O14 0.500000 0.498268 0.627930
#
# Coordination Sequence:
#
# PCOD9418457 Si02
#       5
#     8   8   8   8   8
#     4  10  21  37  60  89 119 150 185 231 294 360
#     4  10  21  40  64  90 119 154 194 235 289 361
#     4  12  22  37  58  81 113 152 193 241 297 352
#     4  10  21  37  55  75 104 149 203 250 290 336
#     4  11  22  34  52  81 114 149 191 236 284 342
#
# _framework density 20.242531
#
# number of rings (size 3 to 8) (size 9 to 14) (size 15 to 20)
#    0.000    1.400    0.000    6.600    0.000    4.800 
#    0.000    3.000    0.000    0.000    0.000    0.000 
#    0.000    0.000    0.000    0.000    0.000    0.000 
#
# Total GULP energy -222727.944262 kJ/mol
# GULP energy per Si atom -5568.198607 kJ/mol
# Density = 2.019646 g / cm^3
# Si number density = 20.242531 Si / 1000 Ang^3
#
#
#
# Elastic Constant Matrix: (Units=GPa)
#
#
# Indices 1 2 3 4 5 6 
#
# 1 43.5237 -5.6081 33.5878 0.0000 0.0000 0.0000
# 2 -5.6081 83.8430 4.6097 0.0000 0.0000 0.0000
# 3 33.5878 4.6097 111.3269 0.0000 0.0000 0.0000
# 4 0.0000 0.0000 0.0000 32.5790 0.0000 0.0000
# 5 0.0000 0.0000 0.0000 0.0000 35.4359 0.0000
# 6 0.0000 0.0000 0.0000 0.0000 0.0000 16.2643
#
#
#
# Elastic Compliance Matrix: (Units=1/GPa)
#
#
# Indices 1 2 3 4 5 6 
#
# 1 0.030484 0.002550 -0.009303 0.000000 0.000000 0.000000
# 2 0.002550 0.012168 -0.001273 0.000000 0.000000 0.000000
# 3 -0.009303 -0.001273 0.011842 0.000000 0.000000 0.000000
# 4 0.000000 0.000000 0.000000 0.030695 0.000000 0.000000
# 5 0.000000 0.000000 0.000000 0.000000 0.028220 0.000000
# 6 0.000000 0.000000 0.000000 0.000000 0.000000 0.061484
#
#
# Mechanical properties :
#
#
# Convention : Reuss Voigt Hill
#
# Bulk Modulus (GPa) = 26.01310 33.76360 29.88835
# Shear Modulus (GPa) = 24.53901 30.59611 27.56756
#
# Velocity S-wave (km/s) = 3.48552 3.89199 3.69435
# Velocity P-wave (km/s) = 5.39231 6.07557 5.74411
#
# Compressibility (1/GPa) = 0.03844217
#
# Stress axis : x y z
#
# Youngs Moduli (GPa) = 32.80453 82.18510 84.44575
#
# Poissons Ratio (x) = -0.20961 0.78557
# Poissons Ratio (y) = -0.08367 0.10752
# Poissons Ratio (z) = 0.30517 0.10465
#
# Static dielectric constant tensor:
#      x y z
#    x 1.672640 0.000000 0.000000 
#    y 0.000000 1.679120 0.000000 
#    z 0.000000 0.000000 1.853150 
# 
# From -- ./inp_files/18576.got.cif
#   From: 2010.05.17/outbox.cif.g08.bks.cpg/sg53_10_cif.got.tgz:18576.got - 2010.06.03 12:45:16.
