data_PCOD9418759
_publ_section_title
;
Structure prediction by ZEFSAII (Michael W. Deem and Ramdas Pophale) SiO2 
 PCOD9418759
Probable space group: P M N A
;
_chemical_formula_sum "Si O2"
_cell_formula_units_Z 64
_cell_length_a 14.060712
_cell_length_b 9.370458
_cell_length_c 24.827684
_cell_angle_alpha 90.000000
_cell_angle_beta 90.000000
_cell_angle_gamma 90.000000
_cell_volume 3271.179233
_symmetry_space_group_name_H-M "P M N A"
_symmetry_group_IT_number 53
_symmetry_cell_setting 'orthorhombic'
loop_
_space_group_symop_operation_xyz
x,y,z
1/2-x,-y,1/2+z
x,-y,-z
1/2-x,y,1/2-z
-x,-y,-z
1/2+x,y,1/2-z
-x,y,z
1/2+x,-y,1/2+z
loop_
_atom_site_type_symbol
_atom_site_label
_atom_site_fract_x
_atom_site_fract_y
_atom_site_fract_z
Si Si1 0.889909 0.875177 0.937021
Si Si2 0.201639 0.291513 0.156451
Si Si3 0.105650 0.423496 0.866180
Si Si4 0.691384 0.815465 0.302430
Si Si5 0.109243 0.110336 0.240108
Si Si6 0.801903 0.342241 0.977573
Si Si7 0.225414 0.100978 0.583755
Si Si8 0.891142 0.861373 0.632878
O O1 0.870912 0.799874 0.880116
O O2 0.000000 0.915475 0.943925
O O3 0.817934 0.010038 0.936293
O O4 0.857860 0.752570 0.978824
O O5 0.180330 0.455948 0.149408
O O6 0.173900 0.234697 0.215253
O O7 0.306140 0.254198 0.133534
O O8 0.115308 0.298370 0.822816
O O9 0.131791 0.366955 0.925391
O O10 0.000000 0.484236 0.866545
O O11 0.750000 0.767327 0.250000
O O12 0.754391 0.842636 0.355783
O O13 0.643946 0.964589 0.286720
O O14 0.114956 0.089766 0.304487
O O15 0.000000 0.141446 0.227773
O O16 0.718388 0.237103 0.955568
O O17 0.776504 0.500000 0.000000
O O18 0.141360 0.986712 0.592153
O O19 0.000000 0.816033 0.622893
#
# Coordination Sequence:
#
# PCOD9418759 Si02
#       8
#     8   8   8   8   8   8   8   8
#     4  11  21  35  57  88 123 157 197 244 298 365
#     4  11  21  36  57  87 121 160 199 245 295 358
#     4  11  24  38  56  88 130 168 198 237 298 367
#     4  11  20  36  55  83 124 162 200 241 286 345
#     4  11  19  33  61  89 119 153 193 243 302 360
#     4  11  23  38  58  87 123 166 196 238 296 373
#     4  10  22  37  59  86 118 156 199 248 301 354
#     4  10  21  38  64  89 112 151 204 258 307 350
#
# _framework density 19.564810000000001
#
# number of rings (size 3 to 8) (size 9 to 14) (size 15 to 20)
#    0.000    1.250    5.000    2.625    0.000    4.500 
#    0.000    0.000    0.000   10.125    0.000    0.000 
#    0.000    0.000    0.000    0.000    0.000    0.000 
#
# Total GULP energy -357045.449590 kJ/mol
# GULP energy per Si atom -5578.835150 kJ/mol
# Density = 1.952028 g / cm^3
# Si number density = 19.564810 Si / 1000 Ang^3
#
#
#
# Elastic Constant Matrix: (Units=GPa)
#
#
# Indices 1 2 3 4 5 6 
#
# 1 97.1724 11.6846 21.8004 0.0000 0.0000 0.0000
# 2 11.6846 53.3441 23.4413 0.0000 0.0000 0.0000
# 3 21.8004 23.4413 86.7010 0.0000 0.0000 0.0000
# 4 0.0000 0.0000 0.0000 -167.2532 0.0000 0.0000
# 5 0.0000 0.0000 0.0000 0.0000 9.6671 0.0000
# 6 0.0000 0.0000 0.0000 0.0000 0.0000 13.8158
#
#
#
# Elastic Compliance Matrix: (Units=1/GPa)
#
#
# Indices 1 2 3 4 5 6 
#
# 1 0.010992 -0.001354 -0.002398 0.000000 0.000000 0.000000
# 2 -0.001354 0.021441 -0.005456 0.000000 0.000000 0.000000
# 3 -0.002398 -0.005456 0.013612 0.000000 0.000000 0.000000
# 4 0.000000 0.000000 0.000000 -0.005979 0.000000 0.000000
# 5 0.000000 0.000000 0.000000 0.000000 0.103444 0.000000
# 6 0.000000 0.000000 0.000000 0.000000 0.000000 0.072381
#
#
# Mechanical properties :
#
#
# Convention : Reuss Voigt Hill
#
# Bulk Modulus (GPa) = 36.19514 39.00779 37.60146
# Shear Modulus (GPa) = 20.53257 -16.73464 1.89896
#
# Velocity S-wave (km/s) = 3.24306 -2.92780 0.98626
# Velocity P-wave (km/s) = 5.70645 2.92432 4.53405
#
# Compressibility (1/GPa) = 0.02762802
#
# Stress axis : x y z
#
# Youngs Moduli (GPa) = 90.97759 46.64062 73.46443
#
# Poissons Ratio (x) = 0.06315 0.17615
# Poissons Ratio (y) = 0.12318 0.40085
# Poissons Ratio (z) = 0.21814 0.25449
#
# Static dielectric constant tensor:
#      x y z
#    x 1.689040 0.000000 0.000000 
#    y 0.000000 1.694610 0.000000 
#    z 0.000000 0.000000 1.722110 
# 
# From -- ./inp_files/35336.got.cif
#   From: 2010.05.17/outbox.cif.g08.bks.cpg/sg53_18_cif.got.tgz:35336.got - 2010.06.03 12:45:16.
