data_PCOD9418751
_publ_section_title
;
Structure prediction by ZEFSAII (Michael W. Deem and Ramdas Pophale) SiO2 
 PCOD9418751
Probable space group: P M N A
;
_chemical_formula_sum "Si O2"
_cell_formula_units_Z 40
_cell_length_a 21.858507
_cell_length_b 18.382899
_cell_length_c 5.021307
_cell_angle_alpha 90.000000
_cell_angle_beta 90.000000
_cell_angle_gamma 90.000000
_cell_volume 2017.675269
_symmetry_space_group_name_H-M "P M N A"
_symmetry_group_IT_number 53
_symmetry_cell_setting 'orthorhombic'
loop_
_space_group_symop_operation_xyz
x,y,z
1/2-x,-y,1/2+z
x,-y,-z
1/2-x,y,1/2-z
-x,-y,-z
1/2+x,y,1/2-z
-x,y,z
1/2+x,-y,1/2+z
loop_
_atom_site_type_symbol
_atom_site_label
_atom_site_fract_x
_atom_site_fract_y
_atom_site_fract_z
Si Si1 0.000000 0.236298 0.356504
Si Si2 0.128175 0.279716 0.150018
Si Si3 0.294831 0.417466 0.497872
Si Si4 0.500000 0.864987 0.364036
Si Si5 0.818611 0.201428 0.660343
Si Si6 0.125079 0.949986 0.246617
O O1 0.939214 0.280125 0.276386
O O2 0.000000 0.201758 0.650743
O O3 0.000000 0.166986 0.159980
O O4 0.154168 0.357200 0.056655
O O5 0.168084 0.239668 0.378891
O O6 0.135008 0.232082 0.883609
O O7 0.319737 0.500000 0.500000
O O8 0.250000 0.413390 0.250000
O O9 0.250000 0.404691 0.750000
O O10 0.439572 0.912934 0.325255
O O11 0.750000 0.218899 0.750000
O O12 0.829833 0.115224 0.666995
O O13 0.115525 0.000000 0.500000
O O14 0.146304 0.000000 0.000000
#
# Coordination Sequence:
#
# PCOD9418751 Si02
#       6
#     4   8   8   4   8   8
#     4  12  22  39  65  88 122 157 200 261 302 356
#     4  12  22  41  63  92 123 160 206 250 301 361
#     4  10  21  38  63  95 128 162 201 249 301 359
#     4  12  22  43  60  88 117 157 208 257 303 364
#     4  12  25  41  63  88 121 162 205 251 308 370
#     4  12  24  40  61  87 116 157 204 259 312 363
#
# _framework density 19.824795000000002
#
# number of rings (size 3 to 8) (size 9 to 14) (size 15 to 20)
#    0.000    0.400    4.000    6.600    0.000    0.800 
#    0.000    0.500    0.000    0.000    0.000    8.400 
#    0.000    0.000    0.000    0.000    0.000    0.000 
#
# Total GULP energy -223677.573646 kJ/mol
# GULP energy per Si atom -5591.939341 kJ/mol
# Density = 1.977967 g / cm^3
# Si number density = 19.824795 Si / 1000 Ang^3
#
#
#
# Elastic Constant Matrix: (Units=GPa)
#
#
# Indices 1 2 3 4 5 6 
#
# 1 72.7930 41.9789 7.4386 0.0000 0.0000 0.0000
# 2 41.9789 132.2589 24.9878 0.0000 0.0000 0.0000
# 3 7.4386 24.9878 103.8600 0.0000 0.0000 0.0000
# 4 0.0000 0.0000 0.0000 34.0437 0.0000 0.0000
# 5 0.0000 0.0000 0.0000 0.0000 33.6424 0.0000
# 6 0.0000 0.0000 0.0000 0.0000 0.0000 135.1200
#
#
#
# Elastic Compliance Matrix: (Units=1/GPa)
#
#
# Indices 1 2 3 4 5 6 
#
# 1 0.016816 -0.005353 0.000084 0.000000 0.000000 0.000000
# 2 -0.005353 0.009625 -0.001932 0.000000 0.000000 0.000000
# 3 0.000084 -0.001932 0.010087 0.000000 0.000000 0.000000
# 4 0.000000 0.000000 0.000000 0.029374 0.000000 0.000000
# 5 0.000000 0.000000 0.000000 0.000000 0.029724 0.000000
# 6 0.000000 0.000000 0.000000 0.000000 0.000000 0.007401
#
#
# Mechanical properties :
#
#
# Convention : Reuss Voigt Hill
#
# Bulk Modulus (GPa) = 45.19862 50.85804 48.02833
# Shear Modulus (GPa) = 40.06194 56.19499 48.12846
#
# Velocity S-wave (km/s) = 4.50021 5.32985 4.93251
# Velocity P-wave (km/s) = 7.06053 7.97408 7.53117
#
# Compressibility (1/GPa) = 0.02212457
#
# Stress axis : x y z
#
# Youngs Moduli (GPa) = 59.46643 103.89482 99.13494
#
# Poissons Ratio (x) = 0.55617 -0.00828
# Poissons Ratio (y) = 0.31834 0.19156
# Poissons Ratio (z) = -0.00497 0.20076
#
# Static dielectric constant tensor:
#      x y z
#    x 1.705850 0.000000 0.000000 
#    y 0.000000 1.797110 0.000000 
#    z 0.000000 0.000000 1.681780 
# 
# From -- ./inp_files/2906.got.cif
#   From: 2010.05.17/outbox.cif.g08.bks.cpg/sg53_2_cif.got.tgz:2906.got - 2010.06.03 12:45:16.
