data_PCOD9418303
_publ_section_title
;
Structure prediction by ZEFSAII (Michael W. Deem and Ramdas Pophale) SiO2 
 PCOD9418303
Probable space group: P M N A
;
_chemical_formula_sum "Si O2"
_cell_formula_units_Z 52
_cell_length_a 25.496612
_cell_length_b 6.682203
_cell_length_c 16.011605
_cell_angle_alpha 90.000000
_cell_angle_beta 90.000000
_cell_angle_gamma 90.000000
_cell_volume 2727.953780
_symmetry_space_group_name_H-M "P M N A"
_symmetry_group_IT_number 53
_symmetry_cell_setting 'orthorhombic'
loop_
_space_group_symop_operation_xyz
x,y,z
1/2-x,-y,1/2+z
x,-y,-z
1/2-x,y,1/2-z
-x,-y,-z
1/2+x,y,1/2-z
-x,y,z
1/2+x,-y,1/2+z
loop_
_atom_site_type_symbol
_atom_site_label
_atom_site_fract_x
_atom_site_fract_y
_atom_site_fract_z
Si Si1 0.059245 0.805530 0.359803
Si Si2 0.591620 0.500000 0.000000
Si Si3 0.865848 0.187703 0.372718
Si Si4 0.748519 0.060964 0.402729
Si Si5 0.374829 0.542275 0.241919
Si Si6 0.818205 0.567558 0.911267
Si Si7 0.769416 0.643789 0.336100
O O1 0.061455 0.632428 0.431027
O O2 0.077004 0.689446 0.275386
O O3 0.000000 0.883429 0.355183
O O4 0.099470 0.987188 0.378487
O O5 0.624120 0.332188 0.048923
O O6 0.803636 0.150935 0.370805
O O7 0.883299 0.318833 0.292859
O O8 0.697189 0.200537 0.398422
O O9 0.755784 0.000000 0.500000
O O10 0.744910 0.862151 0.347169
O O11 0.351754 0.522219 0.334770
O O12 0.331052 0.634614 0.177163
O O13 0.759278 0.474859 0.908147
O O14 0.840903 0.500000 0.000000
O O15 0.750000 0.546022 0.250000
#
# Coordination Sequence:
#
# PCOD9418303 Si02
#       7
#     8   4   8   8   8   8   8
#     4  11  23  41  62  86 117 158 203 248 297 347
#     4  10  23  38  58  86 122 154 196 238 287 342
#     4  11  23  35  57  84 121 157 196 239 288 345
#     4  12  22  31  53  83 117 157 191 230 283 347
#     4  10  23  40  58  83 117 155 198 248 292 351
#     4  11  23  38  56  85 117 153 195 241 291 356
#     4  10  21  35  54  78 114 151 191 231 282 343
#
# _framework density 19.061906
#
# number of rings (size 3 to 8) (size 9 to 14) (size 15 to 20)
#    0.000    1.231    4.615    1.615    5.385    3.692 
#    0.000    0.000    0.000    0.462    0.000    1.077 
#    0.000    0.000    0.000    0.000    0.000    0.000 
#
# Total GULP energy -289751.139342 kJ/mol
# GULP energy per Si atom -5572.137295 kJ/mol
# Density = 1.901852 g / cm^3
# Si number density = 19.061906 Si / 1000 Ang^3
#
#
#
# Elastic Constant Matrix: (Units=GPa)
#
#
# Indices 1 2 3 4 5 6 
#
# 1 44.9656 18.4126 13.7009 0.0000 0.0000 0.0000
# 2 18.4126 94.7724 26.9699 0.0000 0.0000 0.0000
# 3 13.7009 26.9699 103.6354 0.0000 0.0000 0.0000
# 4 0.0000 0.0000 0.0000 21.6715 0.0000 0.0000
# 5 0.0000 0.0000 0.0000 0.0000 9.2807 0.0000
# 6 0.0000 0.0000 0.0000 0.0000 0.0000 15.8322
#
#
#
# Elastic Compliance Matrix: (Units=1/GPa)
#
#
# Indices 1 2 3 4 5 6 
#
# 1 0.024605 -0.004163 -0.002169 0.000000 0.000000 0.000000
# 2 -0.004163 0.012100 -0.002598 0.000000 0.000000 0.000000
# 3 -0.002169 -0.002598 0.010612 0.000000 0.000000 0.000000
# 4 0.000000 0.000000 0.000000 0.046144 0.000000 0.000000
# 5 0.000000 0.000000 0.000000 0.000000 0.107751 0.000000
# 6 0.000000 0.000000 0.000000 0.000000 0.000000 0.063162
#
#
# Mechanical properties :
#
#
# Convention : Reuss Voigt Hill
#
# Bulk Modulus (GPa) = 33.94988 40.17115 37.06052
# Shear Modulus (GPa) = 17.12013 21.64288 19.38150
#
# Velocity S-wave (km/s) = 3.00014 3.37322 3.19214
# Velocity P-wave (km/s) = 5.46352 6.02423 5.75071
#
# Compressibility (1/GPa) = 0.02945518
#
# Stress axis : x y z
#
# Youngs Moduli (GPa) = 40.64236 82.64572 94.23076
#
# Poissons Ratio (x) = 0.34405 0.20443
# Poissons Ratio (y) = 0.16919 0.24486
# Poissons Ratio (z) = 0.08817 0.21475
#
# Static dielectric constant tensor:
#      x y z
#    x 1.689640 0.000000 0.000000 
#    y 0.000000 1.749650 0.000000 
#    z 0.000000 0.000000 1.695360 
# 
# From -- ./inp_files/29674.got.cif
#   From: 2010.05.17/outbox.cif.g08.bks.cpg/sg53_15_cif.got.tgz:29674.got - 2010.06.03 12:45:16.
