data_PCOD9418417
_publ_section_title
;
Structure prediction by ZEFSAII (Michael W. Deem and Ramdas Pophale) SiO2 
 PCOD9418417
Probable space group: P M N A
;
_chemical_formula_sum "Si O2"
_cell_formula_units_Z 48
_cell_length_a 17.026209
_cell_length_b 5.112465
_cell_length_c 27.275940
_cell_angle_alpha 90.000000
_cell_angle_beta 90.000000
_cell_angle_gamma 90.000000
_cell_volume 2374.258680
_symmetry_space_group_name_H-M "P M N A"
_symmetry_group_IT_number 53
_symmetry_cell_setting 'orthorhombic'
loop_
_space_group_symop_operation_xyz
x,y,z
1/2-x,-y,1/2+z
x,-y,-z
1/2-x,y,1/2-z
-x,-y,-z
1/2+x,y,1/2-z
-x,y,z
1/2+x,-y,1/2+z
loop_
_atom_site_type_symbol
_atom_site_label
_atom_site_fract_x
_atom_site_fract_y
_atom_site_fract_z
Si Si1 0.416995 0.762595 0.673718
Si Si2 0.784018 0.956403 0.120782
Si Si3 0.690639 0.669779 0.202752
Si Si4 0.410698 0.813054 0.785910
Si Si5 0.911892 0.414856 0.919471
Si Si6 0.217165 0.740805 0.967790
O O1 0.500000 0.909925 0.663748
O O2 0.416169 0.702435 0.730453
O O3 0.417268 0.525453 0.635858
O O4 0.338245 0.911145 0.661533
O O5 0.731251 0.763927 0.152289
O O6 0.847413 0.809624 0.086018
O O7 0.746103 0.171588 0.084619
O O8 0.750000 0.647358 0.250000
O O9 0.648761 0.395070 0.191211
O O10 0.627681 0.899288 0.214998
O O11 0.500000 0.820387 0.805445
O O12 0.870116 0.637644 0.952255
O O13 0.000000 0.346719 0.935785
O O14 0.251143 0.500000 0.000000
O O15 0.219593 0.000000 0.000000
#
# Coordination Sequence:
#
# PCOD9418417 Si02
#       6
#     8   8   8   8   8   8
#     4   9  19  34  53  80 117 161 202 242 290 349
#     4  11  22  37  60  84 119 154 208 251 299 347
#     4  12  24  38  64  91 123 158 210 251 301 357
#     4  11  24  41  59  86 126 166 203 249 303 361
#     4  10  21  36  57  82 116 160 207 252 299 343
#     4  11  23  41  57  81 115 157 202 257 305 356
#
# _framework density 20.216837000000002
#
# number of rings (size 3 to 8) (size 9 to 14) (size 15 to 20)
#    0.000    1.333    3.333    2.500    4.667    1.333 
#    0.000    0.000    0.000    0.000    0.000    0.000 
#    0.000   13.333    0.000    0.000    0.000    0.000 
#
# Total GULP energy -267596.166698 kJ/mol
# GULP energy per Si atom -5574.920140 kJ/mol
# Density = 2.017082 g / cm^3
# Si number density = 20.216837 Si / 1000 Ang^3
#
#
#
# Elastic Constant Matrix: (Units=GPa)
#
#
# Indices 1 2 3 4 5 6 
#
# 1 59.5698 12.9268 2.1923 0.0000 0.0000 0.0000
# 2 12.9268 63.0705 4.8488 0.0000 0.0000 0.0000
# 3 2.1923 4.8488 52.5373 0.0000 0.0000 0.0000
# 4 0.0000 0.0000 0.0000 30.3437 0.0000 0.0000
# 5 0.0000 0.0000 0.0000 0.0000 3.1514 0.0000
# 6 0.0000 0.0000 0.0000 0.0000 0.0000 8.5294
#
#
#
# Elastic Compliance Matrix: (Units=1/GPa)
#
#
# Indices 1 2 3 4 5 6 
#
# 1 0.017577 -0.003571 -0.000404 0.000000 0.000000 0.000000
# 2 -0.003571 0.016694 -0.001392 0.000000 0.000000 0.000000
# 3 -0.000404 -0.001392 0.019179 0.000000 0.000000 0.000000
# 4 0.000000 0.000000 0.000000 0.032956 0.000000 0.000000
# 5 0.000000 0.000000 0.000000 0.000000 0.317322 0.000000
# 6 0.000000 0.000000 0.000000 0.000000 0.000000 0.117242
#
#
# Mechanical properties :
#
#
# Convention : Reuss Voigt Hill
#
# Bulk Modulus (GPa) = 23.41018 23.90150 23.65584
# Shear Modulus (GPa) = 9.15846 18.75220 13.95533
#
# Velocity S-wave (km/s) = 2.13072 3.04888 2.63017
# Velocity P-wave (km/s) = 4.20214 4.92366 4.57714
#
# Compressibility (1/GPa) = 0.04271647
#
# Stress axis : x y z
#
# Youngs Moduli (GPa) = 56.89279 59.90077 52.13928
#
# Poissons Ratio (x) = 0.21393 0.02106
# Poissons Ratio (y) = 0.20319 0.07256
# Poissons Ratio (z) = 0.02298 0.08337
#
# Static dielectric constant tensor:
#      x y z
#    x 1.775130 0.000000 0.000000 
#    y 0.000000 1.819350 0.000000 
#    z 0.000000 0.000000 1.767990 
# 
# From -- ./inp_files/36978.got.cif
#   From: 2010.05.17/outbox.cif.g08.bks.cpg/sg53_19_cif.got.tgz:36978.got - 2010.06.03 12:45:16.
