data_PCOD9418641
_publ_section_title
;
Structure prediction by ZEFSAII (Michael W. Deem and Ramdas Pophale) SiO2 
 PCOD9418641
Probable space group: P M N A
;
_chemical_formula_sum "Si O2"
_cell_formula_units_Z 48
_cell_length_a 8.414730
_cell_length_b 10.127389
_cell_length_c 29.948781
_cell_angle_alpha 90.000000
_cell_angle_beta 90.000000
_cell_angle_gamma 90.000000
_cell_volume 2552.212477
_symmetry_space_group_name_H-M "P M N A"
_symmetry_group_IT_number 53
_symmetry_cell_setting 'orthorhombic'
loop_
_space_group_symop_operation_xyz
x,y,z
1/2-x,-y,1/2+z
x,-y,-z
1/2-x,y,1/2-z
-x,-y,-z
1/2+x,y,1/2-z
-x,y,z
1/2+x,-y,1/2+z
loop_
_atom_site_type_symbol
_atom_site_label
_atom_site_fract_x
_atom_site_fract_y
_atom_site_fract_z
Si Si1 0.192335 0.284951 0.377954
Si Si2 0.808154 0.516794 0.699883
Si Si3 0.309307 0.214679 0.800026
Si Si4 0.312465 0.126707 0.531697
Si Si5 0.689662 0.368855 0.023745
Si Si6 0.309827 0.985888 0.373980
O O1 0.246767 0.379933 0.337638
O O2 0.250673 0.336577 0.426389
O O3 0.000000 0.288384 0.378387
O O4 0.243711 0.133981 0.371134
O O5 0.750000 0.547467 0.750000
O O6 0.759502 0.365782 0.688740
O O7 0.000000 0.519215 0.700564
O O8 0.250000 0.189042 0.750000
O O9 0.500000 0.209137 0.801401
O O10 0.240196 0.106774 0.833318
O O11 0.500000 0.159734 0.534630
O O12 0.223841 0.246920 0.508662
O O13 0.253233 0.084420 0.580395
O O14 0.296849 0.000000 0.500000
O O15 0.500000 0.385406 0.028403
O O16 0.754868 0.500000 0.000000
O O17 0.500000 0.995321 0.376386
#
# Coordination Sequence:
#
# PCOD9418641 Si02
#       6
#     8   8   8   8   8   8
#     4  10  21  38  57  83 116 150 189 237 289 340
#     4   9  20  38  60  84 113 146 184 230 283 339
#     4  10  21  39  63  88 116 149 187 235 287 342
#     4  10  21  39  58  80 116 155 192 235 283 334
#     4  10  22  37  58  86 115 148 192 240 286 342
#     4  11  23  38  58  85 116 153 195 237 282 338
#
# _framework density 18.807212
#
# number of rings (size 3 to 8) (size 9 to 14) (size 15 to 20)
#    0.000    2.000    1.667    1.000    2.333    4.000 
#    0.000    1.667    0.000    0.000    0.000    0.000 
#    0.000    0.000    0.000    0.000    0.000    0.000 
#
# Total GULP energy -267988.230636 kJ/mol
# GULP energy per Si atom -5583.088138 kJ/mol
# Density = 1.876441 g / cm^3
# Si number density = 18.807212 Si / 1000 Ang^3
#
#
#
# Elastic Constant Matrix: (Units=GPa)
#
#
# Indices 1 2 3 4 5 6 
#
# 1 9.8737 14.0703 17.0745 0.0000 0.0000 0.0000
# 2 14.0703 132.6336 113.4308 0.0000 0.0000 0.0000
# 3 17.0745 113.4308 163.3944 0.0000 0.0000 0.0000
# 4 0.0000 0.0000 0.0000 61.3904 0.0000 0.0000
# 5 0.0000 0.0000 0.0000 0.0000 25.7025 0.0000
# 6 0.0000 0.0000 0.0000 0.0000 0.0000 18.1998
#
#
#
# Elastic Compliance Matrix: (Units=1/GPa)
#
#
# Indices 1 2 3 4 5 6 
#
# 1 0.125028 -0.005144 -0.009495 0.000000 0.000000 0.000000
# 2 -0.005144 0.018769 -0.012492 0.000000 0.000000 0.000000
# 3 -0.009495 -0.012492 0.015784 0.000000 0.000000 0.000000
# 4 0.000000 0.000000 0.000000 0.016289 0.000000 0.000000
# 5 0.000000 0.000000 0.000000 0.000000 0.038907 0.000000
# 6 0.000000 0.000000 0.000000 0.000000 0.000000 0.054946
#
#
# Mechanical properties :
#
#
# Convention : Reuss Voigt Hill
#
# Bulk Modulus (GPa) = 9.49477 66.11698 37.80587
# Shear Modulus (GPa) = 13.92410 31.81362 22.86886
#
# Velocity S-wave (km/s) = 2.72391 4.11733 3.49085
# Velocity P-wave (km/s) = 3.86682 7.60491 6.03270
#
# Compressibility (1/GPa) = 0.10532118
#
# Stress axis : x y z
#
# Youngs Moduli (GPa) = 7.99819 53.28067 63.35370
#
# Poissons Ratio (x) = 0.27405 0.60151
# Poissons Ratio (y) = 0.04114 0.79141
# Poissons Ratio (z) = 0.07594 0.66558
#
# Static dielectric constant tensor:
#      x y z
#    x 1.653080 0.000000 0.000000 
#    y 0.000000 1.627010 0.000000 
#    z 0.000000 0.000000 1.639880 
# 
# From -- ./inp_files/37698.got.cif
#   From: 2010.05.17/outbox.cif.g08.bks.cpg/sg53_19_cif.got.tgz:37698.got - 2010.06.03 12:45:16.
