data_PCOD9418249
_publ_section_title
;
Structure prediction by ZEFSAII (Michael W. Deem and Ramdas Pophale) SiO2 
 PCOD9418249
Probable space group: P M N A
;
_chemical_formula_sum "Si O2"
_cell_formula_units_Z 40
_cell_length_a 18.238646
_cell_length_b 12.836068
_cell_length_c 8.178476
_cell_angle_alpha 90.000000
_cell_angle_beta 90.000000
_cell_angle_gamma 90.000000
_cell_volume 1914.683465
_symmetry_space_group_name_H-M "P M N A"
_symmetry_group_IT_number 53
_symmetry_cell_setting 'orthorhombic'
loop_
_space_group_symop_operation_xyz
x,y,z
1/2-x,-y,1/2+z
x,-y,-z
1/2-x,y,1/2-z
-x,-y,-z
1/2+x,y,1/2-z
-x,y,z
1/2+x,-y,1/2+z
loop_
_atom_site_type_symbol
_atom_site_label
_atom_site_fract_x
_atom_site_fract_y
_atom_site_fract_z
Si Si1 0.161010 0.259411 0.765536
Si Si2 0.828690 0.334842 0.436605
Si Si3 0.158724 0.609383 0.924306
Si Si4 0.914016 0.960336 0.180556
Si Si5 0.184702 0.908513 0.622995
O O1 0.250000 0.255334 0.750000
O O2 0.137958 0.340641 0.620035
O O3 0.128639 0.143031 0.761712
O O4 0.138204 0.302751 0.943441
O O5 0.864158 0.369681 0.263924
O O6 0.748107 0.386210 0.430611
O O7 0.819895 0.209851 0.431263
O O8 0.134647 0.500000 0.000000
O O9 0.000000 0.938842 0.183503
O O10 0.891354 0.054280 0.298784
O O11 0.893077 0.000000 0.000000
O O12 0.250000 0.909726 0.750000
O O13 0.204348 0.000000 0.500000
#
# Coordination Sequence:
#
# PCOD9418249 Si02
#       5
#     8   8   8   8   8
#     4  10  21  38  58  84 119 156 201 247 302 362
#     4  10  21  34  51  89 113 157 195 233 303 365
#     4  10  21  34  55  84 123 147 190 259 311 354
#     4  11  24  38  58  86 122 165 206 249 300 361
#     4  12  22  36  59  85 122 161 195 243 297 367
#
# _framework density 20.891183000000002
#
# number of rings (size 3 to 8) (size 9 to 14) (size 15 to 20)
#    0.000    1.400    4.000    2.400   14.000    0.400 
#    0.000    0.000    0.000    0.600    0.000    1.400 
#    0.000    0.000    0.000    0.000    0.000    0.000 
#
# Total GULP energy -223009.877708 kJ/mol
# GULP energy per Si atom -5575.246943 kJ/mol
# Density = 2.084363 g / cm^3
# Si number density = 20.891183 Si / 1000 Ang^3
#
#
#
# Elastic Constant Matrix: (Units=GPa)
#
#
# Indices 1 2 3 4 5 6 
#
# 1 22.3140 9.5654 14.7368 0.0000 0.0000 0.0000
# 2 9.5654 81.9571 10.9561 0.0000 0.0000 0.0000
# 3 14.7368 10.9561 119.9859 0.0000 0.0000 0.0000
# 4 0.0000 0.0000 0.0000 26.6948 0.0000 0.0000
# 5 0.0000 0.0000 0.0000 0.0000 16.9460 0.0000
# 6 0.0000 0.0000 0.0000 0.0000 0.0000 -36.3785
#
#
#
# Elastic Compliance Matrix: (Units=1/GPa)
#
#
# Indices 1 2 3 4 5 6 
#
# 1 0.050840 -0.005162 -0.005773 0.000000 0.000000 0.000000
# 2 -0.005162 0.012876 -0.000542 0.000000 0.000000 0.000000
# 3 -0.005773 -0.000542 0.009093 0.000000 0.000000 0.000000
# 4 0.000000 0.000000 0.000000 0.037460 0.000000 0.000000
# 5 0.000000 0.000000 0.000000 0.000000 0.059011 0.000000
# 6 0.000000 0.000000 0.000000 0.000000 0.000000 -0.027489
#
#
# Mechanical properties :
#
#
# Convention : Reuss Voigt Hill
#
# Bulk Modulus (GPa) = 20.05771 32.75264 26.40517
# Shear Modulus (GPa) = 27.56883 14.05237 20.81060
#
# Velocity S-wave (km/s) = 3.63663 2.59636 3.15960
# Velocity P-wave (km/s) = 5.22066 4.96989 5.09682
#
# Compressibility (1/GPa) = 0.04985615
#
# Stress axis : x y z
#
# Youngs Moduli (GPa) = 19.66946 77.66144 109.97689
#
# Poissons Ratio (x) = 0.40089 0.63489
# Poissons Ratio (y) = 0.10153 0.05958
# Poissons Ratio (z) = 0.11355 0.04207
#
# Static dielectric constant tensor:
#      x y z
#    x 1.700490 0.000000 0.000000 
#    y 0.000000 1.708440 0.000000 
#    z 0.000000 0.000000 1.943370 
# 
# From -- ./inp_files/9675.got.cif
#   From: 2010.05.17/outbox.cif.g08.bks.cpg/sg53_5_cif.got.tgz:9675.got - 2010.06.03 12:45:16.
