data_PCOD9418005
_publ_section_title
;
Structure prediction by ZEFSAII (Michael W. Deem and Ramdas Pophale) SiO2 
 PCOD9418005
Probable space group: P M N A
;
_chemical_formula_sum "Si O2"
_cell_formula_units_Z 40
_cell_length_a 13.412429
_cell_length_b 7.463591
_cell_length_c 15.184527
_cell_angle_alpha 90.000000
_cell_angle_beta 90.000000
_cell_angle_gamma 90.000000
_cell_volume 1520.045320
_symmetry_space_group_name_H-M "P M N A"
_symmetry_group_IT_number 53
_symmetry_cell_setting 'orthorhombic'
loop_
_space_group_symop_operation_xyz
x,y,z
1/2-x,-y,1/2+z
x,-y,-z
1/2-x,y,1/2-z
-x,-y,-z
1/2+x,y,1/2-z
-x,y,z
1/2+x,-y,1/2+z
loop_
_atom_site_type_symbol
_atom_site_label
_atom_site_fract_x
_atom_site_fract_y
_atom_site_fract_z
Si Si1 0.828880 0.297690 0.967237
Si Si2 0.605225 0.770872 0.090100
Si Si3 0.136461 0.375546 0.779546
Si Si4 0.888451 0.156467 0.330578
Si Si5 0.663743 0.234435 0.347563
O O1 0.708986 0.286148 0.953083
O O2 0.876357 0.269292 0.871380
O O3 0.850309 0.500000 0.000000
O O4 0.861774 0.186625 0.052783
O O5 0.500000 0.733725 0.041866
O O6 0.593788 0.684911 0.186900
O O7 0.614031 0.982896 0.108061
O O8 0.250000 0.363292 0.750000
O O9 0.118083 0.580020 0.810544
O O10 0.784853 0.260666 0.348448
O O11 0.869780 0.098997 0.228460
O O12 0.000000 0.234935 0.337898
#
# Coordination Sequence:
#
# PCOD9418005 Si02
#       5
#     8   8   8   8   8
#     4   9  20  36  59  86 115 150 201 244 293 348
#     4  10  22  38  59  89 121 156 196 246 299 360
#     4   9  17  36  57  81 109 154 201 233 285 354
#     4  10  22  38  57  86 122 157 197 237 299 365
#     4  10  20  38  59  88 115 161 196 248 300 341
#
# _framework density 26.315004999999999
#
# number of rings (size 3 to 8) (size 9 to 14) (size 15 to 20)
#    0.000    2.400    2.000    0.000    8.400    2.800 
#    0.000    3.000    0.000    6.000    0.000    0.000 
#    0.000    0.000    0.000    0.000    0.000    0.000 
#
# Total GULP energy -223154.957529 kJ/mol
# GULP energy per Si atom -5578.873938 kJ/mol
# Density = 2.625511 g / cm^3
# Si number density = 26.315005 Si / 1000 Ang^3
#
#
#
# Elastic Constant Matrix: (Units=GPa)
#
#
# Indices 1 2 3 4 5 6 
#
# 1 115.5253 4.1115 -4.8116 0.0000 0.0000 0.0000
# 2 4.1115 31.8004 22.4100 0.0000 0.0000 0.0000
# 3 -4.8116 22.4100 211.9738 0.0000 0.0000 0.0000
# 4 0.0000 0.0000 0.0000 29.5424 0.0000 0.0000
# 5 0.0000 0.0000 0.0000 0.0000 6.8557 0.0000
# 6 0.0000 0.0000 0.0000 0.0000 0.0000 15.1857
#
#
#
# Elastic Compliance Matrix: (Units=1/GPa)
#
#
# Indices 1 2 3 4 5 6 
#
# 1 0.008719 -0.001369 0.000343 0.000000 0.000000 0.000000
# 2 -0.001369 0.034192 -0.003646 0.000000 0.000000 0.000000
# 3 0.000343 -0.003646 0.005111 0.000000 0.000000 0.000000
# 4 0.000000 0.000000 0.000000 0.033850 0.000000 0.000000
# 5 0.000000 0.000000 0.000000 0.000000 0.145864 0.000000
# 6 0.000000 0.000000 0.000000 0.000000 0.000000 0.065852
#
#
# Mechanical properties :
#
#
# Convention : Reuss Voigt Hill
#
# Bulk Modulus (GPa) = 25.85436 44.74658 35.30047
# Shear Modulus (GPa) = 15.83157 32.82273 24.32715
#
# Velocity S-wave (km/s) = 2.45545 3.53555 3.04379
# Velocity P-wave (km/s) = 4.22910 5.80585 5.07903
#
# Compressibility (1/GPa) = 0.03867819
#
# Stress axis : x y z
#
# Youngs Moduli (GPa) = 114.69082 29.24629 195.66459
#
# Poissons Ratio (x) = 0.04003 -0.06704
# Poissons Ratio (y) = 0.15698 0.71337
# Poissons Ratio (z) = -0.03930 0.10663
#
# Static dielectric constant tensor:
#      x y z
#    x 2.092980 0.000000 0.000000 
#    y 0.000000 2.091360 0.000000 
#    z 0.000000 0.000000 2.133640 
# 
# From -- ./inp_files/22399.got.cif
#   From: 2010.05.17/outbox.cif.g08.bks.cpg/sg53_12_cif.got.tgz:22399.got - 2010.06.03 12:45:16.
