data_PCOD9418863
_publ_section_title
;
Structure prediction by ZEFSAII (Michael W. Deem and Ramdas Pophale) SiO2 
 PCOD9418863
Probable space group: P M N A
;
_chemical_formula_sum "Si O2"
_cell_formula_units_Z 48
_cell_length_a 13.657237
_cell_length_b 5.659949
_cell_length_c 28.389023
_cell_angle_alpha 90.000000
_cell_angle_beta 90.000000
_cell_angle_gamma 90.000000
_cell_volume 2194.450609
_symmetry_space_group_name_H-M "P M N A"
_symmetry_group_IT_number 53
_symmetry_cell_setting 'orthorhombic'
loop_
_space_group_symop_operation_xyz
x,y,z
1/2-x,-y,1/2+z
x,-y,-z
1/2-x,y,1/2-z
-x,-y,-z
1/2+x,y,1/2-z
-x,y,z
1/2+x,-y,1/2+z
loop_
_atom_site_type_symbol
_atom_site_label
_atom_site_fract_x
_atom_site_fract_y
_atom_site_fract_z
Si Si1 0.886653 0.291609 0.863527
Si Si2 0.884139 0.251234 0.753425
Si Si3 0.105914 0.680450 0.456433
Si Si4 0.881323 0.758386 0.706628
Si Si5 0.199787 0.009112 0.949559
Si Si6 0.209484 0.624346 0.611892
O O1 0.871928 0.216218 0.809475
O O2 0.862763 0.107893 0.905643
O O3 0.804146 0.487360 0.869984
O O4 0.000000 0.369394 0.868047
O O5 0.851271 0.507857 0.732174
O O6 0.000000 0.258794 0.745132
O O7 0.850231 0.006341 0.730109
O O8 0.103787 0.500000 0.500000
O O9 0.204177 0.831574 0.458831
O O10 0.123268 0.539512 0.408007
O O11 0.000000 0.806181 0.455459
O O12 0.835444 0.767426 0.654719
O O13 0.000000 0.756132 0.705027
O O14 0.247242 0.768065 0.931811
O O15 0.146533 0.000000 0.000000
#
# Coordination Sequence:
#
# PCOD9418863 Si02
#       6
#     8   8   8   8   8   8
#     4  10  25  46  68  94 128 178 229 287 352 403
#     4   9  21  43  68  98 138 179 223 277 340 414
#     4  10  21  39  64  94 134 177 215 266 338 415
#     4  10  22  41  68 103 143 178 218 277 341 414
#     4  11  24  43  65  97 133 169 227 288 339 406
#     4  11  24  41  64  98 130 174 224 282 331 413
#
# _framework density 21.873355
#
# number of rings (size 3 to 8) (size 9 to 14) (size 15 to 20)
#    0.000    1.833    1.667    0.500    7.000    3.333 
#    0.000    0.833    0.000    0.000    0.000    0.000 
#    0.000    0.000    0.000    0.000    0.000    0.000 
#
# Total GULP energy -267731.005468 kJ/mol
# GULP energy per Si atom -5577.729281 kJ/mol
# Density = 2.182357 g / cm^3
# Si number density = 21.873355 Si / 1000 Ang^3
#
#
#
# Elastic Constant Matrix: (Units=GPa)
#
#
# Indices 1 2 3 4 5 6 
#
# 1 93.4438 -5.6404 -4.5633 0.0000 0.0000 0.0000
# 2 -5.6404 67.8376 12.7941 0.0000 0.0000 0.0000
# 3 -4.5633 12.7941 70.6994 0.0000 0.0000 0.0000
# 4 0.0000 0.0000 0.0000 40.4903 0.0000 0.0000
# 5 0.0000 0.0000 0.0000 0.0000 28.6767 0.0000
# 6 0.0000 0.0000 0.0000 0.0000 0.0000 -69.9638
#
#
#
# Elastic Compliance Matrix: (Units=1/GPa)
#
#
# Indices 1 2 3 4 5 6 
#
# 1 0.010776 0.000792 0.000552 0.000000 0.000000 0.000000
# 2 0.000792 0.015320 -0.002721 0.000000 0.000000 0.000000
# 3 0.000552 -0.002721 0.014672 0.000000 0.000000 0.000000
# 4 0.000000 0.000000 0.000000 0.024697 0.000000 0.000000
# 5 0.000000 0.000000 0.000000 0.000000 0.034872 0.000000
# 6 0.000000 0.000000 0.000000 0.000000 0.000000 -0.014293
#
#
# Mechanical properties :
#
#
# Convention : Reuss Voigt Hill
#
# Bulk Modulus (GPa) = 26.30564 26.35130 26.32847
# Shear Modulus (GPa) = 49.27531 15.13332 32.20432
#
# Velocity S-wave (km/s) = 4.75147 2.63318 3.84123
# Velocity P-wave (km/s) = 6.49264 4.61716 5.63350
#
# Compressibility (1/GPa) = 0.03801466
#
# Stress axis : x y z
#
# Youngs Moduli (GPa) = 92.79546 65.27345 68.15476
#
# Poissons Ratio (x) = -0.05169 -0.03764
# Poissons Ratio (y) = -0.07348 0.18547
# Poissons Ratio (z) = -0.05125 0.17763
#
# Static dielectric constant tensor:
#      x y z
#    x 1.779800 0.000000 0.000000 
#    y 0.000000 1.857970 0.000000 
#    z 0.000000 0.000000 1.901300 
# 
# From -- ./inp_files/36980.got.cif
#   From: 2010.05.17/outbox.cif.g08.bks.cpg/sg53_19_cif.got.tgz:36980.got - 2010.06.03 12:45:16.
