data_PCOD9418596
_publ_section_title
;
Structure prediction by ZEFSAII (Michael W. Deem and Ramdas Pophale) SiO2 
 PCOD9418596
Probable space group: P M N A
;
_chemical_formula_sum "Si O2"
_cell_formula_units_Z 64
_cell_length_a 8.704262
_cell_length_b 24.406429
_cell_length_c 15.839121
_cell_angle_alpha 90.000000
_cell_angle_beta 90.000000
_cell_angle_gamma 90.000000
_cell_volume 3364.862113
_symmetry_space_group_name_H-M "P M N A"
_symmetry_group_IT_number 53
_symmetry_cell_setting 'orthorhombic'
loop_
_space_group_symop_operation_xyz
x,y,z
1/2-x,-y,1/2+z
x,-y,-z
1/2-x,y,1/2-z
-x,-y,-z
1/2+x,y,1/2-z
-x,y,z
1/2+x,-y,1/2+z
loop_
_atom_site_type_symbol
_atom_site_label
_atom_site_fract_x
_atom_site_fract_y
_atom_site_fract_z
Si Si1 0.314560 0.063566 0.003296
Si Si2 0.184449 0.635042 0.339518
Si Si3 0.684148 0.866090 0.160498
Si Si4 0.816387 0.365628 0.339984
Si Si5 0.815977 0.748398 0.901346
Si Si6 0.815895 0.868673 0.840444
Si Si7 0.812709 0.562846 0.500062
Si Si8 0.183661 0.750555 0.101847
O O1 0.500000 0.066274 0.009665
O O2 0.269326 0.095281 0.917713
O O3 0.244015 0.093756 0.083842
O O4 0.269370 0.000000 0.000000
O O5 0.250000 0.616187 0.250000
O O6 0.234102 0.595880 0.416459
O O7 0.245772 0.695964 0.358305
O O8 0.000000 0.636159 0.336695
O O9 0.750000 0.885286 0.250000
O O10 0.500000 0.864633 0.164502
O O11 0.746766 0.805288 0.141776
O O12 0.750000 0.382758 0.250000
O O13 0.764105 0.303856 0.360465
O O14 0.762628 0.404272 0.416734
O O15 0.000000 0.367430 0.336829
O O16 0.767646 0.805932 0.860454
O O17 0.000000 0.742698 0.891269
O O18 0.782819 0.750317 0.001466
O O19 0.750000 0.885458 0.750000
O O20 0.000000 0.870148 0.838793
O O21 0.761015 0.500000 0.500000
O O22 0.000000 0.562645 0.500663
O O23 0.000000 0.750566 0.113254
#
# Coordination Sequence:
#
# PCOD9418596 Si02
#       8
#     8   8   8   8   8   8   8   8
#     4  10  23  43  64  88 119 157 202 249 296 347
#     4  11  22  38  60  88 118 154 196 237 292 349
#     4  11  23  39  62  89 121 157 196 242 293 352
#     4  11  22  37  60  88 118 154 194 238 291 349
#     4  10  21  37  60  89 121 154 191 239 293 351
#     4  11  23  40  62  91 122 158 198 242 297 352
#     4   9  20  39  60  82 113 154 198 242 289 345
#     4  11  21  37  61  89 122 153 191 240 293 352
#
# _framework density 19.020097
#
# number of rings (size 3 to 8) (size 9 to 14) (size 15 to 20)
#    0.000    1.500    2.500    2.625    0.000    4.250 
#    0.000    1.250    0.000    5.250    0.000    0.000 
#    0.000    0.000    0.000    0.000    0.000    0.000 
#
# Total GULP energy -357818.728962 kJ/mol
# GULP energy per Si atom -5590.917640 kJ/mol
# Density = 1.897681 g / cm^3
# Si number density = 19.020097 Si / 1000 Ang^3
#
#
#
# Elastic Constant Matrix: (Units=GPa)
#
#
# Indices 1 2 3 4 5 6 
#
# 1 36.6953 32.4476 52.4974 0.0000 0.0000 0.0000
# 2 32.4476 156.7703 95.3606 0.0000 0.0000 0.0000
# 3 52.4974 95.3606 202.2195 0.0000 0.0000 0.0000
# 4 0.0000 0.0000 0.0000 -3.8503 0.0000 0.0000
# 5 0.0000 0.0000 0.0000 0.0000 32.6515 0.0000
# 6 0.0000 0.0000 0.0000 0.0000 0.0000 -4.8665
#
#
#
# Elastic Compliance Matrix: (Units=1/GPa)
#
#
# Indices 1 2 3 4 5 6 
#
# 1 0.044370 -0.003052 -0.010079 0.000000 0.000000 0.000000
# 2 -0.003052 0.009154 -0.003525 0.000000 0.000000 0.000000
# 3 -0.010079 -0.003525 0.009224 0.000000 0.000000 0.000000
# 4 0.000000 0.000000 0.000000 -0.259721 0.000000 0.000000
# 5 0.000000 0.000000 0.000000 0.000000 0.030626 0.000000
# 6 0.000000 0.000000 0.000000 0.000000 0.000000 -0.205489
#
#
# Mechanical properties :
#
#
# Convention : Reuss Voigt Hill
#
# Bulk Modulus (GPa) = 33.97206 84.03294 59.00250
# Shear Modulus (GPa) = -15.21098 19.14560 1.96731
#
# Velocity S-wave (km/s) = -2.83102 3.17614 1.01812
# Velocity P-wave (km/s) = 2.68583 7.59786 5.69830
#
# Compressibility (1/GPa) = 0.02943595
#
# Stress axis : x y z
#
# Youngs Moduli (GPa) = 22.53755 109.23653 108.41472
#
# Poissons Ratio (x) = 0.33344 1.09275
# Poissons Ratio (y) = 0.06880 0.38211
# Poissons Ratio (z) = 0.22716 0.38501
#
# Static dielectric constant tensor:
#      x y z
#    x 1.638390 0.000000 0.000000 
#    y 0.000000 1.629600 0.000000 
#    z 0.000000 0.000000 1.653160 
# 
# From -- ./inp_files/20871.got.cif
#   From: 2010.05.17/outbox.cif.g08.bks.cpg/sg53_11_cif.got.tgz:20871.got - 2010.06.03 12:45:16.
