data_PCOD9418690
_publ_section_title
;
Structure prediction by ZEFSAII (Michael W. Deem and Ramdas Pophale) SiO2 
 PCOD9418690
Probable space group: P M N A
;
_chemical_formula_sum "Si O2"
_cell_formula_units_Z 36
_cell_length_a 19.109941
_cell_length_b 16.380981
_cell_length_c 6.014848
_cell_angle_alpha 90.000000
_cell_angle_beta 90.000000
_cell_angle_gamma 90.000000
_cell_volume 1882.885494
_symmetry_space_group_name_H-M "P M N A"
_symmetry_group_IT_number 53
_symmetry_cell_setting 'orthorhombic'
loop_
_space_group_symop_operation_xyz
x,y,z
1/2-x,-y,1/2+z
x,-y,-z
1/2-x,y,1/2-z
-x,-y,-z
1/2+x,y,1/2-z
-x,y,z
1/2+x,-y,1/2+z
loop_
_atom_site_type_symbol
_atom_site_label
_atom_site_fract_x
_atom_site_fract_y
_atom_site_fract_z
Si Si1 0.580558 0.153236 0.495848
Si Si2 0.500000 0.542078 0.252984
Si Si3 0.323515 0.060218 0.822162
Si Si4 0.076305 0.303820 0.661193
Si Si5 0.319278 0.215511 0.117407
O O1 0.500000 0.131006 0.456538
O O2 0.623488 0.084921 0.629830
O O3 0.581283 0.235576 0.647302
O O4 0.623427 0.174829 0.277505
O O5 0.500000 0.500000 0.500000
O O6 0.434100 0.604922 0.249964
O O7 0.500000 0.500000 0.000000
O O8 0.250000 0.020213 0.750000
O O9 0.301828 0.144779 0.941360
O O10 0.357682 0.000000 0.000000
O O11 0.141523 0.289453 0.503031
O O12 0.000000 0.287771 0.545546
O O13 0.250000 0.238161 0.250000
#
# Coordination Sequence:
#
# PCOD9418690 Si02
#       5
#     8   4   8   8   8
#     4  10  21  38  60  86 122 154 206 264 317 372
#     4  10  22  38  66 104 131 168 209 258 328 396
#     4  11  23  38  56  83 118 164 212 265 320 386
#     4   8  20  35  57  92 126 156 201 262 308 372
#     4  11  20  35  60  87 116 166 217 256 320 380
#
# _framework density 19.119589999999999
#
# number of rings (size 3 to 8) (size 9 to 14) (size 15 to 20)
#    0.667    1.333    2.222    1.333    3.111    1.333 
#    0.000    1.111    0.000    0.000    5.778    0.000 
#    0.000    0.000    0.000    0.000    0.000    0.000 
#
# Total GULP energy -200569.764672 kJ/mol
# GULP energy per Si atom -5571.382352 kJ/mol
# Density = 1.907607 g / cm^3
# Si number density = 19.119590 Si / 1000 Ang^3
#
#
#
# Elastic Constant Matrix: (Units=GPa)
#
#
# Indices 1 2 3 4 5 6 
#
# 1 108.1115 17.2648 47.2314 0.0000 0.0000 0.0000
# 2 17.2648 81.5221 37.8075 0.0000 0.0000 0.0000
# 3 47.2314 37.8075 86.2965 0.0000 0.0000 0.0000
# 4 0.0000 0.0000 0.0000 30.5163 0.0000 0.0000
# 5 0.0000 0.0000 0.0000 0.0000 38.0873 0.0000
# 6 0.0000 0.0000 0.0000 0.0000 0.0000 22.5283
#
#
#
# Elastic Compliance Matrix: (Units=1/GPa)
#
#
# Indices 1 2 3 4 5 6 
#
# 1 0.012183 0.000643 -0.006950 0.000000 0.000000 0.000000
# 2 0.000643 0.015428 -0.007111 0.000000 0.000000 0.000000
# 3 -0.006950 -0.007111 0.018507 0.000000 0.000000 0.000000
# 4 0.000000 0.000000 0.000000 0.032769 0.000000 0.000000
# 5 0.000000 0.000000 0.000000 0.000000 0.026255 0.000000
# 6 0.000000 0.000000 0.000000 0.000000 0.000000 0.044389
#
#
# Mechanical properties :
#
#
# Convention : Reuss Voigt Hill
#
# Bulk Modulus (GPa) = 51.85998 53.39304 52.62651
# Shear Modulus (GPa) = 27.35291 29.80148 28.57720
#
# Velocity S-wave (km/s) = 3.78646 3.95231 3.87027
# Velocity P-wave (km/s) = 6.80436 6.98671 6.89613
#
# Compressibility (1/GPa) = 0.01928269
#
# Stress axis : x y z
#
# Youngs Moduli (GPa) = 82.08015 64.81535 54.03316
#
# Poissons Ratio (x) = -0.04167 0.37552
# Poissons Ratio (y) = -0.05277 0.38424
# Poissons Ratio (z) = 0.57043 0.46092
#
# Static dielectric constant tensor:
#      x y z
#    x 1.665830 0.000000 0.000000 
#    y 0.000000 1.671590 0.000000 
#    z 0.000000 0.000000 1.785060 
# 
# From -- ./inp_files/2174.got.cif
#   From: 2010.05.17/outbox.cif.g08.bks.cpg/sg53_2_cif.got.tgz:2174.got - 2010.06.03 12:45:16.
