data_PCOD9418270
_publ_section_title
;
Structure prediction by ZEFSAII (Michael W. Deem and Ramdas Pophale) SiO2 
 PCOD9418270
Probable space group: P M N A
;
_chemical_formula_sum "Si O2"
_cell_formula_units_Z 48
_cell_length_a 7.494610
_cell_length_b 33.048436
_cell_length_c 9.116551
_cell_angle_alpha 90.000000
_cell_angle_beta 90.000000
_cell_angle_gamma 90.000000
_cell_volume 2258.034201
_symmetry_space_group_name_H-M "P M N A"
_symmetry_group_IT_number 53
_symmetry_cell_setting 'orthorhombic'
loop_
_space_group_symop_operation_xyz
x,y,z
1/2-x,-y,1/2+z
x,-y,-z
1/2-x,y,1/2-z
-x,-y,-z
1/2+x,y,1/2-z
-x,y,z
1/2+x,-y,1/2+z
loop_
_atom_site_type_symbol
_atom_site_label
_atom_site_fract_x
_atom_site_fract_y
_atom_site_fract_z
Si Si1 0.286510 0.709269 0.424716
Si Si2 0.713866 0.540562 0.578055
Si Si3 0.713884 0.040665 0.577573
Si Si4 0.714210 0.797106 0.423809
Si Si5 0.213924 0.121920 0.077893
Si Si6 0.714183 0.378504 0.576267
O O1 0.250000 0.709247 0.250000
O O2 0.500000 0.709273 0.446414
O O3 0.217576 0.753002 0.476718
O O4 0.217623 0.665562 0.477129
O O5 0.783154 0.500000 0.500000
O O6 0.750000 0.539152 0.750000
O O7 0.500000 0.540929 0.556438
O O8 0.783903 0.582131 0.507237
O O9 0.750000 0.040031 0.750000
O O10 0.500000 0.040782 0.557378
O O11 0.783061 0.081875 0.503850
O O12 0.783152 0.000000 0.500000
O O13 0.750000 0.801188 0.250000
O O14 0.500000 0.796183 0.441141
O O15 0.783745 0.836260 0.508789
O O16 0.250000 0.119636 0.250000
O O17 0.000000 0.122440 0.057138
O O18 0.750000 0.382336 0.750000
O O19 0.500000 0.377625 0.558509
#
# Coordination Sequence:
#
# PCOD9418270 Si02
#       6
#     8   8   8   8   8   8
#     4   8  14  26  45  68  94 122 153 192 234 276
#     4  10  21  35  50  70  95 123 156 193 234 280
#     4  10  21  36  54  77 102 128 161 199 239 285
#     4   9  17  30  49  72  96 124 160 199 238 281
#     4  10  21  35  50  71  99 130 164 200 239 284
#     4   9  17  30  49  72  96 123 156 193 234 280
#
# _framework density 21.257428999999998
#
# number of rings (size 3 to 8) (size 9 to 14) (size 15 to 20)
#    0.000    2.667    0.000    1.500    0.000    2.667 
#    0.000    0.833    0.000    0.000    0.000    0.000 
#    0.000    0.000    0.000    0.000    0.000    0.000 
#
# Total GULP energy -267812.974827 kJ/mol
# GULP energy per Si atom -5579.436976 kJ/mol
# Density = 2.120905 g / cm^3
# Si number density = 21.257429 Si / 1000 Ang^3
#
#
#
# Elastic Constant Matrix: (Units=GPa)
#
#
# Indices 1 2 3 4 5 6 
#
# 1 62.7117 16.0035 -11.7268 0.0000 0.0000 0.0000
# 2 16.0035 302.9635 121.1841 0.0000 0.0000 0.0000
# 3 -11.7268 121.1841 115.8266 0.0000 0.0000 0.0000
# 4 0.0000 0.0000 0.0000 594.9646 0.0000 0.0000
# 5 0.0000 0.0000 0.0000 0.0000 23.3839 0.0000
# 6 0.0000 0.0000 0.0000 0.0000 0.0000 0.2363
#
#
#
# Elastic Compliance Matrix: (Units=1/GPa)
#
#
# Indices 1 2 3 4 5 6 
#
# 1 0.017548 -0.002816 0.004723 0.000000 0.000000 0.000000
# 2 -0.002816 0.006128 -0.006697 0.000000 0.000000 0.000000
# 3 0.004723 -0.006697 0.016118 0.000000 0.000000 0.000000
# 4 0.000000 0.000000 0.000000 0.001681 0.000000 0.000000
# 5 0.000000 0.000000 0.000000 0.000000 0.042764 0.000000
# 6 0.000000 0.000000 0.000000 0.000000 0.000000 4.232087
#
#
# Mechanical properties :
#
#
# Convention : Reuss Voigt Hill
#
# Bulk Modulus (GPa) = 33.09666 81.38038 57.23852
# Shear Modulus (GPa) = 1.15314 147.45302 74.30308
#
# Velocity S-wave (km/s) = 0.73732 8.33763 5.91860
# Velocity P-wave (km/s) = 4.04081 11.44790 8.58436
#
# Compressibility (1/GPa) = 0.03021453
#
# Stress axis : x y z
#
# Youngs Moduli (GPa) = 56.98713 163.18165 62.04154
#
# Poissons Ratio (x) = 0.45954 -0.29302
# Poissons Ratio (y) = 0.16048 0.41547
# Poissons Ratio (z) = -0.26915 1.09278
#
# Static dielectric constant tensor:
#      x y z
#    x 1.770620 0.000000 0.000000 
#    y 0.000000 1.830040 0.000000 
#    z 0.000000 0.000000 1.682930 
# 
# From -- ./inp_files/6700.got.cif
#   From: 2010.05.17/outbox.cif.g08.bks.cpg/sg53_4_cif.got.tgz:6700.got - 2010.06.03 12:45:16.
