data_PCOD9418826
_publ_section_title
;
Structure prediction by ZEFSAII (Michael W. Deem and Ramdas Pophale) SiO2 
 PCOD9418826
Probable space group: P M N A
;
_chemical_formula_sum "Si O2"
_cell_formula_units_Z 48
_cell_length_a 10.799787
_cell_length_b 11.689037
_cell_length_c 18.693134
_cell_angle_alpha 90.000000
_cell_angle_beta 90.000000
_cell_angle_gamma 90.000000
_cell_volume 2359.804596
_symmetry_space_group_name_H-M "P M N A"
_symmetry_group_IT_number 53
_symmetry_cell_setting 'orthorhombic'
loop_
_space_group_symop_operation_xyz
x,y,z
1/2-x,-y,1/2+z
x,-y,-z
1/2-x,y,1/2-z
-x,-y,-z
1/2+x,y,1/2-z
-x,y,z
1/2+x,-y,1/2+z
loop_
_atom_site_type_symbol
_atom_site_label
_atom_site_fract_x
_atom_site_fract_y
_atom_site_fract_z
Si Si1 0.144833 0.763807 0.431246
Si Si2 0.137484 0.312929 0.297499
Si Si3 0.861591 0.419063 0.931389
Si Si4 0.353441 0.952167 0.188914
Si Si5 0.145194 0.848481 0.581144
Si Si6 0.870638 0.439697 0.770140
O O1 0.243752 0.662794 0.427614
O O2 0.147870 0.840614 0.361048
O O3 0.187921 0.838554 0.500129
O O4 0.000000 0.727741 0.442720
O O5 0.250000 0.267185 0.250000
O O6 0.159365 0.273657 0.378580
O O7 0.131991 0.448076 0.280267
O O8 0.000000 0.268014 0.277993
O O9 0.865188 0.478226 0.852904
O O10 0.000000 0.363778 0.937531
O O11 0.849554 0.500000 0.000000
O O12 0.250000 0.944003 0.250000
O O13 0.500000 0.970012 0.210844
O O14 0.311199 0.056221 0.136489
O O15 0.000000 0.874674 0.574380
O O16 0.750000 0.369820 0.750000
O O17 0.000000 0.377596 0.758955
#
# Coordination Sequence:
#
# PCOD9418826 Si02
#       6
#     8   8   8   8   8   8
#     4  10  22  39  62  88 117 157 203 249 293 348
#     4   9  17  29  50  80 110 141 178 227 288 346
#     4  10  23  41  57  81 120 162 198 241 300 359
#     4  10  21  39  62  90 123 158 198 243 297 355
#     4   9  18  35  60  90 120 150 190 245 302 352
#     4   9  19  34  53  78 110 147 188 236 290 343
#
# _framework density 20.340667
#
# number of rings (size 3 to 8) (size 9 to 14) (size 15 to 20)
#    0.000    2.500    0.000    1.000    4.667    4.333 
#    0.000    4.167    0.000    2.000    0.000    0.000 
#    0.000    0.000    0.000    0.000    0.000    0.000 
#
# Total GULP energy -267243.897337 kJ/mol
# GULP energy per Si atom -5567.581195 kJ/mol
# Density = 2.029437 g / cm^3
# Si number density = 20.340667 Si / 1000 Ang^3
#
#
#
# Elastic Constant Matrix: (Units=GPa)
#
#
# Indices 1 2 3 4 5 6 
#
# 1 153.2114 39.8536 59.2879 0.0000 0.0000 0.0000
# 2 39.8536 50.4619 28.4247 0.0000 0.0000 0.0000
# 3 59.2879 28.4247 107.9212 0.0000 0.0000 0.0000
# 4 0.0000 0.0000 0.0000 23.1948 0.0000 0.0000
# 5 0.0000 0.0000 0.0000 0.0000 33.7395 0.0000
# 6 0.0000 0.0000 0.0000 0.0000 0.0000 19.8345
#
#
#
# Elastic Compliance Matrix: (Units=1/GPa)
#
#
# Indices 1 2 3 4 5 6 
#
# 1 0.009348 -0.005272 -0.003747 0.000000 0.000000 0.000000
# 2 -0.005272 0.026243 -0.004015 0.000000 0.000000 0.000000
# 3 -0.003747 -0.004015 0.012382 0.000000 0.000000 0.000000
# 4 0.000000 0.000000 0.000000 0.043113 0.000000 0.000000
# 5 0.000000 0.000000 0.000000 0.000000 0.029639 0.000000
# 6 0.000000 0.000000 0.000000 0.000000 0.000000 0.050417
#
#
# Mechanical properties :
#
#
# Convention : Reuss Voigt Hill
#
# Bulk Modulus (GPa) = 45.65474 62.96966 54.31220
# Shear Modulus (GPa) = 24.44824 27.62229 26.03526
#
# Velocity S-wave (km/s) = 3.47066 3.68908 3.58154
# Velocity P-wave (km/s) = 6.20922 7.01217 6.62287
#
# Compressibility (1/GPa) = 0.02190353
#
# Stress axis : x y z
#
# Youngs Moduli (GPa) = 106.97045 38.10553 80.76191
#
# Poissons Ratio (x) = 0.20091 0.30261
# Poissons Ratio (y) = 0.56400 0.32430
# Poissons Ratio (z) = 0.40081 0.15301
#
# Static dielectric constant tensor:
#      x y z
#    x 1.795280 0.000000 0.000000 
#    y 0.000000 1.757160 0.000000 
#    z 0.000000 0.000000 1.743590 
# 
# From -- ./inp_files/27559.got.cif
#   From: 2010.05.17/outbox.cif.g08.bks.cpg/sg53_14_cif.got.tgz:27559.got - 2010.06.03 12:45:16.
