data_PCOD9418410
_publ_section_title
;
Structure prediction by ZEFSAII (Michael W. Deem and Ramdas Pophale) SiO2 
 PCOD9418410
Probable space group: P M N A
;
_chemical_formula_sum "Si O2"
_cell_formula_units_Z 64
_cell_length_a 15.833569
_cell_length_b 15.932374
_cell_length_c 12.468657
_cell_angle_alpha 90.000000
_cell_angle_beta 90.000000
_cell_angle_gamma 90.000000
_cell_volume 3145.422504
_symmetry_space_group_name_H-M "P M N A"
_symmetry_group_IT_number 53
_symmetry_cell_setting 'orthorhombic'
loop_
_space_group_symop_operation_xyz
x,y,z
1/2-x,-y,1/2+z
x,-y,-z
1/2-x,y,1/2-z
-x,-y,-z
1/2+x,y,1/2-z
-x,y,z
1/2+x,-y,1/2+z
loop_
_atom_site_type_symbol
_atom_site_label
_atom_site_fract_x
_atom_site_fract_y
_atom_site_fract_z
Si Si1 0.752885 0.148790 0.371545
Si Si2 0.906338 0.146569 0.518548
Si Si3 0.653659 0.857483 0.252039
Si Si4 0.407126 0.099513 0.512792
Si Si5 0.753222 0.349526 0.370662
Si Si6 0.903903 0.647618 0.479603
Si Si7 0.600582 0.669852 0.254475
Si Si8 0.404233 0.599609 0.487685
O O1 0.750000 0.115005 0.250000
O O2 0.832107 0.116150 0.440735
O O3 0.667520 0.133723 0.438237
O O4 0.764834 0.249060 0.363634
O O5 0.890361 0.118009 0.640674
O O6 0.903302 0.249410 0.521000
O O7 0.000000 0.122262 0.482642
O O8 0.750000 0.887051 0.250000
O O9 0.610388 0.883668 0.362250
O O10 0.651188 0.756254 0.255174
O O11 0.500000 0.133846 0.484125
O O12 0.407923 0.000000 0.500000
O O13 0.750000 0.383601 0.250000
O O14 0.833034 0.382396 0.438372
O O15 0.666716 0.364733 0.434191
O O16 0.882349 0.622909 0.357193
O O17 0.000000 0.621902 0.505736
O O18 0.500000 0.690968 0.250792
O O19 0.616373 0.622144 0.364643
O O20 0.404665 0.500000 0.500000
O O21 0.500000 0.630764 0.510184
#
# Coordination Sequence:
#
# PCOD9418410 Si02
#       8
#     8   8   8   8   8   8   8   8
#     4  10  21  38  59  84 115 147 194 240 280 343
#     4   9  17  32  55  85 116 141 174 229 293 342
#     4  11  19  32  59  90 114 143 185 243 297 335
#     4  11  24  40  57  81 117 157 193 233 285 344
#     4  10  21  36  56  84 110 148 194 232 281 338
#     4   8  16  31  53  84 115 138 171 230 289 335
#     4   9  18  32  56  88 113 140 186 235 286 343
#     4  10  22  39  56  79 116 155 189 232 283 337
#
# _framework density 20.347028999999999
#
# number of rings (size 3 to 8) (size 9 to 14) (size 15 to 20)
#    0.000    2.250    1.250    2.625    3.500    3.000 
#    2.250    2.500    0.000    0.750    0.000    0.000 
#    0.000    0.000    0.000    0.000    0.000    0.000 
#
# Total GULP energy -357278.072321 kJ/mol
# GULP energy per Si atom -5582.469880 kJ/mol
# Density = 2.030072 g / cm^3
# Si number density = 20.347029 Si / 1000 Ang^3
#
#
#
# Elastic Constant Matrix: (Units=GPa)
#
#
# Indices 1 2 3 4 5 6 
#
# 1 154.0437 2.2542 110.9096 0.0000 0.0000 0.0000
# 2 2.2542 9.2250 12.0826 0.0000 0.0000 0.0000
# 3 110.9096 12.0826 194.3237 0.0000 0.0000 0.0000
# 4 0.0000 0.0000 0.0000 -58.0774 0.0000 0.0000
# 5 0.0000 0.0000 0.0000 0.0000 24.0665 0.0000
# 6 0.0000 0.0000 0.0000 0.0000 0.0000 -31.1161
#
#
#
# Elastic Compliance Matrix: (Units=1/GPa)
#
#
# Indices 1 2 3 4 5 6 
#
# 1 0.011338 0.006211 -0.006857 0.000000 0.000000 0.000000
# 2 0.006211 0.121415 -0.011094 0.000000 0.000000 0.000000
# 3 -0.006857 -0.011094 0.009750 0.000000 0.000000 0.000000
# 4 0.000000 0.000000 0.000000 -0.017218 0.000000 0.000000
# 5 0.000000 0.000000 0.000000 0.000000 0.041551 0.000000
# 6 0.000000 0.000000 0.000000 0.000000 0.000000 -0.032138
#
#
# Mechanical properties :
#
#
# Convention : Reuss Voigt Hill
#
# Bulk Modulus (GPa) = 8.40185 67.56504 37.98344
# Shear Modulus (GPa) = 25.27131 2.46432 13.86782
#
# Velocity S-wave (km/s) = 3.52805 1.10171 2.61351
# Velocity P-wave (km/s) = 4.55350 5.90735 5.27405
#
# Compressibility (1/GPa) = 0.11902145
#
# Stress axis : x y z
#
# Youngs Moduli (GPa) = 88.19946 8.23622 102.56791
#
# Poissons Ratio (x) = -0.05115 0.70334
# Poissons Ratio (y) = -0.54780 1.13791
# Poissons Ratio (z) = 0.60481 0.09137
#
# Static dielectric constant tensor:
#      x y z
#    x 1.725530 0.000000 0.000000 
#    y 0.000000 1.721790 0.000000 
#    z 0.000000 0.000000 1.719610 
# 
# From -- ./inp_files/16250.got.cif
#   From: 2010.05.17/outbox.cif.g08.bks.cpg/sg53_9_cif.got.tgz:16250.got - 2010.06.03 12:45:16.
