data_PCOD9418034
_publ_section_title
;
Structure prediction by ZEFSAII (Michael W. Deem and Ramdas Pophale) SiO2 
 PCOD9418034
Probable space group: P M N A
;
_chemical_formula_sum "Si O2"
_cell_formula_units_Z 64
_cell_length_a 8.860630
_cell_length_b 22.062822
_cell_length_c 18.022702
_cell_angle_alpha 90.000000
_cell_angle_beta 90.000000
_cell_angle_gamma 90.000000
_cell_volume 3523.267070
_symmetry_space_group_name_H-M "P M N A"
_symmetry_group_IT_number 53
_symmetry_cell_setting 'orthorhombic'
loop_
_space_group_symop_operation_xyz
x,y,z
1/2-x,-y,1/2+z
x,-y,-z
1/2-x,y,1/2-z
-x,-y,-z
1/2+x,y,1/2-z
-x,y,z
1/2+x,-y,1/2+z
loop_
_atom_site_type_symbol
_atom_site_label
_atom_site_fract_x
_atom_site_fract_y
_atom_site_fract_z
Si Si1 0.321245 0.501084 0.829062
Si Si2 0.320040 0.876635 0.673342
Si Si3 0.181984 0.245066 0.095892
Si Si4 0.319771 0.603287 0.425739
Si Si5 0.319396 0.618103 0.600384
Si Si6 0.182146 0.069467 0.015806
Si Si7 0.818748 0.275595 0.831894
Si Si8 0.180363 0.187204 0.551641
O O1 0.250000 0.484367 0.750000
O O2 0.500000 0.499697 0.823485
O O3 0.264512 0.453246 0.889903
O O4 0.264828 0.567413 0.852961
O O5 0.250000 0.897270 0.750000
O O6 0.500000 0.880057 0.679108
O O7 0.279158 0.806864 0.654891
O O8 0.274551 0.913717 0.600224
O O9 0.221367 0.312798 0.119808
O O10 0.000000 0.243247 0.083140
O O11 0.260212 0.226064 0.018994
O O12 0.500000 0.593536 0.419003
O O13 0.285960 0.610304 0.512755
O O14 0.282451 0.664347 0.380385
O O15 0.500000 0.610452 0.610123
O O16 0.000000 0.076724 0.009400
O O17 0.259547 0.119243 0.963323
O O18 0.220463 0.000000 0.000000
O O19 0.750000 0.280997 0.750000
O O20 0.750192 0.218555 0.875878
O O21 0.000000 0.270547 0.828175
O O22 0.000000 0.188204 0.554370
#
# Coordination Sequence:
#
# PCOD9418034 Si02
#       8
#     8   8   8   8   8   8   8   8
#     4  12  26  41  56  78 111 149 190 239 290 345
#     4   9  18  32  54  83 115 146 184 230 280 333
#     4   9  18  36  58  81 110 149 188 226 275 337
#     4  10  21  39  63  85 109 145 187 234 289 347
#     4  10  20  38  62  85 110 145 187 233 288 345
#     4   9  19  38  62  83 109 155 204 240 282 338
#     4  11  22  38  59  86 116 150 190 236 290 343
#     4  11  21  34  56  86 118 149 184 231 282 337
#
# _framework density 18.164957999999999
#
# number of rings (size 3 to 8) (size 9 to 14) (size 15 to 20)
#    0.000    1.875    1.250    4.125    0.000    7.250 
#    0.000    1.875    0.000    1.500    0.000    0.000 
#    0.000    0.000    0.000    0.000    0.000    0.000 
#
# Total GULP energy -357486.476735 kJ/mol
# GULP energy per Si atom -5585.726199 kJ/mol
# Density = 1.812361 g / cm^3
# Si number density = 18.164958 Si / 1000 Ang^3
#
#
#
# Elastic Constant Matrix: (Units=GPa)
#
#
# Indices 1 2 3 4 5 6 
#
# 1 32.5664 27.1956 9.3142 0.0000 0.0000 0.0000
# 2 27.1956 100.1537 -0.0166 0.0000 0.0000 0.0000
# 3 9.3142 -0.0166 34.8868 0.0000 0.0000 0.0000
# 4 0.0000 0.0000 0.0000 14.1380 0.0000 0.0000
# 5 0.0000 0.0000 0.0000 0.0000 30.0223 0.0000
# 6 0.0000 0.0000 0.0000 0.0000 0.0000 8.2634
#
#
#
# Elastic Compliance Matrix: (Units=1/GPa)
#
#
# Indices 1 2 3 4 5 6 
#
# 1 0.044067 -0.011968 -0.011771 0.000000 0.000000 0.000000
# 2 -0.011968 0.013235 0.003202 0.000000 0.000000 0.000000
# 3 -0.011771 0.003202 0.031808 0.000000 0.000000 0.000000
# 4 0.000000 0.000000 0.000000 0.070731 0.000000 0.000000
# 5 0.000000 0.000000 0.000000 0.000000 0.033309 0.000000
# 6 0.000000 0.000000 0.000000 0.000000 0.000000 0.121015
#
#
# Mechanical properties :
#
#
# Convention : Reuss Voigt Hill
#
# Bulk Modulus (GPa) = 20.81778 26.73259 23.77518
# Shear Modulus (GPa) = 13.46795 19.22567 16.34681
#
# Velocity S-wave (km/s) = 2.72587 3.25682 3.00310
# Velocity P-wave (km/s) = 4.62519 5.37504 5.01415
#
# Compressibility (1/GPa) = 0.04803586
#
# Stress axis : x y z
#
# Youngs Moduli (GPa) = 22.69264 75.55764 31.43836
#
# Poissons Ratio (x) = 0.90427 0.37006
# Poissons Ratio (y) = 0.27158 -0.10065
# Poissons Ratio (z) = 0.26711 -0.24190
#
# Static dielectric constant tensor:
#      x y z
#    x 1.607310 0.000000 0.000000 
#    y 0.000000 1.619300 0.000000 
#    z 0.000000 0.000000 1.600570 
# 
# From -- ./inp_files/26980.got.cif
#   From: 2010.05.17/outbox.cif.g08.bks.cpg/sg53_14_cif.got.tgz:26980.got - 2010.06.03 12:45:16.
