data_PCOD9418010
_publ_section_title
;
Structure prediction by ZEFSAII (Michael W. Deem and Ramdas Pophale) SiO2 
 PCOD9418010
Probable space group: P M N A
;
_chemical_formula_sum "Si O2"
_cell_formula_units_Z 40
_cell_length_a 9.628554
_cell_length_b 24.242101
_cell_length_c 9.572864
_cell_angle_alpha 90.000000
_cell_angle_beta 90.000000
_cell_angle_gamma 90.000000
_cell_volume 2234.463247
_symmetry_space_group_name_H-M "P M N A"
_symmetry_group_IT_number 53
_symmetry_cell_setting 'orthorhombic'
loop_
_space_group_symop_operation_xyz
x,y,z
1/2-x,-y,1/2+z
x,-y,-z
1/2-x,y,1/2-z
-x,-y,-z
1/2+x,y,1/2-z
-x,y,z
1/2+x,-y,1/2+z
loop_
_atom_site_type_symbol
_atom_site_label
_atom_site_fract_x
_atom_site_fract_y
_atom_site_fract_z
Si Si1 0.742851 0.862327 0.913824
Si Si2 0.000000 0.947813 0.598421
Si Si3 0.000000 0.058611 0.076404
Si Si4 0.162327 0.454614 0.111290
Si Si5 0.829608 0.756493 0.398877
Si Si6 0.832519 0.674065 0.897493
O O1 0.750000 0.844000 0.750000
O O2 0.627329 0.908338 0.927656
O O3 0.875499 0.898958 0.950071
O O4 0.706705 0.811697 0.013409
O O5 0.000000 0.960181 0.762176
O O6 0.000000 0.000000 0.500000
O O7 0.000000 0.000000 0.000000
O O8 0.250000 0.461005 0.250000
O O9 0.175210 0.390899 0.065145
O O10 0.000000 0.464235 0.141136
O O11 0.207707 0.500000 0.000000
O O12 0.750000 0.758973 0.250000
O O13 0.753278 0.708595 0.488390
O O14 0.000000 0.750528 0.387769
O O15 0.750000 0.681605 0.750000
O O16 0.000000 0.688304 0.887704
#
# Coordination Sequence:
#
# PCOD9418010 Si02
#       6
#     8   4   4   8   8   8
#     4  10  22  40  62  86 116 156 197 238 293 360
#     4  10  20  38  60  84 118 154 193 236 287 350
#     4  10  22  36  60  92 118 150 193 240 291 352
#     4   9  19  36  58  88 123 160 204 248 296 353
#     4  12  26  42  61  88 121 157 201 255 310 362
#     4  10  21  39  64  90 121 163 206 250 300 360
#
# _framework density 17.901389999999999
#
# number of rings (size 3 to 8) (size 9 to 14) (size 15 to 20)
#    0.000    1.800    1.000    2.400    2.800    3.600 
#    0.000    2.000    0.000    0.000    0.000    0.000 
#    0.000    0.000    0.000    0.000    0.000    0.000 
#
# Total GULP energy -222865.190684 kJ/mol
# GULP energy per Si atom -5571.629767 kJ/mol
# Density = 1.786065 g / cm^3
# Si number density = 17.901390 Si / 1000 Ang^3
#
#
#
# Elastic Constant Matrix: (Units=GPa)
#
#
# Indices 1 2 3 4 5 6 
#
# 1 173.6992 75.6001 76.7120 0.0000 0.0000 0.0000
# 2 75.6001 124.0701 103.1295 0.0000 0.0000 0.0000
# 3 76.7120 103.1295 125.9431 0.0000 0.0000 0.0000
# 4 0.0000 0.0000 0.0000 44.0070 0.0000 0.0000
# 5 0.0000 0.0000 0.0000 0.0000 28.0627 0.0000
# 6 0.0000 0.0000 0.0000 0.0000 0.0000 42.2825
#
#
#
# Elastic Compliance Matrix: (Units=1/GPa)
#
#
# Indices 1 2 3 4 5 6 
#
# 1 0.008140 -0.002626 -0.002807 0.000000 0.000000 0.000000
# 2 -0.002626 0.026086 -0.019761 0.000000 0.000000 0.000000
# 3 -0.002807 -0.019761 0.025832 0.000000 0.000000 0.000000
# 4 0.000000 0.000000 0.000000 0.022724 0.000000 0.000000
# 5 0.000000 0.000000 0.000000 0.000000 0.035635 0.000000
# 6 0.000000 0.000000 0.000000 0.000000 0.000000 0.023650
#
#
# Mechanical properties :
#
#
# Convention : Reuss Voigt Hill
#
# Bulk Modulus (GPa) = 103.43481 103.84396 103.63938
# Shear Modulus (GPa) = 25.55207 34.08849 29.82028
#
# Velocity S-wave (km/s) = 3.78217 4.36849 4.08586
# Velocity P-wave (km/s) = 8.77376 9.14220 8.95987
#
# Compressibility (1/GPa) = 0.00966792
#
# Stress axis : x y z
#
# Youngs Moduli (GPa) = 122.84921 38.33464 38.71222
#
# Poissons Ratio (x) = 0.10068 0.10868
# Poissons Ratio (y) = 0.32265 0.76499
# Poissons Ratio (z) = 0.34490 0.75753
#
# Static dielectric constant tensor:
#      x y z
#    x 1.580790 0.000000 0.000000 
#    y 0.000000 1.573910 0.000000 
#    z 0.000000 0.000000 1.596100 
# 
# From -- ./inp_files/6368.got.cif
#   From: 2010.05.17/outbox.cif.g08.bks.cpg/sg53_4_cif.got.tgz:6368.got - 2010.06.03 12:45:16.
