data_PCOD9418495
_publ_section_title
;
Structure prediction by ZEFSAII (Michael W. Deem and Ramdas Pophale) SiO2 
 PCOD9418495
Probable space group: P M N A
;
_chemical_formula_sum "Si O2"
_cell_formula_units_Z 48
_cell_length_a 8.607576
_cell_length_b 31.734151
_cell_length_c 9.378734
_cell_angle_alpha 90.000000
_cell_angle_beta 90.000000
_cell_angle_gamma 90.000000
_cell_volume 2561.839800
_symmetry_space_group_name_H-M "P M N A"
_symmetry_group_IT_number 53
_symmetry_cell_setting 'orthorhombic'
loop_
_space_group_symop_operation_xyz
x,y,z
1/2-x,-y,1/2+z
x,-y,-z
1/2-x,y,1/2-z
-x,-y,-z
1/2+x,y,1/2-z
-x,y,z
1/2+x,-y,1/2+z
loop_
_atom_site_type_symbol
_atom_site_label
_atom_site_fract_x
_atom_site_fract_y
_atom_site_fract_z
Si Si1 0.814141 0.707638 0.409775
Si Si2 0.186308 0.458700 0.409901
Si Si3 0.312534 0.040923 0.910542
Si Si4 0.812951 0.876282 0.589757
Si Si5 0.814034 0.798262 0.089244
Si Si6 0.685615 0.629946 0.589169
O O1 0.750000 0.702195 0.250000
O O2 0.748427 0.752723 0.460414
O O3 0.754380 0.668912 0.502758
O O4 0.000000 0.709099 0.408084
O O5 0.226641 0.500000 0.500000
O O6 0.250000 0.463744 0.250000
O O7 0.258108 0.415358 0.469398
O O8 0.000000 0.454335 0.405595
O O9 0.250000 0.040693 0.750000
O O10 0.500000 0.040060 0.903861
O O11 0.266759 0.082990 0.996054
O O12 0.260757 0.000000 0.000000
O O13 0.750000 0.880053 0.750000
O O14 0.746139 0.835011 0.512796
O O15 0.000000 0.874070 0.592859
O O16 0.750000 0.805031 0.250000
O O17 0.000000 0.797714 0.094122
O O18 0.750000 0.632147 0.750000
O O19 0.500000 0.631550 0.590065
#
# Coordination Sequence:
#
# PCOD9418495 Si02
#       6
#     8   8   8   8   8   8
#     4  11  22  39  61  87 117 150 191 236 285 340
#     4  10  21  37  57  82 112 147 189 235 284 339
#     4  10  22  39  60  87 118 153 194 239 288 343
#     4  11  23  39  59  86 118 153 195 240 289 343
#     4  11  22  39  61  86 116 151 191 235 286 340
#     4  11  22  38  59  84 115 151 190 234 286 341
#
# _framework density 18.736535
#
# number of rings (size 3 to 8) (size 9 to 14) (size 15 to 20)
#    0.000    1.333    0.000    8.500    0.000    5.667 
#    0.000    5.000    0.000    0.000    0.000    0.000 
#    0.000    0.000    0.000    0.000    0.000    0.000 
#
# Total GULP energy -268387.411686 kJ/mol
# GULP energy per Si atom -5591.404410 kJ/mol
# Density = 1.869389 g / cm^3
# Si number density = 18.736535 Si / 1000 Ang^3
#
#
#
# Elastic Constant Matrix: (Units=GPa)
#
#
# Indices 1 2 3 4 5 6 
#
# 1 138.2162 83.5496 52.2626 0.0000 0.0000 0.0000
# 2 83.5496 215.9352 111.9431 0.0000 0.0000 0.0000
# 3 52.2626 111.9431 114.6127 0.0000 0.0000 0.0000
# 4 0.0000 0.0000 0.0000 42.6255 0.0000 0.0000
# 5 0.0000 0.0000 0.0000 0.0000 35.6413 0.0000
# 6 0.0000 0.0000 0.0000 0.0000 0.0000 402.8687
#
#
#
# Elastic Compliance Matrix: (Units=1/GPa)
#
#
# Indices 1 2 3 4 5 6 
#
# 1 0.009572 -0.002919 -0.001514 0.000000 0.000000 0.000000
# 2 -0.002919 0.010271 -0.008701 0.000000 0.000000 0.000000
# 3 -0.001514 -0.008701 0.017914 0.000000 0.000000 0.000000
# 4 0.000000 0.000000 0.000000 0.023460 0.000000 0.000000
# 5 0.000000 0.000000 0.000000 0.000000 0.028057 0.000000
# 6 0.000000 0.000000 0.000000 0.000000 0.000000 0.002482
#
#
# Mechanical properties :
#
#
# Convention : Reuss Voigt Hill
#
# Bulk Modulus (GPa) = 87.03709 107.14165 97.08937
# Shear Modulus (GPa) = 41.03322 110.96101 75.99712
#
# Velocity S-wave (km/s) = 4.68483 7.70391 6.37566
# Velocity P-wave (km/s) = 8.70733 11.68080 10.30191
#
# Compressibility (1/GPa) = 0.01148936
#
# Stress axis : x y z
#
# Youngs Moduli (GPa) = 104.47357 97.36282 55.82380
#
# Poissons Ratio (x) = 0.28417 0.08452
# Poissons Ratio (y) = 0.30492 0.48571
# Poissons Ratio (z) = 0.15817 0.84713
#
# Static dielectric constant tensor:
#      x y z
#    x 1.627520 0.000000 0.000000 
#    y 0.000000 1.647070 0.000000 
#    z 0.000000 0.000000 1.604200 
# 
# From -- ./inp_files/6688.got.cif
#   From: 2010.05.17/outbox.cif.g08.bks.cpg/sg53_4_cif.got.tgz:6688.got - 2010.06.03 12:45:16.
