data_PCOD9418988
_publ_section_title
;
Structure prediction by ZEFSAII (Michael W. Deem and Ramdas Pophale) SiO2 
 PCOD9418988
Probable space group: P M N A
;
_chemical_formula_sum "Si O2"
_cell_formula_units_Z 56
_cell_length_a 17.403803
_cell_length_b 10.116763
_cell_length_c 15.767055
_cell_angle_alpha 90.000000
_cell_angle_beta 90.000000
_cell_angle_gamma 90.000000
_cell_volume 2776.107743
_symmetry_space_group_name_H-M "P M N A"
_symmetry_group_IT_number 53
_symmetry_cell_setting 'orthorhombic'
loop_
_space_group_symop_operation_xyz
x,y,z
1/2-x,-y,1/2+z
x,-y,-z
1/2-x,y,1/2-z
-x,-y,-z
1/2+x,y,1/2-z
-x,y,z
1/2+x,-y,1/2+z
loop_
_atom_site_type_symbol
_atom_site_label
_atom_site_fract_x
_atom_site_fract_y
_atom_site_fract_z
Si Si1 0.342520 0.648752 0.989257
Si Si2 0.162831 0.638796 0.035408
Si Si3 0.911107 0.022908 0.239216
Si Si4 0.908196 0.221246 0.648382
Si Si5 0.088355 0.683013 0.690689
Si Si6 0.586967 0.879522 0.564334
Si Si7 0.339997 0.439586 0.728089
O O1 0.253493 0.644387 0.015131
O O2 0.380542 0.754298 0.052489
O O3 0.374818 0.500000 0.000000
O O4 0.357661 0.675594 0.891265
O O5 0.151062 0.629534 0.136602
O O6 0.132212 0.500000 0.000000
O O7 0.126119 0.759586 0.984727
O O8 0.912337 0.164722 0.283243
O O9 0.874272 0.057671 0.148281
O O10 0.000000 0.980989 0.221310
O O11 0.879300 0.909175 0.301007
O O12 0.878716 0.346648 0.701576
O O13 0.000000 0.217315 0.646980
O O14 0.120968 0.583544 0.762179
O O15 0.000000 0.644302 0.670789
O O16 0.500000 0.835935 0.588240
O O17 0.581892 0.000000 0.500000
O O18 0.250000 0.452468 0.750000
#
# Coordination Sequence:
#
# PCOD9418988 Si02
#       7
#     8   8   8   8   8   8   8
#     4  11  22  41  62  94 133 164 209 266 321 383
#     4  11  23  40  62  90 128 170 207 264 329 381
#     4   9  21  40  60  92 125 159 211 267 319 371
#     4  11  22  40  68  92 122 169 215 262 316 382
#     4  11  23  40  65  93 128 169 214 267 320 388
#     4  10  21  41  65  89 125 168 216 270 316 378
#     4  12  22  39  61  91 129 163 211 268 317 376
#
# _framework density 20.172127
#
# number of rings (size 3 to 8) (size 9 to 14) (size 15 to 20)
#    0.000    1.286    2.857    3.429    0.000    3.714 
#    2.571    2.857    0.000    0.000    0.000    0.000 
#    0.000    0.000    0.000    0.000    0.000    0.000 
#
# Total GULP energy -312524.359367 kJ/mol
# GULP energy per Si atom -5580.792132 kJ/mol
# Density = 2.012621 g / cm^3
# Si number density = 20.172127 Si / 1000 Ang^3
#
#
#
# Elastic Constant Matrix: (Units=GPa)
#
#
# Indices 1 2 3 4 5 6 
#
# 1 35.7334 23.5771 16.3486 0.0000 0.0000 0.0000
# 2 23.5771 110.3835 18.2985 0.0000 0.0000 0.0000
# 3 16.3486 18.2985 99.9129 0.0000 0.0000 0.0000
# 4 0.0000 0.0000 0.0000 39.9676 0.0000 0.0000
# 5 0.0000 0.0000 0.0000 0.0000 34.4429 0.0000
# 6 0.0000 0.0000 0.0000 0.0000 0.0000 1.6711
#
#
#
# Elastic Compliance Matrix: (Units=1/GPa)
#
#
# Indices 1 2 3 4 5 6 
#
# 1 0.034364 -0.006608 -0.004413 0.000000 0.000000 0.000000
# 2 -0.006608 0.010614 -0.000863 0.000000 0.000000 0.000000
# 3 -0.004413 -0.000863 0.010889 0.000000 0.000000 0.000000
# 4 0.000000 0.000000 0.000000 0.025020 0.000000 0.000000
# 5 0.000000 0.000000 0.000000 0.000000 0.029034 0.000000
# 6 0.000000 0.000000 0.000000 0.000000 0.000000 0.598419
#
#
# Mechanical properties :
#
#
# Convention : Reuss Voigt Hill
#
# Bulk Modulus (GPa) = 31.15319 40.27537 35.71428
# Shear Modulus (GPa) = 6.73123 27.73669 17.23396
#
# Velocity S-wave (km/s) = 1.82870 3.71212 2.92609
# Velocity P-wave (km/s) = 4.46498 6.19535 5.39993
#
# Compressibility (1/GPa) = 0.03209944
#
# Stress axis : x y z
#
# Youngs Moduli (GPa) = 29.10008 94.21676 91.83817
#
# Poissons Ratio (x) = 0.62263 0.40525
# Poissons Ratio (y) = 0.19231 0.07921
# Poissons Ratio (z) = 0.12841 0.08127
#
# Static dielectric constant tensor:
#      x y z
#    x 1.731060 0.000000 0.000000 
#    y 0.000000 1.778740 0.000000 
#    z 0.000000 0.000000 1.776080 
# 
# From -- ./inp_files/24343.got.cif
#   From: 2010.05.17/outbox.cif.g08.bks.cpg/sg53_13_cif.got.tgz:24343.got - 2010.06.03 12:45:16.
