data_PCOD9418716
_publ_section_title
;
Structure prediction by ZEFSAII (Michael W. Deem and Ramdas Pophale) SiO2 
 PCOD9418716
Probable space group: P M N A
;
_chemical_formula_sum "Si O2"
_cell_formula_units_Z 56
_cell_length_a 13.279427
_cell_length_b 5.544114
_cell_length_c 31.356395
_cell_angle_alpha 90.000000
_cell_angle_beta 90.000000
_cell_angle_gamma 90.000000
_cell_volume 2308.541118
_symmetry_space_group_name_H-M "P M N A"
_symmetry_group_IT_number 53
_symmetry_cell_setting 'orthorhombic'
loop_
_space_group_symop_operation_xyz
x,y,z
1/2-x,-y,1/2+z
x,-y,-z
1/2-x,y,1/2-z
-x,-y,-z
1/2+x,y,1/2-z
-x,y,z
1/2+x,-y,1/2+z
loop_
_atom_site_type_symbol
_atom_site_label
_atom_site_fract_x
_atom_site_fract_y
_atom_site_fract_z
Si Si1 0.116212 0.789860 0.906270
Si Si2 0.387251 0.368251 0.545555
Si Si3 0.380469 0.088780 0.135711
Si Si4 0.877671 0.464976 0.225127
Si Si5 0.122655 0.966593 0.181544
Si Si6 0.288501 0.983857 0.046478
Si Si7 0.877197 0.413534 0.677482
O O1 0.113460 0.503068 0.908273
O O2 0.150774 0.940762 0.865801
O O3 0.000000 0.846328 0.913463
O O4 0.191930 0.843316 0.944879
O O5 0.391711 0.500000 0.500000
O O6 0.500000 0.250479 0.544852
O O7 0.276187 0.257673 0.546588
O O8 0.500000 0.100212 0.142687
O O9 0.342755 0.356136 0.149150
O O10 0.359166 0.030436 0.086347
O O11 0.345042 0.854342 0.162588
O O12 0.845479 0.195200 0.211108
O O13 0.850808 0.524924 0.273825
O O14 0.000000 0.457805 0.223016
O O15 0.847951 0.697936 0.196527
O O16 0.000000 0.965560 0.182329
O O17 0.336354 0.000000 0.000000
O O18 0.000000 0.407762 0.675258
#
# Coordination Sequence:
#
# PCOD9418716 Si02
#       7
#     8   8   8   8   8   8   8
#     4  10  22  38  58  88 128 169 208 255 310 375
#     4  10  21  38  61  89 123 165 219 269 317 380
#     4  10  23  41  65  94 125 162 210 266 326 385
#     4   9  16  30  56  88 121 158 204 248 298 370
#     4   9  18  30  51  87 125 161 199 245 302 365
#     4  12  25  39  63  88 123 164 217 269 328 384
#     4   9  18  37  64  92 121 160 209 261 314 378
#
# _framework density 24.257745
#
# number of rings (size 3 to 8) (size 9 to 14) (size 15 to 20)
#    0.000    2.143    1.429    1.286    4.000    4.286 
#    0.000    0.000    0.000    8.143    0.000    0.000 
#    0.000    0.000    0.000    0.000    0.000    0.000 
#
# Total GULP energy -312098.421042 kJ/mol
# GULP energy per Si atom -5573.186090 kJ/mol
# Density = 2.420253 g / cm^3
# Si number density = 24.257745 Si / 1000 Ang^3
#
#
#
# Elastic Constant Matrix: (Units=GPa)
#
#
# Indices 1 2 3 4 5 6 
#
# 1 39.8456 -2.2530 -27.1811 0.0000 0.0000 0.0000
# 2 -2.2530 114.5475 45.9660 0.0000 0.0000 0.0000
# 3 -27.1811 45.9660 77.3424 0.0000 0.0000 0.0000
# 4 0.0000 0.0000 0.0000 33.8713 0.0000 0.0000
# 5 0.0000 0.0000 0.0000 0.0000 54.5653 0.0000
# 6 0.0000 0.0000 0.0000 0.0000 0.0000 5.5820
#
#
#
# Elastic Compliance Matrix: (Units=1/GPa)
#
#
# Indices 1 2 3 4 5 6 
#
# 1 0.035615 -0.005676 0.015890 0.000000 0.000000 0.000000
# 2 -0.005676 0.012369 -0.009346 0.000000 0.000000 0.000000
# 3 0.015890 -0.009346 0.024068 0.000000 0.000000 0.000000
# 4 0.000000 0.000000 0.000000 0.029524 0.000000 0.000000
# 5 0.000000 0.000000 0.000000 0.000000 0.018327 0.000000
# 6 0.000000 0.000000 0.000000 0.000000 0.000000 0.179148
#
#
# Mechanical properties :
#
#
# Convention : Reuss Voigt Hill
#
# Bulk Modulus (GPa) = 13.55218 29.42215 21.48717
# Shear Modulus (GPa) = 15.53232 33.15062 24.34147
#
# Velocity S-wave (km/s) = 2.53317 3.70077 3.17117
# Velocity P-wave (km/s) = 3.76229 5.51509 4.72075
#
# Compressibility (1/GPa) = 0.07378884
#
# Stress axis : x y z
#
# Youngs Moduli (GPa) = 28.07781 80.84992 41.54882
#
# Poissons Ratio (x) = 0.45889 -0.66020
# Poissons Ratio (y) = 0.15936 0.38830
# Poissons Ratio (z) = -0.44615 0.75559
#
# Static dielectric constant tensor:
#      x y z
#    x 1.952900 0.000000 0.000000 
#    y 0.000000 2.313020 0.000000 
#    z 0.000000 0.000000 1.911250 
# 
# From -- ./inp_files/38867.got.cif
#   From: 2010.05.17/outbox.cif.g08.bks.cpg/sg53_20_cif.got.tgz:38867.got - 2010.06.03 12:45:16.
