data_PCOD9418942
_publ_section_title
;
Structure prediction by ZEFSAII (Michael W. Deem and Ramdas Pophale) SiO2 
 PCOD9418942
Probable space group: P M N A
;
_chemical_formula_sum "Si O2"
_cell_formula_units_Z 48
_cell_length_a 23.291668
_cell_length_b 8.818406
_cell_length_c 9.728848
_cell_angle_alpha 90.000000
_cell_angle_beta 90.000000
_cell_angle_gamma 90.000000
_cell_volume 1998.260479
_symmetry_space_group_name_H-M "P M N A"
_symmetry_group_IT_number 53
_symmetry_cell_setting 'orthorhombic'
loop_
_space_group_symop_operation_xyz
x,y,z
1/2-x,-y,1/2+z
x,-y,-z
1/2-x,y,1/2-z
-x,-y,-z
1/2+x,y,1/2-z
-x,y,z
1/2+x,-y,1/2+z
loop_
_atom_site_type_symbol
_atom_site_label
_atom_site_fract_x
_atom_site_fract_y
_atom_site_fract_z
Si Si1 0.722727 0.613861 0.111784
Si Si2 0.905652 0.839017 0.567943
Si Si3 0.934278 0.634394 0.807586
Si Si4 0.605048 0.679444 0.193293
Si Si5 0.267018 0.853470 0.909909
Si Si6 0.568417 0.836638 0.457966
O O1 0.750000 0.544090 0.250000
O O2 0.672438 0.714797 0.176942
O O3 0.695624 0.500000 0.000000
O O4 0.758252 0.716997 0.005081
O O5 0.932831 0.781253 0.708576
O O6 0.921112 0.712202 0.454870
O O7 0.836734 0.840572 0.591179
O O8 0.921647 0.000000 0.500000
O O9 0.901463 0.492482 0.743332
O O10 0.000000 0.581788 0.825826
O O11 0.909387 0.697301 0.949782
O O12 0.579048 0.794430 0.301926
O O13 0.250000 0.855951 0.750000
O O14 0.252022 0.000000 0.000000
O O15 0.500000 0.839712 0.484144
O O16 0.592410 0.000000 0.500000
#
# Coordination Sequence:
#
# PCOD9418942 Si02
#       6
#     8   8   8   8   8   8
#     4  11  24  41  61  89 123 162 207 259 317 376
#     4  10  22  39  59  88 125 162 201 251 305 361
#     4  11  23  39  61  89 120 159 206 252 302 365
#     4  11  22  39  61  87 120 158 203 253 308 368
#     4  10  21  40  64  92 127 163 207 258 309 372
#     4  10  22  40  62  91 125 159 200 252 308 372
#
# _framework density 24.020894999999999
#
# number of rings (size 3 to 8) (size 9 to 14) (size 15 to 20)
#    0.000    1.500    0.000    5.500    0.000    6.333 
#    0.000    1.667    0.000    0.000    0.000    0.000 
#    0.000    0.000    0.000    0.000    0.000    0.000 
#
# Total GULP energy -268078.777976 kJ/mol
# GULP energy per Si atom -5584.974541 kJ/mol
# Density = 2.396622 g / cm^3
# Si number density = 24.020895 Si / 1000 Ang^3
#
#
#
# Elastic Constant Matrix: (Units=GPa)
#
#
# Indices 1 2 3 4 5 6 
#
# 1 32.2659 3.6628 18.3395 0.0000 0.0000 0.0000
# 2 3.6628 88.4128 34.3119 0.0000 0.0000 0.0000
# 3 18.3395 34.3119 157.3102 0.0000 0.0000 0.0000
# 4 0.0000 0.0000 0.0000 38.5443 0.0000 0.0000
# 5 0.0000 0.0000 0.0000 0.0000 32.6506 0.0000
# 6 0.0000 0.0000 0.0000 0.0000 0.0000 16.0446
#
#
#
# Elastic Compliance Matrix: (Units=1/GPa)
#
#
# Indices 1 2 3 4 5 6 
#
# 1 0.033193 0.000138 -0.003900 0.000000 0.000000 0.000000
# 2 0.000138 0.012357 -0.002711 0.000000 0.000000 0.000000
# 3 -0.003900 -0.002711 0.007403 0.000000 0.000000 0.000000
# 4 0.000000 0.000000 0.000000 0.025944 0.000000 0.000000
# 5 0.000000 0.000000 0.000000 0.000000 0.030627 0.000000
# 6 0.000000 0.000000 0.000000 0.000000 0.000000 0.062326
#
#
# Mechanical properties :
#
#
# Convention : Reuss Voigt Hill
#
# Bulk Modulus (GPa) = 24.99530 43.40192 34.19861
# Shear Modulus (GPa) = 25.23554 32.22621 28.73088
#
# Velocity S-wave (km/s) = 3.24476 3.66675 3.46219
# Velocity P-wave (km/s) = 4.94633 6.00286 5.50002
#
# Compressibility (1/GPa) = 0.04000753
#
# Stress axis : x y z
#
# Youngs Moduli (GPa) = 30.12643 80.92507 135.08164
#
# Poissons Ratio (x) = -0.01120 0.52681
# Poissons Ratio (y) = -0.00417 0.36626
# Poissons Ratio (z) = 0.11749 0.21942
#
# Static dielectric constant tensor:
#      x y z
#    x 1.924170 0.000000 0.000000 
#    y 0.000000 1.976480 0.000000 
#    z 0.000000 0.000000 1.894520 
# 
# From -- ./inp_files/13051.got.cif
#   From: 2010.05.17/outbox.cif.g08.bks.cpg/sg53_7_cif.got.tgz:13051.got - 2010.06.03 12:45:16.
