data_PCOD9418159
_publ_section_title
;
Structure prediction by ZEFSAII (Michael W. Deem and Ramdas Pophale) SiO2 
 PCOD9418159
Probable space group: P M N A
;
_chemical_formula_sum "Si O2"
_cell_formula_units_Z 24
_cell_length_a 16.515880
_cell_length_b 10.006005
_cell_length_c 7.254909
_cell_angle_alpha 90.000000
_cell_angle_beta 90.000000
_cell_angle_gamma 90.000000
_cell_volume 1198.931591
_symmetry_space_group_name_H-M "P M N A"
_symmetry_group_IT_number 53
_symmetry_cell_setting 'orthorhombic'
loop_
_space_group_symop_operation_xyz
x,y,z
1/2-x,-y,1/2+z
x,-y,-z
1/2-x,y,1/2-z
-x,-y,-z
1/2+x,y,1/2-z
-x,y,z
1/2+x,-y,1/2+z
loop_
_atom_site_type_symbol
_atom_site_label
_atom_site_fract_x
_atom_site_fract_y
_atom_site_fract_z
Si Si1 0.410050 0.398711 0.827764
Si Si2 0.750000 0.267481 0.250000
Si Si3 0.093593 0.147974 0.418391
Si Si4 0.701148 0.500000 0.500000
O O1 0.500000 0.405888 0.746442
O O2 0.349556 0.446726 0.672701
O O3 0.407611 0.500000 0.000000
O O4 0.398933 0.252425 0.912941
O O5 0.666791 0.184320 0.221935
O O6 0.745130 0.368513 0.423226
O O7 0.000000 0.163351 0.346513
O O8 0.102462 0.000000 0.500000
#
# Coordination Sequence:
#
# PCOD9418159 Si02
#       4
#     8   4   8   4
#     4  10  20  39  66  94 128 170 215 268 327 384
#     4  12  24  38  66  96 132 172 218 270 330 384
#     4  10  23  44  65  92 133 174 213 267 326 388
#     4  12  23  38  61 102 132 168 220 282 316 386
#
# _framework density 20.017821000000001
#
# number of rings (size 3 to 8) (size 9 to 14) (size 15 to 20)
#    0.000    1.333    3.333    2.500    0.000    4.000 
#    0.000    0.000    0.000    7.000    0.000    0.000 
#    0.000    0.000    0.000    0.000    0.000    0.000 
#
# Total GULP energy -133947.518646 kJ/mol
# GULP energy per Si atom -5581.146610 kJ/mol
# Density = 1.997226 g / cm^3
# Si number density = 20.017821 Si / 1000 Ang^3
#
#
#
# Elastic Constant Matrix: (Units=GPa)
#
#
# Indices 1 2 3 4 5 6 
#
# 1 178.1298 56.1567 37.3091 0.0000 0.0000 0.0000
# 2 56.1567 145.9609 25.4194 0.0000 0.0000 0.0000
# 3 37.3091 25.4194 50.9173 0.0000 0.0000 0.0000
# 4 0.0000 0.0000 0.0000 21.7456 0.0000 0.0000
# 5 0.0000 0.0000 0.0000 0.0000 39.5828 0.0000
# 6 0.0000 0.0000 0.0000 0.0000 0.0000 34.9444
#
#
#
# Elastic Compliance Matrix: (Units=1/GPa)
#
#
# Indices 1 2 3 4 5 6 
#
# 1 0.007132 -0.002008 -0.004223 0.000000 0.000000 0.000000
# 2 -0.002008 0.008069 -0.002557 0.000000 0.000000 0.000000
# 3 -0.004223 -0.002557 0.024010 0.000000 0.000000 0.000000
# 4 0.000000 0.000000 0.000000 0.045986 0.000000 0.000000
# 5 0.000000 0.000000 0.000000 0.000000 0.025264 0.000000
# 6 0.000000 0.000000 0.000000 0.000000 0.000000 0.028617
#
#
# Mechanical properties :
#
#
# Convention : Reuss Voigt Hill
#
# Bulk Modulus (GPa) = 46.22138 68.08649 57.15394
# Shear Modulus (GPa) = 30.51285 36.32940 33.42112
#
# Velocity S-wave (km/s) = 3.90844 4.26473 4.09047
# Velocity P-wave (km/s) = 6.59607 7.63789 7.13602
#
# Compressibility (1/GPa) = 0.02163501
#
# Stress axis : x y z
#
# Youngs Moduli (GPa) = 140.22264 123.92969 41.64862
#
# Poissons Ratio (x) = 0.24889 0.17588
# Poissons Ratio (y) = 0.28161 0.10648
# Poissons Ratio (z) = 0.59215 0.31686
#
# Static dielectric constant tensor:
#      x y z
#    x 1.807140 0.000000 0.000000 
#    y 0.000000 1.686420 0.000000 
#    z 0.000000 0.000000 1.664170 
# 
# From -- ./inp_files/9309.got.cif
#   From: 2010.05.17/outbox.cif.g08.bks.cpg/sg53_5_cif.got.tgz:9309.got - 2010.06.03 12:45:16.
