data_PCOD9418882
_publ_section_title
;
Structure prediction by ZEFSAII (Michael W. Deem and Ramdas Pophale) SiO2 
 PCOD9418882
Probable space group: P M N A
;
_chemical_formula_sum "Si O2"
_cell_formula_units_Z 48
_cell_length_a 9.214026
_cell_length_b 16.053901
_cell_length_c 13.412855
_cell_angle_alpha 90.000000
_cell_angle_beta 90.000000
_cell_angle_gamma 90.000000
_cell_volume 1984.043746
_symmetry_space_group_name_H-M "P M N A"
_symmetry_group_IT_number 53
_symmetry_cell_setting 'orthorhombic'
loop_
_space_group_symop_operation_xyz
x,y,z
1/2-x,-y,1/2+z
x,-y,-z
1/2-x,y,1/2-z
-x,-y,-z
1/2+x,y,1/2-z
-x,y,z
1/2+x,-y,1/2+z
loop_
_atom_site_type_symbol
_atom_site_label
_atom_site_fract_x
_atom_site_fract_y
_atom_site_fract_z
Si Si1 0.667115 0.662251 0.459723
Si Si2 0.330818 0.096671 0.034286
Si Si3 0.186321 0.822019 0.158159
Si Si4 0.333324 0.676386 0.849440
Si Si5 0.750000 0.950766 0.750000
Si Si6 0.000000 0.907848 0.260007
Si Si7 0.332004 0.474898 0.851039
O O1 0.500000 0.647551 0.486532
O O2 0.674933 0.724517 0.366386
O O3 0.750420 0.703941 0.552038
O O4 0.746740 0.576711 0.433471
O O5 0.500000 0.125455 0.032987
O O6 0.265875 0.099598 0.146403
O O7 0.236616 0.136426 0.946718
O O8 0.337387 0.000000 0.000000
O O9 0.357454 0.837797 0.214646
O O10 0.000000 0.857058 0.150502
O O11 0.250000 0.701606 0.750000
O O12 0.500000 0.702539 0.846772
O O13 0.329710 0.575108 0.855184
O O14 0.621714 0.017821 0.752942
O O15 0.250000 0.452828 0.750000
O O16 0.500000 0.449042 0.852203
#
# Coordination Sequence:
#
# PCOD9418882 Si02
#       7
#     8   8   8   8   4   4   8
#     4  12  25  41  62  96 137 179 225 272 339 414
#     4  11  24  42  70 102 132 171 221 277 332 402
#     4  12  27  44  67  97 138 181 222 273 336 408
#     4  10  22  43  69  96 127 172 231 290 349 401
#     4  12  24  44  74 104 132 166 230 278 340 394
#     4  12  22  45  67 100 133 176 214 279 331 396
#     4  10  21  39  65  98 132 172 227 288 342 403
#
# _framework density 24.193014999999999
#
# number of rings (size 3 to 8) (size 9 to 14) (size 15 to 20)
#    0.000    0.833    4.167    2.500    3.500    6.667 
#    1.500    0.000    0.000    0.000    0.000    0.000 
#    0.000    0.000    0.000    0.000    0.000    0.000 
#
# Total GULP energy -267625.104687 kJ/mol
# GULP energy per Si atom -5575.523014 kJ/mol
# Density = 2.413795 g / cm^3
# Si number density = 24.193015 Si / 1000 Ang^3
#
#
#
# Elastic Constant Matrix: (Units=GPa)
#
#
# Indices 1 2 3 4 5 6 
#
# 1 218.0522 32.7970 83.5040 0.0000 0.0000 0.0000
# 2 32.7970 79.8986 33.3417 0.0000 0.0000 0.0000
# 3 83.5040 33.3417 204.7031 0.0000 0.0000 0.0000
# 4 0.0000 0.0000 0.0000 52.0353 0.0000 0.0000
# 5 0.0000 0.0000 0.0000 0.0000 59.4470 0.0000
# 6 0.0000 0.0000 0.0000 0.0000 0.0000 -63.7437
#
#
#
# Elastic Compliance Matrix: (Units=1/GPa)
#
#
# Indices 1 2 3 4 5 6 
#
# 1 0.005585 -0.001440 -0.002044 0.000000 0.000000 0.000000
# 2 -0.001440 0.013800 -0.001660 0.000000 0.000000 0.000000
# 3 -0.002044 -0.001660 0.005989 0.000000 0.000000 0.000000
# 4 0.000000 0.000000 0.000000 0.019218 0.000000 0.000000
# 5 0.000000 0.000000 0.000000 0.000000 0.016822 0.000000
# 6 0.000000 0.000000 0.000000 0.000000 0.000000 -0.015688
#
#
# Mechanical properties :
#
#
# Convention : Reuss Voigt Hill
#
# Bulk Modulus (GPa) = 66.28515 89.10436 77.69476
# Shear Modulus (GPa) = 81.90975 33.08181 57.49578
#
# Velocity S-wave (km/s) = 5.82497 3.70186 4.88027
# Velocity P-wave (km/s) = 8.52633 7.42848 7.99627
#
# Compressibility (1/GPa) = 0.01508633
#
# Stress axis : x y z
#
# Youngs Moduli (GPa) = 179.04037 72.46524 166.96377
#
# Poissons Ratio (x) = 0.10433 0.34126
# Poissons Ratio (y) = 0.25778 0.27722
# Poissons Ratio (z) = 0.36594 0.12032
#
# Static dielectric constant tensor:
#      x y z
#    x 2.210700 0.000000 0.000000 
#    y 0.000000 1.916490 0.000000 
#    z 0.000000 0.000000 1.914190 
# 
# From -- ./inp_files/20288.got.cif
#   From: 2010.05.17/outbox.cif.g08.bks.cpg/sg53_11_cif.got.tgz:20288.got - 2010.06.03 12:45:16.
