data_PCOD9418066
_publ_section_title
;
Structure prediction by ZEFSAII (Michael W. Deem and Ramdas Pophale) SiO2 
 PCOD9418066
Probable space group: P M N A
;
_chemical_formula_sum "Si O2"
_cell_formula_units_Z 20
_cell_length_a 17.086925
_cell_length_b 12.394580
_cell_length_c 4.932522
_cell_angle_alpha 90.000000
_cell_angle_beta 90.000000
_cell_angle_gamma 90.000000
_cell_volume 1044.635449
_symmetry_space_group_name_H-M "P M N A"
_symmetry_group_IT_number 53
_symmetry_cell_setting 'orthorhombic'
loop_
_space_group_symop_operation_xyz
x,y,z
1/2-x,-y,1/2+z
x,-y,-z
1/2-x,y,1/2-z
-x,-y,-z
1/2+x,y,1/2-z
-x,y,z
1/2+x,-y,1/2+z
loop_
_atom_site_type_symbol
_atom_site_label
_atom_site_fract_x
_atom_site_fract_y
_atom_site_fract_z
Si Si1 0.750000 0.071666 0.250000
Si Si2 0.167963 0.718218 0.868001
Si Si3 0.590429 0.618311 0.111815
O O1 0.813177 0.154419 0.119511
O O2 0.779714 0.000000 0.500000
O O3 0.250000 0.671917 0.750000
O O4 0.102791 0.695976 0.643599
O O5 0.143431 0.337795 0.854843
O O6 0.500000 0.614241 0.200940
O O7 0.611770 0.500000 0.000000
#
# Coordination Sequence:
#
# PCOD9418066 Si02
#       3
#     4   8   8
#     4  10  20  38  64  86 114 154 202 258 316 342
#     4  10  22  37  61  90 113 159 205 252 284 355
#     4  11  22  38  59  87 127 165 191 233 303 365
#
# _framework density 19.145433000000001
#
# number of rings (size 3 to 8) (size 9 to 14) (size 15 to 20)
#    1.200    0.400    0.000    6.000    0.000    6.400 
#    0.000    0.000    0.000   24.000    0.000    0.000 
#    0.000    0.000    0.000    0.000    0.000    0.000 
#
# Total GULP energy -111478.221760 kJ/mol
# GULP energy per Si atom -5573.911088 kJ/mol
# Density = 1.910186 g / cm^3
# Si number density = 19.145433 Si / 1000 Ang^3
#
#
#
# Elastic Constant Matrix: (Units=GPa)
#
#
# Indices 1 2 3 4 5 6 
#
# 1 48.9394 47.6359 33.4131 0.0000 0.0000 0.0000
# 2 47.6359 119.9871 63.3499 0.0000 0.0000 0.0000
# 3 33.4131 63.3499 140.8919 0.0000 0.0000 0.0000
# 4 0.0000 0.0000 0.0000 -350.0706 0.0000 0.0000
# 5 0.0000 0.0000 0.0000 0.0000 31.8032 0.0000
# 6 0.0000 0.0000 0.0000 0.0000 0.0000 7.9454
#
#
#
# Elastic Compliance Matrix: (Units=1/GPa)
#
#
# Indices 1 2 3 4 5 6 
#
# 1 0.034023 -0.012126 -0.002616 0.000000 0.000000 0.000000
# 2 -0.012126 0.015250 -0.003981 0.000000 0.000000 0.000000
# 3 -0.002616 -0.003981 0.009508 0.000000 0.000000 0.000000
# 4 0.000000 0.000000 0.000000 -0.002857 0.000000 0.000000
# 5 0.000000 0.000000 0.000000 0.000000 0.031443 0.000000
# 6 0.000000 0.000000 0.000000 0.000000 0.000000 0.125858
#
#
# Mechanical properties :
#
#
# Convention : Reuss Voigt Hill
#
# Bulk Modulus (GPa) = 46.87359 66.51294 56.69327
# Shear Modulus (GPa) = 19.39597 -51.03644 -15.82023
#
# Velocity S-wave (km/s) = 3.18635 -5.16867 -2.87769
# Velocity P-wave (km/s) = 6.17035 0.89657 4.31679
#
# Compressibility (1/GPa) = 0.02133397
#
# Stress axis : x y z
#
# Youngs Moduli (GPa) = 29.39213 65.57207 105.17122
#
# Poissons Ratio (x) = 0.79512 0.27517
# Poissons Ratio (y) = 0.35641 0.41873
# Poissons Ratio (z) = 0.07690 0.26107
#
# Static dielectric constant tensor:
#      x y z
#    x 1.692870 0.000000 0.000000 
#    y 0.000000 1.698050 0.000000 
#    z 0.000000 0.000000 1.690150 
# 
# From -- ./inp_files/1662.got.cif
#   From: 2010.05.17/outbox.cif.g08.bks.cpg/sg53_1_cif.got.tgz:1662.got - 2010.06.03 12:45:16.
