data_PCOD9418372
_publ_section_title
;
Structure prediction by ZEFSAII (Michael W. Deem and Ramdas Pophale) SiO2 
 PCOD9418372
Probable space group: P M N A
;
_chemical_formula_sum "Si O2"
_cell_formula_units_Z 48
_cell_length_a 16.064229
_cell_length_b 15.897452
_cell_length_c 9.594875
_cell_angle_alpha 90.000000
_cell_angle_beta 90.000000
_cell_angle_gamma 90.000000
_cell_volume 2450.342147
_symmetry_space_group_name_H-M "P M N A"
_symmetry_group_IT_number 53
_symmetry_cell_setting 'orthorhombic'
loop_
_space_group_symop_operation_xyz
x,y,z
1/2-x,-y,1/2+z
x,-y,-z
1/2-x,y,1/2-z
-x,-y,-z
1/2+x,y,1/2-z
-x,y,z
1/2+x,-y,1/2+z
loop_
_atom_site_type_symbol
_atom_site_label
_atom_site_fract_x
_atom_site_fract_y
_atom_site_fract_z
Si Si1 0.739600 0.362684 0.900434
Si Si2 0.679873 0.828168 0.147282
Si Si3 0.408447 0.403399 0.454498
Si Si4 0.500000 0.885275 0.151917
Si Si5 0.661364 0.364179 0.172915
Si Si6 0.000000 0.917700 0.681384
Si Si7 0.835004 0.165556 0.333125
O O1 0.750000 0.406650 0.750000
O O2 0.702641 0.270316 0.869741
O O3 0.830769 0.356554 0.972270
O O4 0.678091 0.399747 0.018347
O O5 0.750000 0.864407 0.250000
O O6 0.585531 0.841375 0.198277
O O7 0.681414 0.865260 0.991066
O O8 0.400614 0.500000 0.500000
O O9 0.500000 0.371595 0.495849
O O10 0.400622 0.400707 0.286861
O O11 0.500000 0.982535 0.194689
O O12 0.500000 0.888893 0.982170
O O13 0.750000 0.371298 0.250000
O O14 0.643013 0.264736 0.158968
O O15 0.086614 0.880550 0.735526
O O16 0.750000 0.156689 0.250000
#
# Coordination Sequence:
#
# PCOD9418372 Si02
#       7
#     8   8   8   4   8   4   8
#     4   9  18  35  55  82 107 142 192 239 283 341
#     4   9  18  35  54  78 106 146 187 229 289 343
#     4  10  21  36  54  81 115 151 187 235 300 357
#     4   9  18  34  53  75 112 147 188 229 287 355
#     4   8  16  32  53  76 104 144 186 227 282 339
#     4   9  18  30  51  81 106 149 187 229 289 343
#     4   9  17  31  52  79 108 137 187 238 276 335
#
# _framework density 19.589100999999999
#
# number of rings (size 3 to 8) (size 9 to 14) (size 15 to 20)
#    0.000    3.000    0.000    1.000    1.167    2.667 
#    7.500    0.833    0.000    3.000    0.000    0.000 
#    0.000    0.000    0.000    0.000    0.000    0.000 
#
# Total GULP energy -267202.423155 kJ/mol
# GULP energy per Si atom -5566.717149 kJ/mol
# Density = 1.954452 g / cm^3
# Si number density = 19.589101 Si / 1000 Ang^3
#
#
#
# Elastic Constant Matrix: (Units=GPa)
#
#
# Indices 1 2 3 4 5 6 
#
# 1 155.3344 56.6762 44.2204 0.0000 0.0000 0.0000
# 2 56.6762 43.8940 7.3847 0.0000 0.0000 0.0000
# 3 44.2204 7.3847 107.9140 0.0000 0.0000 0.0000
# 4 0.0000 0.0000 0.0000 11.8287 0.0000 0.0000
# 5 0.0000 0.0000 0.0000 0.0000 24.2805 0.0000
# 6 0.0000 0.0000 0.0000 0.0000 0.0000 -52.9495
#
#
#
# Elastic Compliance Matrix: (Units=1/GPa)
#
#
# Indices 1 2 3 4 5 6 
#
# 1 0.014109 -0.017446 -0.004588 0.000000 0.000000 0.000000
# 2 -0.017446 0.044620 0.004096 0.000000 0.000000 0.000000
# 3 -0.004588 0.004096 0.010866 0.000000 0.000000 0.000000
# 4 0.000000 0.000000 0.000000 0.084540 0.000000 0.000000
# 5 0.000000 0.000000 0.000000 0.000000 0.041185 0.000000
# 6 0.000000 0.000000 0.000000 0.000000 0.000000 -0.018886
#
#
# Mechanical properties :
#
#
# Convention : Reuss Voigt Hill
#
# Bulk Modulus (GPa) = 29.65716 58.18946 43.92331
# Shear Modulus (GPa) = 22.36623 9.88932 16.12778
#
# Velocity S-wave (km/s) = 3.38267 2.24930 2.87244
# Velocity P-wave (km/s) = 5.51626 6.04279 5.78552
#
# Compressibility (1/GPa) = 0.03371867
#
# Stress axis : x y z
#
# Youngs Moduli (GPa) = 70.87547 22.41162 92.02756
#
# Poissons Ratio (x) = 0.39100 0.42220
# Poissons Ratio (y) = 1.23650 -0.37691
# Poissons Ratio (z) = 0.32516 -0.09179
#
# Static dielectric constant tensor:
#      x y z
#    x 1.712720 0.000000 0.000000 
#    y 0.000000 1.685420 0.000000 
#    z 0.000000 0.000000 1.761240 
# 
# From -- ./inp_files/8713.got.cif
#   From: 2010.05.17/outbox.cif.g08.bks.cpg/sg53_5_cif.got.tgz:8713.got - 2010.06.03 12:45:16.
