data_PCOD9418065
_publ_section_title
;
Structure prediction by ZEFSAII (Michael W. Deem and Ramdas Pophale) SiO2 
 PCOD9418065
Probable space group: P M N A
;
_chemical_formula_sum "Si O2"
_cell_formula_units_Z 48
_cell_length_a 17.784052
_cell_length_b 15.345249
_cell_length_c 9.562681
_cell_angle_alpha 90.000000
_cell_angle_beta 90.000000
_cell_angle_gamma 90.000000
_cell_volume 2609.662398
_symmetry_space_group_name_H-M "P M N A"
_symmetry_group_IT_number 53
_symmetry_cell_setting 'orthorhombic'
loop_
_space_group_symop_operation_xyz
x,y,z
1/2-x,-y,1/2+z
x,-y,-z
1/2-x,y,1/2-z
-x,-y,-z
1/2+x,y,1/2-z
-x,y,z
1/2+x,-y,1/2+z
loop_
_atom_site_type_symbol
_atom_site_label
_atom_site_fract_x
_atom_site_fract_y
_atom_site_fract_z
Si Si1 0.916946 0.154249 0.470347
Si Si2 0.912826 0.706652 0.279904
Si Si3 0.913663 0.685311 0.741715
Si Si4 0.826279 0.400387 0.504607
Si Si5 0.686072 0.268912 0.505924
Si Si6 0.256614 0.916095 0.917197
O O1 0.910464 0.213685 0.609174
O O2 0.913593 0.223025 0.342320
O O3 0.844467 0.095034 0.455505
O O4 0.000000 0.112958 0.469352
O O5 0.880241 0.624197 0.365444
O O6 0.000000 0.693479 0.240234
O O7 0.860207 0.728277 0.149399
O O8 0.872153 0.620004 0.636615
O O9 0.867580 0.697868 0.882340
O O10 0.000000 0.660246 0.765834
O O11 0.801488 0.500000 0.500000
O O12 0.757154 0.333383 0.514002
O O13 0.715855 0.172665 0.466723
O O14 0.250000 0.925330 0.750000
O O15 0.226447 0.000000 0.000000
#
# Coordination Sequence:
#
# PCOD9418065 Si02
#       6
#     8   8   8   8   8   8
#     4   9  19  39  62  84 114 157 204 245 296 363
#     4  10  22  38  62  90 120 163 205 249 309 366
#     4  10  20  38  64  85 117 163 202 248 306 366
#     4  11  23  39  63  91 123 163 209 253 304 371
#     4  12  22  40  62  92 127 156 203 264 313 364
#     4  12  25  40  64  93 124 164 208 255 312 369
#
# _framework density 18.393184000000002
#
# number of rings (size 3 to 8) (size 9 to 14) (size 15 to 20)
#    0.000    1.333    5.000    3.000    2.333    4.333 
#    0.000    0.000    0.000    5.500    0.000    0.000 
#    0.000    0.000    0.000    0.000    0.000    0.000 
#
# Total GULP energy -268078.380323 kJ/mol
# GULP energy per Si atom -5584.966257 kJ/mol
# Density = 1.835132 g / cm^3
# Si number density = 18.393184 Si / 1000 Ang^3
#
#
#
# Elastic Constant Matrix: (Units=GPa)
#
#
# Indices 1 2 3 4 5 6 
#
# 1 131.1731 36.6151 47.6785 0.0000 0.0000 0.0000
# 2 36.6151 102.4918 37.3820 0.0000 0.0000 0.0000
# 3 47.6785 37.3820 98.6312 0.0000 0.0000 0.0000
# 4 0.0000 0.0000 0.0000 -53.1169 0.0000 0.0000
# 5 0.0000 0.0000 0.0000 0.0000 31.7442 0.0000
# 6 0.0000 0.0000 0.0000 0.0000 0.0000 0.0782
#
#
#
# Elastic Compliance Matrix: (Units=1/GPa)
#
#
# Indices 1 2 3 4 5 6 
#
# 1 0.009594 -0.002014 -0.003874 0.000000 0.000000 0.000000
# 2 -0.002014 0.011745 -0.003478 0.000000 0.000000 0.000000
# 3 -0.003874 -0.003478 0.013330 0.000000 0.000000 0.000000
# 4 0.000000 0.000000 0.000000 -0.018826 0.000000 0.000000
# 5 0.000000 0.000000 0.000000 0.000000 0.031502 0.000000
# 6 0.000000 0.000000 0.000000 0.000000 0.000000 12.779687
#
#
# Mechanical properties :
#
#
# Convention : Reuss Voigt Hill
#
# Bulk Modulus (GPa) = 62.75123 63.96083 63.35603
# Shear Modulus (GPa) = 0.38907 9.78249 5.08578
#
# Velocity S-wave (km/s) = 0.46042 2.30870 1.66464
# Velocity P-wave (km/s) = 5.87140 6.47738 6.18182
#
# Compressibility (1/GPa) = 0.01593594
#
# Stress axis : x y z
#
# Youngs Moduli (GPa) = 104.23157 85.14317 75.02052
#
# Poissons Ratio (x) = 0.17151 0.29065
# Poissons Ratio (y) = 0.20996 0.26090
# Poissons Ratio (z) = 0.40383 0.29610
#
# Static dielectric constant tensor:
#      x y z
#    x 1.641680 0.000000 0.000000 
#    y 0.000000 1.632750 0.000000 
#    z 0.000000 0.000000 1.611070 
# 
# From -- ./inp_files/9918.got.cif
#   From: 2010.05.17/outbox.cif.g08.bks.cpg/sg53_5_cif.got.tgz:9918.got - 2010.06.03 12:45:16.
