data_PCOD9418869
_publ_section_title
;
Structure prediction by ZEFSAII (Michael W. Deem and Ramdas Pophale) SiO2 
 PCOD9418869
Probable space group: P M N A
;
_chemical_formula_sum "Si O2"
_cell_formula_units_Z 56
_cell_length_a 19.157829
_cell_length_b 9.461130
_cell_length_c 14.790745
_cell_angle_alpha 90.000000
_cell_angle_beta 90.000000
_cell_angle_gamma 90.000000
_cell_volume 2680.892206
_symmetry_space_group_name_H-M "P M N A"
_symmetry_group_IT_number 53
_symmetry_cell_setting 'orthorhombic'
loop_
_space_group_symop_operation_xyz
x,y,z
1/2-x,-y,1/2+z
x,-y,-z
1/2-x,y,1/2-z
-x,-y,-z
1/2+x,y,1/2-z
-x,y,z
1/2+x,-y,1/2+z
loop_
_atom_site_type_symbol
_atom_site_label
_atom_site_fract_x
_atom_site_fract_y
_atom_site_fract_z
Si Si1 0.176096 0.141249 0.052069
Si Si2 0.795221 0.333105 0.486298
Si Si3 0.417232 0.744252 0.857087
Si Si4 0.190170 0.729062 0.315509
Si Si5 0.582683 0.357492 0.557010
Si Si6 0.418547 0.463962 0.754820
Si Si7 0.332769 0.038999 0.254011
O O1 0.143861 0.084793 0.145902
O O2 0.237470 0.253441 0.073980
O O3 0.123378 0.228785 0.988425
O O4 0.200787 0.000000 0.000000
O O5 0.781813 0.500000 0.500000
O O6 0.870843 0.308242 0.441672
O O7 0.784426 0.254444 0.582450
O O8 0.500000 0.758239 0.876139
O O9 0.409066 0.628301 0.776586
O O10 0.380513 0.883883 0.819311
O O11 0.250000 0.668894 0.250000
O O12 0.127278 0.620613 0.325411
O O13 0.165608 0.872812 0.268242
O O14 0.593593 0.500000 0.500000
O O15 0.500000 0.326492 0.557742
O O16 0.604121 0.403347 0.657903
O O17 0.500000 0.434070 0.764661
O O18 0.250000 0.074630 0.250000
#
# Coordination Sequence:
#
# PCOD9418869 Si02
#       7
#     8   8   8   8   8   8   8
#     4  12  24  41  68 100 138 180 230 284 346 413
#     4  12  25  44  68 100 134 175 228 289 339 413
#     4  11  25  44  69 100 134 181 229 282 344 409
#     4  11  24  42  66  97 131 174 222 276 338 402
#     4  10  21  39  64  97 134 177 227 285 342 403
#     4  10  21  40  63  92 131 170 220 277 336 396
#     4  11  23  43  65  93 136 176 222 280 336 406
#
# _framework density 20.888566999999998
#
# number of rings (size 3 to 8) (size 9 to 14) (size 15 to 20)
#    0.000    1.000    2.857    4.714    0.000    5.143 
#    0.000    0.714    0.000    0.000    0.000    0.000 
#    0.000    0.000    0.000    0.000    0.000    0.000 
#
# Total GULP energy -312733.739110 kJ/mol
# GULP energy per Si atom -5584.531056 kJ/mol
# Density = 2.084102 g / cm^3
# Si number density = 20.888567 Si / 1000 Ang^3
#
#
#
# Elastic Constant Matrix: (Units=GPa)
#
#
# Indices 1 2 3 4 5 6 
#
# 1 75.5646 39.4134 7.1968 0.0000 0.0000 0.0000
# 2 39.4134 70.1829 -2.0958 0.0000 0.0000 0.0000
# 3 7.1968 -2.0958 52.5215 0.0000 0.0000 0.0000
# 4 0.0000 0.0000 0.0000 26.9394 0.0000 0.0000
# 5 0.0000 0.0000 0.0000 0.0000 31.3951 0.0000
# 6 0.0000 0.0000 0.0000 0.0000 0.0000 23.7481
#
#
#
# Elastic Compliance Matrix: (Units=1/GPa)
#
#
# Indices 1 2 3 4 5 6 
#
# 1 0.019196 -0.010872 -0.003064 0.000000 0.000000 0.000000
# 2 -0.010872 0.020423 0.002305 0.000000 0.000000 0.000000
# 3 -0.003064 0.002305 0.019552 0.000000 0.000000 0.000000
# 4 0.000000 0.000000 0.000000 0.037120 0.000000 0.000000
# 5 0.000000 0.000000 0.000000 0.000000 0.031852 0.000000
# 6 0.000000 0.000000 0.000000 0.000000 0.000000 0.042109
#
#
# Mechanical properties :
#
#
# Convention : Reuss Voigt Hill
#
# Bulk Modulus (GPa) = 27.84900 31.92199 29.88549
# Shear Modulus (GPa) = 24.33291 26.66681 25.49986
#
# Velocity S-wave (km/s) = 3.41675 3.57686 3.49772
# Velocity P-wave (km/s) = 5.37836 5.68980 5.53627
#
# Compressibility (1/GPa) = 0.03590793
#
# Stress axis : x y z
#
# Youngs Moduli (GPa) = 52.09415 48.96540 51.14657
#
# Poissons Ratio (x) = 0.53233 0.15672
# Poissons Ratio (y) = 0.56635 -0.11787
# Poissons Ratio (z) = 0.15963 -0.11285
#
# Static dielectric constant tensor:
#      x y z
#    x 1.740750 0.000000 0.000000 
#    y 0.000000 1.728300 0.000000 
#    z 0.000000 0.000000 1.868060 
# 
# From -- ./inp_files/24309.got.cif
#   From: 2010.05.17/outbox.cif.g08.bks.cpg/sg53_13_cif.got.tgz:24309.got - 2010.06.03 12:45:16.
