data_PCOD9418022
_publ_section_title
;
Structure prediction by ZEFSAII (Michael W. Deem and Ramdas Pophale) SiO2 
 PCOD9418022
Probable space group: P M N A
;
_chemical_formula_sum "Si O2"
_cell_formula_units_Z 64
_cell_length_a 25.654253
_cell_length_b 14.710927
_cell_length_c 9.240959
_cell_angle_alpha 90.000000
_cell_angle_beta 90.000000
_cell_angle_gamma 90.000000
_cell_volume 3487.517995
_symmetry_space_group_name_H-M "P M N A"
_symmetry_group_IT_number 53
_symmetry_cell_setting 'orthorhombic'
loop_
_space_group_symop_operation_xyz
x,y,z
1/2-x,-y,1/2+z
x,-y,-z
1/2-x,y,1/2-z
-x,-y,-z
1/2+x,y,1/2-z
-x,y,z
1/2+x,-y,1/2+z
loop_
_atom_site_type_symbol
_atom_site_label
_atom_site_fract_x
_atom_site_fract_y
_atom_site_fract_z
Si Si1 0.939148 0.232315 0.073848
Si Si2 0.848149 0.096976 0.075030
Si Si3 0.106527 0.591628 0.084273
Si Si4 0.439240 0.769388 0.919026
Si Si5 0.768225 0.591624 0.084556
Si Si6 0.348490 0.095491 0.078830
Si Si7 0.062779 0.587101 0.405776
Si Si8 0.250851 0.776341 0.923290
O O1 0.901975 0.147718 0.035770
O O2 0.933137 0.247978 0.246874
O O3 0.000000 0.215474 0.043871
O O4 0.919484 0.321222 0.990613
O O5 0.847357 0.082535 0.247977
O O6 0.801058 0.166206 0.039684
O O7 0.842096 0.000000 0.000000
O O8 0.169003 0.598704 0.077193
O O9 0.088930 0.586098 0.249904
O O10 0.090632 0.500000 0.000000
O O11 0.500000 0.790058 0.945725
O O12 0.401540 0.851768 0.959174
O O13 0.425014 0.679086 0.007219
O O14 0.750000 0.587116 0.250000
O O15 0.752468 0.500000 0.000000
O O16 0.746805 0.681602 0.006797
O O17 0.300335 0.161087 0.042041
O O18 0.344132 0.000000 0.000000
O O19 0.078723 0.500000 0.500000
O O20 0.000000 0.583238 0.387551
O O21 0.250000 0.759368 0.750000
#
# Coordination Sequence:
#
# PCOD9418022 Si02
#       8
#     8   8   8   8   8   8   8   8
#     4  10  20  38  61  86 118 157 199 242 295 349
#     4  10  21  38  59  85 120 152 191 247 298 348
#     4  11  23  38  59  87 118 153 196 240 292 349
#     4   9  20  38  59  85 121 158 195 242 294 348
#     4  11  25  42  60  89 122 156 193 240 293 351
#     4  10  22  37  60  89 113 154 199 239 298 353
#     4  10  21  37  57  86 120 155 196 240 286 342
#     4  10  21  41  64  86 117 153 197 246 294 350
#
# _framework density 18.351158999999999
#
# number of rings (size 3 to 8) (size 9 to 14) (size 15 to 20)
#    0.000    1.875    1.250    1.875    1.750    5.000 
#    0.000    0.000    0.000    0.000    0.000    0.000 
#    0.000    0.000    0.000    0.000    0.000    0.000 
#
# Total GULP energy -357582.521520 kJ/mol
# GULP energy per Si atom -5587.226899 kJ/mol
# Density = 1.830939 g / cm^3
# Si number density = 18.351159 Si / 1000 Ang^3
#
#
#
# Elastic Constant Matrix: (Units=GPa)
#
#
# Indices 1 2 3 4 5 6 
#
# 1 85.1349 74.9560 51.0818 0.0000 0.0000 0.0000
# 2 74.9560 189.5111 88.4705 0.0000 0.0000 0.0000
# 3 51.0818 88.4705 75.4606 0.0000 0.0000 0.0000
# 4 0.0000 0.0000 0.0000 42.0533 0.0000 0.0000
# 5 0.0000 0.0000 0.0000 0.0000 20.1247 0.0000
# 6 0.0000 0.0000 0.0000 0.0000 0.0000 13.7207
#
#
#
# Elastic Compliance Matrix: (Units=1/GPa)
#
#
# Indices 1 2 3 4 5 6 
#
# 1 0.020873 -0.003666 -0.009831 0.000000 0.000000 0.000000
# 2 -0.003666 0.012301 -0.011940 0.000000 0.000000 0.000000
# 3 -0.009831 -0.011940 0.033905 0.000000 0.000000 0.000000
# 4 0.000000 0.000000 0.000000 0.023779 0.000000 0.000000
# 5 0.000000 0.000000 0.000000 0.000000 0.049690 0.000000
# 6 0.000000 0.000000 0.000000 0.000000 0.000000 0.072883
#
#
# Mechanical properties :
#
#
# Convention : Reuss Voigt Hill
#
# Bulk Modulus (GPa) = 61.71131 86.56922 74.14027
# Shear Modulus (GPa) = 18.53870 24.21962 21.37916
#
# Velocity S-wave (km/s) = 3.18184 3.63683 3.41692
# Velocity P-wave (km/s) = 6.87022 8.05677 7.48703
#
# Compressibility (1/GPa) = 0.01620448
#
# Stress axis : x y z
#
# Youngs Moduli (GPa) = 47.90956 81.29717 29.49399
#
# Poissons Ratio (x) = 0.29803 0.28997
# Poissons Ratio (y) = 0.17564 0.35215
# Poissons Ratio (z) = 0.47102 0.97066
#
# Static dielectric constant tensor:
#      x y z
#    x 1.634740 0.000000 0.000000 
#    y 0.000000 1.588650 0.000000 
#    z 0.000000 0.000000 1.603270 
# 
# From -- ./inp_files/11921.got.cif
#   From: 2010.05.17/outbox.cif.g08.bks.cpg/sg53_6_cif.got.tgz:11921.got - 2010.06.03 12:45:16.
