data_PCOD9418251
_publ_section_title
;
Structure prediction by ZEFSAII (Michael W. Deem and Ramdas Pophale) SiO2 
 PCOD9418251
Probable space group: P M N A
;
_chemical_formula_sum "Si O2"
_cell_formula_units_Z 58
_cell_length_a 27.645270
_cell_length_b 11.362361
_cell_length_c 9.321813
_cell_angle_alpha 90.000000
_cell_angle_beta 90.000000
_cell_angle_gamma 90.000000
_cell_volume 2928.126303
_symmetry_space_group_name_H-M "P M N A"
_symmetry_group_IT_number 53
_symmetry_cell_setting 'orthorhombic'
loop_
_space_group_symop_operation_xyz
x,y,z
1/2-x,-y,1/2+z
x,-y,-z
1/2-x,y,1/2-z
-x,-y,-z
1/2+x,y,1/2-z
-x,y,z
1/2+x,-y,1/2+z
loop_
_atom_site_type_symbol
_atom_site_label
_atom_site_fract_x
_atom_site_fract_y
_atom_site_fract_z
Si Si1 0.444593 0.308458 0.037704
Si Si2 0.593566 0.546603 0.707153
Si Si3 0.114480 0.702868 0.266120
Si Si4 0.118726 0.216873 0.049935
Si Si5 0.646512 0.070412 0.855668
Si Si6 0.711194 0.930010 0.637021
Si Si7 0.056680 0.075971 0.273098
Si Si8 0.000000 0.500000 0.000000
O O1 0.500000 0.339112 0.056758
O O2 0.415405 0.399327 0.135478
O O3 0.437715 0.178569 0.106810
O O4 0.430809 0.309827 0.872058
O O5 0.626072 0.430393 0.722530
O O6 0.616028 0.653843 0.617866
O O7 0.543369 0.515844 0.624096
O O8 0.149267 0.788475 0.358111
O O9 0.107039 0.770419 0.116992
O O10 0.171072 0.160962 0.079991
O O11 0.078883 0.135844 0.130128
O O12 0.680973 0.023001 0.731597
O O13 0.591618 0.030174 0.816633
O O14 0.657779 0.000000 0.000000
O O15 0.750000 0.880016 0.750000
O O16 0.731914 0.000000 0.500000
O O17 0.000000 0.046957 0.260209
#
# Coordination Sequence:
#
# PCOD9418251 Si02
#       8
#     8   8   8   8   8   8   8   2
#     4  10  21  34  52  79 124 170 230 277 307 357
#     4  11  23  38  56  88 126 181 224 270 316 365
#     4  12  22  35  58  86 119 170 209 262 316 377
#     4  10  22  40  62  87 125 163 209 263 320 383
#     4  11  22  40  60  89 127 160 207 257 316 380
#     4  11  23  44  73 100 122 151 198 263 329 397
#     4   9  20  36  53  79 122 170 204 256 310 370
#     4  12  20  36  62  80 132 182 238 270 306 380
#
# _framework density 19.807887999999998
#
# number of rings (size 3 to 8) (size 9 to 14) (size 15 to 20)
#    0.000    1.379    4.828    0.828    1.931    1.931 
#    0.000    0.690    0.000    0.828    3.586    0.000 
#    0.000    0.000    0.000    0.000    0.000    0.000 
#
# Total GULP energy -323121.864415 kJ/mol
# GULP energy per Si atom -5571.066628 kJ/mol
# Density = 1.976280 g / cm^3
# Si number density = 19.807888 Si / 1000 Ang^3
#
#
#
# Elastic Constant Matrix: (Units=GPa)
#
#
# Indices 1 2 3 4 5 6 
#
# 1 67.4543 23.1002 35.7406 0.0000 0.0000 0.0000
# 2 23.1002 94.3393 32.8099 0.0000 0.0000 0.0000
# 3 35.7406 32.8099 140.3428 0.0000 0.0000 0.0000
# 4 0.0000 0.0000 0.0000 25.0118 0.0000 0.0000
# 5 0.0000 0.0000 0.0000 0.0000 20.5670 0.0000
# 6 0.0000 0.0000 0.0000 0.0000 0.0000 7.1218
#
#
#
# Elastic Compliance Matrix: (Units=1/GPa)
#
#
# Indices 1 2 3 4 5 6 
#
# 1 0.017907 -0.003046 -0.003848 0.000000 0.000000 0.000000
# 2 -0.003046 0.012056 -0.002043 0.000000 0.000000 0.000000
# 3 -0.003848 -0.002043 0.008583 0.000000 0.000000 0.000000
# 4 0.000000 0.000000 0.000000 0.039981 0.000000 0.000000
# 5 0.000000 0.000000 0.000000 0.000000 0.048621 0.000000
# 6 0.000000 0.000000 0.000000 0.000000 0.000000 0.140414
#
#
# Mechanical properties :
#
#
# Convention : Reuss Voigt Hill
#
# Bulk Modulus (GPa) = 48.37513 53.93755 51.15634
# Shear Modulus (GPa) = 17.10408 24.57252 20.83830
#
# Velocity S-wave (km/s) = 2.94172 3.52595 3.24700
# Velocity P-wave (km/s) = 6.00112 6.62314 6.31979
#
# Compressibility (1/GPa) = 0.02067178
#
# Stress axis : x y z
#
# Youngs Moduli (GPa) = 55.84393 82.94322 116.50987
#
# Poissons Ratio (x) = 0.25268 0.44834
# Poissons Ratio (y) = 0.17013 0.23800
# Poissons Ratio (z) = 0.21489 0.16943
#
# Static dielectric constant tensor:
#      x y z
#    x 1.667640 0.000000 0.000000 
#    y 0.000000 1.745510 0.000000 
#    z 0.000000 0.000000 1.750310 
# 
# From -- ./inp_files/13189.got.cif
#   From: 2010.05.17/outbox.cif.g08.bks.cpg/sg53_7_cif.got.tgz:13189.got - 2010.06.03 12:45:16.
