data_PCOD9418213
_publ_section_title
;
Structure prediction by ZEFSAII (Michael W. Deem and Ramdas Pophale) SiO2 
 PCOD9418213
Probable space group: P M N A
;
_chemical_formula_sum "Si O2"
_cell_formula_units_Z 40
_cell_length_a 16.610303
_cell_length_b 12.089321
_cell_length_c 8.837609
_cell_angle_alpha 90.000000
_cell_angle_beta 90.000000
_cell_angle_gamma 90.000000
_cell_volume 1774.656268
_symmetry_space_group_name_H-M "P M N A"
_symmetry_group_IT_number 53
_symmetry_cell_setting 'orthorhombic'
loop_
_space_group_symop_operation_xyz
x,y,z
1/2-x,-y,1/2+z
x,-y,-z
1/2-x,y,1/2-z
-x,-y,-z
1/2+x,y,1/2-z
-x,y,z
1/2+x,-y,1/2+z
loop_
_atom_site_type_symbol
_atom_site_label
_atom_site_fract_x
_atom_site_fract_y
_atom_site_fract_z
Si Si1 0.905464 0.874832 0.559480
Si Si2 0.297252 0.691419 0.095078
Si Si3 0.132002 0.661884 0.958079
Si Si4 0.409660 0.521782 0.244250
Si Si5 0.093869 0.903817 0.895874
O O1 0.854850 0.788908 0.460768
O O2 0.871428 0.883327 0.729797
O O3 0.000000 0.840335 0.561654
O O4 0.902362 0.000000 0.500000
O O5 0.250000 0.722943 0.250000
O O6 0.347710 0.581876 0.134501
O O7 0.227970 0.665322 0.974720
O O8 0.108246 0.602108 0.801970
O O9 0.099351 0.785296 0.973893
O O10 0.098368 0.592506 0.099850
O O11 0.500000 0.528667 0.186080
O O12 0.000000 0.934517 0.870055
O O13 0.130272 0.000000 0.000000
#
# Coordination Sequence:
#
# PCOD9418213 Si02
#       5
#     8   8   8   8   8
#     4  10  23  44  68  96 134 178 230 283 339 410
#     4  10  23  41  61 100 135 176 225 288 356 412
#     4  10  21  40  62  97 132 172 223 281 338 417
#     4  10  20  40  70  93 125 176 228 281 337 409
#     4  10  22  40  67 100 133 176 227 280 337 410
#
# _framework density 22.539574999999999
#
# number of rings (size 3 to 8) (size 9 to 14) (size 15 to 20)
#    0.000    2.000    0.000    3.000    5.600    1.600 
#   21.600    0.000    0.000    3.600    0.000    0.000 
#    0.000    0.000    0.000    0.000    0.000    0.000 
#
# Total GULP energy -223697.991877 kJ/mol
# GULP energy per Si atom -5592.449797 kJ/mol
# Density = 2.248827 g / cm^3
# Si number density = 22.539575 Si / 1000 Ang^3
#
#
#
# Elastic Constant Matrix: (Units=GPa)
#
#
# Indices 1 2 3 4 5 6 
#
# 1 107.4852 19.3281 32.3317 0.0000 0.0000 0.0000
# 2 19.3281 120.7282 44.9886 0.0000 0.0000 0.0000
# 3 32.3317 44.9886 76.4078 0.0000 0.0000 0.0000
# 4 0.0000 0.0000 0.0000 30.2274 0.0000 0.0000
# 5 0.0000 0.0000 0.0000 0.0000 10.6733 0.0000
# 6 0.0000 0.0000 0.0000 0.0000 0.0000 35.0422
#
#
#
# Elastic Compliance Matrix: (Units=1/GPa)
#
#
# Indices 1 2 3 4 5 6 
#
# 1 0.010661 -0.000033 -0.004492 0.000000 0.000000 0.000000
# 2 -0.000033 0.010611 -0.006234 0.000000 0.000000 0.000000
# 3 -0.004492 -0.006234 0.018659 0.000000 0.000000 0.000000
# 4 0.000000 0.000000 0.000000 0.033083 0.000000 0.000000
# 5 0.000000 0.000000 0.000000 0.000000 0.093692 0.000000
# 6 0.000000 0.000000 0.000000 0.000000 0.000000 0.028537
#
#
# Mechanical properties :
#
#
# Convention : Reuss Voigt Hill
#
# Bulk Modulus (GPa) = 54.30729 55.32421 54.81575
# Shear Modulus (GPa) = 22.43188 29.05345 25.74266
#
# Velocity S-wave (km/s) = 3.15814 3.59416 3.38318
# Velocity P-wave (km/s) = 6.11923 6.46704 6.29553
#
# Compressibility (1/GPa) = 0.01841373
#
# Stress axis : x y z
#
# Youngs Moduli (GPa) = 93.80330 94.23823 53.59392
#
# Poissons Ratio (x) = 0.00311 0.24072
# Poissons Ratio (y) = 0.00309 0.33410
# Poissons Ratio (z) = 0.42133 0.58748
#
# Static dielectric constant tensor:
#      x y z
#    x 1.836260 0.000000 0.000000 
#    y 0.000000 1.837050 0.000000 
#    z 0.000000 0.000000 1.882200 
# 
# From -- ./inp_files/9659.got.cif
#   From: 2010.05.17/outbox.cif.g08.bks.cpg/sg53_5_cif.got.tgz:9659.got - 2010.06.03 12:45:16.
