data_PCOD9418742
_publ_section_title
;
Structure prediction by ZEFSAII (Michael W. Deem and Ramdas Pophale) SiO2 
 PCOD9418742
Probable space group: P M N A
;
_chemical_formula_sum "Si O2"
_cell_formula_units_Z 22
_cell_length_a 9.853341
_cell_length_b 14.023498
_cell_length_c 7.483669
_cell_angle_alpha 90.000000
_cell_angle_beta 90.000000
_cell_angle_gamma 90.000000
_cell_volume 1034.080719
_symmetry_space_group_name_H-M "P M N A"
_symmetry_group_IT_number 53
_symmetry_cell_setting 'orthorhombic'
loop_
_space_group_symop_operation_xyz
x,y,z
1/2-x,-y,1/2+z
x,-y,-z
1/2-x,y,1/2-z
-x,-y,-z
1/2+x,y,1/2-z
-x,y,z
1/2+x,-y,1/2+z
loop_
_atom_site_type_symbol
_atom_site_label
_atom_site_fract_x
_atom_site_fract_y
_atom_site_fract_z
Si Si1 0.750000 0.074173 0.250000
Si Si2 0.841387 0.602596 0.580064
Si Si3 0.500000 0.000000 0.500000
Si Si4 0.845087 0.804207 0.411374
O O1 0.622475 0.022568 0.348009
O O2 0.811161 0.140319 0.407765
O O3 0.803591 0.500000 0.500000
O O4 0.750000 0.622248 0.750000
O O5 0.826243 0.691317 0.447478
O O6 0.000000 0.598095 0.631333
O O7 0.750000 0.833026 0.250000
O O8 0.000000 0.820946 0.359710
#
# Coordination Sequence:
#
# PCOD9418742 Si02
#       4
#     4   8   2   8
#     4  12  28  52  76 112 142 194 240 316 370 464
#     4  10  21  38  62  99 144 188 241 293 349 424
#     4  12  32  52  84 108 154 186 256 314 392 446
#     4  11  25  44  73 106 146 193 242 296 368 438
#
# _framework density 21.274933999999998
#
# number of rings (size 3 to 8) (size 9 to 14) (size 15 to 20)
#    0.000    1.091    3.636    1.091    5.091    2.909 
#    0.000    0.000    0.000    0.000    0.000    0.000 
#    0.000    0.000    0.000    0.000    0.000    0.000 
#
# Total GULP energy -122485.577554 kJ/mol
# GULP energy per Si atom -5567.526252 kJ/mol
# Density = 2.122651 g / cm^3
# Si number density = 21.274934 Si / 1000 Ang^3
#
#
#
# Elastic Constant Matrix: (Units=GPa)
#
#
# Indices 1 2 3 4 5 6 
#
# 1 159.1073 66.8130 104.5086 0.0000 0.0000 0.0000
# 2 66.8130 111.5188 50.8683 0.0000 0.0000 0.0000
# 3 104.5086 50.8683 161.7398 0.0000 0.0000 0.0000
# 4 0.0000 0.0000 0.0000 21.3675 0.0000 0.0000
# 5 0.0000 0.0000 0.0000 0.0000 58.7259 0.0000
# 6 0.0000 0.0000 0.0000 0.0000 0.0000 23.0544
#
#
#
# Elastic Compliance Matrix: (Units=1/GPa)
#
#
# Indices 1 2 3 4 5 6 
#
# 1 0.012576 -0.004469 -0.006721 0.000000 0.000000 0.000000
# 2 -0.004469 0.012057 -0.000904 0.000000 0.000000 0.000000
# 3 -0.006721 -0.000904 0.010810 0.000000 0.000000 0.000000
# 4 0.000000 0.000000 0.000000 0.046800 0.000000 0.000000
# 5 0.000000 0.000000 0.000000 0.000000 0.017028 0.000000
# 6 0.000000 0.000000 0.000000 0.000000 0.000000 0.043376
#
#
# Mechanical properties :
#
#
# Convention : Reuss Voigt Hill
#
# Bulk Modulus (GPa) = 88.84932 97.41618 93.13275
# Shear Modulus (GPa) = 29.31068 34.64130 31.97599
#
# Velocity S-wave (km/s) = 3.71578 4.03956 3.88105
# Velocity P-wave (km/s) = 7.76289 8.22472 7.99714
#
# Compressibility (1/GPa) = 0.01125501
#
# Stress axis : x y z
#
# Youngs Moduli (GPa) = 79.51623 82.93865 92.50980
#
# Poissons Ratio (x) = 0.37066 0.62171
# Poissons Ratio (y) = 0.35536 0.08366
# Poissons Ratio (z) = 0.53439 0.07501
#
# Static dielectric constant tensor:
#      x y z
#    x 1.732130 0.000000 0.000000 
#    y 0.000000 1.859070 0.000000 
#    z 0.000000 0.000000 1.715680 
# 
# From -- ./inp_files/5761.got.cif
#   From: 2010.05.17/outbox.cif.g08.bks.cpg/sg53_3_cif.got.tgz:5761.got - 2010.06.03 12:45:16.
