data_PCOD9418138
_publ_section_title
;
Structure prediction by ZEFSAII (Michael W. Deem and Ramdas Pophale) SiO2 
 PCOD9418138
Probable space group: P M N A
;
_chemical_formula_sum "Si O2"
_cell_formula_units_Z 48
_cell_length_a 14.926873
_cell_length_b 9.679447
_cell_length_c 17.448492
_cell_angle_alpha 90.000000
_cell_angle_beta 90.000000
_cell_angle_gamma 90.000000
_cell_volume 2521.025756
_symmetry_space_group_name_H-M "P M N A"
_symmetry_group_IT_number 53
_symmetry_cell_setting 'orthorhombic'
loop_
_space_group_symop_operation_xyz
x,y,z
1/2-x,-y,1/2+z
x,-y,-z
1/2-x,y,1/2-z
-x,-y,-z
1/2+x,y,1/2-z
-x,y,z
1/2+x,-y,1/2+z
loop_
_atom_site_type_symbol
_atom_site_label
_atom_site_fract_x
_atom_site_fract_y
_atom_site_fract_z
Si Si1 0.815703 0.519287 0.408319
Si Si2 0.695503 0.742592 0.623893
Si Si3 0.000000 0.845337 0.230186
Si Si4 0.500000 0.620059 0.658963
Si Si5 0.309860 0.766560 0.450187
Si Si6 0.000000 0.439401 0.683482
Si Si7 0.000000 0.661146 0.075787
Si Si8 0.182998 0.967488 0.189762
O O1 0.830874 0.500000 0.500000
O O2 0.757598 0.394012 0.371534
O O3 0.753745 0.655787 0.408138
O O4 0.909484 0.533669 0.364591
O O5 0.592336 0.701949 0.643687
O O6 0.716971 0.794036 0.537170
O O7 0.711744 0.875596 0.675817
O O8 0.000000 0.723241 0.292732
O O9 0.086143 0.942580 0.226720
O O10 0.000000 0.754027 0.152641
O O11 0.500000 0.540767 0.741654
O O12 0.500000 0.497126 0.597576
O O13 0.407512 0.699390 0.463022
O O14 0.317214 0.893947 0.392876
O O15 0.250000 0.898522 0.250000
#
# Coordination Sequence:
#
# PCOD9418138 Si02
#       8
#     8   8   4   4   8   4   4   8
#     4  10  22  39  63  89 117 157 209 259 305 361
#     4  11  23  37  59  93 122 156 195 249 319 369
#     4   9  21  39  56  86 110 163 204 237 290 359
#     4  11  22  35  57  91 126 153 185 253 311 369
#     4  10  20  39  63  86 120 159 201 248 300 369
#     4  11  23  39  62  85 124 165 213 252 303 355
#     4   9  17  33  58  88 115 144 190 233 297 358
#     4  11  23  39  59  85 122 159 202 250 299 369
#
# _framework density 19.039870000000001
#
# number of rings (size 3 to 8) (size 9 to 14) (size 15 to 20)
#    0.000    1.667    1.667    2.750    2.333    0.667 
#    0.000    3.333    0.000    0.000    0.000    8.167 
#    0.000    0.000    0.000    0.000    0.000    0.000 
#
# Total GULP energy -267585.341752 kJ/mol
# GULP energy per Si atom -5574.694620 kJ/mol
# Density = 1.899653 g / cm^3
# Si number density = 19.039870 Si / 1000 Ang^3
#
#
#
# Elastic Constant Matrix: (Units=GPa)
#
#
# Indices 1 2 3 4 5 6 
#
# 1 126.8759 33.0373 46.9076 0.0000 0.0000 0.0000
# 2 33.0373 78.4961 46.6993 0.0000 0.0000 0.0000
# 3 46.9076 46.6993 66.1385 0.0000 0.0000 0.0000
# 4 0.0000 0.0000 0.0000 27.3033 0.0000 0.0000
# 5 0.0000 0.0000 0.0000 0.0000 30.0126 0.0000
# 6 0.0000 0.0000 0.0000 0.0000 0.0000 15.4132
#
#
#
# Elastic Compliance Matrix: (Units=1/GPa)
#
#
# Indices 1 2 3 4 5 6 
#
# 1 0.010683 0.000020 -0.007591 0.000000 0.000000 0.000000
# 2 0.000020 0.021967 -0.015525 0.000000 0.000000 0.000000
# 3 -0.007591 -0.015525 0.031465 0.000000 0.000000 0.000000
# 4 0.000000 0.000000 0.000000 0.036626 0.000000 0.000000
# 5 0.000000 0.000000 0.000000 0.000000 0.033319 0.000000
# 6 0.000000 0.000000 0.000000 0.000000 0.000000 0.064879
#
#
# Mechanical properties :
#
#
# Convention : Reuss Voigt Hill
#
# Bulk Modulus (GPa) = 55.79111 58.31098 57.05105
# Shear Modulus (GPa) = 19.91197 24.20357 22.05777
#
# Velocity S-wave (km/s) = 3.23740 3.56926 3.40737
# Velocity P-wave (km/s) = 6.58333 6.90495 6.74606
#
# Compressibility (1/GPa) = 0.01792400
#
# Stress axis : x y z
#
# Youngs Moduli (GPa) = 93.60731 45.52233 31.78142
#
# Poissons Ratio (x) = -0.00089 0.24124
# Poissons Ratio (y) = -0.00183 0.49339
# Poissons Ratio (z) = 0.71053 0.70672
#
# Static dielectric constant tensor:
#      x y z
#    x 1.513260 0.000000 0.000000 
#    y 0.000000 1.660740 0.000000 
#    z 0.000000 0.000000 1.678800 
# 
# From -- ./inp_files/28333.got.cif
#   From: 2010.05.17/outbox.cif.g08.bks.cpg/sg53_15_cif.got.tgz:28333.got - 2010.06.03 12:45:16.
