data_PCOD9418441
_publ_section_title
;
Structure prediction by ZEFSAII (Michael W. Deem and Ramdas Pophale) SiO2 
 PCOD9418441
Probable space group: P M N A
;
_chemical_formula_sum "Si O2"
_cell_formula_units_Z 64
_cell_length_a 16.504139
_cell_length_b 17.954612
_cell_length_c 9.786834
_cell_angle_alpha 90.000000
_cell_angle_beta 90.000000
_cell_angle_gamma 90.000000
_cell_volume 2900.087619
_symmetry_space_group_name_H-M "P M N A"
_symmetry_group_IT_number 53
_symmetry_cell_setting 'orthorhombic'
loop_
_space_group_symop_operation_xyz
x,y,z
1/2-x,-y,1/2+z
x,-y,-z
1/2-x,y,1/2-z
-x,-y,-z
1/2+x,y,1/2-z
-x,y,z
1/2+x,-y,1/2+z
loop_
_atom_site_type_symbol
_atom_site_label
_atom_site_fract_x
_atom_site_fract_y
_atom_site_fract_z
Si Si1 0.650466 0.818884 0.337804
Si Si2 0.591377 0.025696 0.657101
Si Si3 0.098642 0.570959 0.094464
Si Si4 0.098243 0.513097 0.650450
Si Si5 0.173362 0.210864 0.546699
Si Si6 0.092582 0.718299 0.950539
Si Si7 0.097189 0.314453 0.336183
Si Si8 0.317514 0.059181 0.126570
O O1 0.654038 0.907232 0.325596
O O2 0.735722 0.789038 0.394576
O O3 0.592750 0.790794 0.457097
O O4 0.623903 0.792421 0.188544
O O5 0.500000 0.054638 0.672515
O O6 0.599552 0.000000 0.500000
O O7 0.607727 0.967956 0.779040
O O8 0.129012 0.547694 0.243195
O O9 0.128841 0.648575 0.033401
O O10 0.000000 0.575848 0.102040
O O11 0.116694 0.500000 0.000000
O O12 0.130692 0.500000 0.500000
O O13 0.112635 0.598444 0.691775
O O14 0.000000 0.505692 0.646442
O O15 0.146112 0.281843 0.462027
O O16 0.167745 0.137696 0.450153
O O17 0.000000 0.695804 0.921897
O O18 0.126684 0.728445 0.799839
O O19 0.000000 0.304823 0.362474
O O20 0.250000 0.064223 0.250000
O O21 0.302386 0.000000 0.000000
#
# Coordination Sequence:
#
# PCOD9418441 Si02
#       8
#     8   8   8   8   8   8   8   8
#     4  11  24  46  61  89 122 167 216 253 308 378
#     4  11  25  44  68  97 130 164 206 265 323 374
#     4   9  15  29  52  82 117 158 202 248 304 364
#     4   9  17  30  52  84 123 159 201 254 309 367
#     4  11  26  42  64  88 123 168 210 259 308 374
#     4  10  21  36  61  91 126 164 204 260 317 374
#     4  10  22  38  57  93 130 160 205 263 318 373
#     4  12  24  44  70  94 122 164 214 258 311 380
#
# _framework density 22.068300000000001
#
# number of rings (size 3 to 8) (size 9 to 14) (size 15 to 20)
#    0.000    1.625    2.500    2.250    5.250    1.750 
#    0.000    0.000    0.000    0.750    0.000    0.000 
#    0.000    0.000    0.000    0.000    0.000    0.000 
#
# Total GULP energy -356953.166679 kJ/mol
# GULP energy per Si atom -5577.393229 kJ/mol
# Density = 2.201807 g / cm^3
# Si number density = 22.068300 Si / 1000 Ang^3
#
#
#
# Elastic Constant Matrix: (Units=GPa)
#
#
# Indices 1 2 3 4 5 6 
#
# 1 33.5990 2.8652 14.8273 0.0000 0.0000 0.0000
# 2 2.8652 30.0921 12.8880 0.0000 0.0000 0.0000
# 3 14.8273 12.8880 153.9614 0.0000 0.0000 0.0000
# 4 0.0000 0.0000 0.0000 42.9993 0.0000 0.0000
# 5 0.0000 0.0000 0.0000 0.0000 12.0031 0.0000
# 6 0.0000 0.0000 0.0000 0.0000 0.0000 4.4548
#
#
#
# Elastic Compliance Matrix: (Units=1/GPa)
#
#
# Indices 1 2 3 4 5 6 
#
# 1 0.031172 -0.001745 -0.002856 0.000000 0.000000 0.000000
# 2 -0.001745 0.034565 -0.002725 0.000000 0.000000 0.000000
# 3 -0.002856 -0.002725 0.006998 0.000000 0.000000 0.000000
# 4 0.000000 0.000000 0.000000 0.023256 0.000000 0.000000
# 5 0.000000 0.000000 0.000000 0.000000 0.083312 0.000000
# 6 0.000000 0.000000 0.000000 0.000000 0.000000 0.224479
#
#
# Mechanical properties :
#
#
# Convention : Reuss Voigt Hill
#
# Bulk Modulus (GPa) = 17.21684 30.97929 24.09807
# Shear Modulus (GPa) = 11.42086 24.36290 17.89188
#
# Velocity S-wave (km/s) = 2.27738 3.32622 2.85046
# Velocity P-wave (km/s) = 3.83847 5.36843 4.66658
#
# Compressibility (1/GPa) = 0.05808266
#
# Stress axis : x y z
#
# Youngs Moduli (GPa) = 32.08015 28.93128 142.89146
#
# Poissons Ratio (x) = 0.05048 0.40809
# Poissons Ratio (y) = 0.05597 0.38943
# Poissons Ratio (z) = 0.09162 0.07885
#
# Static dielectric constant tensor:
#      x y z
#    x 1.893930 0.000000 0.000000 
#    y 0.000000 1.796220 0.000000 
#    z 0.000000 0.000000 1.852630 
# 
# From -- ./inp_files/11204.got.cif
#   From: 2010.05.17/outbox.cif.g08.bks.cpg/sg53_6_cif.got.tgz:11204.got - 2010.06.03 12:45:16.
