data_PCOD9418944
_publ_section_title
;
Structure prediction by ZEFSAII (Michael W. Deem and Ramdas Pophale) SiO2 
 PCOD9418944
Probable space group: P M N A
;
_chemical_formula_sum "Si O2"
_cell_formula_units_Z 48
_cell_length_a 10.404035
_cell_length_b 30.796291
_cell_length_c 7.782744
_cell_angle_alpha 90.000000
_cell_angle_beta 90.000000
_cell_angle_gamma 90.000000
_cell_volume 2493.635457
_symmetry_space_group_name_H-M "P M N A"
_symmetry_group_IT_number 53
_symmetry_cell_setting 'orthorhombic'
loop_
_space_group_symop_operation_xyz
x,y,z
1/2-x,-y,1/2+z
x,-y,-z
1/2-x,y,1/2-z
-x,-y,-z
1/2+x,y,1/2-z
-x,y,z
1/2+x,-y,1/2+z
loop_
_atom_site_type_symbol
_atom_site_label
_atom_site_fract_x
_atom_site_fract_y
_atom_site_fract_z
Si Si1 0.266200 0.625434 0.052073
Si Si2 0.154399 0.140778 0.917389
Si Si3 0.136694 0.460814 0.368760
Si Si4 0.000000 0.747724 0.689793
Si Si5 0.637908 0.041874 0.619099
Si Si6 0.000000 0.327913 0.021172
Si Si7 0.500000 0.689619 0.121188
Si Si8 0.750000 0.806081 0.750000
O O1 0.250000 0.611323 0.250000
O O2 0.131161 0.643420 0.977761
O O3 0.373354 0.663002 0.063786
O O4 0.322579 0.584789 0.951034
O O5 0.250000 0.146567 0.750000
O O6 0.155524 0.089343 0.963615
O O7 0.000000 0.151834 0.887843
O O8 0.212998 0.166365 0.079810
O O9 0.124330 0.500000 0.500000
O O10 0.250000 0.474985 0.250000
O O11 0.000000 0.454820 0.277971
O O12 0.000000 0.732230 0.492566
O O13 0.126721 0.775918 0.718470
O O14 0.000000 0.707019 0.824587
O O15 0.750000 0.035823 0.750000
O O16 0.500000 0.044064 0.710497
O O17 0.636790 0.000000 0.500000
O O18 0.000000 0.306459 0.828461
#
# Coordination Sequence:
#
# PCOD9418944 Si02
#       8
#     8   8   8   4   8   4   4   4
#     4  10  21  40  64  93 126 168 203 257 322 376
#     4  10  23  43  67  94 131 178 226 270 335 404
#     4  11  25  42  62  92 128 167 209 253 302 370
#     4  12  26  42  66  96 128 168 224 276 330 398
#     4   9  19  36  58  91 127 165 213 269 323 387
#     4  10  24  40  65  97 127 165 215 266 327 392
#     4  10  22  42  65  91 129 165 213 272 325 382
#     4  12  26  44  64  98 132 176 218 280 338 402
#
# _framework density 19.249003999999999
#
# number of rings (size 3 to 8) (size 9 to 14) (size 15 to 20)
#    0.000    1.667    1.667    1.500    5.833    2.000 
#    0.000    0.000    0.000    0.000    0.000    0.000 
#    0.000    0.000    0.000    0.000    0.000    0.000 
#
# Total GULP energy -267646.973896 kJ/mol
# GULP energy per Si atom -5575.978623 kJ/mol
# Density = 1.920519 g / cm^3
# Si number density = 19.249004 Si / 1000 Ang^3
#
#
#
# Elastic Constant Matrix: (Units=GPa)
#
#
# Indices 1 2 3 4 5 6 
#
# 1 168.1892 37.7852 41.4798 0.0000 0.0000 0.0000
# 2 37.7852 50.5623 35.8605 0.0000 0.0000 0.0000
# 3 41.4798 35.8605 61.6770 0.0000 0.0000 0.0000
# 4 0.0000 0.0000 0.0000 25.6320 0.0000 0.0000
# 5 0.0000 0.0000 0.0000 0.0000 27.7250 0.0000
# 6 0.0000 0.0000 0.0000 0.0000 0.0000 104.6761
#
#
#
# Elastic Compliance Matrix: (Units=1/GPa)
#
#
# Indices 1 2 3 4 5 6 
#
# 1 0.007462 -0.003433 -0.003023 0.000000 0.000000 0.000000
# 2 -0.003433 0.035235 -0.018178 0.000000 0.000000 0.000000
# 3 -0.003023 -0.018178 0.028816 0.000000 0.000000 0.000000
# 4 0.000000 0.000000 0.000000 0.039014 0.000000 0.000000
# 5 0.000000 0.000000 0.000000 0.000000 0.036069 0.000000
# 6 0.000000 0.000000 0.000000 0.000000 0.000000 0.009553
#
#
# Mechanical properties :
#
#
# Convention : Reuss Voigt Hill
#
# Bulk Modulus (GPa) = 44.95169 56.74217 50.84693
# Shear Modulus (GPa) = 23.49273 42.62682 33.05977
#
# Velocity S-wave (km/s) = 3.49731 4.71095 4.14874
# Velocity P-wave (km/s) = 6.30172 7.68978 7.03009
#
# Compressibility (1/GPa) = 0.02224611
#
# Stress axis : x y z
#
# Youngs Moduli (GPa) = 134.00545 28.38052 34.70337
#
# Poissons Ratio (x) = 0.09742 0.10490
# Poissons Ratio (y) = 0.46001 0.63084
# Poissons Ratio (z) = 0.40507 0.51590
#
# Static dielectric constant tensor:
#      x y z
#    x 1.825120 0.000000 0.000000 
#    y 0.000000 1.679690 0.000000 
#    z 0.000000 0.000000 1.878240 
# 
# From -- ./inp_files/6879.got.cif
#   From: 2010.05.17/outbox.cif.g08.bks.cpg/sg53_4_cif.got.tgz:6879.got - 2010.06.03 12:45:16.
