data_PCOD9418654
_publ_section_title
;
Structure prediction by ZEFSAII (Michael W. Deem and Ramdas Pophale) SiO2 
 PCOD9418654
Probable space group: P M N A
;
_chemical_formula_sum "Si O2"
_cell_formula_units_Z 48
_cell_length_a 14.198794
_cell_length_b 6.043752
_cell_length_c 27.418307
_cell_angle_alpha 90.000000
_cell_angle_beta 90.000000
_cell_angle_gamma 90.000000
_cell_volume 2352.874313
_symmetry_space_group_name_H-M "P M N A"
_symmetry_group_IT_number 53
_symmetry_cell_setting 'orthorhombic'
loop_
_space_group_symop_operation_xyz
x,y,z
1/2-x,-y,1/2+z
x,-y,-z
1/2-x,y,1/2-z
-x,-y,-z
1/2+x,y,1/2-z
-x,y,z
1/2+x,-y,1/2+z
loop_
_atom_site_type_symbol
_atom_site_label
_atom_site_fract_x
_atom_site_fract_y
_atom_site_fract_z
Si Si1 0.251452 0.714862 0.377258
Si Si2 0.892717 0.897421 0.632178
Si Si3 0.109793 0.080018 0.121608
Si Si4 0.606936 0.460231 0.057355
Si Si5 0.888034 0.748699 0.983462
Si Si6 0.755501 0.334962 0.192396
O O1 0.195570 0.577583 0.417863
O O2 0.278581 0.572317 0.330357
O O3 0.172280 0.892281 0.363442
O O4 0.343123 0.848035 0.393777
O O5 0.886766 0.790233 0.577943
O O6 0.846050 0.722948 0.668975
O O7 0.000000 0.942379 0.643465
O O8 0.122675 0.241248 0.075306
O O9 0.168131 0.172232 0.167524
O O10 0.000000 0.057578 0.131720
O O11 0.500000 0.535319 0.073087
O O12 0.611011 0.500000 0.000000
O O13 0.000000 0.753293 0.995837
O O14 0.854385 0.500000 0.000000
O O15 0.852189 0.000000 0.000000
O O16 0.750000 0.324039 0.250000
#
# Coordination Sequence:
#
# PCOD9418654 Si02
#       6
#     8   8   8   8   8   8
#     4  10  21  38  58  90 119 158 201 257 308 376
#     4   9  19  38  62  86 115 150 193 246 306 373
#     4  10  23  42  62  87 123 168 213 261 320 388
#     4   9  18  35  59  89 126 163 199 244 305 373
#     4   9  19  37  62  91 125 168 216 265 316 378
#     4  10  23  42  60  84 117 153 199 260 321 381
#
# _framework density 20.400579
#
# number of rings (size 3 to 8) (size 9 to 14) (size 15 to 20)
#    0.000    2.500    0.000    0.500    2.333    5.333 
#    9.000    2.500    0.000    0.500    0.000    0.000 
#    0.000    0.000    0.000    0.000    0.000    0.000 
#
# Total GULP energy -267490.221516 kJ/mol
# GULP energy per Si atom -5572.712948 kJ/mol
# Density = 2.035415 g / cm^3
# Si number density = 20.400579 Si / 1000 Ang^3
#
#
#
# Elastic Constant Matrix: (Units=GPa)
#
#
# Indices 1 2 3 4 5 6 
#
# 1 126.3614 35.8264 34.0900 0.0000 0.0000 0.0000
# 2 35.8264 83.4286 17.7006 0.0000 0.0000 0.0000
# 3 34.0900 17.7006 101.1398 0.0000 0.0000 0.0000
# 4 0.0000 0.0000 0.0000 18.7277 0.0000 0.0000
# 5 0.0000 0.0000 0.0000 0.0000 16.7063 0.0000
# 6 0.0000 0.0000 0.0000 0.0000 0.0000 23.5809
#
#
#
# Elastic Compliance Matrix: (Units=1/GPa)
#
#
# Indices 1 2 3 4 5 6 
#
# 1 0.009637 -0.003582 -0.002621 0.000000 0.000000 0.000000
# 2 -0.003582 0.013780 -0.001204 0.000000 0.000000 0.000000
# 3 -0.002621 -0.001204 0.010982 0.000000 0.000000 0.000000
# 4 0.000000 0.000000 0.000000 0.053397 0.000000 0.000000
# 5 0.000000 0.000000 0.000000 0.000000 0.059858 0.000000
# 6 0.000000 0.000000 0.000000 0.000000 0.000000 0.042407
#
#
# Mechanical properties :
#
#
# Convention : Reuss Voigt Hill
#
# Bulk Modulus (GPa) = 51.06450 54.01818 52.54134
# Shear Modulus (GPa) = 23.65157 26.69052 25.17105
#
# Velocity S-wave (km/s) = 3.40863 3.62100 3.51642
# Velocity P-wave (km/s) = 6.37000 6.63464 6.50366
#
# Compressibility (1/GPa) = 0.01958308
#
# Stress axis : x y z
#
# Youngs Moduli (GPa) = 103.77160 72.56881 91.06177
#
# Poissons Ratio (x) = 0.25995 0.23869
# Poissons Ratio (y) = 0.37172 0.10967
# Poissons Ratio (z) = 0.27200 0.08739
#
# Static dielectric constant tensor:
#      x y z
#    x 1.725030 0.000000 0.000000 
#    y 0.000000 1.821060 0.000000 
#    z 0.000000 0.000000 1.718140 
# 
# From -- ./inp_files/36986.got.cif
#   From: 2010.05.17/outbox.cif.g08.bks.cpg/sg53_19_cif.got.tgz:36986.got - 2010.06.03 12:45:16.
