data_PCOD9418003
_publ_section_title
;
Structure prediction by ZEFSAII (Michael W. Deem and Ramdas Pophale) SiO2 
 PCOD9418003
Probable space group: P M N A
;
_chemical_formula_sum "Si O2"
_cell_formula_units_Z 48
_cell_length_a 15.072022
_cell_length_b 9.417245
_cell_length_c 15.214832
_cell_angle_alpha 90.000000
_cell_angle_beta 90.000000
_cell_angle_gamma 90.000000
_cell_volume 2159.546451
_symmetry_space_group_name_H-M "P M N A"
_symmetry_group_IT_number 53
_symmetry_cell_setting 'orthorhombic'
loop_
_space_group_symop_operation_xyz
x,y,z
1/2-x,-y,1/2+z
x,-y,-z
1/2-x,y,1/2-z
-x,-y,-z
1/2+x,y,1/2-z
-x,y,z
1/2+x,-y,1/2+z
loop_
_atom_site_type_symbol
_atom_site_label
_atom_site_fract_x
_atom_site_fract_y
_atom_site_fract_z
Si Si1 0.104503 0.059422 0.091711
Si Si2 0.901553 0.150776 0.543483
Si Si3 0.396843 0.884736 0.237839
Si Si4 0.654181 0.398975 0.075657
Si Si5 0.641852 0.558795 0.251354
Si Si6 0.367172 0.603469 0.578781
O O1 0.109946 0.230021 0.082477
O O2 0.000000 0.019472 0.091913
O O3 0.139192 0.986875 0.183261
O O4 0.144694 0.000000 0.000000
O O5 0.855774 0.126019 0.638760
O O6 0.863780 0.245905 0.464982
O O7 0.000000 0.210262 0.563516
O O8 0.909129 0.000000 0.500000
O O9 0.500000 0.929944 0.225555
O O10 0.391622 0.719243 0.263604
O O11 0.618594 0.467409 0.164918
O O12 0.760391 0.406152 0.079327
O O13 0.619325 0.500000 0.000000
O O14 0.750000 0.568669 0.250000
O O15 0.605559 0.468813 0.331410
O O16 0.397604 0.500000 0.500000
#
# Coordination Sequence:
#
# PCOD9418003 Si02
#       6
#     8   8   8   8   8   8
#     4  10  22  40  60  84 117 152 195 247 296 348
#     4  10  22  38  58  86 121 155 194 241 294 356
#     4  10  21  39  61  87 119 156 194 241 298 354
#     4  10  20  38  59  83 118 155 192 239 289 349
#     4  10  21  38  57  85 119 153 195 241 290 347
#     4  10  22  38  60  85 116 152 196 245 289 344
#
# _framework density 22.226889
#
# number of rings (size 3 to 8) (size 9 to 14) (size 15 to 20)
#    0.000    2.000    1.667    1.000    2.333    2.667 
#    3.000    0.000    0.000    0.000    0.000    0.000 
#    0.000    0.000    0.000    0.000    0.000    0.000 
#
# Total GULP energy -267324.216840 kJ/mol
# GULP energy per Si atom -5569.254517 kJ/mol
# Density = 2.217630 g / cm^3
# Si number density = 22.226889 Si / 1000 Ang^3
#
#
#
# Elastic Constant Matrix: (Units=GPa)
#
#
# Indices 1 2 3 4 5 6 
#
# 1 35.3091 -5.0708 6.6293 0.0000 0.0000 0.0000
# 2 -5.0708 153.5892 79.1671 0.0000 0.0000 0.0000
# 3 6.6293 79.1671 187.6614 0.0000 0.0000 0.0000
# 4 0.0000 0.0000 0.0000 54.2377 0.0000 0.0000
# 5 0.0000 0.0000 0.0000 0.0000 46.4751 0.0000
# 6 0.0000 0.0000 0.0000 0.0000 0.0000 75.0705
#
#
#
# Elastic Compliance Matrix: (Units=1/GPa)
#
#
# Indices 1 2 3 4 5 6 
#
# 1 0.028935 0.001894 -0.001821 0.000000 0.000000 0.000000
# 2 0.001894 0.008444 -0.003629 0.000000 0.000000 0.000000
# 3 -0.001821 -0.003629 0.006924 0.000000 0.000000 0.000000
# 4 0.000000 0.000000 0.000000 0.018437 0.000000 0.000000
# 5 0.000000 0.000000 0.000000 0.000000 0.021517 0.000000
# 6 0.000000 0.000000 0.000000 0.000000 0.000000 0.013321
#
#
# Mechanical properties :
#
#
# Convention : Reuss Voigt Hill
#
# Bulk Modulus (GPa) = 26.88834 59.77898 43.33366
# Shear Modulus (GPa) = 42.70295 54.87892 48.79094
#
# Velocity S-wave (km/s) = 4.38794 4.97433 4.69031
# Velocity P-wave (km/s) = 6.14780 7.74243 6.99073
#
# Compressibility (1/GPa) = 0.03719084
#
# Stress axis : x y z
#
# Youngs Moduli (GPa) = 34.55990 118.42689 144.42381
#
# Poissons Ratio (x) = -0.22431 0.26302
# Poissons Ratio (y) = -0.06546 0.52413
# Poissons Ratio (z) = 0.06294 0.42979
#
# Static dielectric constant tensor:
#      x y z
#    x 1.918750 0.000000 0.000000 
#    y 0.000000 1.682020 0.000000 
#    z 0.000000 0.000000 1.642200 
# 
# From -- ./inp_files/23646.got.cif
#   From: 2010.05.17/outbox.cif.g08.bks.cpg/sg53_12_cif.got.tgz:23646.got - 2010.06.03 12:45:16.
