data_PCOD9418139
_publ_section_title
;
Structure prediction by ZEFSAII (Michael W. Deem and Ramdas Pophale) SiO2 
 PCOD9418139
Probable space group: P M N A
;
_chemical_formula_sum "Si O2"
_cell_formula_units_Z 40
_cell_length_a 22.283484
_cell_length_b 9.884457
_cell_length_c 9.753039
_cell_angle_alpha 90.000000
_cell_angle_beta 90.000000
_cell_angle_gamma 90.000000
_cell_volume 2148.205730
_symmetry_space_group_name_H-M "P M N A"
_symmetry_group_IT_number 53
_symmetry_cell_setting 'orthorhombic'
loop_
_space_group_symop_operation_xyz
x,y,z
1/2-x,-y,1/2+z
x,-y,-z
1/2-x,y,1/2-z
-x,-y,-z
1/2+x,y,1/2-z
-x,y,z
1/2+x,-y,1/2+z
loop_
_atom_site_type_symbol
_atom_site_label
_atom_site_fract_x
_atom_site_fract_y
_atom_site_fract_z
Si Si1 0.258328 0.866704 0.585324
Si Si2 0.929744 0.669250 0.253080
Si Si3 0.657913 0.342531 0.009902
Si Si4 0.898126 0.157270 0.009398
Si Si5 0.066434 0.355643 0.245781
O O1 0.250000 0.881947 0.750000
O O2 0.216179 0.748065 0.528881
O O3 0.327815 0.840323 0.549727
O O4 0.240675 0.000000 0.500000
O O5 0.884667 0.687421 0.380121
O O6 0.910917 0.771238 0.134435
O O7 0.924462 0.512609 0.203020
O O8 0.000000 0.689391 0.290011
O O9 0.616664 0.322923 0.143324
O O10 0.674843 0.500000 0.000000
O O11 0.930081 0.249316 0.123243
O O12 0.916700 0.000000 0.000000
O O13 0.000000 0.350079 0.309760
#
# Coordination Sequence:
#
# PCOD9418139 Si02
#       5
#     8   8   8   8   8
#     4  11  25  44  64  88 121 162 203 248 303 358
#     4  10  22  39  62  92 123 158 198 242 304 364
#     4  10  22  40  64  92 120 155 202 252 296 357
#     4  11  24  39  59  88 122 159 203 252 295 353
#     4  10  20  39  63  88 122 160 196 248 306 358
#
# _framework density 18.620190000000001
#
# number of rings (size 3 to 8) (size 9 to 14) (size 15 to 20)
#    0.000    1.600    2.000    1.800    5.600    7.200 
#    0.000    0.000    0.000    3.600    0.000    0.000 
#    0.000    0.000    0.000    0.000    0.000    0.000 
#
# Total GULP energy -223340.908403 kJ/mol
# GULP energy per Si atom -5583.522710 kJ/mol
# Density = 1.857781 g / cm^3
# Si number density = 18.620190 Si / 1000 Ang^3
#
#
#
# Elastic Constant Matrix: (Units=GPa)
#
#
# Indices 1 2 3 4 5 6 
#
# 1 65.7019 38.5080 23.4350 0.0000 0.0000 0.0000
# 2 38.5080 94.8987 67.4148 0.0000 0.0000 0.0000
# 3 23.4350 67.4148 101.0671 0.0000 0.0000 0.0000
# 4 0.0000 0.0000 0.0000 21.3715 0.0000 0.0000
# 5 0.0000 0.0000 0.0000 0.0000 19.1833 0.0000
# 6 0.0000 0.0000 0.0000 0.0000 0.0000-2438.2278
#
#
#
# Elastic Compliance Matrix: (Units=1/GPa)
#
#
# Indices 1 2 3 4 5 6 
#
# 1 0.020086 -0.009202 0.001481 0.000000 0.000000 0.000000
# 2 -0.009202 0.024244 -0.014038 0.000000 0.000000 0.000000
# 3 0.001481 -0.014038 0.018915 0.000000 0.000000 0.000000
# 4 0.000000 0.000000 0.000000 0.046791 0.000000 0.000000
# 5 0.000000 0.000000 0.000000 0.000000 0.052129 0.000000
# 6 0.000000 0.000000 0.000000 0.000000 0.000000 -0.000410
#
#
# Mechanical properties :
#
#
# Convention : Reuss Voigt Hill
#
# Bulk Modulus (GPa) = 50.69484 57.82035 54.25760
# Shear Modulus (GPa) = 23.60197 -470.71394 -223.55599
#
# Velocity S-wave (km/s) = 3.56412 -15.91686 -10.96913
# Velocity P-wave (km/s) = 6.64997 17.51215 11.45542
#
# Compressibility (1/GPa) = 0.01972587
#
# Stress axis : x y z
#
# Youngs Moduli (GPa) = 49.78706 41.24779 52.86948
#
# Poissons Ratio (x) = 0.37957 -0.07829
# Poissons Ratio (y) = 0.45815 0.74216
# Poissons Ratio (z) = -0.07373 0.57902
#
# Static dielectric constant tensor:
#      x y z
#    x 1.788770 0.000000 0.000000 
#    y 0.000000 1.638620 0.000000 
#    z 0.000000 0.000000 1.626400 
# 
# From -- ./inp_files/11517.got.cif
#   From: 2010.05.17/outbox.cif.g08.bks.cpg/sg53_6_cif.got.tgz:11517.got - 2010.06.03 12:45:16.
