data_PCOD9418416
_publ_section_title
;
Structure prediction by ZEFSAII (Michael W. Deem and Ramdas Pophale) SiO2 
 PCOD9418416
Probable space group: P M N A
;
_chemical_formula_sum "Si O2"
_cell_formula_units_Z 36
_cell_length_a 22.390466
_cell_length_b 12.643036
_cell_length_c 5.499302
_cell_angle_alpha 90.000000
_cell_angle_beta 90.000000
_cell_angle_gamma 90.000000
_cell_volume 1556.761480
_symmetry_space_group_name_H-M "P M N A"
_symmetry_group_IT_number 53
_symmetry_cell_setting 'orthorhombic'
loop_
_space_group_symop_operation_xyz
x,y,z
1/2-x,-y,1/2+z
x,-y,-z
1/2-x,y,1/2-z
-x,-y,-z
1/2+x,y,1/2-z
-x,y,z
1/2+x,-y,1/2+z
loop_
_atom_site_type_symbol
_atom_site_label
_atom_site_fract_x
_atom_site_fract_y
_atom_site_fract_z
Si Si1 0.322031 0.388727 0.946790
Si Si2 0.250000 0.220023 0.250000
Si Si3 0.855706 0.237363 0.939931
Si Si4 0.068848 0.065473 0.747012
Si Si5 0.430888 0.400774 0.309038
O O1 0.328681 0.345136 0.675508
O O2 0.290898 0.500000 0.000000
O O3 0.287603 0.295193 0.075666
O O4 0.385533 0.402182 0.082899
O O5 0.303961 0.174580 0.413923
O O6 0.883856 0.159948 0.744032
O O7 0.912470 0.286842 0.079174
O O8 0.000000 0.103027 0.751423
O O9 0.076281 0.000000 0.500000
O O10 0.077749 0.000000 0.000000
O O11 0.422410 0.500000 0.500000
O O12 0.500000 0.403393 0.237142
#
# Coordination Sequence:
#
# PCOD9418416 Si02
#       5
#     8   4   8   8   8
#     4  11  23  38  61  92 131 178 227 274 331 405
#     4  10  26  38  66  90 130 178 232 280 338 402
#     4  11  23  43  66  96 133 177 231 286 345 409
#     4  10  24  46  76 108 138 178 230 292 365 437
#     4  10  21  36  56  93 137 176 221 272 341 416
#
# _framework density 23.124929000000002
#
# number of rings (size 3 to 8) (size 9 to 14) (size 15 to 20)
#    0.000    1.556    2.222    1.333    9.333    2.222 
#    0.000    0.000    4.889    0.000    0.000    0.000 
#    0.000    0.000    0.000    0.000    0.000    0.000 
#
# Total GULP energy -200714.665150 kJ/mol
# GULP energy per Si atom -5575.407365 kJ/mol
# Density = 2.307230 g / cm^3
# Si number density = 23.124929 Si / 1000 Ang^3
#
#
#
# Elastic Constant Matrix: (Units=GPa)
#
#
# Indices 1 2 3 4 5 6 
#
# 1 140.1271 33.2220 38.6705 0.0000 0.0000 0.0000
# 2 33.2220 43.1794 12.2415 0.0000 0.0000 0.0000
# 3 38.6705 12.2415 69.9911 0.0000 0.0000 0.0000
# 4 0.0000 0.0000 0.0000 33.5631 0.0000 0.0000
# 5 0.0000 0.0000 0.0000 0.0000 41.1059 0.0000
# 6 0.0000 0.0000 0.0000 0.0000 0.0000 51.4334
#
#
#
# Elastic Compliance Matrix: (Units=1/GPa)
#
#
# Indices 1 2 3 4 5 6 
#
# 1 0.009833 -0.006339 -0.004324 0.000000 0.000000 0.000000
# 2 -0.006339 0.028455 -0.001474 0.000000 0.000000 0.000000
# 3 -0.004324 -0.001474 0.016934 0.000000 0.000000 0.000000
# 4 0.000000 0.000000 0.000000 0.029795 0.000000 0.000000
# 5 0.000000 0.000000 0.000000 0.000000 0.024327 0.000000
# 6 0.000000 0.000000 0.000000 0.000000 0.000000 0.019443
#
#
# Mechanical properties :
#
#
# Convention : Reuss Voigt Hill
#
# Bulk Modulus (GPa) = 32.31352 46.84063 39.57708
# Shear Modulus (GPa) = 30.60419 36.49805 33.55112
#
# Velocity S-wave (km/s) = 3.64184 3.97709 3.81315
# Velocity P-wave (km/s) = 5.62919 6.43344 6.04471
#
# Compressibility (1/GPa) = 0.03094679
#
# Stress axis : x y z
#
# Youngs Moduli (GPa) = 101.70285 35.14374 59.05174
#
# Poissons Ratio (x) = 0.22279 0.25533
# Poissons Ratio (y) = 0.64473 0.08705
# Poissons Ratio (z) = 0.43974 0.05181
#
# Static dielectric constant tensor:
#      x y z
#    x 1.869870 0.000000 0.000000 
#    y 0.000000 1.944760 0.000000 
#    z 0.000000 0.000000 0.945120 
# 
# From -- ./inp_files/3482.got.cif
#   From: 2010.05.17/outbox.cif.g08.bks.cpg/sg53_2_cif.got.tgz:3482.got - 2010.06.03 12:45:16.
