data_PCOD9418311
_publ_section_title
;
Structure prediction by ZEFSAII (Michael W. Deem and Ramdas Pophale) SiO2 
 PCOD9418311
Probable space group: P M N A
;
_chemical_formula_sum "Si O2"
_cell_formula_units_Z 40
_cell_length_a 13.374103
_cell_length_b 13.424009
_cell_length_c 9.838847
_cell_angle_alpha 90.000000
_cell_angle_beta 90.000000
_cell_angle_gamma 90.000000
_cell_volume 1766.408335
_symmetry_space_group_name_H-M "P M N A"
_symmetry_group_IT_number 53
_symmetry_cell_setting 'orthorhombic'
loop_
_space_group_symop_operation_xyz
x,y,z
1/2-x,-y,1/2+z
x,-y,-z
1/2-x,y,1/2-z
-x,-y,-z
1/2+x,y,1/2-z
-x,y,z
1/2+x,-y,1/2+z
loop_
_atom_site_type_symbol
_atom_site_label
_atom_site_fract_x
_atom_site_fract_y
_atom_site_fract_z
Si Si1 0.685281 0.676675 0.450142
Si Si2 0.617395 0.617273 0.744773
Si Si3 0.823431 0.108562 0.050190
Si Si4 0.386660 0.400748 0.827834
Si Si5 0.112680 0.836409 0.651078
O O1 0.668922 0.628368 0.598189
O O2 0.654457 0.792810 0.462618
O O3 0.619818 0.626952 0.331847
O O4 0.799305 0.660952 0.399958
O O5 0.500000 0.611993 0.714901
O O6 0.640159 0.517882 0.828670
O O7 0.633415 0.718908 0.827309
O O8 0.874966 0.123317 0.195860
O O9 0.702988 0.115572 0.068624
O O10 0.851580 0.000000 0.000000
O O11 0.500000 0.385443 0.879277
O O12 0.000000 0.851357 0.600398
#
# Coordination Sequence:
#
# PCOD9418311 Si02
#       5
#     8   8   8   8   8
#     4  10  21  35  56  79 108 147 182 218 268 322
#     4   9  18  36  59  80 107 145 183 216 258 323
#     4  10  22  39  57  80 109 141 183 232 273 312
#     4  10  21  35  55  86 117 141 173 220 271 325
#     4   9  20  38  59  81 106 142 186 223 262 322
#
# _framework density 22.644821
#
# number of rings (size 3 to 8) (size 9 to 14) (size 15 to 20)
#    0.000    2.400    0.000    1.200    0.000   15.200 
#    0.000    2.000    0.000   14.400    0.000    0.000 
#    0.000    0.000    0.000    0.000    0.000    0.000 
#
# Total GULP energy -223765.194042 kJ/mol
# GULP energy per Si atom -5594.129851 kJ/mol
# Density = 2.259328 g / cm^3
# Si number density = 22.644821 Si / 1000 Ang^3
#
#
#
# Elastic Constant Matrix: (Units=GPa)
#
#
# Indices 1 2 3 4 5 6 
#
# 1 77.9592 -16.1432 6.8996 0.0000 0.0000 0.0000
# 2 -16.1432 123.8766 11.0241 0.0000 0.0000 0.0000
# 3 6.8996 11.0241 31.1466 0.0000 0.0000 0.0000
# 4 0.0000 0.0000 0.0000 20.1107 0.0000 0.0000
# 5 0.0000 0.0000 0.0000 0.0000 14.6272 0.0000
# 6 0.0000 0.0000 0.0000 0.0000 0.0000 15.6462
#
#
#
# Elastic Compliance Matrix: (Units=1/GPa)
#
#
# Indices 1 2 3 4 5 6 
#
# 1 0.013596 0.002106 -0.003757 0.000000 0.000000 0.000000
# 2 0.002106 0.008661 -0.003532 0.000000 0.000000 0.000000
# 3 -0.003757 -0.003532 0.034189 0.000000 0.000000 0.000000
# 4 0.000000 0.000000 0.000000 0.049725 0.000000 0.000000
# 5 0.000000 0.000000 0.000000 0.000000 0.068366 0.000000
# 6 0.000000 0.000000 0.000000 0.000000 0.000000 0.063913
#
#
# Mechanical properties :
#
#
# Convention : Reuss Voigt Hill
#
# Bulk Modulus (GPa) = 21.70163 26.28258 23.99210
# Shear Modulus (GPa) = 18.92677 25.49029 22.20853
#
# Velocity S-wave (km/s) = 2.89417 3.35872 3.13506
# Velocity P-wave (km/s) = 4.55770 5.16459 4.87061
#
# Compressibility (1/GPa) = 0.04607950
#
# Stress axis : x y z
#
# Youngs Moduli (GPa) = 73.55183 115.45543 29.24940
#
# Poissons Ratio (x) = -0.24316 0.10990
# Poissons Ratio (y) = -0.15491 0.10331
# Poissons Ratio (z) = 0.27635 0.40781
#
# Static dielectric constant tensor:
#      x y z
#    x 1.890160 0.000000 0.000000 
#    y 0.000000 1.824320 0.000000 
#    z 0.000000 0.000000 1.826020 
# 
# From -- ./inp_files/15743.got.cif
#   From: 2010.05.17/outbox.cif.g08.bks.cpg/sg53_8_cif.got.tgz:15743.got - 2010.06.03 12:45:16.
