data_PCOD9418701
_publ_section_title
;
Structure prediction by ZEFSAII (Michael W. Deem and Ramdas Pophale) SiO2 
 PCOD9418701
Probable space group: P M N A
;
_chemical_formula_sum "Si O2"
_cell_formula_units_Z 40
_cell_length_a 28.250082
_cell_length_b 10.464140
_cell_length_c 5.753603
_cell_angle_alpha 90.000000
_cell_angle_beta 90.000000
_cell_angle_gamma 90.000000
_cell_volume 1700.838768
_symmetry_space_group_name_H-M "P M N A"
_symmetry_group_IT_number 53
_symmetry_cell_setting 'orthorhombic'
loop_
_space_group_symop_operation_xyz
x,y,z
1/2-x,-y,1/2+z
x,-y,-z
1/2-x,y,1/2-z
-x,-y,-z
1/2+x,y,1/2-z
-x,y,z
1/2+x,-y,1/2+z
loop_
_atom_site_type_symbol
_atom_site_label
_atom_site_fract_x
_atom_site_fract_y
_atom_site_fract_z
Si Si1 0.950769 0.120149 0.663355
Si Si2 0.873405 0.806144 0.062916
Si Si3 0.861224 0.536946 0.255693
Si Si4 0.233691 0.851889 0.996212
Si Si5 0.055080 0.664022 0.720142
O O1 0.902715 0.092209 0.795581
O O2 0.947722 0.251874 0.515831
O O3 0.000000 0.128984 0.805661
O O4 0.955438 0.000000 0.500000
O O5 0.863772 0.688061 0.237361
O O6 0.823002 0.848822 0.976499
O O7 0.912526 0.752276 0.885499
O O8 0.837095 0.500000 0.500000
O O9 0.912572 0.464405 0.271210
O O10 0.841015 0.500000 0.000000
O O11 0.250000 0.792375 0.750000
O O12 0.250000 0.798246 0.250000
O O13 0.250822 0.000000 0.000000
O O14 0.000000 0.639536 0.786384
#
# Coordination Sequence:
#
# PCOD9418701 Si02
#       5
#     8   8   8   8   8
#     4  10  22  36  56  94 139 182 226 268 328 402
#     4  11  23  38  67  91 131 172 224 276 340 391
#     4  10  21  38  60  93 127 169 221 266 309 382
#     4  10  25  45  69  99 130 167 220 282 345 409
#     4  10  22  38  60  93 136 181 224 268 317 392
#
# _framework density 23.517806
#
# number of rings (size 3 to 8) (size 9 to 14) (size 15 to 20)
#    0.000    1.800    2.000    0.600    5.600    5.600 
#    0.000    3.000    0.000   14.400    0.000    0.000 
#    0.000    0.000    0.000    0.000    0.000    0.000 
#
# Total GULP energy -222762.912765 kJ/mol
# GULP energy per Si atom -5569.072819 kJ/mol
# Density = 2.346428 g / cm^3
# Si number density = 23.517806 Si / 1000 Ang^3
#
#
#
# Elastic Constant Matrix: (Units=GPa)
#
#
# Indices 1 2 3 4 5 6 
#
# 1 114.6411 -11.5213 39.3395 0.0000 0.0000 0.0000
# 2 -11.5213 47.0935 -0.4125 0.0000 0.0000 0.0000
# 3 39.3395 -0.4125 142.9299 0.0000 0.0000 0.0000
# 4 0.0000 0.0000 0.0000 30.0807 0.0000 0.0000
# 5 0.0000 0.0000 0.0000 0.0000 4.9665 0.0000
# 6 0.0000 0.0000 0.0000 0.0000 0.0000 -12.3956
#
#
#
# Elastic Compliance Matrix: (Units=1/GPa)
#
#
# Indices 1 2 3 4 5 6 
#
# 1 0.009896 0.002397 -0.002717 0.000000 0.000000 0.000000
# 2 0.002397 0.021816 -0.000597 0.000000 0.000000 0.000000
# 3 -0.002717 -0.000597 0.007742 0.000000 0.000000 0.000000
# 4 0.000000 0.000000 0.000000 0.033244 0.000000 0.000000
# 5 0.000000 0.000000 0.000000 0.000000 0.201349 0.000000
# 6 0.000000 0.000000 0.000000 0.000000 0.000000 -0.080674
#
#
# Mechanical properties :
#
#
# Convention : Reuss Voigt Hill
#
# Bulk Modulus (GPa) = 26.58067 39.94177 33.26122
# Shear Modulus (GPa) = 24.06781 23.01424 23.54103
#
# Velocity S-wave (km/s) = 3.20251 3.13163 3.16727
# Velocity P-wave (km/s) = 5.00017 5.48604 5.24873
#
# Compressibility (1/GPa) = 0.03762132
#
# Stress axis : x y z
#
# Youngs Moduli (GPa) = 101.04996 45.83870 129.15748
#
# Poissons Ratio (x) = -0.10989 0.35090
# Poissons Ratio (y) = -0.24224 0.07709
# Poissons Ratio (z) = 0.27454 0.02736
#
# Static dielectric constant tensor:
#      x y z
#    x 1.872280 0.000000 0.000000 
#    y 0.000000 1.965440 0.000000 
#    z 0.000000 0.000000 2.129050 
# 
# From -- ./inp_files/4292.got.cif
#   From: 2010.05.17/outbox.cif.g08.bks.cpg/sg53_3_cif.got.tgz:4292.got - 2010.06.03 12:45:16.
