data_PCOD9418918
_publ_section_title
;
Structure prediction by ZEFSAII (Michael W. Deem and Ramdas Pophale) SiO2 
 PCOD9418918
Probable space group: P M N A
;
_chemical_formula_sum "Si O2"
_cell_formula_units_Z 44
_cell_length_a 9.497558
_cell_length_b 12.090645
_cell_length_c 17.802179
_cell_angle_alpha 90.000000
_cell_angle_beta 90.000000
_cell_angle_gamma 90.000000
_cell_volume 2044.252736
_symmetry_space_group_name_H-M "P M N A"
_symmetry_group_IT_number 53
_symmetry_cell_setting 'orthorhombic'
loop_
_space_group_symop_operation_xyz
x,y,z
1/2-x,-y,1/2+z
x,-y,-z
1/2-x,y,1/2-z
-x,-y,-z
1/2+x,y,1/2-z
-x,y,z
1/2+x,-y,1/2+z
loop_
_atom_site_type_symbol
_atom_site_label
_atom_site_fract_x
_atom_site_fract_y
_atom_site_fract_z
Si Si1 0.664644 0.170133 0.046598
Si Si2 0.846915 0.158289 0.190993
Si Si3 0.157117 0.568250 0.576840
Si Si4 0.836353 0.582079 0.174686
Si Si5 0.168188 0.819324 0.104585
Si Si6 0.250000 0.948560 0.250000
O O1 0.500000 0.134399 0.046650
O O2 0.757649 0.130503 0.116936
O O3 0.665548 0.302912 0.058090
O O4 0.747169 0.145960 0.969682
O O5 0.750000 0.226137 0.250000
O O6 0.000000 0.206633 0.174389
O O7 0.866194 0.042065 0.234531
O O8 0.171703 0.500000 0.500000
O O9 0.272619 0.524686 0.634105
O O10 0.000000 0.545080 0.607433
O O11 0.750000 0.605362 0.250000
O O12 0.822288 0.687379 0.118863
O O13 0.000000 0.569061 0.192248
O O14 0.243342 0.873580 0.176707
O O15 0.000000 0.847051 0.101301
#
# Coordination Sequence:
#
# PCOD9418918 Si02
#       6
#     8   8   8   8   8   4
#     4  11  24  41  67  97 131 170 214 264 320 382
#     4  10  23  44  68  93 126 164 210 264 320 382
#     4  10  21  40  62  89 126 168 206 254 307 364
#     4  11  23  38  61  94 129 168 210 258 313 376
#     4  11  23  40  65  97 131 167 212 267 322 379
#     4  10  24  44  70  90 124 168 216 260 326 378
#
# _framework density 21.523757
#
# number of rings (size 3 to 8) (size 9 to 14) (size 15 to 20)
#    0.545    0.909    2.727    2.182    0.000    5.455 
#    0.000    2.727    0.000    0.000    0.000    0.000 
#    0.000    0.000    0.000    0.000    0.000    0.000 
#
# Total GULP energy -245344.787592 kJ/mol
# GULP energy per Si atom -5576.017900 kJ/mol
# Density = 2.147477 g / cm^3
# Si number density = 21.523757 Si / 1000 Ang^3
#
#
#
# Elastic Constant Matrix: (Units=GPa)
#
#
# Indices 1 2 3 4 5 6 
#
# 1 184.2735 18.2108 103.9655 0.0000 0.0000 0.0000
# 2 18.2108 35.0329 -0.3754 0.0000 0.0000 0.0000
# 3 103.9655 -0.3754 152.0272 0.0000 0.0000 0.0000
# 4 0.0000 0.0000 0.0000 32.8095 0.0000 0.0000
# 5 0.0000 0.0000 0.0000 0.0000 440.7466 0.0000
# 6 0.0000 0.0000 0.0000 0.0000 0.0000 8.1117
#
#
#
# Elastic Compliance Matrix: (Units=1/GPa)
#
#
# Indices 1 2 3 4 5 6 
#
# 1 0.009667 -0.005096 -0.006624 0.000000 0.000000 0.000000
# 2 -0.005096 0.031232 0.003562 0.000000 0.000000 0.000000
# 3 -0.006624 0.003562 0.011116 0.000000 0.000000 0.000000
# 4 0.000000 0.000000 0.000000 0.030479 0.000000 0.000000
# 5 0.000000 0.000000 0.000000 0.000000 0.002269 0.000000
# 6 0.000000 0.000000 0.000000 0.000000 0.000000 0.123279
#
#
# Mechanical properties :
#
#
# Convention : Reuss Voigt Hill
#
# Bulk Modulus (GPa) = 28.01118 68.32616 48.16867
# Shear Modulus (GPa) = 21.16327 112.96907 67.06617
#
# Velocity S-wave (km/s) = 3.13909 7.25257 5.58809
# Velocity P-wave (km/s) = 5.11672 10.09685 8.00397
#
# Compressibility (1/GPa) = 0.03570003
#
# Stress axis : x y z
#
# Youngs Moduli (GPa) = 103.44030 32.01858 89.95811
#
# Poissons Ratio (x) = 0.16318 0.59586
# Poissons Ratio (y) = 0.52716 -0.32045
# Poissons Ratio (z) = 0.68516 -0.11406
#
# Static dielectric constant tensor:
#      x y z
#    x 1.824550 0.000000 0.000000 
#    y 0.000000 1.831750 0.000000 
#    z 0.000000 0.000000 1.775510 
# 
# From -- ./inp_files/26042.got.cif
#   From: 2010.05.17/outbox.cif.g08.bks.cpg/sg53_14_cif.got.tgz:26042.got - 2010.06.03 12:45:16.
