data_PCOD9418837
_publ_section_title
;
Structure prediction by ZEFSAII (Michael W. Deem and Ramdas Pophale) SiO2 
 PCOD9418837
Probable space group: P M N A
;
_chemical_formula_sum "Si O2"
_cell_formula_units_Z 56
_cell_length_a 14.270370
_cell_length_b 13.070675
_cell_length_c 14.883481
_cell_angle_alpha 90.000000
_cell_angle_beta 90.000000
_cell_angle_gamma 90.000000
_cell_volume 2776.117010
_symmetry_space_group_name_H-M "P M N A"
_symmetry_group_IT_number 53
_symmetry_cell_setting 'orthorhombic'
loop_
_space_group_symop_operation_xyz
x,y,z
1/2-x,-y,1/2+z
x,-y,-z
1/2-x,y,1/2-z
-x,-y,-z
1/2+x,y,1/2-z
-x,y,z
1/2+x,-y,1/2+z
loop_
_atom_site_type_symbol
_atom_site_label
_atom_site_fract_x
_atom_site_fract_y
_atom_site_fract_z
Si Si1 0.763802 0.119415 0.142609
Si Si2 0.611006 0.496232 0.716567
Si Si3 0.395826 0.122242 0.999197
Si Si4 0.741489 0.116279 0.643285
Si Si5 0.388563 0.312074 0.397494
Si Si6 0.304294 0.670831 0.413400
Si Si7 0.106139 0.575345 0.415554
O O1 0.750000 0.123417 0.250000
O O2 0.671901 0.147941 0.083305
O O3 0.841009 0.202535 0.117290
O O4 0.787286 0.000400 0.120021
O O5 0.500000 0.487428 0.697500
O O6 0.642409 0.604860 0.676710
O O7 0.661232 0.403650 0.665166
O O8 0.623095 0.485513 0.822850
O O9 0.500000 0.167519 0.005399
O O10 0.340155 0.136867 0.906341
O O11 0.405874 0.000000 0.000000
O O12 0.750000 0.123096 0.750000
O O13 0.678251 0.210277 0.610077
O O14 0.500000 0.302336 0.394252
O O15 0.356182 0.353961 0.494114
O O16 0.193327 0.651188 0.425830
O O17 0.108336 0.500000 0.500000
O O18 0.000000 0.618685 0.409381
#
# Coordination Sequence:
#
# PCOD9418837 Si02
#       7
#     8   8   8   8   8   8   8
#     4  10  22  41  64  92 127 165 214 267 319 373
#     4  10  22  41  63  88 121 160 209 257 306 376
#     4   9  18  37  64  89 121 164 210 258 315 378
#     4  10  21  39  63  91 130 166 209 264 316 378
#     4  11  24  42  64  91 124 167 212 258 314 375
#     4  12  22  38  64  90 124 165 205 251 311 378
#     4  10  22  39  60  91 127 161 202 258 316 371
#
# _framework density 20.172059999999998
#
# number of rings (size 3 to 8) (size 9 to 14) (size 15 to 20)
#    0.000    1.714    1.429    3.000    0.000    4.571 
#    0.000    5.714    0.000    0.000    0.000    0.000 
#    0.000    0.000    0.000    0.000    0.000    0.000 
#
# Total GULP energy -312595.791341 kJ/mol
# GULP energy per Si atom -5582.067703 kJ/mol
# Density = 2.012615 g / cm^3
# Si number density = 20.172060 Si / 1000 Ang^3
#
#
#
# Elastic Constant Matrix: (Units=GPa)
#
#
# Indices 1 2 3 4 5 6 
#
# 1 96.2112 51.6374 53.7764 0.0000 0.0000 0.0000
# 2 51.6374 119.6315 47.1402 0.0000 0.0000 0.0000
# 3 53.7764 47.1402 141.3359 0.0000 0.0000 0.0000
# 4 0.0000 0.0000 0.0000 -44.4136 0.0000 0.0000
# 5 0.0000 0.0000 0.0000 0.0000 20.2292 0.0000
# 6 0.0000 0.0000 0.0000 0.0000 0.0000 27.8145
#
#
#
# Elastic Compliance Matrix: (Units=1/GPa)
#
#
# Indices 1 2 3 4 5 6 
#
# 1 0.015427 -0.005004 -0.004201 0.000000 0.000000 0.000000
# 2 -0.005004 0.011247 -0.001847 0.000000 0.000000 0.000000
# 3 -0.004201 -0.001847 0.009290 0.000000 0.000000 0.000000
# 4 0.000000 0.000000 0.000000 -0.022516 0.000000 0.000000
# 5 0.000000 0.000000 0.000000 0.000000 0.049434 0.000000
# 6 0.000000 0.000000 0.000000 0.000000 0.000000 0.035952
#
#
# Mechanical properties :
#
#
# Convention : Reuss Voigt Hill
#
# Bulk Modulus (GPa) = 72.15002 73.58742 72.86872
# Shear Modulus (GPa) = 39.82207 14.36765 27.09486
#
# Velocity S-wave (km/s) = 4.44793 2.67171 3.66893
# Velocity P-wave (km/s) = 7.88820 6.78796 7.35867
#
# Compressibility (1/GPa) = 0.01386001
#
# Stress axis : x y z
#
# Youngs Moduli (GPa) = 64.81950 88.91499 107.64347
#
# Poissons Ratio (x) = 0.44490 0.45222
# Poissons Ratio (y) = 0.32434 0.19885
# Poissons Ratio (z) = 0.27231 0.16425
#
# Static dielectric constant tensor:
#      x y z
#    x 1.728030 0.000000 0.000000 
#    y 0.000000 1.740350 0.000000 
#    z 0.000000 0.000000 1.699330 
# 
# From -- ./inp_files/22800.got.cif
#   From: 2010.05.17/outbox.cif.g08.bks.cpg/sg53_12_cif.got.tgz:22800.got - 2010.06.03 12:45:16.
