data_PCOD9418452
_publ_section_title
;
Structure prediction by ZEFSAII (Michael W. Deem and Ramdas Pophale) SiO2 
 PCOD9418452
Probable space group: P M N A
;
_chemical_formula_sum "Si O2"
_cell_formula_units_Z 40
_cell_length_a 28.694921
_cell_length_b 5.013673
_cell_length_c 16.623754
_cell_angle_alpha 90.000000
_cell_angle_beta 90.000000
_cell_angle_gamma 90.000000
_cell_volume 2391.608796
_symmetry_space_group_name_H-M "P M N A"
_symmetry_group_IT_number 53
_symmetry_cell_setting 'orthorhombic'
loop_
_space_group_symop_operation_xyz
x,y,z
1/2-x,-y,1/2+z
x,-y,-z
1/2-x,y,1/2-z
-x,-y,-z
1/2+x,y,1/2-z
-x,y,z
1/2+x,-y,1/2+z
loop_
_atom_site_type_symbol
_atom_site_label
_atom_site_fract_x
_atom_site_fract_y
_atom_site_fract_z
Si Si1 0.946652 0.251324 0.440958
Si Si2 0.855734 0.187708 0.344054
Si Si3 0.816170 0.328661 0.576757
Si Si4 0.790605 0.538778 0.088494
Si Si5 0.202359 0.016677 0.197326
O O1 0.937898 0.500000 0.500000
O O2 0.909134 0.224986 0.370091
O O3 0.000000 0.269660 0.411419
O O4 0.942721 0.000000 0.500000
O O5 0.831686 0.475969 0.352052
O O6 0.839427 0.085469 0.257879
O O7 0.834792 0.966254 0.406476
O O8 0.833469 0.500000 0.500000
O O9 0.760655 0.334678 0.572659
O O10 0.787337 0.261226 0.136534
O O11 0.812081 0.758172 0.146883
O O12 0.812021 0.500000 0.000000
O O13 0.250000 0.970596 0.250000
#
# Coordination Sequence:
#
# PCOD9418452 Si02
#       5
#     8   8   8   8   8
#     4  10  21  37  53  73 104 137 171 211 254 302
#     4  12  21  31  51  72  98 131 171 212 251 294
#     4  11  20  30  46  70  98 132 172 204 238 296
#     4  11  22  36  49  67 100 141 171 202 250 301
#     4  12  21  35  49  73 103 130 170 219 252 291
#
# _framework density 16.725142000000002
#
# number of rings (size 3 to 8) (size 9 to 14) (size 15 to 20)
#    0.000    0.800    4.000    6.000    0.000    3.200 
#    0.000    0.000    0.000    0.000    0.000    0.000 
#    0.000    4.800    0.000    0.000    0.000    0.000 
#
# Total GULP energy -223291.350017 kJ/mol
# GULP energy per Si atom -5582.283750 kJ/mol
# Density = 1.668707 g / cm^3
# Si number density = 16.725142 Si / 1000 Ang^3
#
#
#
# Elastic Constant Matrix: (Units=GPa)
#
#
# Indices 1 2 3 4 5 6 
#
# 1 71.9749 -1.3845 22.6114 0.0000 0.0000 0.0000
# 2 -1.3845 97.3321 22.4578 0.0000 0.0000 0.0000
# 3 22.6114 22.4578 99.0706 0.0000 0.0000 0.0000
# 4 0.0000 0.0000 0.0000 29.2103 0.0000 0.0000
# 5 0.0000 0.0000 0.0000 0.0000 19.3665 0.0000
# 6 0.0000 0.0000 0.0000 0.0000 0.0000 4.0565
#
#
#
# Elastic Compliance Matrix: (Units=1/GPa)
#
#
# Indices 1 2 3 4 5 6 
#
# 1 0.015071 0.001064 -0.003681 0.000000 0.000000 0.000000
# 2 0.001064 0.010916 -0.002717 0.000000 0.000000 0.000000
# 3 -0.003681 -0.002717 0.011550 0.000000 0.000000 0.000000
# 4 0.000000 0.000000 0.000000 0.034234 0.000000 0.000000
# 5 0.000000 0.000000 0.000000 0.000000 0.051636 0.000000
# 6 0.000000 0.000000 0.000000 0.000000 0.000000 0.246516
#
#
# Mechanical properties :
#
#
# Convention : Reuss Voigt Hill
#
# Bulk Modulus (GPa) = 37.21930 39.52746 38.37338
# Shear Modulus (GPa) = 12.83540 25.50620 19.17080
#
# Velocity S-wave (km/s) = 2.77326 3.90939 3.38927
# Velocity P-wave (km/s) = 5.70583 6.63797 6.18947
#
# Compressibility (1/GPa) = 0.02686778
#
# Stress axis : x y z
#
# Youngs Moduli (GPa) = 66.35471 91.60698 86.58121
#
# Poissons Ratio (x) = -0.09744 0.31868
# Poissons Ratio (y) = -0.07058 0.23527
# Poissons Ratio (z) = 0.24423 0.24892
#
# Static dielectric constant tensor:
#      x y z
#    x 1.563090 0.000000 0.000000 
#    y 0.000000 1.599870 0.000000 
#    z 0.000000 0.000000 1.712420 
# 
# From -- ./inp_files/25035.got.cif
#   From: 2010.05.17/outbox.cif.g08.bks.cpg/sg53_13_cif.got.tgz:25035.got - 2010.06.03 12:45:16.
