data_PCOD9418041
_publ_section_title
;
Structure prediction by ZEFSAII (Michael W. Deem and Ramdas Pophale) SiO2 
 PCOD9418041
Probable space group: P M N A
;
_chemical_formula_sum "Si O2"
_cell_formula_units_Z 48
_cell_length_a 9.355731
_cell_length_b 29.746571
_cell_length_c 9.221967
_cell_angle_alpha 90.000000
_cell_angle_beta 90.000000
_cell_angle_gamma 90.000000
_cell_volume 2566.481868
_symmetry_space_group_name_H-M "P M N A"
_symmetry_group_IT_number 53
_symmetry_cell_setting 'orthorhombic'
loop_
_space_group_symop_operation_xyz
x,y,z
1/2-x,-y,1/2+z
x,-y,-z
1/2-x,y,1/2-z
-x,-y,-z
1/2+x,y,1/2-z
-x,y,z
1/2+x,-y,1/2+z
loop_
_atom_site_type_symbol
_atom_site_label
_atom_site_fract_x
_atom_site_fract_y
_atom_site_fract_z
Si Si1 0.242265 0.100858 0.577962
Si Si2 0.000000 0.949740 0.931231
Si Si3 0.330896 0.541147 0.098994
Si Si4 0.827422 0.357116 0.593466
Si Si5 0.824766 0.280653 0.094226
Si Si6 0.325773 0.793716 0.097409
Si Si7 0.500000 0.047265 0.082039
O O1 0.250000 0.089329 0.750000
O O2 0.375589 0.080832 0.495107
O O3 0.210893 0.153928 0.571513
O O4 0.126673 0.075218 0.485360
O O5 0.000000 0.955122 0.756535
O O6 0.000000 0.000000 0.000000
O O7 0.250000 0.539377 0.250000
O O8 0.500000 0.535644 0.124544
O O9 0.311913 0.591544 0.037382
O O10 0.281813 0.500000 0.000000
O O11 0.750000 0.355527 0.750000
O O12 0.739755 0.322335 0.496369
O O13 0.000000 0.347253 0.602300
O O14 0.750000 0.283768 0.250000
O O15 0.000000 0.279975 0.097552
O O16 0.755945 0.236591 0.019405
O O17 0.250000 0.781470 0.250000
O O18 0.500000 0.787630 0.100105
O O19 0.500000 0.000000 0.000000
#
# Coordination Sequence:
#
# PCOD9418041 Si02
#       7
#     8   4   8   8   8   8   4
#     4  11  24  43  68  95 129 167 213 263 316 382
#     4  12  26  42  66  98 130 174 214 264 321 380
#     4   9  19  35  56  85 120 160 207 258 313 374
#     4  10  20  38  62  88 122 164 213 263 314 379
#     4  12  26  43  64  92 128 166 208 261 318 376
#     4  11  24  44  70  97 127 166 210 256 314 381
#     4  12  24  44  66  94 132 168 214 262 319 380
#
# _framework density 18.702643999999999
#
# number of rings (size 3 to 8) (size 9 to 14) (size 15 to 20)
#    0.000    1.167    0.833    5.500    4.667    3.000 
#    0.000    1.667    0.000    0.000    0.000    0.000 
#    0.000    0.000    0.000    0.000    0.000    0.000 
#
# Total GULP energy -267552.168051 kJ/mol
# GULP energy per Si atom -5574.003501 kJ/mol
# Density = 1.866008 g / cm^3
# Si number density = 18.702644 Si / 1000 Ang^3
#
#
#
# Elastic Constant Matrix: (Units=GPa)
#
#
# Indices 1 2 3 4 5 6 
#
# 1 189.9934 64.4637 66.8066 0.0000 0.0000 0.0000
# 2 64.4637 98.6704 85.4463 0.0000 0.0000 0.0000
# 3 66.8066 85.4463 157.7304 0.0000 0.0000 0.0000
# 4 0.0000 0.0000 0.0000 39.7372 0.0000 0.0000
# 5 0.0000 0.0000 0.0000 0.0000 33.2543 0.0000
# 6 0.0000 0.0000 0.0000 0.0000 0.0000 30.2179
#
#
#
# Elastic Compliance Matrix: (Units=1/GPa)
#
#
# Indices 1 2 3 4 5 6 
#
# 1 0.006829 -0.003686 -0.000896 0.000000 0.000000 0.000000
# 2 -0.003686 0.021080 -0.009858 0.000000 0.000000 0.000000
# 3 -0.000896 -0.009858 0.012060 0.000000 0.000000 0.000000
# 4 0.000000 0.000000 0.000000 0.025165 0.000000 0.000000
# 5 0.000000 0.000000 0.000000 0.000000 0.030071 0.000000
# 6 0.000000 0.000000 0.000000 0.000000 0.000000 0.033093
#
#
# Mechanical properties :
#
#
# Convention : Reuss Voigt Hill
#
# Bulk Modulus (GPa) = 90.18052 97.75860 93.96956
# Shear Modulus (GPa) = 31.08018 35.95370 33.51694
#
# Velocity S-wave (km/s) = 4.08095 4.38926 4.23791
# Velocity P-wave (km/s) = 8.39811 8.83577 8.61972
#
# Compressibility (1/GPa) = 0.01108887
#
# Stress axis : x y z
#
# Youngs Moduli (GPa) = 146.43729 47.43852 82.92020
#
# Poissons Ratio (x) = 0.17485 0.07427
# Poissons Ratio (y) = 0.53974 0.81746
# Poissons Ratio (z) = 0.13116 0.46767
#
# Static dielectric constant tensor:
#      x y z
#    x 1.594170 0.000000 0.000000 
#    y 0.000000 1.638780 0.000000 
#    z 0.000000 0.000000 1.632270 
# 
# From -- ./inp_files/6809.got.cif
#   From: 2010.05.17/outbox.cif.g08.bks.cpg/sg53_4_cif.got.tgz:6809.got - 2010.06.03 12:45:16.
