data_PCOD9418129
_publ_section_title
;
Structure prediction by ZEFSAII (Michael W. Deem and Ramdas Pophale) SiO2 
 PCOD9418129
Probable space group: P M N A
;
_chemical_formula_sum "Si O2"
_cell_formula_units_Z 64
_cell_length_a 26.191912
_cell_length_b 14.863264
_cell_length_c 7.960823
_cell_angle_alpha 90.000000
_cell_angle_beta 90.000000
_cell_angle_gamma 90.000000
_cell_volume 3099.126921
_symmetry_space_group_name_H-M "P M N A"
_symmetry_group_IT_number 53
_symmetry_cell_setting 'orthorhombic'
loop_
_space_group_symop_operation_xyz
x,y,z
1/2-x,-y,1/2+z
x,-y,-z
1/2-x,y,1/2-z
-x,-y,-z
1/2+x,y,1/2-z
-x,y,z
1/2+x,-y,1/2+z
loop_
_atom_site_type_symbol
_atom_site_label
_atom_site_fract_x
_atom_site_fract_y
_atom_site_fract_z
Si Si1 0.149809 0.593093 0.409631
Si Si2 0.909916 0.680694 0.707880
Si Si3 0.442888 0.513598 0.301596
Si Si4 0.165215 0.226839 0.040890
Si Si5 0.853486 0.856514 0.319527
Si Si6 0.057414 0.866108 0.570043
Si Si7 0.772157 0.258067 0.579238
Si Si8 0.867882 0.960177 0.821098
O O1 0.163879 0.500000 0.500000
O O2 0.124850 0.656559 0.549242
O O3 0.105096 0.568417 0.276183
O O4 0.200519 0.648946 0.366226
O O5 0.940180 0.588425 0.733705
O O6 0.873655 0.706534 0.865003
O O7 0.941345 0.768642 0.660263
O O8 0.437216 0.500000 0.500000
O O9 0.500000 0.551318 0.264773
O O10 0.162685 0.130578 0.134815
O O11 0.147430 0.205047 0.849071
O O12 0.223096 0.264449 0.038862
O O13 0.909082 0.859462 0.401877
O O14 0.816178 0.813927 0.459972
O O15 0.838498 0.957272 0.265940
O O16 0.086769 0.931796 0.697481
O O17 0.000000 0.893302 0.536914
O O18 0.750000 0.216186 0.750000
O O19 0.886436 0.000000 0.000000
#
# Coordination Sequence:
#
# PCOD9418129 Si02
#       8
#     8   8   8   8   8   8   8   8
#     4  10  22  42  61  92 127 161 208 257 313 376
#     4  10  21  40  63  89 124 161 207 261 311 378
#     4  10  23  40  65  94 125 168 212 262 319 381
#     4   9  21  40  64  86 124 163 203 260 315 370
#     4  10  20  39  61  87 124 158 207 255 311 377
#     4  11  22  37  62  89 120 163 204 256 318 378
#     4  10  21  40  63  88 121 161 203 258 312 368
#     4   9  20  40  59  86 121 159 202 257 309 376
#
# _framework density 20.650977000000001
#
# number of rings (size 3 to 8) (size 9 to 14) (size 15 to 20)
#    0.000    2.125    1.250    0.750    3.500    4.500 
#    4.500   15.625    0.000    0.000    0.000    0.000 
#    0.000    0.000    0.000    0.000    0.000    0.000 
#
# Total GULP energy -356734.799454 kJ/mol
# GULP energy per Si atom -5573.981241 kJ/mol
# Density = 2.060397 g / cm^3
# Si number density = 20.650977 Si / 1000 Ang^3
#
#
#
# Elastic Constant Matrix: (Units=GPa)
#
#
# Indices 1 2 3 4 5 6 
#
# 1 133.7159 50.4483 45.5434 0.0000 0.0000 0.0000
# 2 50.4483 75.0311 16.6037 0.0000 0.0000 0.0000
# 3 45.5434 16.6037 78.5138 0.0000 0.0000 0.0000
# 4 0.0000 0.0000 0.0000 30.3554 0.0000 0.0000
# 5 0.0000 0.0000 0.0000 0.0000 15.8167 0.0000
# 6 0.0000 0.0000 0.0000 0.0000 0.0000 9.0348
#
#
#
# Elastic Compliance Matrix: (Units=1/GPa)
#
#
# Indices 1 2 3 4 5 6 
#
# 1 0.011904 -0.006794 -0.005469 0.000000 0.000000 0.000000
# 2 -0.006794 0.017860 0.000164 0.000000 0.000000 0.000000
# 3 -0.005469 0.000164 0.015874 0.000000 0.000000 0.000000
# 4 0.000000 0.000000 0.000000 0.032943 0.000000 0.000000
# 5 0.000000 0.000000 0.000000 0.000000 0.063224 0.000000
# 6 0.000000 0.000000 0.000000 0.000000 0.000000 0.110683
#
#
# Mechanical properties :
#
#
# Convention : Reuss Voigt Hill
#
# Bulk Modulus (GPa) = 46.63943 56.93908 51.78925
# Shear Modulus (GPa) = 17.61604 22.68574 20.15089
#
# Velocity S-wave (km/s) = 2.92385 3.31800 3.12714
# Velocity P-wave (km/s) = 5.83371 6.50468 6.17831
#
# Compressibility (1/GPa) = 0.02144109
#
# Stress axis : x y z
#
# Youngs Moduli (GPa) = 84.00285 55.99260 62.99578
#
# Poissons Ratio (x) = 0.38041 0.34450
# Poissons Ratio (y) = 0.57071 -0.01034
# Poissons Ratio (z) = 0.45938 -0.00919
#
# Static dielectric constant tensor:
#      x y z
#    x 1.801520 0.000000 0.000000 
#    y 0.000000 1.792300 0.000000 
#    z 0.000000 0.000000 1.783450 
# 
# From -- ./inp_files/11945.got.cif
#   From: 2010.05.17/outbox.cif.g08.bks.cpg/sg53_6_cif.got.tgz:11945.got - 2010.06.03 12:45:16.
