data_PCOD9418668
_publ_section_title
;
Structure prediction by ZEFSAII (Michael W. Deem and Ramdas Pophale) SiO2 
 PCOD9418668
Probable space group: P M N A
;
_chemical_formula_sum "Si O2"
_cell_formula_units_Z 56
_cell_length_a 13.466087
_cell_length_b 13.640287
_cell_length_c 13.919267
_cell_angle_alpha 90.000000
_cell_angle_beta 90.000000
_cell_angle_gamma 90.000000
_cell_volume 2556.708939
_symmetry_space_group_name_H-M "P M N A"
_symmetry_group_IT_number 53
_symmetry_cell_setting 'orthorhombic'
loop_
_space_group_symop_operation_xyz
x,y,z
1/2-x,-y,1/2+z
x,-y,-z
1/2-x,y,1/2-z
-x,-y,-z
1/2+x,y,1/2-z
-x,y,z
1/2+x,-y,1/2+z
loop_
_atom_site_type_symbol
_atom_site_label
_atom_site_fract_x
_atom_site_fract_y
_atom_site_fract_z
Si Si1 0.183038 0.263083 0.106062
Si Si2 0.681733 0.900059 0.461697
Si Si3 0.113093 0.378882 0.536561
Si Si4 0.886105 0.180465 0.298489
Si Si5 0.724337 0.455003 0.135385
Si Si6 0.392444 0.852916 0.061812
Si Si7 0.111657 0.042966 0.761781
O O1 0.293289 0.225685 0.142611
O O2 0.116603 0.236541 0.197071
O O3 0.191983 0.380195 0.093810
O O4 0.148273 0.198727 0.015259
O O5 0.798400 0.901111 0.486709
O O6 0.673142 0.909682 0.347711
O O7 0.634144 0.000000 0.500000
O O8 0.130788 0.405765 0.423882
O O9 0.198575 0.435534 0.597845
O O10 0.120379 0.263391 0.553035
O O11 0.000000 0.405653 0.564163
O O12 0.000000 0.188153 0.335683
O O13 0.862424 0.066175 0.275075
O O14 0.750000 0.454435 0.250000
O O15 0.500000 0.883174 0.023898
O O16 0.390630 0.885652 0.171735
O O17 0.000000 0.033238 0.800587
#
# Coordination Sequence:
#
# PCOD9418668 Si02
#       7
#     8   8   8   8   8   8   8
#     4  11  22  37  55  94 116 153 210 246 311 370
#     4  12  22  34  59  83 123 165 200 257 305 364
#     4  10  23  44  68  95 124 163 212 263 322 385
#     4  10  21  38  59  84 123 162 203 252 301 370
#     4  11  21  39  62  92 125 152 201 258 308 377
#     4  10  22  40  61  90 122 159 207 257 312 369
#     4  10  22  38  58  84 119 167 214 248 299 372
#
# _framework density 21.903158999999999
#
# number of rings (size 3 to 8) (size 9 to 14) (size 15 to 20)
#    0.000    1.429    4.286    2.143    2.000    4.000 
#    0.000    0.000    0.000    0.000    0.000   10.000 
#    0.000    0.000    0.000    0.000    0.000    0.000 
#
# Total GULP energy -311749.749123 kJ/mol
# GULP energy per Si atom -5566.959806 kJ/mol
# Density = 2.185331 g / cm^3
# Si number density = 21.903159 Si / 1000 Ang^3
#
#
#
# Elastic Constant Matrix: (Units=GPa)
#
#
# Indices 1 2 3 4 5 6 
#
# 1 74.4076 11.8637 17.7115 0.0000 0.0000 0.0000
# 2 11.8637 117.8831 17.8977 0.0000 0.0000 0.0000
# 3 17.7115 17.8977 98.6234 0.0000 0.0000 0.0000
# 4 0.0000 0.0000 0.0000 30.3073 0.0000 0.0000
# 5 0.0000 0.0000 0.0000 0.0000 13.4733 0.0000
# 6 0.0000 0.0000 0.0000 0.0000 0.0000 16.9564
#
#
#
# Elastic Compliance Matrix: (Units=1/GPa)
#
#
# Indices 1 2 3 4 5 6 
#
# 1 0.014169 -0.001069 -0.002351 0.000000 0.000000 0.000000
# 2 -0.001069 0.008804 -0.001406 0.000000 0.000000 0.000000
# 3 -0.002351 -0.001406 0.010817 0.000000 0.000000 0.000000
# 4 0.000000 0.000000 0.000000 0.032995 0.000000 0.000000
# 5 0.000000 0.000000 0.000000 0.000000 0.074221 0.000000
# 6 0.000000 0.000000 0.000000 0.000000 0.000000 0.058975
#
#
# Mechanical properties :
#
#
# Convention : Reuss Voigt Hill
#
# Bulk Modulus (GPa) = 41.42609 42.87332 42.14971
# Shear Modulus (GPa) = 22.96968 28.37684 25.67326
#
# Velocity S-wave (km/s) = 3.24187 3.60329 3.42735
# Velocity P-wave (km/s) = 5.74171 6.07685 5.91166
#
# Compressibility (1/GPa) = 0.02413938
#
# Stress axis : x y z
#
# Youngs Moduli (GPa) = 70.57426 113.58474 92.44855
#
# Poissons Ratio (x) = 0.12144 0.21731
# Poissons Ratio (y) = 0.07545 0.12996
# Poissons Ratio (z) = 0.16589 0.15967
#
# Static dielectric constant tensor:
#      x y z
#    x 1.869940 0.000000 0.000000 
#    y 0.000000 1.854020 0.000000 
#    z 0.000000 0.000000 1.837510 
# 
# From -- ./inp_files/22955.got.cif
#   From: 2010.05.17/outbox.cif.g08.bks.cpg/sg53_12_cif.got.tgz:22955.got - 2010.06.03 12:45:16.
