data_PCOD9418962
_publ_section_title
;
Structure prediction by ZEFSAII (Michael W. Deem and Ramdas Pophale) SiO2 
 PCOD9418962
Probable space group: P M N A
;
_chemical_formula_sum "Si O2"
_cell_formula_units_Z 56
_cell_length_a 16.716937
_cell_length_b 12.041063
_cell_length_c 12.896551
_cell_angle_alpha 90.000000
_cell_angle_beta 90.000000
_cell_angle_gamma 90.000000
_cell_volume 2595.942773
_symmetry_space_group_name_H-M "P M N A"
_symmetry_group_IT_number 53
_symmetry_cell_setting 'orthorhombic'
loop_
_space_group_symop_operation_xyz
x,y,z
1/2-x,-y,1/2+z
x,-y,-z
1/2-x,y,1/2-z
-x,-y,-z
1/2+x,y,1/2-z
-x,y,z
1/2+x,-y,1/2+z
loop_
_atom_site_type_symbol
_atom_site_label
_atom_site_fract_x
_atom_site_fract_y
_atom_site_fract_z
Si Si1 0.825952 0.711015 0.610951
Si Si2 0.096253 0.317463 0.853256
Si Si3 0.406376 0.516962 0.775346
Si Si4 0.091393 0.855608 0.790586
Si Si5 0.594276 0.877820 0.042403
Si Si6 0.861199 0.333165 0.080149
Si Si7 0.343913 0.904218 0.271562
O O1 0.863397 0.590821 0.638016
O O2 0.853682 0.791652 0.705877
O O3 0.859825 0.777049 0.512503
O O4 0.732172 0.690318 0.599813
O O5 0.122499 0.394201 0.755841
O O6 0.135694 0.197276 0.845866
O O7 0.000000 0.310557 0.849700
O O8 0.121885 0.368202 0.963325
O O9 0.500000 0.512751 0.800195
O O10 0.394064 0.583743 0.667451
O O11 0.095002 0.782497 0.893799
O O12 0.000000 0.859069 0.750957
O O13 0.123999 0.977706 0.809170
O O14 0.500000 0.865949 0.021359
O O15 0.611180 0.879026 0.163849
O O16 0.619602 0.000000 0.000000
O O17 0.250000 0.911501 0.250000
#
# Coordination Sequence:
#
# PCOD9418962 Si02
#       7
#     8   8   8   8   8   8   8
#     4  11  21  38  63  97 124 155 209 270 316 364
#     4  11  24  43  64  89 126 171 213 256 315 384
#     4  10  21  40  67  92 122 165 214 262 312 377
#     4  11  21  37  61  90 126 167 212 262 316 381
#     4  11  22  39  65  90 121 166 210 250 306 381
#     4  11  22  38  62  94 126 165 210 262 316 375
#     4  12  25  41  60  92 128 167 207 263 324 380
#
# _framework density 21.572123999999999
#
# number of rings (size 3 to 8) (size 9 to 14) (size 15 to 20)
#    0.000    1.000    1.429    8.571    0.000    2.857 
#    0.000    3.571    0.000    2.571    0.000    0.000 
#    0.000    0.000    0.000    0.000    0.000    0.000 
#
# Total GULP energy -313186.879281 kJ/mol
# GULP energy per Si atom -5592.622844 kJ/mol
# Density = 2.152302 g / cm^3
# Si number density = 21.572124 Si / 1000 Ang^3
#
#
#
# Elastic Constant Matrix: (Units=GPa)
#
#
# Indices 1 2 3 4 5 6 
#
# 1 93.6957 19.2927 -10.6607 0.0000 0.0000 0.0000
# 2 19.2927 92.7571 -3.2202 0.0000 0.0000 0.0000
# 3 -10.6607 -3.2202 24.0222 0.0000 0.0000 0.0000
# 4 0.0000 0.0000 0.0000 31.9726 0.0000 0.0000
# 5 0.0000 0.0000 0.0000 0.0000 133.6711 0.0000
# 6 0.0000 0.0000 0.0000 0.0000 0.0000 8.5040
#
#
#
# Elastic Compliance Matrix: (Units=1/GPa)
#
#
# Indices 1 2 3 4 5 6 
#
# 1 0.011695 -0.002263 0.004887 0.000000 0.000000 0.000000
# 2 -0.002263 0.011269 0.000506 0.000000 0.000000 0.000000
# 3 0.004887 0.000506 0.043865 0.000000 0.000000 0.000000
# 4 0.000000 0.000000 0.000000 0.031277 0.000000 0.000000
# 5 0.000000 0.000000 0.000000 0.000000 0.007481 0.000000
# 6 0.000000 0.000000 0.000000 0.000000 0.000000 0.117592
#
#
# Mechanical properties :
#
#
# Convention : Reuss Voigt Hill
#
# Bulk Modulus (GPa) = 13.68192 24.58872 19.13532
# Shear Modulus (GPa) = 20.72279 48.50043 34.61161
#
# Velocity S-wave (km/s) = 3.10276 4.74676 4.00992
# Velocity P-wave (km/s) = 4.38091 6.43937 5.50717
#
# Compressibility (1/GPa) = 0.07308915
#
# Stress axis : x y z
#
# Youngs Moduli (GPa) = 85.50829 88.73849 22.79740
#
# Poissons Ratio (x) = 0.20079 -0.11140
# Poissons Ratio (y) = 0.19349 -0.01155
# Poissons Ratio (z) = -0.41785 -0.04494
#
# Static dielectric constant tensor:
#      x y z
#    x 1.756290 0.000000 0.000000 
#    y 0.000000 1.831540 0.000000 
#    z 0.000000 0.000000 1.828710 
# 
# From -- ./inp_files/22818.got.cif
#   From: 2010.05.17/outbox.cif.g08.bks.cpg/sg53_12_cif.got.tgz:22818.got - 2010.06.03 12:45:16.
