data_PCOD9418145
_publ_section_title
;
Structure prediction by ZEFSAII (Michael W. Deem and Ramdas Pophale) SiO2 
 PCOD9418145
Probable space group: P M N A
;
_chemical_formula_sum "Si O2"
_cell_formula_units_Z 48
_cell_length_a 17.667740
_cell_length_b 9.447541
_cell_length_c 14.213180
_cell_angle_alpha 90.000000
_cell_angle_beta 90.000000
_cell_angle_gamma 90.000000
_cell_volume 2372.417074
_symmetry_space_group_name_H-M "P M N A"
_symmetry_group_IT_number 53
_symmetry_cell_setting 'orthorhombic'
loop_
_space_group_symop_operation_xyz
x,y,z
1/2-x,-y,1/2+z
x,-y,-z
1/2-x,y,1/2-z
-x,-y,-z
1/2+x,y,1/2-z
-x,y,z
1/2+x,-y,1/2+z
loop_
_atom_site_type_symbol
_atom_site_label
_atom_site_fract_x
_atom_site_fract_y
_atom_site_fract_z
Si Si1 0.416108 0.845136 0.046837
Si Si2 0.338499 0.846723 0.238642
Si Si3 0.628118 0.356951 0.121517
Si Si4 0.836226 0.160568 0.210814
Si Si5 0.806339 0.593185 0.907516
Si Si6 0.084358 0.562319 0.233740
O O1 0.500000 0.823550 0.088375
O O2 0.353943 0.853083 0.127474
O O3 0.401200 0.723379 0.970220
O O4 0.415522 0.000000 0.000000
O O5 0.250000 0.811084 0.250000
O O6 0.394279 0.725262 0.272770
O O7 0.356071 0.996183 0.287900
O O8 0.618681 0.245291 0.208108
O O9 0.716150 0.395337 0.105231
O O10 0.589677 0.499394 0.160386
O O11 0.750000 0.165251 0.250000
O O12 0.836408 0.246099 0.112263
O O13 0.848426 0.512859 0.823219
O O14 0.822431 0.500000 0.000000
O O15 0.000000 0.532765 0.197486
#
# Coordination Sequence:
#
# PCOD9418145 Si02
#       6
#     8   8   8   8   8   8
#     4  11  23  38  62  98 134 163 206 264 331 398
#     4  11  22  39  60  88 126 174 215 259 316 394
#     4  10  20  39  64  94 123 164 208 262 330 394
#     4   8  17  37  59  87 122 158 210 255 311 381
#     4  10  22  40  66  92 119 165 221 271 313 387
#     4  11  24  41  60  89 130 166 209 270 335 387
#
# _framework density 20.232531000000002
#
# number of rings (size 3 to 8) (size 9 to 14) (size 15 to 20)
#    0.000    1.833    1.667    3.500    4.667    0.333 
#    0.000    3.333    0.000    1.000    0.000    0.000 
#    0.000    0.000    0.000    0.000    0.000    0.000 
#
# Total GULP energy -267640.954910 kJ/mol
# GULP energy per Si atom -5575.853227 kJ/mol
# Density = 2.018648 g / cm^3
# Si number density = 20.232531 Si / 1000 Ang^3
#
#
#
# Elastic Constant Matrix: (Units=GPa)
#
#
# Indices 1 2 3 4 5 6 
#
# 1 81.0395 18.4110 36.3894 0.0000 0.0000 0.0000
# 2 18.4110 126.9326 33.3504 0.0000 0.0000 0.0000
# 3 36.3894 33.3504 72.8426 0.0000 0.0000 0.0000
# 4 0.0000 0.0000 0.0000 38.8097 0.0000 0.0000
# 5 0.0000 0.0000 0.0000 0.0000 -9.4466 0.0000
# 6 0.0000 0.0000 0.0000 0.0000 0.0000 -61.5019
#
#
#
# Elastic Compliance Matrix: (Units=1/GPa)
#
#
# Indices 1 2 3 4 5 6 
#
# 1 0.015915 -0.000249 -0.007836 0.000000 0.000000 0.000000
# 2 -0.000249 0.008959 -0.003977 0.000000 0.000000 0.000000
# 3 -0.007836 -0.003977 0.019464 0.000000 0.000000 0.000000
# 4 0.000000 0.000000 0.000000 0.025767 0.000000 0.000000
# 5 0.000000 0.000000 0.000000 0.000000 -0.105858 0.000000
# 6 0.000000 0.000000 0.000000 0.000000 0.000000 -0.016260
#
#
# Mechanical properties :
#
#
# Convention : Reuss Voigt Hill
#
# Bulk Modulus (GPa) = 49.47532 50.79069 50.13301
# Shear Modulus (GPa) = -236.41946 6.41651 -115.00147
#
# Velocity S-wave (km/s) = -10.82150 1.78277 -7.54740
# Velocity P-wave (km/s) = 11.47316 5.42178 7.14974
#
# Compressibility (1/GPa) = 0.02021210
#
# Stress axis : x y z
#
# Youngs Moduli (GPa) = 62.83329 111.61462 51.37690
#
# Poissons Ratio (x) = 0.02785 0.40261
# Poissons Ratio (y) = 0.01568 0.20434
# Poissons Ratio (z) = 0.49239 0.44393
#
# Static dielectric constant tensor:
#      x y z
#    x 1.686630 0.000000 0.000000 
#    y 0.000000 1.786660 0.000000 
#    z 0.000000 0.000000 1.739030 
# 
# From -- ./inp_files/23680.got.cif
#   From: 2010.05.17/outbox.cif.g08.bks.cpg/sg53_12_cif.got.tgz:23680.got - 2010.06.03 12:45:16.
