data_PCOD9418636
_publ_section_title
;
Structure prediction by ZEFSAII (Michael W. Deem and Ramdas Pophale) SiO2 
 PCOD9418636
Probable space group: P M N A
;
_chemical_formula_sum "Si O2"
_cell_formula_units_Z 48
_cell_length_a 8.693710
_cell_length_b 21.278393
_cell_length_c 14.088072
_cell_angle_alpha 90.000000
_cell_angle_beta 90.000000
_cell_angle_gamma 90.000000
_cell_volume 2606.126771
_symmetry_space_group_name_H-M "P M N A"
_symmetry_group_IT_number 53
_symmetry_cell_setting 'orthorhombic'
loop_
_space_group_symop_operation_xyz
x,y,z
1/2-x,-y,1/2+z
x,-y,-z
1/2-x,y,1/2-z
-x,-y,-z
1/2+x,y,1/2-z
-x,y,z
1/2+x,-y,1/2+z
loop_
_atom_site_type_symbol
_atom_site_label
_atom_site_fract_x
_atom_site_fract_y
_atom_site_fract_z
Si Si1 0.313092 0.904094 0.045361
Si Si2 0.685623 0.967700 0.853099
Si Si3 0.814732 0.224470 0.643946
Si Si4 0.825543 0.483979 0.888088
Si Si5 0.684964 0.649826 0.448900
Si Si6 0.180269 0.387536 0.348257
O O1 0.500000 0.904284 0.045066
O O2 0.266295 0.962293 0.112698
O O3 0.263137 0.837268 0.085556
O O4 0.265023 0.921158 0.938140
O O5 0.750000 0.952860 0.750000
O O6 0.500000 0.966882 0.849356
O O7 0.750000 0.220553 0.750000
O O8 0.754198 0.287498 0.594729
O O9 0.000000 0.225458 0.646626
O O10 0.770753 0.412059 0.887014
O O11 0.715248 0.537601 0.849312
O O12 0.000000 0.489777 0.849118
O O13 0.837086 0.500000 0.000000
O O14 0.500000 0.651490 0.448686
O O15 0.741583 0.639535 0.556785
O O16 0.250000 0.362293 0.250000
O O17 0.000000 0.376048 0.352148
#
# Coordination Sequence:
#
# PCOD9418636 Si02
#       6
#     8   8   8   8   8   8
#     4   8  17  33  53  76 108 145 177 212 260 316
#     4   9  16  31  54  80 108 140 176 216 262 310
#     4  11  22  37  56  78 104 139 179 219 267 321
#     4   8  16  32  52  73 100 132 168 214 264 311
#     4  10  21  38  56  77 107 141 179 223 267 316
#     4  11  21  34  55  81 108 139 176 219 269 323
#
# _framework density 18.418136000000001
#
# number of rings (size 3 to 8) (size 9 to 14) (size 15 to 20)
#    0.000    2.500    0.000    5.000    0.000    4.333 
#    0.000    5.000    0.000    2.000    0.000    0.000 
#    0.000    0.000    0.000    0.000    0.000    0.000 
#
# Total GULP energy -267755.702008 kJ/mol
# GULP energy per Si atom -5578.243792 kJ/mol
# Density = 1.837622 g / cm^3
# Si number density = 18.418136 Si / 1000 Ang^3
#
#
#
# Elastic Constant Matrix: (Units=GPa)
#
#
# Indices 1 2 3 4 5 6 
#
# 1 48.2900 27.7116 28.6499 0.0000 0.0000 0.0000
# 2 27.7116 144.3998 69.4736 0.0000 0.0000 0.0000
# 3 28.6499 69.4736 130.8372 0.0000 0.0000 0.0000
# 4 0.0000 0.0000 0.0000 15.4593 0.0000 0.0000
# 5 0.0000 0.0000 0.0000 0.0000 32.3483 0.0000
# 6 0.0000 0.0000 0.0000 0.0000 0.0000 24.8078
#
#
#
# Elastic Compliance Matrix: (Units=1/GPa)
#
#
# Indices 1 2 3 4 5 6 
#
# 1 0.024653 -0.002866 -0.003876 0.000000 0.000000 0.000000
# 2 -0.002866 0.009635 -0.004488 0.000000 0.000000 0.000000
# 3 -0.003876 -0.004488 0.010875 0.000000 0.000000 0.000000
# 4 0.000000 0.000000 0.000000 0.064686 0.000000 0.000000
# 5 0.000000 0.000000 0.000000 0.000000 0.030914 0.000000
# 6 0.000000 0.000000 0.000000 0.000000 0.000000 0.040310
#
#
# Mechanical properties :
#
#
# Convention : Reuss Voigt Hill
#
# Bulk Modulus (GPa) = 44.05098 63.91079 53.98088
# Shear Modulus (GPa) = 23.68538 27.70255 25.69396
#
# Velocity S-wave (km/s) = 3.58995 3.88247 3.73907
# Velocity P-wave (km/s) = 6.41504 7.40765 6.92914
#
# Compressibility (1/GPa) = 0.02270097
#
# Stress axis : x y z
#
# Youngs Moduli (GPa) = 40.56333 103.79185 91.95219
#
# Poissons Ratio (x) = 0.29747 0.35645
# Poissons Ratio (y) = 0.11626 0.41271
# Poissons Ratio (z) = 0.15724 0.46585
#
# Static dielectric constant tensor:
#      x y z
#    x 1.623370 0.000000 0.000000 
#    y 0.000000 1.635350 0.000000 
#    z 0.000000 0.000000 1.639470 
# 
# From -- ./inp_files/20337.got.cif
#   From: 2010.05.17/outbox.cif.g08.bks.cpg/sg53_11_cif.got.tgz:20337.got - 2010.06.03 12:45:16.
