data_PCOD9418334
_publ_section_title
;
Structure prediction by ZEFSAII (Michael W. Deem and Ramdas Pophale) SiO2 
 PCOD9418334
Probable space group: P M N A
;
_chemical_formula_sum "Si O2"
_cell_formula_units_Z 54
_cell_length_a 30.781724
_cell_length_b 5.978957
_cell_length_c 14.849217
_cell_angle_alpha 90.000000
_cell_angle_beta 90.000000
_cell_angle_gamma 90.000000
_cell_volume 2732.888567
_symmetry_space_group_name_H-M "P M N A"
_symmetry_group_IT_number 53
_symmetry_cell_setting 'orthorhombic'
loop_
_space_group_symop_operation_xyz
x,y,z
1/2-x,-y,1/2+z
x,-y,-z
1/2-x,y,1/2-z
-x,-y,-z
1/2+x,y,1/2-z
-x,y,z
1/2+x,-y,1/2+z
loop_
_atom_site_type_symbol
_atom_site_label
_atom_site_fract_x
_atom_site_fract_y
_atom_site_fract_z
Si Si1 0.360934 0.149009 0.088960
Si Si2 0.691912 0.232856 0.334316
Si Si3 0.342427 0.500000 0.500000
Si Si4 0.579122 0.795921 0.429513
Si Si5 0.322142 0.444138 0.828316
Si Si6 0.616831 0.062711 0.743193
Si Si7 0.500000 0.500000 0.500000
Si Si8 0.267374 0.938237 0.102477
O O1 0.350884 0.412792 0.099770
O O2 0.394069 0.075476 0.166761
O O3 0.313042 0.062181 0.117996
O O4 0.369883 0.000000 0.000000
O O5 0.686216 0.368477 0.427084
O O6 0.696528 0.403563 0.251768
O O7 0.647553 0.099919 0.315275
O O8 0.729008 0.045479 0.340748
O O9 0.375227 0.332213 0.551775
O O10 0.579808 0.869140 0.325582
O O11 0.538403 0.640886 0.448239
O O12 0.577045 0.000000 0.500000
O O13 0.355174 0.273261 0.778934
O O14 0.282312 0.314381 0.876558
O O15 0.256175 0.000000 0.000000
#
# Coordination Sequence:
#
# PCOD9418334 Si02
#       8
#     8   8   4   8   8   8   2   8
#     4   9  21  39  56  81 107 152 205 264 314 363
#     4  11  23  37  56  85 106 160 213 259 319 374
#     4  11  22  35  60  88 116 158 204 258 308 361
#     4  11  21  41  62  93 132 159 197 245 292 392
#     4  10  22  41  56  76 112 154 198 277 314 370
#     4  10  21  35  61  85 113 152 201 250 308 361
#     4  10  26  36  64  98 134 174 188 224 324 366
#     4  10  24  37  51  73 109 151 209 258 325 367
#
# _framework density 19.759311
#
# number of rings (size 3 to 8) (size 9 to 14) (size 15 to 20)
#    0.000    1.778    2.963    0.222    2.074   14.222 
#    0.000    4.444    0.000    0.000    0.000    0.519 
#    0.000    2.370    0.000    0.000    0.000    0.000 
#
# Total GULP energy -300736.492405 kJ/mol
# GULP energy per Si atom -5569.194304 kJ/mol
# Density = 1.971434 g / cm^3
# Si number density = 19.759311 Si / 1000 Ang^3
#
#
#
# Elastic Constant Matrix: (Units=GPa)
#
#
# Indices 1 2 3 4 5 6 
#
# 1 53.9732 26.8268 43.1388 0.0000 0.0000 0.0000
# 2 26.8268 95.8356 70.7084 0.0000 0.0000 0.0000
# 3 43.1388 70.7084 136.3152 0.0000 0.0000 0.0000
# 4 0.0000 0.0000 0.0000 27.8810 0.0000 0.0000
# 5 0.0000 0.0000 0.0000 0.0000 5.6332 0.0000
# 6 0.0000 0.0000 0.0000 0.0000 0.0000 -40.6936
#
#
#
# Elastic Compliance Matrix: (Units=1/GPa)
#
#
# Indices 1 2 3 4 5 6 
#
# 1 0.025008 -0.001881 -0.006938 0.000000 0.000000 0.000000
# 2 -0.001881 0.017045 -0.008246 0.000000 0.000000 0.000000
# 3 -0.006938 -0.008246 0.013809 0.000000 0.000000 0.000000
# 4 0.000000 0.000000 0.000000 0.035867 0.000000 0.000000
# 5 0.000000 0.000000 0.000000 0.000000 0.177518 0.000000
# 6 0.000000 0.000000 0.000000 0.000000 0.000000 -0.024574
#
#
# Mechanical properties :
#
#
# Convention : Reuss Voigt Hill
#
# Bulk Modulus (GPa) = 46.01727 63.05242 54.53484
# Shear Modulus (GPa) = 17.47951 8.26080 12.87016
#
# Velocity S-wave (km/s) = 2.97749 2.04690 2.55492
# Velocity P-wave (km/s) = 5.92959 6.12910 6.03017
#
# Compressibility (1/GPa) = 0.02173097
#
# Stress axis : x y z
#
# Youngs Moduli (GPa) = 39.98656 58.66716 72.41586
#
# Poissons Ratio (x) = 0.11037 0.50245
# Poissons Ratio (y) = 0.07523 0.59716
# Poissons Ratio (z) = 0.27744 0.48378
#
# Static dielectric constant tensor:
#      x y z
#    x 1.635320 0.000000 0.000000 
#    y 0.000000 1.842750 0.000000 
#    z 0.000000 0.000000 1.778160 
# 
# From -- ./inp_files/25178.got.cif
#   From: 2010.05.17/outbox.cif.g08.bks.cpg/sg53_13_cif.got.tgz:25178.got - 2010.06.03 12:45:16.
