data_PCOD9418043
_publ_section_title
;
Structure prediction by ZEFSAII (Michael W. Deem and Ramdas Pophale) SiO2 
 PCOD9418043
Probable space group: P M N A
;
_chemical_formula_sum "Si O2"
_cell_formula_units_Z 48
_cell_length_a 8.715659
_cell_length_b 9.238733
_cell_length_c 31.425031
_cell_angle_alpha 90.000000
_cell_angle_beta 90.000000
_cell_angle_gamma 90.000000
_cell_volume 2530.395235
_symmetry_space_group_name_H-M "P M N A"
_symmetry_group_IT_number 53
_symmetry_cell_setting 'orthorhombic'
loop_
_space_group_symop_operation_xyz
x,y,z
1/2-x,-y,1/2+z
x,-y,-z
1/2-x,y,1/2-z
-x,-y,-z
1/2+x,y,1/2-z
-x,y,z
1/2+x,-y,1/2+z
loop_
_atom_site_type_symbol
_atom_site_label
_atom_site_fract_x
_atom_site_fract_y
_atom_site_fract_z
Si Si1 0.683407 0.588222 0.456896
Si Si2 0.316691 0.086073 0.377557
Si Si3 0.315361 0.407663 0.121423
Si Si4 0.815821 0.585841 0.295633
Si Si5 0.316170 0.910015 0.042747
Si Si6 0.184534 0.923187 0.296239
O O1 0.716784 0.500000 0.500000
O O2 0.500000 0.591642 0.450957
O O3 0.760693 0.506684 0.417459
O O4 0.747108 0.750091 0.460348
O O5 0.500000 0.082782 0.377832
O O6 0.257159 0.249551 0.382123
O O7 0.252299 0.991945 0.416610
O O8 0.253533 0.018808 0.333760
O O9 0.500000 0.396164 0.120984
O O10 0.267095 0.484946 0.165464
O O11 0.750000 0.541327 0.250000
O O12 0.772576 0.753945 0.303410
O O13 0.000000 0.581434 0.293329
O O14 0.500000 0.900956 0.047227
O O15 0.281163 0.000000 0.000000
O O16 0.250000 0.964359 0.250000
O O17 0.000000 0.934252 0.296219
#
# Coordination Sequence:
#
# PCOD9418043 Si02
#       6
#     8   8   8   8   8   8
#     4  11  24  41  63  92 124 157 196 244 298 357
#     4  12  25  40  60  88 122 160 202 251 306 360
#     4  11  23  40  61  87 121 160 202 247 297 357
#     4   9  20  37  60  87 115 150 193 242 293 350
#     4  11  24  42  65  91 120 158 202 247 299 360
#     4  10  20  38  62  89 120 156 201 249 302 363
#
# _framework density 18.969369
#
# number of rings (size 3 to 8) (size 9 to 14) (size 15 to 20)
#    0.000    1.333    0.000    5.500    0.000    9.333 
#    0.000    1.667    0.000    0.000    0.000    0.000 
#    0.000    0.000    0.000    0.000    0.000    0.000 
#
# Total GULP energy -268522.757324 kJ/mol
# GULP energy per Si atom -5594.224111 kJ/mol
# Density = 1.892619 g / cm^3
# Si number density = 18.969369 Si / 1000 Ang^3
#
#
#
# Elastic Constant Matrix: (Units=GPa)
#
#
# Indices 1 2 3 4 5 6 
#
# 1 61.6879 42.3811 52.2572 0.0000 0.0000 0.0000
# 2 42.3811 140.6413 83.9315 0.0000 0.0000 0.0000
# 3 52.2572 83.9315 138.9523 0.0000 0.0000 0.0000
# 4 0.0000 0.0000 0.0000 35.9541 0.0000 0.0000
# 5 0.0000 0.0000 0.0000 0.0000 30.8984 0.0000
# 6 0.0000 0.0000 0.0000 0.0000 0.0000 32.4042
#
#
#
# Elastic Compliance Matrix: (Units=1/GPa)
#
#
# Indices 1 2 3 4 5 6 
#
# 1 0.024549 -0.002952 -0.007449 0.000000 0.000000 0.000000
# 2 -0.002952 0.011473 -0.005820 0.000000 0.000000 0.000000
# 3 -0.007449 -0.005820 0.013514 0.000000 0.000000 0.000000
# 4 0.000000 0.000000 0.000000 0.027813 0.000000 0.000000
# 5 0.000000 0.000000 0.000000 0.000000 0.032364 0.000000
# 6 0.000000 0.000000 0.000000 0.000000 0.000000 0.030860
#
#
# Mechanical properties :
#
#
# Convention : Reuss Voigt Hill
#
# Bulk Modulus (GPa) = 58.50219 77.60236 68.05227
# Shear Modulus (GPa) = 27.97767 30.69879 29.33823
#
# Velocity S-wave (km/s) = 3.84459 4.02722 3.93696
# Velocity P-wave (km/s) = 7.11443 7.91345 7.52456
#
# Compressibility (1/GPa) = 0.01709338
#
# Stress axis : x y z
#
# Youngs Moduli (GPa) = 40.73431 87.16095 73.99942
#
# Poissons Ratio (x) = 0.25731 0.55125
# Poissons Ratio (y) = 0.12025 0.43066
# Poissons Ratio (z) = 0.30344 0.50726
#
# Static dielectric constant tensor:
#      x y z
#    x 1.635130 0.000000 0.000000 
#    y 0.000000 1.628660 0.000000 
#    z 0.000000 0.000000 1.626820 
# 
# From -- ./inp_files/37770.got.cif
#   From: 2010.05.17/outbox.cif.g08.bks.cpg/sg53_19_cif.got.tgz:37770.got - 2010.06.03 12:45:16.
