data_PCOD9418516
_publ_section_title
;
Structure prediction by ZEFSAII (Michael W. Deem and Ramdas Pophale) SiO2 
 PCOD9418516
Probable space group: P M N A
;
_chemical_formula_sum "Si O2"
_cell_formula_units_Z 40
_cell_length_a 15.691318
_cell_length_b 15.094184
_cell_length_c 8.730562
_cell_angle_alpha 90.000000
_cell_angle_beta 90.000000
_cell_angle_gamma 90.000000
_cell_volume 2067.813015
_symmetry_space_group_name_H-M "P M N A"
_symmetry_group_IT_number 53
_symmetry_cell_setting 'orthorhombic'
loop_
_space_group_symop_operation_xyz
x,y,z
1/2-x,-y,1/2+z
x,-y,-z
1/2-x,y,1/2-z
-x,-y,-z
1/2+x,y,1/2-z
-x,y,z
1/2+x,-y,1/2+z
loop_
_atom_site_type_symbol
_atom_site_label
_atom_site_fract_x
_atom_site_fract_y
_atom_site_fract_z
Si Si1 0.500000 0.898072 0.188150
Si Si2 0.845202 0.773878 0.317436
Si Si3 0.098948 0.395458 0.151501
Si Si4 0.154163 0.413616 0.808298
Si Si5 0.500000 0.898508 0.814290
Si Si6 0.841098 0.778858 0.683127
O O1 0.585173 0.845494 0.236091
O O2 0.500000 0.000001 0.237853
O O3 0.500000 0.898102 0.001175
O O4 0.750000 0.785469 0.250000
O O5 0.877648 0.675920 0.271260
O O6 0.838102 0.778980 0.500054
O O7 0.106447 0.494146 0.220112
O O8 0.135918 0.319342 0.258252
O O9 0.000000 0.377489 0.117935
O O10 0.149202 0.396737 0.990619
O O11 0.250000 0.426327 0.750000
O O12 0.583922 0.844980 0.765575
O O13 0.750000 0.805009 0.750000
#
# Coordination Sequence:
#
# PCOD9418516 Si02
#       6
#     4   8   8   8   4   8
#     4   9  20  38  64  79 124 152 193 247 302 355
#     4  10  22  38  60  91 116 157 201 241 297 354
#     4  11  23  39  60  88 121 162 204 245 295 349
#     4  10  21  37  57  86 120 159 198 238 291 345
#     4   9  20  40  58  91 112 158 195 243 302 359
#     4  11  21  39  63  88 121 157 199 246 296 353
#
# _framework density 19.344110000000001
#
# number of rings (size 3 to 8) (size 9 to 14) (size 15 to 20)
#    0.000    1.800    1.000    4.200    2.800    4.800 
#    0.000    1.000    0.000    8.400    0.000    0.000 
#    0.000    0.000    0.000    0.000    0.000    0.000 
#
# Total GULP energy -223383.570320 kJ/mol
# GULP energy per Si atom -5584.589258 kJ/mol
# Density = 1.930008 g / cm^3
# Si number density = 19.344110 Si / 1000 Ang^3
#
#
#
# Elastic Constant Matrix: (Units=GPa)
#
#
# Indices 1 2 3 4 5 6 
#
# 1 147.9438 81.5293 50.3358 0.0000 0.0000 0.0000
# 2 81.5293 150.2801 37.2558 0.0000 0.0000 0.0000
# 3 50.3358 37.2558 53.6420 0.0000 0.0000 0.0000
# 4 0.0000 0.0000 0.0000 13.1487 0.0000 0.0000
# 5 0.0000 0.0000 0.0000 0.0000 22.1938 0.0000
# 6 0.0000 0.0000 0.0000 0.0000 0.0000 -2.6666
#
#
#
# Elastic Compliance Matrix: (Units=1/GPa)
#
#
# Indices 1 2 3 4 5 6 
#
# 1 0.012008 -0.004495 -0.008146 0.000000 0.000000 0.000000
# 2 -0.004495 0.009721 -0.002533 0.000000 0.000000 0.000000
# 3 -0.008146 -0.002533 0.028046 0.000000 0.000000 0.000000
# 4 0.000000 0.000000 0.000000 0.076053 0.000000 0.000000
# 5 0.000000 0.000000 0.000000 0.000000 0.045058 0.000000
# 6 0.000000 0.000000 0.000000 0.000000 0.000000 -0.375010
#
#
# Mechanical properties :
#
#
# Convention : Reuss Voigt Hill
#
# Bulk Modulus (GPa) = 51.47854 76.67865 64.07859
# Shear Modulus (GPa) = -29.88641 18.71816 -5.58413
#
# Velocity S-wave (km/s) = -3.93490 3.11407 -1.70088
# Velocity P-wave (km/s) = 2.45463 7.25639 5.41666
#
# Compressibility (1/GPa) = 0.01942557
#
# Stress axis : x y z
#
# Youngs Moduli (GPa) = 83.27744 102.87049 35.65623
#
# Poissons Ratio (x) = 0.46241 0.29046
# Poissons Ratio (y) = 0.37434 0.09033
# Poissons Ratio (z) = 0.67838 0.26062
#
# Static dielectric constant tensor:
#      x y z
#    x 1.672030 0.000000 0.000000 
#    y 0.000000 1.676120 0.000000 
#    z 0.000000 0.000000 1.665400 
# 
# From -- ./inp_files/8470.got.cif
#   From: 2010.05.17/outbox.cif.g08.bks.cpg/sg53_5_cif.got.tgz:8470.got - 2010.06.03 12:45:16.
