data_PCOD9418554
_publ_section_title
;
Structure prediction by ZEFSAII (Michael W. Deem and Ramdas Pophale) SiO2 
 PCOD9418554
Probable space group: P M N A
;
_chemical_formula_sum "Si O2"
_cell_formula_units_Z 58
_cell_length_a 26.596348
_cell_length_b 10.710500
_cell_length_c 9.499230
_cell_angle_alpha 90.000000
_cell_angle_beta 90.000000
_cell_angle_gamma 90.000000
_cell_volume 2705.952418
_symmetry_space_group_name_H-M "P M N A"
_symmetry_group_IT_number 53
_symmetry_cell_setting 'orthorhombic'
loop_
_space_group_symop_operation_xyz
x,y,z
1/2-x,-y,1/2+z
x,-y,-z
1/2-x,y,1/2-z
-x,-y,-z
1/2+x,y,1/2-z
-x,y,z
1/2+x,-y,1/2+z
loop_
_atom_site_type_symbol
_atom_site_label
_atom_site_fract_x
_atom_site_fract_y
_atom_site_fract_z
Si Si1 0.589491 0.317860 0.771050
Si Si2 0.556547 0.591685 0.807424
Si Si3 0.664025 0.867024 0.575049
Si Si4 0.304437 0.244531 0.705206
Si Si5 0.443165 0.253340 0.456780
Si Si6 0.190003 0.973043 0.644870
Si Si7 0.000000 0.000000 0.500000
Si Si8 0.090480 0.169829 0.456030
O O1 0.568815 0.447870 0.828094
O O2 0.649304 0.329220 0.751889
O O3 0.565695 0.283993 0.620558
O O4 0.581445 0.205727 0.880560
O O5 0.500000 0.616311 0.858202
O O6 0.558231 0.623808 0.641238
O O7 0.590435 0.695578 0.881277
O O8 0.689653 0.776475 0.461542
O O9 0.605548 0.825416 0.593989
O O10 0.696313 0.886516 0.716405
O O11 0.659855 0.000000 0.500000
O O12 0.250000 0.290191 0.750000
O O13 0.312444 0.110002 0.782983
O O14 0.500000 0.199909 0.439352
O O15 0.141015 0.902754 0.581635
O O16 0.221216 0.000000 0.500000
O O17 0.955927 0.081949 0.418957
#
# Coordination Sequence:
#
# PCOD9418554 Si02
#       8
#     8   8   8   8   8   8   2   8
#     4  11  23  40  60  90 123 166 214 269 318 385
#     4  11  23  39  63  91 127 173 219 260 312 384
#     4   9  20  37  58  92 126 162 206 257 319 379
#     4  10  22  42  67  92 120 160 211 268 331 393
#     4  10  21  37  58  88 126 168 214 258 312 377
#     4  11  20  39  60  90 129 162 206 263 326 378
#     4  12  24  36  58  86 132 172 212 260 312 384
#     4  12  23  39  59  90 130 168 212 259 322 381
#
# _framework density 21.434228000000001
#
# number of rings (size 3 to 8) (size 9 to 14) (size 15 to 20)
#    0.000    1.379    4.138    1.241    1.931    3.586 
#    0.000    0.000    0.000    7.448    0.000    0.000 
#    0.000    0.000    0.000    0.000    0.000    0.000 
#
# Total GULP energy -322917.248607 kJ/mol
# GULP energy per Si atom -5567.538769 kJ/mol
# Density = 2.138544 g / cm^3
# Si number density = 21.434228 Si / 1000 Ang^3
#
#
#
# Elastic Constant Matrix: (Units=GPa)
#
#
# Indices 1 2 3 4 5 6 
#
# 1 108.7621 16.1243 11.6781 0.0000 0.0000 0.0000
# 2 16.1243 45.3467 8.4020 0.0000 0.0000 0.0000
# 3 11.6781 8.4020 120.0504 0.0000 0.0000 0.0000
# 4 0.0000 0.0000 0.0000 27.8407 0.0000 0.0000
# 5 0.0000 0.0000 0.0000 0.0000 21.3370 0.0000
# 6 0.0000 0.0000 0.0000 0.0000 0.0000 15.4603
#
#
#
# Elastic Compliance Matrix: (Units=1/GPa)
#
#
# Indices 1 2 3 4 5 6 
#
# 1 0.009766 -0.003340 -0.000716 0.000000 0.000000 0.000000
# 2 -0.003340 0.023484 -0.001319 0.000000 0.000000 0.000000
# 3 -0.000716 -0.001319 0.008492 0.000000 0.000000 0.000000
# 4 0.000000 0.000000 0.000000 0.035919 0.000000 0.000000
# 5 0.000000 0.000000 0.000000 0.000000 0.046867 0.000000
# 6 0.000000 0.000000 0.000000 0.000000 0.000000 0.064682
#
#
# Mechanical properties :
#
#
# Convention : Reuss Voigt Hill
#
# Bulk Modulus (GPa) = 32.26585 38.50757 35.38671
# Shear Modulus (GPa) = 23.77658 28.79124 26.28391
#
# Velocity S-wave (km/s) = 3.33420 3.66900 3.50560
# Velocity P-wave (km/s) = 5.46888 5.99610 5.73854
#
# Compressibility (1/GPa) = 0.03099252
#
# Stress axis : x y z
#
# Youngs Moduli (GPa) = 102.39130 42.58171 117.76055
#
# Poissons Ratio (x) = 0.14222 0.08435
# Poissons Ratio (y) = 0.34199 0.15529
# Poissons Ratio (z) = 0.07334 0.05615
#
# Static dielectric constant tensor:
#      x y z
#    x 1.807390 0.000000 0.000000 
#    y 0.000000 1.737110 0.000000 
#    z 0.000000 0.000000 1.886780 
# 
# From -- ./inp_files/12557.got.cif
#   From: 2010.05.17/outbox.cif.g08.bks.cpg/sg53_7_cif.got.tgz:12557.got - 2010.06.03 12:45:16.
