data_PCOD9418526
_publ_section_title
;
Structure prediction by ZEFSAII (Michael W. Deem and Ramdas Pophale) SiO2 
 PCOD9418526
Probable space group: P M N A
;
_chemical_formula_sum "Si O2"
_cell_formula_units_Z 40
_cell_length_a 8.507364
_cell_length_b 16.180487
_cell_length_c 13.907382
_cell_angle_alpha 90.000000
_cell_angle_beta 90.000000
_cell_angle_gamma 90.000000
_cell_volume 1914.396924
_symmetry_space_group_name_H-M "P M N A"
_symmetry_group_IT_number 53
_symmetry_cell_setting 'orthorhombic'
loop_
_space_group_symop_operation_xyz
x,y,z
1/2-x,-y,1/2+z
x,-y,-z
1/2-x,y,1/2-z
-x,-y,-z
1/2+x,y,1/2-z
-x,y,z
1/2+x,-y,1/2+z
loop_
_atom_site_type_symbol
_atom_site_label
_atom_site_fract_x
_atom_site_fract_y
_atom_site_fract_z
Si Si1 0.312930 0.133491 0.358205
Si Si2 0.688981 0.044269 0.858307
Si Si3 0.815467 0.611983 0.057125
Si Si4 0.814383 0.449388 0.355716
Si Si5 0.313086 0.214299 0.962199
O O1 0.250000 0.141626 0.250000
O O2 0.500000 0.139836 0.359681
O O3 0.236080 0.200697 0.427492
O O4 0.261165 0.042071 0.393857
O O5 0.750000 0.052071 0.750000
O O6 0.500000 0.035665 0.861559
O O7 0.732963 0.128582 0.911248
O O8 0.721420 0.545767 0.120863
O O9 0.771465 0.705846 0.080154
O O10 0.000000 0.596502 0.069260
O O11 0.768189 0.596284 0.945527
O O12 0.750000 0.428329 0.250000
O O13 0.000000 0.433974 0.360093
O O14 0.500000 0.224784 0.954440
#
# Coordination Sequence:
#
# PCOD9418526 Si02
#       5
#     8   8   8   8   8
#     4  11  22  37  58  83 113 151 195 241 289 343
#     4  10  21  37  58  82 113 152 194 239 286 339
#     4  11  23  40  61  90 121 151 192 238 286 344
#     4  11  22  41  66  90 118 154 191 232 285 343
#     4  11  23  39  58  84 118 154 192 238 290 339
#
# _framework density 20.894309
#
# number of rings (size 3 to 8) (size 9 to 14) (size 15 to 20)
#    0.000    1.200    0.000    9.600    0.000    7.200 
#    0.000    6.000    0.000    0.000    0.000    0.000 
#    0.000    0.000    0.000    0.000    0.000    0.000 
#
# Total GULP energy -223767.488694 kJ/mol
# GULP energy per Si atom -5594.187217 kJ/mol
# Density = 2.084675 g / cm^3
# Si number density = 20.894309 Si / 1000 Ang^3
#
#
#
# Elastic Constant Matrix: (Units=GPa)
#
#
# Indices 1 2 3 4 5 6 
#
# 1 50.6823 -8.8459 -13.7105 0.0000 0.0000 0.0000
# 2 -8.8459 48.6331 -17.4234 0.0000 0.0000 0.0000
# 3 -13.7105 -17.4234 30.7222 0.0000 0.0000 0.0000
# 4 0.0000 0.0000 0.0000 6.3512 0.0000 0.0000
# 5 0.0000 0.0000 0.0000 0.0000 -36.5762 0.0000
# 6 0.0000 0.0000 0.0000 0.0000 0.0000 37.4914
#
#
#
# Elastic Compliance Matrix: (Units=1/GPa)
#
#
# Indices 1 2 3 4 5 6 
#
# 1 0.026713 0.011458 0.018420 0.000000 0.000000 0.000000
# 2 0.011458 0.030720 0.022535 0.000000 0.000000 0.000000
# 3 0.018420 0.022535 0.053550 0.000000 0.000000 0.000000
# 4 0.000000 0.000000 0.000000 0.157451 0.000000 0.000000
# 5 0.000000 0.000000 0.000000 0.000000 -0.027340 0.000000
# 6 0.000000 0.000000 0.000000 0.000000 0.000000 0.026673
#
#
# Mechanical properties :
#
#
# Convention : Reuss Voigt Hill
#
# Bulk Modulus (GPa) = 4.63371 5.56422 5.09896
# Shear Modulus (GPa) = 21.28766 12.78777 17.03772
#
# Velocity S-wave (km/s) = 3.19537 2.47659 2.85866
# Velocity P-wave (km/s) = 3.97949 3.29345 3.65261
#
# Compressibility (1/GPa) = 0.21580981
#
# Stress axis : x y z
#
# Youngs Moduli (GPa) = 37.43431 32.55225 18.67401
#
# Poissons Ratio (x) = -0.37298 -0.34397
# Poissons Ratio (y) = -0.42892 -0.42083
# Poissons Ratio (z) = -0.68953 -0.73358
#
# Static dielectric constant tensor:
#      x y z
#    x 1.696040 0.000000 0.000000 
#    y 0.000000 1.757310 0.000000 
#    z 0.000000 0.000000 1.812350 
# 
# From -- ./inp_files/19871.got.cif
#   From: 2010.05.17/outbox.cif.g08.bks.cpg/sg53_10_cif.got.tgz:19871.got - 2010.06.03 12:45:16.
