data_PCOD9418895
_publ_section_title
;
Structure prediction by ZEFSAII (Michael W. Deem and Ramdas Pophale) SiO2 
 PCOD9418895
Probable space group: P M N A
;
_chemical_formula_sum "Si O2"
_cell_formula_units_Z 48
_cell_length_a 15.543396
_cell_length_b 18.512569
_cell_length_c 7.601106
_cell_angle_alpha 90.000000
_cell_angle_beta 90.000000
_cell_angle_gamma 90.000000
_cell_volume 2187.204501
_symmetry_space_group_name_H-M "P M N A"
_symmetry_group_IT_number 53
_symmetry_cell_setting 'orthorhombic'
loop_
_space_group_symop_operation_xyz
x,y,z
1/2-x,-y,1/2+z
x,-y,-z
1/2-x,y,1/2-z
-x,-y,-z
1/2+x,y,1/2-z
-x,y,z
1/2+x,-y,1/2+z
loop_
_atom_site_type_symbol
_atom_site_label
_atom_site_fract_x
_atom_site_fract_y
_atom_site_fract_z
Si Si1 0.903397 0.172025 0.123667
Si Si2 0.260838 0.415724 0.043265
Si Si3 0.906659 0.674511 0.042788
Si Si4 0.227813 0.813704 0.433526
Si Si5 0.901534 0.304720 0.547869
Si Si6 0.092861 0.914016 0.505358
O O1 0.899714 0.123654 0.302030
O O2 0.000000 0.154128 0.050902
O O3 0.901623 0.260073 0.098511
O O4 0.812118 0.158467 0.030186
O O5 0.250000 0.406018 0.250000
O O6 0.260193 0.500000 0.000000
O O7 0.177177 0.375429 0.964748
O O8 0.350274 0.378748 0.984958
O O9 0.909279 0.705615 0.241392
O O10 0.000000 0.637479 0.015059
O O11 0.250000 0.777247 0.250000
O O12 0.164512 0.755880 0.526105
O O13 0.168267 0.881424 0.391702
O O14 0.000000 0.301246 0.478940
O O15 0.000000 0.890372 0.435285
O O16 0.096057 0.000000 0.500000
#
# Coordination Sequence:
#
# PCOD9418895 Si02
#       6
#     8   8   8   8   8   8
#     4  10  21  39  67  98 133 176 225 279 338 403
#     4  12  26  43  67  97 138 183 231 287 352 412
#     4  10  21  41  67  98 134 176 230 287 344 409
#     4  12  22  37  66  98 134 171 226 277 337 399
#     4  11  23  42  67  97 136 179 229 287 347 411
#     4  10  24  44  64  93 136 180 225 280 337 399
#
# _framework density 21.945820999999999
#
# number of rings (size 3 to 8) (size 9 to 14) (size 15 to 20)
#    0.000    1.167    3.333    2.500    2.333    3.333 
#    0.000    0.000    0.000    3.500    0.000    0.000 
#    0.000    0.000    0.000    0.000    0.000    0.000 
#
# Total GULP energy -267503.473373 kJ/mol
# GULP energy per Si atom -5572.989029 kJ/mol
# Density = 2.189587 g / cm^3
# Si number density = 21.945821 Si / 1000 Ang^3
#
#
#
# Elastic Constant Matrix: (Units=GPa)
#
#
# Indices 1 2 3 4 5 6 
#
# 1 213.9346 64.4674 28.9279 0.0000 0.0000 0.0000
# 2 64.4674 96.1377 19.1210 0.0000 0.0000 0.0000
# 3 28.9279 19.1210 75.5115 0.0000 0.0000 0.0000
# 4 0.0000 0.0000 0.0000 24.6013 0.0000 0.0000
# 5 0.0000 0.0000 0.0000 0.0000 25.1976 0.0000
# 6 0.0000 0.0000 0.0000 0.0000 0.0000 19.9260
#
#
#
# Elastic Compliance Matrix: (Units=1/GPa)
#
#
# Indices 1 2 3 4 5 6 
#
# 1 0.005985 -0.003746 -0.001344 0.000000 0.000000 0.000000
# 2 -0.003746 0.013298 -0.001932 0.000000 0.000000 0.000000
# 3 -0.001344 -0.001932 0.014247 0.000000 0.000000 0.000000
# 4 0.000000 0.000000 0.000000 0.040648 0.000000 0.000000
# 5 0.000000 0.000000 0.000000 0.000000 0.039686 0.000000
# 6 0.000000 0.000000 0.000000 0.000000 0.000000 0.050186
#
#
# Mechanical properties :
#
#
# Convention : Reuss Voigt Hill
#
# Bulk Modulus (GPa) = 51.32079 67.84625 59.58352
# Shear Modulus (GPa) = 27.08701 32.14950 29.61825
#
# Velocity S-wave (km/s) = 3.51703 3.83162 3.67769
# Velocity P-wave (km/s) = 6.31891 7.11038 6.72630
#
# Compressibility (1/GPa) = 0.01948528
#
# Stress axis : x y z
#
# Youngs Moduli (GPa) = 167.08706 75.19927 70.18889
#
# Poissons Ratio (x) = 0.28169 0.09435
# Poissons Ratio (y) = 0.62590 0.13562
# Poissons Ratio (z) = 0.22460 0.14530
#
# Static dielectric constant tensor:
#      x y z
#    x 1.885010 0.000000 0.000000 
#    y 0.000000 1.811200 0.000000 
#    z 0.000000 0.000000 1.902200 
# 
# From -- ./inp_files/8661.got.cif
#   From: 2010.05.17/outbox.cif.g08.bks.cpg/sg53_5_cif.got.tgz:8661.got - 2010.06.03 12:45:16.
