data_PCOD9418391
_publ_section_title
;
Structure prediction by ZEFSAII (Michael W. Deem and Ramdas Pophale) SiO2 
 PCOD9418391
Probable space group: P M N A
;
_chemical_formula_sum "Si O2"
_cell_formula_units_Z 64
_cell_length_a 8.840834
_cell_length_b 24.069387
_cell_length_c 15.166794
_cell_angle_alpha 90.000000
_cell_angle_beta 90.000000
_cell_angle_gamma 90.000000
_cell_volume 3227.394496
_symmetry_space_group_name_H-M "P M N A"
_symmetry_group_IT_number 53
_symmetry_cell_setting 'orthorhombic'
loop_
_space_group_symop_operation_xyz
x,y,z
1/2-x,-y,1/2+z
x,-y,-z
1/2-x,y,1/2-z
-x,-y,-z
1/2+x,y,1/2-z
-x,y,z
1/2+x,-y,1/2+z
loop_
_atom_site_type_symbol
_atom_site_label
_atom_site_fract_x
_atom_site_fract_y
_atom_site_fract_z
Si Si1 0.169452 0.108040 0.336562
Si Si2 0.819818 0.064965 0.520125
Si Si3 0.681672 0.463068 0.655424
Si Si4 0.682479 0.751963 0.037999
Si Si5 0.669712 0.758734 0.838242
Si Si6 0.319119 0.147177 0.652280
Si Si7 0.682062 0.409010 0.344573
Si Si8 0.817006 0.362043 0.970612
O O1 0.250000 0.085708 0.250000
O O2 0.238541 0.094846 0.431189
O O3 0.160459 0.174400 0.328053
O O4 0.000000 0.084787 0.338841
O O5 0.734163 0.090997 0.602782
O O6 0.000000 0.076889 0.531407
O O7 0.802276 0.000000 0.500000
O O8 0.750000 0.448124 0.750000
O O9 0.500000 0.462851 0.661488
O O10 0.726430 0.526759 0.635656
O O11 0.723158 0.417850 0.582534
O O12 0.500000 0.757994 0.038142
O O13 0.753785 0.801694 0.094089
O O14 0.737642 0.752597 0.935738
O O15 0.735684 0.691514 0.069893
O O16 0.750000 0.737602 0.750000
O O17 0.500000 0.735681 0.840105
O O18 0.250000 0.149707 0.750000
O O19 0.500000 0.150295 0.655918
O O20 0.750000 0.394210 0.250000
O O21 0.500000 0.406879 0.339091
O O22 0.728537 0.371716 0.427419
O O23 0.000000 0.355160 0.967242
#
# Coordination Sequence:
#
# PCOD9418391 Si02
#       8
#     8   8   8   8   8   8   8   8
#     4   9  17  32  54  82 114 148 186 228 279 335
#     4  10  21  40  65  93 128 164 198 244 298 350
#     4   9  18  34  56  80 109 147 192 242 295 353
#     4  11  23  41  61  85 119 156 201 251 303 358
#     4   9  18  33  55  80 109 144 184 231 282 343
#     4  12  26  45  69  92 121 162 208 254 302 357
#     4   9  18  34  56  81 113 153 194 240 294 356
#     4  10  21  36  55  82 115 152 196 241 296 359
#
# _framework density 19.830238000000001
#
# number of rings (size 3 to 8) (size 9 to 14) (size 15 to 20)
#    0.000    2.125    1.250    1.875    0.000    5.750 
#    0.000    5.000    0.000    3.750    0.000    0.000 
#    0.000    0.000    0.000    0.000    0.000    0.000 
#
# Total GULP energy -357113.601680 kJ/mol
# GULP energy per Si atom -5579.900026 kJ/mol
# Density = 1.978510 g / cm^3
# Si number density = 19.830238 Si / 1000 Ang^3
#
#
#
# Elastic Constant Matrix: (Units=GPa)
#
#
# Indices 1 2 3 4 5 6 
#
# 1 54.4461 34.7588 44.9904 0.0000 0.0000 0.0000
# 2 34.7588 86.6547 47.4454 0.0000 0.0000 0.0000
# 3 44.9904 47.4454 132.4981 0.0000 0.0000 0.0000
# 4 0.0000 0.0000 0.0000 0.7047 0.0000 0.0000
# 5 0.0000 0.0000 0.0000 0.0000 31.9205 0.0000
# 6 0.0000 0.0000 0.0000 0.0000 0.0000 26.3742
#
#
#
# Elastic Compliance Matrix: (Units=1/GPa)
#
#
# Indices 1 2 3 4 5 6 
#
# 1 0.029259 -0.007832 -0.007130 0.000000 0.000000 0.000000
# 2 -0.007832 0.016451 -0.003231 0.000000 0.000000 0.000000
# 3 -0.007130 -0.003231 0.011126 0.000000 0.000000 0.000000
# 4 0.000000 0.000000 0.000000 1.419118 0.000000 0.000000
# 5 0.000000 0.000000 0.000000 0.000000 0.031328 0.000000
# 6 0.000000 0.000000 0.000000 0.000000 0.000000 0.037916
#
#
# Mechanical properties :
#
#
# Convention : Reuss Voigt Hill
#
# Bulk Modulus (GPa) = 48.90585 58.66536 53.78560
# Shear Modulus (GPa) = 3.14782 21.56018 12.35400
#
# Velocity S-wave (km/s) = 1.26128 3.30091 2.49868
# Velocity P-wave (km/s) = 5.18043 6.64650 5.95873
#
# Compressibility (1/GPa) = 0.02044745
#
# Stress axis : x y z
#
# Youngs Moduli (GPa) = 34.17749 60.78685 89.88315
#
# Poissons Ratio (x) = 0.47610 0.64091
# Poissons Ratio (y) = 0.26769 0.29044
# Poissons Ratio (z) = 0.24370 0.19642
#
# Static dielectric constant tensor:
#      x y z
#    x 1.677550 0.000000 0.000000 
#    y 0.000000 1.709510 0.000000 
#    z 0.000000 0.000000 1.704140 
# 
# From -- ./inp_files/20939.got.cif
#   From: 2010.05.17/outbox.cif.g08.bks.cpg/sg53_11_cif.got.tgz:20939.got - 2010.06.03 12:45:16.
