data_PCOD9418984
_publ_section_title
;
Structure prediction by ZEFSAII (Michael W. Deem and Ramdas Pophale) SiO2 
 PCOD9418984
Probable space group: P M N A
;
_chemical_formula_sum "Si O2"
_cell_formula_units_Z 40
_cell_length_a 22.870600
_cell_length_b 9.648965
_cell_length_c 8.458141
_cell_angle_alpha 90.000000
_cell_angle_beta 90.000000
_cell_angle_gamma 90.000000
_cell_volume 1866.522416
_symmetry_space_group_name_H-M "P M N A"
_symmetry_group_IT_number 53
_symmetry_cell_setting 'orthorhombic'
loop_
_space_group_symop_operation_xyz
x,y,z
1/2-x,-y,1/2+z
x,-y,-z
1/2-x,y,1/2-z
-x,-y,-z
1/2+x,y,1/2-z
-x,y,z
1/2+x,-y,1/2+z
loop_
_atom_site_type_symbol
_atom_site_label
_atom_site_fract_x
_atom_site_fract_y
_atom_site_fract_z
Si Si1 0.822565 0.150738 0.935276
Si Si2 0.410884 0.659675 0.957530
Si Si3 0.396702 0.089098 0.845780
Si Si4 0.436231 0.826244 0.648225
Si Si5 0.728774 0.650720 0.930746
O O1 0.881327 0.194610 0.032410
O O2 0.768850 0.247704 0.969432
O O3 0.841595 0.139069 0.754759
O O4 0.807283 0.000000 0.000000
O O5 0.433955 0.713858 0.789343
O O6 0.340449 0.674293 0.943186
O O7 0.424751 0.500000 0.000000
O O8 0.428896 0.773699 0.089395
O O9 0.428825 0.977702 0.731793
O O10 0.380722 0.000000 0.000000
O O11 0.500000 0.819964 0.570370
O O12 0.750000 0.661760 0.750000
O O13 0.740314 0.500000 0.000000
#
# Coordination Sequence:
#
# PCOD9418984 Si02
#       5
#     8   8   8   8   8
#     4  10  22  39  62  92 125 162 204 259 306 369
#     4  10  22  39  61  89 124 161 208 252 307 378
#     4   9  21  38  60  89 119 160 205 248 309 367
#     4  10  21  41  64  88 121 161 207 260 315 371
#     4  11  24  41  63  93 127 167 203 251 314 379
#
# _framework density 21.430226000000001
#
# number of rings (size 3 to 8) (size 9 to 14) (size 15 to 20)
#    0.000    2.000    2.000    0.000    5.600   10.000 
#    0.000    0.000    0.000    4.200    0.000    0.000 
#    0.000    0.000    0.000    0.000    0.000    0.000 
#
# Total GULP energy -223563.242502 kJ/mol
# GULP energy per Si atom -5589.081063 kJ/mol
# Density = 2.138145 g / cm^3
# Si number density = 21.430226 Si / 1000 Ang^3
#
#
#
# Elastic Constant Matrix: (Units=GPa)
#
#
# Indices 1 2 3 4 5 6 
#
# 1 121.4628 43.5526 16.9187 0.0000 0.0000 0.0000
# 2 43.5526 112.0010 22.3200 0.0000 0.0000 0.0000
# 3 16.9187 22.3200 56.6272 0.0000 0.0000 0.0000
# 4 0.0000 0.0000 0.0000 26.7824 0.0000 0.0000
# 5 0.0000 0.0000 0.0000 0.0000 -23.1717 0.0000
# 6 0.0000 0.0000 0.0000 0.0000 0.0000 9.1258
#
#
#
# Elastic Compliance Matrix: (Units=1/GPa)
#
#
# Indices 1 2 3 4 5 6 
#
# 1 0.009687 -0.003462 -0.001530 0.000000 0.000000 0.000000
# 2 -0.003462 0.010927 -0.003273 0.000000 0.000000 0.000000
# 3 -0.001530 -0.003273 0.019406 0.000000 0.000000 0.000000
# 4 0.000000 0.000000 0.000000 0.037338 0.000000 0.000000
# 5 0.000000 0.000000 0.000000 0.000000 -0.043156 0.000000
# 6 0.000000 0.000000 0.000000 0.000000 0.000000 0.109580
#
#
# Mechanical properties :
#
#
# Convention : Reuss Voigt Hill
#
# Bulk Modulus (GPa) = 42.56797 50.63040 46.59918
# Shear Modulus (GPa) = 29.73678 16.36728 23.05203
#
# Velocity S-wave (km/s) = 3.72910 2.76660 3.28331
# Velocity P-wave (km/s) = 6.20067 5.82086 6.01376
#
# Compressibility (1/GPa) = 0.02349184
#
# Stress axis : x y z
#
# Youngs Moduli (GPa) = 103.22593 91.51675 51.52974
#
# Poissons Ratio (x) = 0.31685 0.07883
# Poissons Ratio (y) = 0.35739 0.16863
# Poissons Ratio (z) = 0.15791 0.29949
#
# Static dielectric constant tensor:
#      x y z
#    x 1.791720 0.000000 0.000000 
#    y 0.000000 1.763320 0.000000 
#    z 0.000000 0.000000 1.790920 
# 
# From -- ./inp_files/12266.got.cif
#   From: 2010.05.17/outbox.cif.g08.bks.cpg/sg53_7_cif.got.tgz:12266.got - 2010.06.03 12:45:16.
