data_PCOD9418321
_publ_section_title
;
Structure prediction by ZEFSAII (Michael W. Deem and Ramdas Pophale) SiO2 
 PCOD9418321
Probable space group: P M N A
;
_chemical_formula_sum "Si O2"
_cell_formula_units_Z 48
_cell_length_a 14.580454
_cell_length_b 12.218070
_cell_length_c 14.945861
_cell_angle_alpha 90.000000
_cell_angle_beta 90.000000
_cell_angle_gamma 90.000000
_cell_volume 2662.530521
_symmetry_space_group_name_H-M "P M N A"
_symmetry_group_IT_number 53
_symmetry_cell_setting 'orthorhombic'
loop_
_space_group_symop_operation_xyz
x,y,z
1/2-x,-y,1/2+z
x,-y,-z
1/2-x,y,1/2-z
-x,-y,-z
1/2+x,y,1/2-z
-x,y,z
1/2+x,-y,1/2+z
loop_
_atom_site_type_symbol
_atom_site_label
_atom_site_fract_x
_atom_site_fract_y
_atom_site_fract_z
Si Si1 0.500000 0.248285 0.766978
Si Si2 0.000000 0.718749 0.052848
Si Si3 0.799984 0.629027 0.005468
Si Si4 0.000000 0.988642 0.720720
Si Si5 0.204709 0.212583 0.154242
Si Si6 0.000000 0.842100 0.879436
Si Si7 0.306201 0.246073 0.840254
Si Si8 0.824594 0.992578 0.604751
O O1 0.500000 0.265944 0.659919
O O2 0.408282 0.285861 0.816462
O O3 0.500000 0.118404 0.781289
O O4 0.093072 0.656082 0.026129
O O5 0.000000 0.826733 0.987289
O O6 0.740516 0.683618 0.083267
O O7 0.787182 0.500000 0.000000
O O8 0.771153 0.692530 0.915541
O O9 0.000000 0.955128 0.824680
O O10 0.090709 0.952592 0.666572
O O11 0.250000 0.230635 0.250000
O O12 0.094332 0.210948 0.155165
O O13 0.242567 0.094508 0.119063
O O14 0.250000 0.257611 0.750000
O O15 0.302560 0.116881 0.866000
O O16 0.849571 0.000000 0.500000
#
# Coordination Sequence:
#
# PCOD9418321 Si02
#       8
#     4   4   8   4   8   4   8   8
#     4  10  22  37  61  92 126 162 203 251 296 374
#     4  10  21  41  62  89 121 156 205 258 314 362
#     4  11  24  42  66  90 119 162 211 260 305 363
#     4  10  21  35  58  91 125 161 203 238 301 379
#     4  11  22  41  61  88 127 158 206 250 310 369
#     4  10  22  35  56  90 122 158 195 255 303 363
#     4  11  22  39  62  91 126 160 203 250 309 367
#     4  11  21  37  61  90 122 166 198 247 306 368
#
# _framework density 18.027963
#
# number of rings (size 3 to 8) (size 9 to 14) (size 15 to 20)
#    0.000    1.333    5.000    1.000    2.333    1.000 
#    0.000    1.250    0.000    0.000    0.000    0.000 
#    0.000    0.000    0.000    0.000    0.000    0.000 
#
# Total GULP energy -267715.927820 kJ/mol
# GULP energy per Si atom -5577.415163 kJ/mol
# Density = 1.798693 g / cm^3
# Si number density = 18.027963 Si / 1000 Ang^3
#
#
#
# Elastic Constant Matrix: (Units=GPa)
#
#
# Indices 1 2 3 4 5 6 
#
# 1 111.0392 63.9042 48.6394 0.0000 0.0000 0.0000
# 2 63.9042 76.3763 58.9002 0.0000 0.0000 0.0000
# 3 48.6394 58.9002 124.8541 0.0000 0.0000 0.0000
# 4 0.0000 0.0000 0.0000 -30.3773 0.0000 0.0000
# 5 0.0000 0.0000 0.0000 0.0000 36.9351 0.0000
# 6 0.0000 0.0000 0.0000 0.0000 0.0000 4.6657
#
#
#
# Elastic Compliance Matrix: (Units=1/GPa)
#
#
# Indices 1 2 3 4 5 6 
#
# 1 0.017372 -0.014643 0.000141 0.000000 0.000000 0.000000
# 2 -0.014643 0.032924 -0.009827 0.000000 0.000000 0.000000
# 3 0.000141 -0.009827 0.012591 0.000000 0.000000 0.000000
# 4 0.000000 0.000000 0.000000 -0.032919 0.000000 0.000000
# 5 0.000000 0.000000 0.000000 0.000000 0.027074 0.000000
# 6 0.000000 0.000000 0.000000 0.000000 0.000000 0.214332
#
#
# Mechanical properties :
#
#
# Convention : Reuss Voigt Hill
#
# Bulk Modulus (GPa) = 70.29379 72.79525 71.54452
# Shear Modulus (GPa) = 15.39527 11.63308 13.51417
#
# Velocity S-wave (km/s) = 2.92544 2.54299 2.74089
# Velocity P-wave (km/s) = 7.10543 7.00636 7.05607
#
# Compressibility (1/GPa) = 0.01422601
#
# Stress axis : x y z
#
# Youngs Moduli (GPa) = 57.56528 30.37325 79.42396
#
# Poissons Ratio (x) = 0.44476 -0.01116
# Poissons Ratio (y) = 0.84294 0.78052
# Poissons Ratio (z) = -0.00809 0.29849
#
# Static dielectric constant tensor:
#      x y z
#    x 1.647400 0.000000 0.000000 
#    y 0.000000 1.594120 0.000000 
#    z 0.000000 0.000000 1.615540 
# 
# From -- ./inp_files/22743.got.cif
#   From: 2010.05.17/outbox.cif.g08.bks.cpg/sg53_12_cif.got.tgz:22743.got - 2010.06.03 12:45:16.
