data_PCOD9418631
_publ_section_title
;
Structure prediction by ZEFSAII (Michael W. Deem and Ramdas Pophale) SiO2 
 PCOD9418631
Probable space group: P M N A
;
_chemical_formula_sum "Si O2"
_cell_formula_units_Z 64
_cell_length_a 15.057633
_cell_length_b 18.856017
_cell_length_c 11.092713
_cell_angle_alpha 90.000000
_cell_angle_beta 90.000000
_cell_angle_gamma 90.000000
_cell_volume 3149.520545
_symmetry_space_group_name_H-M "P M N A"
_symmetry_group_IT_number 53
_symmetry_cell_setting 'orthorhombic'
loop_
_space_group_symop_operation_xyz
x,y,z
1/2-x,-y,1/2+z
x,-y,-z
1/2-x,y,1/2-z
-x,-y,-z
1/2+x,y,1/2-z
-x,y,z
1/2+x,-y,1/2+z
loop_
_atom_site_type_symbol
_atom_site_label
_atom_site_fract_x
_atom_site_fract_y
_atom_site_fract_z
Si Si1 0.598011 0.836038 0.470744
Si Si2 0.603912 0.516863 0.286822
Si Si3 0.162613 0.624058 0.675867
Si Si4 0.246197 0.745887 0.385362
Si Si5 0.100349 0.108334 0.234952
Si Si6 0.395865 0.775300 0.922173
Si Si7 0.699054 0.971514 0.368882
Si Si8 0.772680 0.579558 0.417308
O O1 0.500000 0.821014 0.423679
O O2 0.665806 0.773835 0.447219
O O3 0.594511 0.846090 0.613775
O O4 0.633678 0.909472 0.413749
O O5 0.500000 0.535369 0.310722
O O6 0.609824 0.432928 0.256475
O O7 0.680179 0.539519 0.383718
O O8 0.646134 0.554364 0.167936
O O9 0.250000 0.643983 0.750000
O O10 0.116433 0.697482 0.638330
O O11 0.194607 0.582050 0.555326
O O12 0.250000 0.771496 0.250000
O O13 0.161746 0.774260 0.457522
O O14 0.244229 0.661558 0.388212
O O15 0.137434 0.160022 0.337915
O O16 0.152676 0.039200 0.193758
O O17 0.000000 0.087272 0.269998
O O18 0.500000 0.785680 0.943659
O O19 0.750000 0.942154 0.250000
O O20 0.739581 0.000000 0.500000
#
# Coordination Sequence:
#
# PCOD9418631 Si02
#       8
#     8   8   8   8   8   8   8   8
#     4  10  22  39  62  93 128 167 214 259 312 384
#     4  11  22  41  68  90 121 172 217 261 323 386
#     4  11  23  39  66  91 134 168 209 268 325 387
#     4  11  23  41  63  87 126 171 212 264 328 381
#     4   9  20  39  63  93 125 160 206 259 317 376
#     4  10  24  41  64 100 132 166 215 271 327 390
#     4  10  21  37  65  94 126 171 216 264 319 383
#     4  10  23  43  59  93 125 160 217 272 316 375
#
# _framework density 20.320554000000001
#
# number of rings (size 3 to 8) (size 9 to 14) (size 15 to 20)
#    0.000    1.750    2.500    1.500    7.000    5.500 
#    0.000    1.875    0.000    0.750    0.000    0.000 
#    0.000    0.000    0.000    0.000    0.000    0.000 
#
# Total GULP energy -356826.488913 kJ/mol
# GULP energy per Si atom -5575.413889 kJ/mol
# Density = 2.027430 g / cm^3
# Si number density = 20.320554 Si / 1000 Ang^3
#
#
#
# Elastic Constant Matrix: (Units=GPa)
#
#
# Indices 1 2 3 4 5 6 
#
# 1 92.7087 17.6862 28.2995 0.0000 0.0000 0.0000
# 2 17.6862 82.4079 29.9234 0.0000 0.0000 0.0000
# 3 28.2995 29.9234 96.2626 0.0000 0.0000 0.0000
# 4 0.0000 0.0000 0.0000 33.3821 0.0000 0.0000
# 5 0.0000 0.0000 0.0000 0.0000 6.5781 0.0000
# 6 0.0000 0.0000 0.0000 0.0000 0.0000 37.0592
#
#
#
# Elastic Compliance Matrix: (Units=1/GPa)
#
#
# Indices 1 2 3 4 5 6 
#
# 1 0.012004 -0.001460 -0.003075 0.000000 0.000000 0.000000
# 2 -0.001460 0.013856 -0.003878 0.000000 0.000000 0.000000
# 3 -0.003075 -0.003878 0.012498 0.000000 0.000000 0.000000
# 4 0.000000 0.000000 0.000000 0.029956 0.000000 0.000000
# 5 0.000000 0.000000 0.000000 0.000000 0.152020 0.000000
# 6 0.000000 0.000000 0.000000 0.000000 0.000000 0.026984
#
#
# Mechanical properties :
#
#
# Convention : Reuss Voigt Hill
#
# Bulk Modulus (GPa) = 46.44266 47.02196 46.73231
# Shear Modulus (GPa) = 18.42839 28.43521 23.43180
#
# Velocity S-wave (km/s) = 3.01472 3.74482 3.39943
# Velocity P-wave (km/s) = 5.91800 6.47214 6.20126
#
# Compressibility (1/GPa) = 0.02153193
#
# Stress axis : x y z
#
# Youngs Moduli (GPa) = 83.30828 72.16979 80.01394
#
# Poissons Ratio (x) = 0.10534 0.24605
# Poissons Ratio (y) = 0.12159 0.31031
# Poissons Ratio (z) = 0.25618 0.27988
#
# Static dielectric constant tensor:
#      x y z
#    x 1.695610 0.000000 0.000000 
#    y 0.000000 1.728740 0.000000 
#    z 0.000000 0.000000 1.828770 
# 
# From -- ./inp_files/16214.got.cif
#   From: 2010.05.17/outbox.cif.g08.bks.cpg/sg53_9_cif.got.tgz:16214.got - 2010.06.03 12:45:16.
