data_PCOD9418304
_publ_section_title
;
Structure prediction by ZEFSAII (Michael W. Deem and Ramdas Pophale) SiO2 
 PCOD9418304
Probable space group: P M N A
;
_chemical_formula_sum "Si O2"
_cell_formula_units_Z 48
_cell_length_a 14.774269
_cell_length_b 16.092947
_cell_length_c 10.205248
_cell_angle_alpha 90.000000
_cell_angle_beta 90.000000
_cell_angle_gamma 90.000000
_cell_volume 2426.415358
_symmetry_space_group_name_H-M "P M N A"
_symmetry_group_IT_number 53
_symmetry_cell_setting 'orthorhombic'
loop_
_space_group_symop_operation_xyz
x,y,z
1/2-x,-y,1/2+z
x,-y,-z
1/2-x,y,1/2-z
-x,-y,-z
1/2+x,y,1/2-z
-x,y,z
1/2+x,-y,1/2+z
loop_
_atom_site_type_symbol
_atom_site_label
_atom_site_fract_x
_atom_site_fract_y
_atom_site_fract_z
Si Si1 0.284735 0.593556 0.045565
Si Si2 0.101193 0.373233 0.803576
Si Si3 0.727038 0.765159 0.903746
Si Si4 0.163712 0.802014 0.155404
Si Si5 0.391020 0.076218 0.096397
Si Si6 0.392189 0.987322 0.354722
O O1 0.297023 0.670593 0.945598
O O2 0.299095 0.500000 0.000000
O O3 0.355141 0.607511 0.163239
O O4 0.180533 0.599369 0.096496
O O5 0.098176 0.273658 0.815299
O O6 0.000000 0.407463 0.822391
O O7 0.750000 0.767228 0.750000
O O8 0.651067 0.834514 0.933988
O O9 0.806842 0.792724 0.003569
O O10 0.250000 0.788329 0.250000
O O11 0.126160 0.892628 0.183758
O O12 0.500000 0.081847 0.093453
O O13 0.359450 0.048219 0.241339
O O14 0.365889 0.000000 0.000000
O O15 0.500000 0.000224 0.361671
O O16 0.353639 0.000000 0.500000
#
# Coordination Sequence:
#
# PCOD9418304 Si02
#       6
#     8   8   8   8   8   8
#     4  10  23  43  66  95 129 163 211 268 321 384
#     4  10  21  41  68  95 123 163 215 264 312 379
#     4  11  23  38  60  90 123 166 201 256 326 370
#     4  11  20  38  58  90 121 162 216 257 307 368
#     4  10  22  38  56  85 123 164 208 257 312 370
#     4  10  21  35  54  81 118 162 208 259 308 366
#
# _framework density 19.782268999999999
#
# number of rings (size 3 to 8) (size 9 to 14) (size 15 to 20)
#    0.000    1.667    3.333    2.500    2.333    5.333 
#    0.000    3.333    0.000    0.000    0.000    0.000 
#    0.000    0.000    0.000    0.000    0.000    0.000 
#
# Total GULP energy -267898.185304 kJ/mol
# GULP energy per Si atom -5581.212194 kJ/mol
# Density = 1.973724 g / cm^3
# Si number density = 19.782269 Si / 1000 Ang^3
#
#
#
# Elastic Constant Matrix: (Units=GPa)
#
#
# Indices 1 2 3 4 5 6 
#
# 1 91.6061 32.3406 46.0724 0.0000 0.0000 0.0000
# 2 32.3406 156.7958 45.9552 0.0000 0.0000 0.0000
# 3 46.0724 45.9552 107.7580 0.0000 0.0000 0.0000
# 4 0.0000 0.0000 0.0000 14.5038 0.0000 0.0000
# 5 0.0000 0.0000 0.0000 0.0000 -0.8800 0.0000
# 6 0.0000 0.0000 0.0000 0.0000 0.0000 38.3873
#
#
#
# Elastic Compliance Matrix: (Units=1/GPa)
#
#
# Indices 1 2 3 4 5 6 
#
# 1 0.014138 -0.001308 -0.005487 0.000000 0.000000 0.000000
# 2 -0.001308 0.007410 -0.002601 0.000000 0.000000 0.000000
# 3 -0.005487 -0.002601 0.012735 0.000000 0.000000 0.000000
# 4 0.000000 0.000000 0.000000 0.068948 0.000000 0.000000
# 5 0.000000 0.000000 0.000000 0.000000 -1.136312 0.000000
# 6 0.000000 0.000000 0.000000 0.000000 0.000000 0.026050
#
#
# Mechanical properties :
#
#
# Convention : Reuss Voigt Hill
#
# Bulk Modulus (GPa) = 64.55186 67.21071 65.88128
# Shear Modulus (GPa) = -5.08607 25.85498 10.38445
#
# Velocity S-wave (km/s) = -1.60518 3.61914 2.29364
# Velocity P-wave (km/s) = 5.40986 7.17727 6.35530
#
# Compressibility (1/GPa) = 0.01549142
#
# Stress axis : x y z
#
# Youngs Moduli (GPa) = 70.73347 134.95714 78.52292
#
# Poissons Ratio (x) = 0.17651 0.43084
# Poissons Ratio (y) = 0.09251 0.20422
# Poissons Ratio (z) = 0.38810 0.35100
#
# Static dielectric constant tensor:
#      x y z
#    x 1.690270 0.000000 0.000000 
#    y 0.000000 2.166310 0.000000 
#    z 0.000000 0.000000 1.729260 
# 
# From -- ./inp_files/8693.got.cif
#   From: 2010.05.17/outbox.cif.g08.bks.cpg/sg53_5_cif.got.tgz:8693.got - 2010.06.03 12:45:16.
