data_PCOD9418914
_publ_section_title
;
Structure prediction by ZEFSAII (Michael W. Deem and Ramdas Pophale) SiO2 
 PCOD9418914
Probable space group: P M N A
;
_chemical_formula_sum "Si O2"
_cell_formula_units_Z 64
_cell_length_a 13.717206
_cell_length_b 13.524577
_cell_length_c 16.308807
_cell_angle_alpha 90.000000
_cell_angle_beta 90.000000
_cell_angle_gamma 90.000000
_cell_volume 3025.600232
_symmetry_space_group_name_H-M "P M N A"
_symmetry_group_IT_number 53
_symmetry_cell_setting 'orthorhombic'
loop_
_space_group_symop_operation_xyz
x,y,z
1/2-x,-y,1/2+z
x,-y,-z
1/2-x,y,1/2-z
-x,-y,-z
1/2+x,y,1/2-z
-x,y,z
1/2+x,-y,1/2+z
loop_
_atom_site_type_symbol
_atom_site_label
_atom_site_fract_x
_atom_site_fract_y
_atom_site_fract_z
Si Si1 0.113729 0.104995 0.359702
Si Si2 0.386428 0.062683 0.424975
Si Si3 0.762907 0.070605 0.844769
Si Si4 0.114812 0.632786 0.232250
Si Si5 0.725825 0.713466 0.117112
Si Si6 0.884757 0.309052 0.453798
Si Si7 0.117672 0.222355 0.191747
Si Si8 0.117767 0.590116 0.715323
O O1 0.121737 0.194441 0.424762
O O2 0.138177 0.156320 0.272165
O O3 0.000000 0.074779 0.357890
O O4 0.183988 0.011996 0.370992
O O5 0.500000 0.078548 0.442765
O O6 0.345804 0.165743 0.389250
O O7 0.342752 0.000000 0.500000
O O8 0.367261 0.983091 0.353612
O O9 0.750000 0.095226 0.750000
O O10 0.751706 0.171539 0.893672
O O11 0.148479 0.700933 0.308385
O O12 0.178143 0.660580 0.152919
O O13 0.139294 0.521489 0.261085
O O14 0.000000 0.641036 0.217603
O O15 0.679109 0.673004 0.034114
O O16 0.853072 0.374481 0.375413
O O17 0.000000 0.328725 0.470421
O O18 0.150872 0.331842 0.215197
O O19 0.000000 0.224417 0.184300
O O20 0.000000 0.599088 0.713628
#
# Coordination Sequence:
#
# PCOD9418914 Si02
#       8
#     8   8   8   8   8   8   8   8
#     4   9  19  35  59  89 119 154 196 244 309 374
#     4  10  22  38  59  86 121 163 203 243 295 368
#     4  12  23  38  56  82 120 165 207 251 294 356
#     4  10  21  40  62  87 120 161 211 255 304 374
#     4  11  24  39  56  88 124 160 210 254 307 376
#     4   9  19  38  64  96 126 152 192 260 330 375
#     4   8  14  31  58  88 115 145 196 247 298 364
#     4   8  16  34  65  94 117 148 196 267 327 364
#
# _framework density 21.152826999999998
#
# number of rings (size 3 to 8) (size 9 to 14) (size 15 to 20)
#    0.000    2.375    2.500    1.875    1.750    2.000 
#    0.000    8.125    2.750    0.000    0.000    7.875 
#    0.000    0.000    0.000    0.000    0.000    0.000 
#
# Total GULP energy -357157.621612 kJ/mol
# GULP energy per Si atom -5580.587838 kJ/mol
# Density = 2.110468 g / cm^3
# Si number density = 21.152827 Si / 1000 Ang^3
#
#
#
# Elastic Constant Matrix: (Units=GPa)
#
#
# Indices 1 2 3 4 5 6 
#
# 1 113.0605 24.5118 35.0664 0.0000 0.0000 0.0000
# 2 24.5118 107.7630 23.3303 0.0000 0.0000 0.0000
# 3 35.0664 23.3303 81.4419 0.0000 0.0000 0.0000
# 4 0.0000 0.0000 0.0000 -9.1229 0.0000 0.0000
# 5 0.0000 0.0000 0.0000 0.0000 33.7301 0.0000
# 6 0.0000 0.0000 0.0000 0.0000 0.0000 -17.5632
#
#
#
# Elastic Compliance Matrix: (Units=1/GPa)
#
#
# Indices 1 2 3 4 5 6 
#
# 1 0.010428 -0.001493 -0.004063 0.000000 0.000000 0.000000
# 2 -0.001493 0.010107 -0.002253 0.000000 0.000000 0.000000
# 3 -0.004063 -0.002253 0.014673 0.000000 0.000000 0.000000
# 4 0.000000 0.000000 0.000000 -0.109614 0.000000 0.000000
# 5 0.000000 0.000000 0.000000 0.000000 0.029647 0.000000
# 6 0.000000 0.000000 0.000000 0.000000 0.000000 -0.056937
#
#
# Mechanical properties :
#
#
# Convention : Reuss Voigt Hill
#
# Bulk Modulus (GPa) = 51.03868 52.00913 51.52391
# Shear Modulus (GPa) = -62.85396 16.03260 -23.41068
#
# Velocity S-wave (km/s) = -5.45699 2.75606 -3.33038
# Velocity P-wave (km/s) = 3.94006 5.89648 3.10197
#
# Compressibility (1/GPa) = 0.01959298
#
# Stress axis : x y z
#
# Youngs Moduli (GPa) = 95.89154 98.94338 68.15132
#
# Poissons Ratio (x) = 0.14767 0.27687
# Poissons Ratio (y) = 0.14312 0.15352
# Poissons Ratio (z) = 0.38957 0.22288
#
# Static dielectric constant tensor:
#      x y z
#    x 1.810480 0.000000 0.000000 
#    y 0.000000 1.762730 0.000000 
#    z 0.000000 0.000000 1.808860 
# 
# From -- ./inp_files/28511.got.cif
#   From: 2010.05.17/outbox.cif.g08.bks.cpg/sg53_15_cif.got.tgz:28511.got - 2010.06.03 12:45:16.
