data_PCOD9418809
_publ_section_title
;
Structure prediction by ZEFSAII (Michael W. Deem and Ramdas Pophale) SiO2 
 PCOD9418809
Probable space group: P M N A
;
_chemical_formula_sum "Si O2"
_cell_formula_units_Z 40
_cell_length_a 27.121990
_cell_length_b 8.211206
_cell_length_c 8.802331
_cell_angle_alpha 90.000000
_cell_angle_beta 90.000000
_cell_angle_gamma 90.000000
_cell_volume 1960.316497
_symmetry_space_group_name_H-M "P M N A"
_symmetry_group_IT_number 53
_symmetry_cell_setting 'orthorhombic'
loop_
_space_group_symop_operation_xyz
x,y,z
1/2-x,-y,1/2+z
x,-y,-z
1/2-x,y,1/2-z
-x,-y,-z
1/2+x,y,1/2-z
-x,y,z
1/2+x,-y,1/2+z
loop_
_atom_site_type_symbol
_atom_site_label
_atom_site_fract_x
_atom_site_fract_y
_atom_site_fract_z
Si Si1 0.102964 0.821205 0.218066
Si Si2 0.500000 0.609561 0.725846
Si Si3 0.000000 0.236590 0.901447
Si Si4 0.393431 0.544033 0.825328
Si Si5 0.324759 0.000000 0.500000
Si Si6 0.802148 0.234829 0.263928
Si Si7 0.652195 0.000000 0.000000
O O1 0.105811 0.628540 0.241987
O O2 0.048139 0.854157 0.159009
O O3 0.118501 0.915055 0.371513
O O4 0.140960 0.875596 0.090809
O O5 0.500000 0.729127 0.581293
O O6 0.500000 0.421117 0.667889
O O7 0.447962 0.625108 0.814122
O O8 0.350744 0.654061 0.752638
O O9 0.382280 0.500000 0.000000
O O10 0.297734 0.897220 0.628965
O O11 0.750000 0.327199 0.250000
O O12 0.814041 0.134357 0.417402
#
# Coordination Sequence:
#
# PCOD9418809 Si02
#       7
#     8   4   4   8   4   8   4
#     4  10  21  39  61  89 126 162 208 256 305 374
#     4   9  19  34  62  90 130 163 199 255 314 374
#     4   9  18  34  58  91 122 164 208 252 310 360
#     4  11  21  40  64  96 124 164 212 256 307 365
#     4  10  23  41  62  88 122 167 200 254 321 370
#     4  11  23  42  64  91 122 162 208 257 313 370
#     4  10  21  41  60  84 128 163 204 250 317 378
#
# _framework density 20.404868
#
# number of rings (size 3 to 8) (size 9 to 14) (size 15 to 20)
#    0.000    1.800    2.000    2.100    0.000    3.200 
#    3.600    5.000    0.000    0.000    0.000    0.000 
#    0.000    0.000    0.000    0.000    0.000    0.000 
#
# Total GULP energy -223234.042500 kJ/mol
# GULP energy per Si atom -5580.851062 kJ/mol
# Density = 2.035843 g / cm^3
# Si number density = 20.404868 Si / 1000 Ang^3
#
#
#
# Elastic Constant Matrix: (Units=GPa)
#
#
# Indices 1 2 3 4 5 6 
#
# 1 121.9895 27.7744 8.7132 0.0000 0.0000 0.0000
# 2 27.7744 41.6594 5.4665 0.0000 0.0000 0.0000
# 3 8.7132 5.4665 75.4805 0.0000 0.0000 0.0000
# 4 0.0000 0.0000 0.0000 27.4286 0.0000 0.0000
# 5 0.0000 0.0000 0.0000 0.0000 7.7926 0.0000
# 6 0.0000 0.0000 0.0000 0.0000 0.0000 32.4137
#
#
#
# Elastic Compliance Matrix: (Units=1/GPa)
#
#
# Indices 1 2 3 4 5 6 
#
# 1 0.009697 -0.006379 -0.000657 0.000000 0.000000 0.000000
# 2 -0.006379 0.028430 -0.001323 0.000000 0.000000 0.000000
# 3 -0.000657 -0.001323 0.013420 0.000000 0.000000 0.000000
# 4 0.000000 0.000000 0.000000 0.036458 0.000000 0.000000
# 5 0.000000 0.000000 0.000000 0.000000 0.128328 0.000000
# 6 0.000000 0.000000 0.000000 0.000000 0.000000 0.030851
#
#
# Mechanical properties :
#
#
# Convention : Reuss Voigt Hill
#
# Bulk Modulus (GPa) = 28.71096 35.89308 32.30202
# Shear Modulus (GPa) = 18.14808 26.67199 22.41003
#
# Velocity S-wave (km/s) = 2.98552 3.61936 3.31761
# Velocity P-wave (km/s) = 5.09761 5.92410 5.52633
#
# Compressibility (1/GPa) = 0.03482990
#
# Stress axis : x y z
#
# Youngs Moduli (GPa) = 103.12858 35.17368 74.51491
#
# Poissons Ratio (x) = 0.22436 0.04899
# Poissons Ratio (y) = 0.65781 0.09856
# Poissons Ratio (z) = 0.06780 0.04652
#
# Static dielectric constant tensor:
#      x y z
#    x 1.751010 0.000000 0.000000 
#    y 0.000000 1.747660 0.000000 
#    z 0.000000 0.000000 1.752020 
# 
# From -- ./inp_files/12381.got.cif
#   From: 2010.05.17/outbox.cif.g08.bks.cpg/sg53_7_cif.got.tgz:12381.got - 2010.06.03 12:45:16.
