data_PCOD9418739
_publ_section_title
;
Structure prediction by ZEFSAII (Michael W. Deem and Ramdas Pophale) SiO2 
 PCOD9418739
Probable space group: P M N A
;
_chemical_formula_sum "Si O2"
_cell_formula_units_Z 64
_cell_length_a 19.399290
_cell_length_b 28.847297
_cell_length_c 5.421968
_cell_angle_alpha 90.000000
_cell_angle_beta 90.000000
_cell_angle_gamma 90.000000
_cell_volume 3034.225901
_symmetry_space_group_name_H-M "P M N A"
_symmetry_group_IT_number 53
_symmetry_cell_setting 'orthorhombic'
loop_
_space_group_symop_operation_xyz
x,y,z
1/2-x,-y,1/2+z
x,-y,-z
1/2-x,y,1/2-z
-x,-y,-z
1/2+x,y,1/2-z
-x,y,z
1/2+x,-y,1/2+z
loop_
_atom_site_type_symbol
_atom_site_label
_atom_site_fract_x
_atom_site_fract_y
_atom_site_fract_z
Si Si1 0.827115 0.469811 0.753570
Si Si2 0.077956 0.704783 0.039130
Si Si3 0.178611 0.337390 0.355941
Si Si4 0.577248 0.390579 0.853340
Si Si5 0.422121 0.118747 0.581002
Si Si6 0.291360 0.055646 0.501299
Si Si7 0.820559 0.244742 0.637485
Si Si8 0.921299 0.178387 0.417395
O O1 0.835978 0.500000 0.500000
O O2 0.750000 0.447680 0.750000
O O3 0.888488 0.432976 0.786725
O O4 0.827300 0.500000 0.000000
O O5 0.127568 0.689690 0.822969
O O6 0.000000 0.716163 0.965645
O O7 0.074788 0.658533 0.209619
O O8 0.116402 0.746481 0.174747
O O9 0.250000 0.354290 0.250000
O O10 0.133558 0.380386 0.440179
O O11 0.197843 0.296676 0.547351
O O12 0.500000 0.400562 0.939342
O O13 0.500000 0.099420 0.588916
O O14 0.364258 0.080877 0.526491
O O15 0.411354 0.144680 0.844043
O O16 0.419289 0.153059 0.345623
O O17 0.250000 0.068100 0.750000
O O18 0.299828 0.000000 0.500000
O O19 0.250000 0.068457 0.250000
O O20 0.750000 0.224749 0.750000
O O21 0.857565 0.213942 0.431802
O O22 0.000000 0.198031 0.444301
#
# Coordination Sequence:
#
# PCOD9418739 Si02
#       8
#     8   8   8   8   8   8   8   8
#     4  10  24  43  66  96 128 166 208 251 306 369
#     4  10  22  40  61  88 122 156 199 253 309 366
#     4  11  23  38  64  92 121 160 206 261 308 369
#     4  10  24  41  63  93 123 160 203 252 311 369
#     4  10  22  41  62  90 123 166 217 262 317 384
#     4  10  21  38  62  93 127 163 206 262 327 388
#     4  11  23  39  57  89 122 160 211 258 310 371
#     4  10  23  40  61  88 125 169 213 263 318 375
#
# _framework density 21.092693000000001
#
# number of rings (size 3 to 8) (size 9 to 14) (size 15 to 20)
#    0.000    1.750    1.250    1.500    5.250    4.250 
#    0.000    0.000    0.000    4.500    0.000    0.000 
#    0.000    0.000    0.000    0.000    0.000    0.000 
#
# Total GULP energy -357213.402405 kJ/mol
# GULP energy per Si atom -5581.459413 kJ/mol
# Density = 2.104469 g / cm^3
# Si number density = 21.092693 Si / 1000 Ang^3
#
#
#
# Elastic Constant Matrix: (Units=GPa)
#
#
# Indices 1 2 3 4 5 6 
#
# 1 186.4461 49.7613 37.7769 0.0000 0.0000 0.0000
# 2 49.7613 36.5855 12.1771 0.0000 0.0000 0.0000
# 3 37.7769 12.1771 89.9911 0.0000 0.0000 0.0000
# 4 0.0000 0.0000 0.0000 17.2552 0.0000 0.0000
# 5 0.0000 0.0000 0.0000 0.0000 33.8675 0.0000
# 6 0.0000 0.0000 0.0000 0.0000 0.0000 41.8613
#
#
#
# Elastic Compliance Matrix: (Units=1/GPa)
#
#
# Indices 1 2 3 4 5 6 
#
# 1 0.008808 -0.011257 -0.002174 0.000000 0.000000 0.000000
# 2 -0.011257 0.043008 -0.001094 0.000000 0.000000 0.000000
# 3 -0.002174 -0.001094 0.012173 0.000000 0.000000 0.000000
# 4 0.000000 0.000000 0.000000 0.057953 0.000000 0.000000
# 5 0.000000 0.000000 0.000000 0.000000 0.029527 0.000000
# 6 0.000000 0.000000 0.000000 0.000000 0.000000 0.023888
#
#
# Mechanical properties :
#
#
# Convention : Reuss Voigt Hill
#
# Bulk Modulus (GPa) = 28.62149 56.93927 42.78038
# Shear Modulus (GPa) = 23.14214 32.81730 27.97972
#
# Velocity S-wave (km/s) = 3.31594 3.94872 3.64608
# Velocity P-wave (km/s) = 5.31596 6.91688 6.16858
#
# Compressibility (1/GPa) = 0.03493879
#
# Stress axis : x y z
#
# Youngs Moduli (GPa) = 113.52707 23.25126 82.14862
#
# Poissons Ratio (x) = 0.26174 0.17863
# Poissons Ratio (y) = 1.27797 0.08988
# Poissons Ratio (z) = 0.24686 0.02544
#
# Static dielectric constant tensor:
#      x y z
#    x 1.619470 0.000000 0.000000 
#    y 0.000000 1.828450 0.000000 
#    z 0.000000 0.000000 1.846170 
# 
# From -- ./inp_files/2340.got.cif
#   From: 2010.05.17/outbox.cif.g08.bks.cpg/sg53_2_cif.got.tgz:2340.got - 2010.06.03 12:45:16.
