data_PCOD9418509
_publ_section_title
;
Structure prediction by ZEFSAII (Michael W. Deem and Ramdas Pophale) SiO2 
 PCOD9418509
Probable space group: P M N A
;
_chemical_formula_sum "Si O2"
_cell_formula_units_Z 40
_cell_length_a 8.622695
_cell_length_b 26.516128
_cell_length_c 9.265814
_cell_angle_alpha 90.000000
_cell_angle_beta 90.000000
_cell_angle_gamma 90.000000
_cell_volume 2118.540201
_symmetry_space_group_name_H-M "P M N A"
_symmetry_group_IT_number 53
_symmetry_cell_setting 'orthorhombic'
loop_
_space_group_symop_operation_xyz
x,y,z
1/2-x,-y,1/2+z
x,-y,-z
1/2-x,y,1/2-z
-x,-y,-z
1/2+x,y,1/2-z
-x,y,z
1/2+x,-y,1/2+z
loop_
_atom_site_type_symbol
_atom_site_label
_atom_site_fract_x
_atom_site_fract_y
_atom_site_fract_z
Si Si1 0.313982 0.950180 0.911272
Si Si2 0.685220 0.156557 0.413146
Si Si3 0.187128 0.351034 0.411960
Si Si4 0.686568 0.251212 0.911727
Si Si5 0.812540 0.549773 0.412163
O O1 0.250000 0.955946 0.750000
O O2 0.500000 0.945309 0.908105
O O3 0.242765 0.897956 0.968679
O O4 0.272348 0.000000 0.000000
O O5 0.750000 0.162232 0.250000
O O6 0.500000 0.157537 0.408149
O O7 0.748716 0.201504 0.510863
O O8 0.250000 0.351865 0.250000
O O9 0.234214 0.300288 0.495709
O O10 0.237913 0.400207 0.501753
O O11 0.000000 0.351725 0.405809
O O12 0.750000 0.255233 0.750000
O O13 0.500000 0.249111 0.908650
O O14 0.763435 0.500000 0.500000
O O15 0.750000 0.549358 0.250000
O O16 0.000000 0.549931 0.406335
#
# Coordination Sequence:
#
# PCOD9418509 Si02
#       5
#     8   8   8   8   8
#     4  10  21  37  58  84 114 148 188 232 279 334
#     4  11  22  38  60  84 113 149 189 233 282 336
#     4  10  22  38  58  84 113 148 189 233 281 337
#     4  11  23  39  58  83 114 147 188 234 284 339
#     4  10  21  37  57  84 116 149 189 234 281 335
#
# _framework density 18.880925999999999
#
# number of rings (size 3 to 8) (size 9 to 14) (size 15 to 20)
#    0.000    1.600    0.000    6.000    0.000    6.800 
#    0.000    2.000    0.000    0.000    0.000    0.000 
#    0.000    0.000    0.000    0.000    0.000    0.000 
#
# Total GULP energy -223608.056953 kJ/mol
# GULP energy per Si atom -5590.201424 kJ/mol
# Density = 1.883795 g / cm^3
# Si number density = 18.880926 Si / 1000 Ang^3
#
#
#
# Elastic Constant Matrix: (Units=GPa)
#
#
# Indices 1 2 3 4 5 6 
#
# 1 64.8753 62.9836 44.0492 0.0000 0.0000 0.0000
# 2 62.9836 227.5994 125.4676 0.0000 0.0000 0.0000
# 3 44.0492 125.4676 161.7834 0.0000 0.0000 0.0000
# 4 0.0000 0.0000 0.0000 45.1136 0.0000 0.0000
# 5 0.0000 0.0000 0.0000 0.0000 38.0671 0.0000
# 6 0.0000 0.0000 0.0000 0.0000 0.0000 -14.3139
#
#
#
# Elastic Compliance Matrix: (Units=1/GPa)
#
#
# Indices 1 2 3 4 5 6 
#
# 1 0.021502 -0.004756 -0.002166 0.000000 0.000000 0.000000
# 2 -0.004756 0.008727 -0.005473 0.000000 0.000000 0.000000
# 3 -0.002166 -0.005473 0.011015 0.000000 0.000000 0.000000
# 4 0.000000 0.000000 0.000000 0.022166 0.000000 0.000000
# 5 0.000000 0.000000 0.000000 0.000000 0.026269 0.000000
# 6 0.000000 0.000000 0.000000 0.000000 0.000000 -0.069862
#
#
# Mechanical properties :
#
#
# Convention : Reuss Voigt Hill
#
# Bulk Modulus (GPa) = 60.77441 102.13988 81.45714
# Shear Modulus (GPa) = 99.81371 28.55720 64.18546
#
# Velocity S-wave (km/s) = 7.27871 3.89329 5.83684
# Velocity P-wave (km/s) = 10.14385 8.62697 9.41600
#
# Compressibility (1/GPa) = 0.01645430
#
# Stress axis : x y z
#
# Youngs Moduli (GPa) = 46.50625 114.58677 90.78328
#
# Poissons Ratio (x) = 0.54503 0.19661
# Poissons Ratio (y) = 0.22121 0.49686
# Poissons Ratio (z) = 0.10072 0.62713
#
# Static dielectric constant tensor:
#      x y z
#    x 1.637040 0.000000 0.000000 
#    y 0.000000 1.653330 0.000000 
#    z 0.000000 0.000000 1.606740 
# 
# From -- ./inp_files/6286.got.cif
#   From: 2010.05.17/outbox.cif.g08.bks.cpg/sg53_4_cif.got.tgz:6286.got - 2010.06.03 12:45:16.
