data_PCOD9418081
_publ_section_title
;
Structure prediction by ZEFSAII (Michael W. Deem and Ramdas Pophale) SiO2 
 PCOD9418081
Probable space group: P M N A
;
_chemical_formula_sum "Si O2"
_cell_formula_units_Z 64
_cell_length_a 15.071833
_cell_length_b 11.648062
_cell_length_c 18.699043
_cell_angle_alpha 90.000000
_cell_angle_beta 90.000000
_cell_angle_gamma 90.000000
_cell_volume 3282.759957
_symmetry_space_group_name_H-M "P M N A"
_symmetry_group_IT_number 53
_symmetry_cell_setting 'orthorhombic'
loop_
_space_group_symop_operation_xyz
x,y,z
1/2-x,-y,1/2+z
x,-y,-z
1/2-x,y,1/2-z
-x,-y,-z
1/2+x,y,1/2-z
-x,y,z
1/2+x,-y,1/2+z
loop_
_atom_site_type_symbol
_atom_site_label
_atom_site_fract_x
_atom_site_fract_y
_atom_site_fract_z
Si Si1 0.816622 0.385717 0.307527
Si Si2 0.396650 0.112349 0.549644
Si Si3 0.104505 0.592860 0.213607
Si Si4 0.282272 0.764307 0.041320
Si Si5 0.106956 0.854539 0.212509
Si Si6 0.898567 0.208218 0.404212
Si Si7 0.106817 0.055626 0.635847
Si Si8 0.711091 0.469428 0.581707
O O1 0.750000 0.330909 0.250000
O O2 0.854907 0.497989 0.266772
O O3 0.884435 0.292239 0.337000
O O4 0.762340 0.431974 0.375529
O O5 0.500000 0.152635 0.546045
O O6 0.319247 0.198145 0.525801
O O7 0.373881 0.095057 0.633987
O O8 0.390689 0.000000 0.500000
O O9 0.139590 0.723249 0.221458
O O10 0.127972 0.559045 0.132236
O O11 0.000000 0.594099 0.225296
O O12 0.334813 0.858529 0.088083
O O13 0.274274 0.642400 0.080043
O O14 0.335693 0.754868 0.968358
O O15 0.133889 0.925812 0.281678
O O16 0.000000 0.848691 0.214862
O O17 0.000000 0.215082 0.428270
O O18 0.879035 0.075906 0.385829
O O19 0.000000 0.079569 0.627972
O O20 0.690266 0.500000 0.500000
#
# Coordination Sequence:
#
# PCOD9418081 Si02
#       8
#     8   8   8   8   8   8   8   8
#     4  10  22  41  61  87 122 162 203 254 310 374
#     4  10  21  38  59  88 127 162 202 258 313 368
#     4  10  20  38  65  89 117 159 206 257 308 363
#     4  12  22  39  64  90 121 165 207 249 314 372
#     4   9  18  36  59  88 120 153 202 257 306 361
#     4  11  23  42  64  89 127 165 202 253 311 376
#     4  10  22  39  61  92 124 157 204 257 308 373
#     4  11  22  39  60  87 123 157 203 257 307 364
#
# _framework density 19.495791000000001
#
# number of rings (size 3 to 8) (size 9 to 14) (size 15 to 20)
#    0.000    1.625    2.500    2.625    0.000    1.750 
#    4.500    2.500    0.000    0.000    0.000    0.000 
#    0.000    0.000    0.000    0.000    0.000    0.000 
#
# Total GULP energy -357107.423844 kJ/mol
# GULP energy per Si atom -5579.803498 kJ/mol
# Density = 1.945142 g / cm^3
# Si number density = 19.495791 Si / 1000 Ang^3
#
#
#
# Elastic Constant Matrix: (Units=GPa)
#
#
# Indices 1 2 3 4 5 6 
#
# 1 44.2978 -6.6337 14.2868 0.0000 0.0000 0.0000
# 2 -6.6337 25.2696 3.4276 0.0000 0.0000 0.0000
# 3 14.2868 3.4276 95.2056 0.0000 0.0000 0.0000
# 4 0.0000 0.0000 0.0000 32.4470 0.0000 0.0000
# 5 0.0000 0.0000 0.0000 0.0000 30.0235 0.0000
# 6 0.0000 0.0000 0.0000 0.0000 0.0000 24.0590
#
#
#
# Elastic Compliance Matrix: (Units=1/GPa)
#
#
# Indices 1 2 3 4 5 6 
#
# 1 0.024924 0.007085 -0.003995 0.000000 0.000000 0.000000
# 2 0.007085 0.041781 -0.002567 0.000000 0.000000 0.000000
# 3 -0.003995 -0.002567 0.011196 0.000000 0.000000 0.000000
# 4 0.000000 0.000000 0.000000 0.030820 0.000000 0.000000
# 5 0.000000 0.000000 0.000000 0.000000 0.033307 0.000000
# 6 0.000000 0.000000 0.000000 0.000000 0.000000 0.041564
#
#
# Mechanical properties :
#
#
# Convention : Reuss Voigt Hill
#
# Bulk Modulus (GPa) = 12.66699 20.77051 16.71875
# Shear Modulus (GPa) = 23.93916 27.55204 25.74560
#
# Velocity S-wave (km/s) = 3.50796 3.76337 3.63791
# Velocity P-wave (km/s) = 4.78739 5.43700 5.12250
#
# Compressibility (1/GPa) = 0.07894534
#
# Stress axis : x y z
#
# Youngs Moduli (GPa) = 40.12195 23.93414 89.32115
#
# Poissons Ratio (x) = -0.16957 0.35686
# Poissons Ratio (y) = -0.28426 0.22932
# Poissons Ratio (z) = 0.16030 0.06145
#
# Static dielectric constant tensor:
#      x y z
#    x 1.679320 0.000000 0.000000 
#    y 0.000000 1.681460 0.000000 
#    z 0.000000 0.000000 1.688490 
# 
# From -- ./inp_files/28569.got.cif
#   From: 2010.05.17/outbox.cif.g08.bks.cpg/sg53_15_cif.got.tgz:28569.got - 2010.06.03 12:45:16.
