data_PCOD9418873
_publ_section_title
;
Structure prediction by ZEFSAII (Michael W. Deem and Ramdas Pophale) SiO2 
 PCOD9418873
Probable space group: P M N A
;
_chemical_formula_sum "Si O2"
_cell_formula_units_Z 48
_cell_length_a 7.381495
_cell_length_b 10.403271
_cell_length_c 31.376152
_cell_angle_alpha 90.000000
_cell_angle_beta 90.000000
_cell_angle_gamma 90.000000
_cell_volume 2409.427828
_symmetry_space_group_name_H-M "P M N A"
_symmetry_group_IT_number 53
_symmetry_cell_setting 'orthorhombic'
loop_
_space_group_symop_operation_xyz
x,y,z
1/2-x,-y,1/2+z
x,-y,-z
1/2-x,y,1/2-z
-x,-y,-z
1/2+x,y,1/2-z
-x,y,z
1/2+x,-y,1/2+z
loop_
_atom_site_type_symbol
_atom_site_label
_atom_site_fract_x
_atom_site_fract_y
_atom_site_fract_z
Si Si1 0.215794 0.466167 0.700792
Si Si2 0.280448 0.032909 0.133088
Si Si3 0.782972 0.083373 0.542077
Si Si4 0.783256 0.176360 0.700606
Si Si5 0.000000 0.305022 0.967686
Si Si6 0.280806 0.674417 0.868363
Si Si7 0.000000 0.589002 0.936621
O O1 0.250000 0.499582 0.750000
O O2 0.287362 0.321480 0.693238
O O3 0.278120 0.574383 0.668134
O O4 0.000000 0.459586 0.695393
O O5 0.500000 0.030409 0.134417
O O6 0.228663 0.179230 0.142533
O O7 0.230508 0.992165 0.085131
O O8 0.214150 0.929208 0.167475
O O9 0.673717 0.215747 0.540836
O O10 0.000000 0.104476 0.542712
O O11 0.739893 0.000000 0.500000
O O12 0.750000 0.142779 0.750000
O O13 0.000000 0.181741 0.695166
O O14 0.000000 0.434880 0.940408
O O15 0.000000 0.349874 0.016660
O O16 0.500000 0.669128 0.873379
O O17 0.176483 0.635109 0.910984
#
# Coordination Sequence:
#
# PCOD9418873 Si02
#       7
#     8   8   8   8   4   8   4
#     4   9  19  34  57  84 116 159 201 246 301 359
#     4   9  19  36  60  87 117 155 202 249 303 361
#     4  10  21  39  65  92 121 161 205 253 309 372
#     4   9  18  35  54  83 119 150 197 251 296 358
#     4  11  25  42  60  92 125 160 203 262 309 360
#     4  10  22  41  62  86 121 165 201 251 305 362
#     4  11  26  42  60  90 126 159 208 257 302 370
#
# _framework density 19.921741999999998
#
# number of rings (size 3 to 8) (size 9 to 14) (size 15 to 20)
#    0.000    2.333    0.000    1.250    3.500    4.000 
#    3.000    1.667    0.000    0.000    0.000    0.000 
#    0.000    0.000    0.000    0.000    0.000    0.000 
#
# Total GULP energy -268070.519956 kJ/mol
# GULP energy per Si atom -5584.802499 kJ/mol
# Density = 1.987640 g / cm^3
# Si number density = 19.921742 Si / 1000 Ang^3
#
#
#
# Elastic Constant Matrix: (Units=GPa)
#
#
# Indices 1 2 3 4 5 6 
#
# 1 78.1157 30.0975 13.6242 0.0000 0.0000 0.0000
# 2 30.0975 162.7990 99.0650 0.0000 0.0000 0.0000
# 3 13.6242 99.0650 129.5574 0.0000 0.0000 0.0000
# 4 0.0000 0.0000 0.0000 30.0041 0.0000 0.0000
# 5 0.0000 0.0000 0.0000 0.0000 16.9376 0.0000
# 6 0.0000 0.0000 0.0000 0.0000 0.0000 85.1069
#
#
#
# Elastic Compliance Matrix: (Units=1/GPa)
#
#
# Indices 1 2 3 4 5 6 
#
# 1 0.013844 -0.003130 0.000937 0.000000 0.000000 0.000000
# 2 -0.003130 0.012195 -0.008996 0.000000 0.000000 0.000000
# 3 0.000937 -0.008996 0.014499 0.000000 0.000000 0.000000
# 4 0.000000 0.000000 0.000000 0.033329 0.000000 0.000000
# 5 0.000000 0.000000 0.000000 0.000000 0.059040 0.000000
# 6 0.000000 0.000000 0.000000 0.000000 0.000000 0.011750
#
#
# Mechanical properties :
#
#
# Convention : Reuss Voigt Hill
#
# Bulk Modulus (GPa) = 55.06247 72.89393 63.97820
# Shear Modulus (GPa) = 28.88719 41.58874 35.23797
#
# Velocity S-wave (km/s) = 3.81206 4.57399 4.21030
# Velocity P-wave (km/s) = 6.86113 8.03522 7.47127
#
# Compressibility (1/GPa) = 0.01816119
#
# Stress axis : x y z
#
# Youngs Moduli (GPa) = 72.23382 81.99914 68.97201
#
# Poissons Ratio (x) = 0.25664 -0.06465
# Poissons Ratio (y) = 0.22608 0.62046
# Poissons Ratio (z) = -0.06771 0.73765
#
# Static dielectric constant tensor:
#      x y z
#    x 1.717020 0.000000 0.000000 
#    y 0.000000 1.687500 0.000000 
#    z 0.000000 0.000000 2.111900 
# 
# From -- ./inp_files/37836.got.cif
#   From: 2010.05.17/outbox.cif.g08.bks.cpg/sg53_19_cif.got.tgz:37836.got - 2010.06.03 12:45:16.
