data_PCOD9418087
_publ_section_title
;
Structure prediction by ZEFSAII (Michael W. Deem and Ramdas Pophale) SiO2 
 PCOD9418087
Probable space group: P M N A
;
_chemical_formula_sum "Si O2"
_cell_formula_units_Z 56
_cell_length_a 14.580831
_cell_length_b 10.749755
_cell_length_c 15.870074
_cell_angle_alpha 90.000000
_cell_angle_beta 90.000000
_cell_angle_gamma 90.000000
_cell_volume 2487.481127
_symmetry_space_group_name_H-M "P M N A"
_symmetry_group_IT_number 53
_symmetry_cell_setting 'orthorhombic'
loop_
_space_group_symop_operation_xyz
x,y,z
1/2-x,-y,1/2+z
x,-y,-z
1/2-x,y,1/2-z
-x,-y,-z
1/2+x,y,1/2-z
-x,y,z
1/2+x,-y,1/2+z
loop_
_atom_site_type_symbol
_atom_site_label
_atom_site_fract_x
_atom_site_fract_y
_atom_site_fract_z
Si Si1 0.388840 0.624640 0.946915
Si Si2 0.760552 0.074766 0.836905
Si Si3 0.605758 0.465427 0.590432
Si Si4 0.397622 0.130409 0.951466
Si Si5 0.392485 0.406634 0.242315
Si Si6 0.601297 0.813548 0.465262
Si Si7 0.105001 0.851753 0.837359
O O1 0.500000 0.638462 0.939892
O O2 0.353012 0.600849 0.852045
O O3 0.370615 0.500000 0.000000
O O4 0.358063 0.752942 0.993559
O O5 0.750000 0.149677 0.750000
O O6 0.659277 0.087714 0.871592
O O7 0.820336 0.114418 0.917459
O O8 0.816055 0.949207 0.815215
O O9 0.650104 0.500000 0.500000
O O10 0.500000 0.518122 0.587997
O O11 0.644713 0.509517 0.680107
O O12 0.600187 0.318425 0.581203
O O13 0.500000 0.170040 0.927247
O O14 0.402237 0.000000 0.000000
O O15 0.500000 0.444826 0.232746
O O16 0.388561 0.267554 0.278241
O O17 0.500000 0.870027 0.453676
O O18 0.616330 0.807437 0.565388
O O19 0.000000 0.900573 0.828694
#
# Coordination Sequence:
#
# PCOD9418087 Si02
#       7
#     8   8   8   8   8   8   8
#     4   9  19  37  64  97 131 172 222 274 325 386
#     4  12  27  41  59  90 131 165 216 273 328 390
#     4   9  15  29  57  95 132 165 203 253 317 386
#     4  10  23  44  69  92 126 175 224 275 330 386
#     4   9  17  31  60  97 130 168 217 262 315 391
#     4  10  20  38  65  93 129 170 203 254 326 389
#     4  10  20  38  65  94 127 169 217 268 322 386
#
# _framework density 22.512733000000001
#
# number of rings (size 3 to 8) (size 9 to 14) (size 15 to 20)
#    0.000    2.143    1.429    1.714    2.000    3.429 
#    0.000    3.571    0.000    0.857    0.000    0.000 
#    0.000    0.000    0.000    0.000    0.000    0.000 
#
# Total GULP energy -312102.088990 kJ/mol
# GULP energy per Si atom -5573.251589 kJ/mol
# Density = 2.246149 g / cm^3
# Si number density = 22.512733 Si / 1000 Ang^3
#
#
#
# Elastic Constant Matrix: (Units=GPa)
#
#
# Indices 1 2 3 4 5 6 
#
# 1 60.7809 8.8086 44.0435 0.0000 0.0000 0.0000
# 2 8.8086 88.1428 28.1949 0.0000 0.0000 0.0000
# 3 44.0435 28.1949 148.4920 0.0000 0.0000 0.0000
# 4 0.0000 0.0000 0.0000 -3.0413 0.0000 0.0000
# 5 0.0000 0.0000 0.0000 0.0000 -1.8607 0.0000
# 6 0.0000 0.0000 0.0000 0.0000 0.0000 -4.1077
#
#
#
# Elastic Compliance Matrix: (Units=1/GPa)
#
#
# Indices 1 2 3 4 5 6 
#
# 1 0.020958 -0.000113 -0.006195 0.000000 0.000000 0.000000
# 2 -0.000113 0.012079 -0.002260 0.000000 0.000000 0.000000
# 3 -0.006195 -0.002260 0.009001 0.000000 0.000000 0.000000
# 4 0.000000 0.000000 0.000000 -0.328811 0.000000 0.000000
# 5 0.000000 0.000000 0.000000 0.000000 -0.537421 0.000000
# 6 0.000000 0.000000 0.000000 0.000000 0.000000 -0.243442
#
#
# Mechanical properties :
#
#
# Convention : Reuss Voigt Hill
#
# Bulk Modulus (GPa) = 40.15633 51.05664 45.60648
# Shear Modulus (GPa) = -4.79754 12.62262 3.91254
#
# Velocity S-wave (km/s) = -1.46139 2.37045 1.31973
# Velocity P-wave (km/s) = 3.87664 5.49730 4.75650
#
# Compressibility (1/GPa) = 0.02490268
#
# Stress axis : x y z
#
# Youngs Moduli (GPa) = 47.71500 82.78507 111.09990
#
# Poissons Ratio (x) = 0.00934 0.68824
# Poissons Ratio (y) = 0.00539 0.25110
# Poissons Ratio (z) = 0.29558 0.18710
#
# Static dielectric constant tensor:
#      x y z
#    x 1.962680 0.000000 0.000000 
#    y 0.000000 1.902410 0.000000 
#    z 0.000000 0.000000 1.872240 
# 
# From -- ./inp_files/22841.got.cif
#   From: 2010.05.17/outbox.cif.g08.bks.cpg/sg53_12_cif.got.tgz:22841.got - 2010.06.03 12:45:16.
