data_PCOD9418877
_publ_section_title
;
Structure prediction by ZEFSAII (Michael W. Deem and Ramdas Pophale) SiO2 
 PCOD9418877
Probable space group: P M N A
;
_chemical_formula_sum "Si O2"
_cell_formula_units_Z 56
_cell_length_a 14.910503
_cell_length_b 13.020734
_cell_length_c 14.578636
_cell_angle_alpha 90.000000
_cell_angle_beta 90.000000
_cell_angle_gamma 90.000000
_cell_volume 2830.379395
_symmetry_space_group_name_H-M "P M N A"
_symmetry_group_IT_number 53
_symmetry_cell_setting 'orthorhombic'
loop_
_space_group_symop_operation_xyz
x,y,z
1/2-x,-y,1/2+z
x,-y,-z
1/2-x,y,1/2-z
-x,-y,-z
1/2+x,y,1/2-z
-x,y,z
1/2+x,-y,1/2+z
loop_
_atom_site_type_symbol
_atom_site_label
_atom_site_fract_x
_atom_site_fract_y
_atom_site_fract_z
Si Si1 0.603112 0.093528 0.107213
Si Si2 0.228214 0.381070 0.476924
Si Si3 0.654485 0.913743 0.225949
Si Si4 0.106989 0.277895 0.105994
Si Si5 0.606729 0.957888 0.596162
Si Si6 0.602183 0.320015 0.187138
Si Si7 0.898434 0.777770 0.431203
O O1 0.500000 0.053259 0.109560
O O2 0.604383 0.197949 0.165845
O O3 0.664055 0.009864 0.155791
O O4 0.623818 0.131641 0.004902
O O5 0.232816 0.500000 0.500000
O O6 0.326709 0.332723 0.464454
O O7 0.173519 0.368303 0.381376
O O8 0.170736 0.313252 0.549070
O O9 0.750000 0.868329 0.250000
O O10 0.603108 0.827476 0.168992
O O11 0.618345 0.964824 0.318831
O O12 0.137694 0.158679 0.113960
O O13 0.119474 0.330397 0.205275
O O14 0.000000 0.281829 0.084572
O O15 0.500000 0.947400 0.584675
O O16 0.644620 0.000000 0.500000
O O17 0.500000 0.354931 0.167575
O O18 0.000000 0.744697 0.454295
#
# Coordination Sequence:
#
# PCOD9418877 Si02
#       7
#     8   8   8   8   8   8   8
#     4   9  17  33  57  86 120 157 196 245 306 374
#     4  11  24  40  65  92 123 162 215 279 328 379
#     4  12  24  32  55  91 130 168 202 249 305 385
#     4  10  21  39  65  93 128 168 210 260 316 386
#     4  10  22  38  60  87 123 169 211 248 298 372
#     4   9  18  35  62  94 120 155 207 263 320 377
#     4  10  23  41  62  88 126 166 209 263 324 383
#
# _framework density 19.785333000000001
#
# number of rings (size 3 to 8) (size 9 to 14) (size 15 to 20)
#    0.000    1.857    1.429    3.429    6.000    2.571 
#    0.000    1.429    0.000    0.000    0.000    0.000 
#    0.000    0.000    0.000    0.000    0.000    0.000 
#
# Total GULP energy -312587.016375 kJ/mol
# GULP energy per Si atom -5581.911007 kJ/mol
# Density = 1.974030 g / cm^3
# Si number density = 19.785333 Si / 1000 Ang^3
#
#
#
# Elastic Constant Matrix: (Units=GPa)
#
#
# Indices 1 2 3 4 5 6 
#
# 1 73.6142 40.0717 31.5828 0.0000 0.0000 0.0000
# 2 40.0717 81.6369 55.6417 0.0000 0.0000 0.0000
# 3 31.5828 55.6417 84.9795 0.0000 0.0000 0.0000
# 4 0.0000 0.0000 0.0000 14.1045 0.0000 0.0000
# 5 0.0000 0.0000 0.0000 0.0000 25.5821 0.0000
# 6 0.0000 0.0000 0.0000 0.0000 0.0000 -0.6543
#
#
#
# Elastic Compliance Matrix: (Units=1/GPa)
#
#
# Indices 1 2 3 4 5 6 
#
# 1 0.018672 -0.008010 -0.001695 0.000000 0.000000 0.000000
# 2 -0.008010 0.025558 -0.013757 0.000000 0.000000 0.000000
# 3 -0.001695 -0.013757 0.021405 0.000000 0.000000 0.000000
# 4 0.000000 0.000000 0.000000 0.070899 0.000000 0.000000
# 5 0.000000 0.000000 0.000000 0.000000 0.039090 0.000000
# 6 0.000000 0.000000 0.000000 0.000000 0.000000 -1.528421
#
#
# Mechanical properties :
#
#
# Convention : Reuss Voigt Hill
#
# Bulk Modulus (GPa) = 53.44596 54.98034 54.21315
# Shear Modulus (GPa) = -3.84723 15.33542 5.74410
#
# Velocity S-wave (km/s) = -1.39596 2.78707 1.70573
# Velocity P-wave (km/s) = 4.94705 6.18108 5.59817
#
# Compressibility (1/GPa) = 0.01871049
#
# Stress axis : x y z
#
# Youngs Moduli (GPa) = 53.55718 39.12698 46.71743
#
# Poissons Ratio (x) = 0.31341 0.07917
# Poissons Ratio (y) = 0.42899 0.64271
# Poissons Ratio (z) = 0.09076 0.53829
#
# Static dielectric constant tensor:
#      x y z
#    x 1.727460 0.000000 0.000000 
#    y 0.000000 1.663260 0.000000 
#    z 0.000000 0.000000 1.730310 
# 
# From -- ./inp_files/22847.got.cif
#   From: 2010.05.17/outbox.cif.g08.bks.cpg/sg53_12_cif.got.tgz:22847.got - 2010.06.03 12:45:16.
