data_PCOD9418796
_publ_section_title
;
Structure prediction by ZEFSAII (Michael W. Deem and Ramdas Pophale) SiO2 
 PCOD9418796
Probable space group: P M N A
;
_chemical_formula_sum "Si O2"
_cell_formula_units_Z 56
_cell_length_a 20.918448
_cell_length_b 5.107187
_cell_length_c 25.320657
_cell_angle_alpha 90.000000
_cell_angle_beta 90.000000
_cell_angle_gamma 90.000000
_cell_volume 2705.117849
_symmetry_space_group_name_H-M "P M N A"
_symmetry_group_IT_number 53
_symmetry_cell_setting 'orthorhombic'
loop_
_space_group_symop_operation_xyz
x,y,z
1/2-x,-y,1/2+z
x,-y,-z
1/2-x,y,1/2-z
-x,-y,-z
1/2+x,y,1/2-z
-x,y,z
1/2+x,-y,1/2+z
loop_
_atom_site_type_symbol
_atom_site_label
_atom_site_fract_x
_atom_site_fract_y
_atom_site_fract_z
Si Si1 0.310665 0.557488 0.642948
Si Si2 0.703362 0.465299 0.059788
Si Si3 0.864821 0.144372 0.636642
Si Si4 0.757725 0.969396 0.191172
Si Si5 0.068850 0.837960 0.554367
Si Si6 0.426777 0.284804 0.759247
Si Si7 0.926277 0.209010 0.186402
O O1 0.263880 0.627856 0.594265
O O2 0.294976 0.256759 0.657979
O O3 0.382952 0.667328 0.639194
O O4 0.289977 0.747862 0.690808
O O5 0.676025 0.715024 0.091112
O O6 0.636866 0.306025 0.055119
O O7 0.725394 0.500000 0.000000
O O8 0.811645 0.971807 0.665746
O O9 0.889631 0.312799 0.685752
O O10 0.923554 0.012694 0.606751
O O11 0.750000 0.866250 0.250000
O O12 0.000000 0.692420 0.556691
O O13 0.067833 0.000000 0.500000
O O14 0.500000 0.216905 0.772251
O O15 0.425164 0.556494 0.728701
O O16 0.405451 0.053565 0.718657
O O17 0.000000 0.164325 0.169676
#
# Coordination Sequence:
#
# PCOD9418796 Si02
#       7
#     8   8   8   8   8   8   8
#     4  11  22  38  60  87 113 155 193 238 297 351
#     4  11  24  41  58  82 115 152 203 253 300 343
#     4  11  22  37  56  80 115 153 199 245 290 347
#     4  11  22  35  58  86 119 150 193 239 290 347
#     4  11  23  39  58  80 109 150 202 252 295 338
#     4  10  22  37  57  86 122 158 190 236 289 352
#     4  10  21  39  60  87 122 154 190 232 290 360
#
# _framework density 20.701502000000001
#
# number of rings (size 3 to 8) (size 9 to 14) (size 15 to 20)
#    0.000    1.286    2.857    3.429    2.000    2.571 
#    0.000    0.000    0.000    0.429    0.000    0.000 
#    0.000    7.714    0.000    0.000    0.000    1.000 
#
# Total GULP energy -311904.894999 kJ/mol
# GULP energy per Si atom -5569.730268 kJ/mol
# Density = 2.065438 g / cm^3
# Si number density = 20.701502 Si / 1000 Ang^3
#
#
#
# Elastic Constant Matrix: (Units=GPa)
#
#
# Indices 1 2 3 4 5 6 
#
# 1 83.3793 2.9325 52.4103 0.0000 0.0000 0.0000
# 2 2.9325 53.2337 6.4830 0.0000 0.0000 0.0000
# 3 52.4103 6.4830 93.0498 0.0000 0.0000 0.0000
# 4 0.0000 0.0000 0.0000 11.4333 0.0000 0.0000
# 5 0.0000 0.0000 0.0000 0.0000 27.7283 0.0000
# 6 0.0000 0.0000 0.0000 0.0000 0.0000 19.4470
#
#
#
# Elastic Compliance Matrix: (Units=1/GPa)
#
#
# Indices 1 2 3 4 5 6 
#
# 1 0.018570 0.000253 -0.010477 0.000000 0.000000 0.000000
# 2 0.000253 0.018949 -0.001463 0.000000 0.000000 0.000000
# 3 -0.010477 -0.001463 0.016750 0.000000 0.000000 0.000000
# 4 0.000000 0.000000 0.000000 0.087464 0.000000 0.000000
# 5 0.000000 0.000000 0.000000 0.000000 0.036064 0.000000
# 6 0.000000 0.000000 0.000000 0.000000 0.000000 0.051422
#
#
# Mechanical properties :
#
#
# Convention : Reuss Voigt Hill
#
# Bulk Modulus (GPa) = 32.36705 39.25715 35.81210
# Shear Modulus (GPa) = 19.01919 22.91085 20.96502
#
# Velocity S-wave (km/s) = 3.03435 3.33036 3.18579
# Velocity P-wave (km/s) = 5.28635 5.81317 5.55601
#
# Compressibility (1/GPa) = 0.03089562
#
# Stress axis : x y z
#
# Youngs Moduli (GPa) = 53.84938 52.77239 59.70075
#
# Poissons Ratio (x) = -0.01335 0.62551
# Poissons Ratio (y) = -0.01362 0.08733
# Poissons Ratio (z) = 0.56420 0.07719
#
# Static dielectric constant tensor:
#      x y z
#    x 1.903700 0.000000 0.000000 
#    y 0.000000 1.714040 0.000000 
#    z 0.000000 0.000000 1.738830 
# 
# From -- ./inp_files/35605.got.cif
#   From: 2010.05.17/outbox.cif.g08.bks.cpg/sg53_18_cif.got.tgz:35605.got - 2010.06.03 12:45:16.
