data_PCOD9418454
_publ_section_title
;
Structure prediction by ZEFSAII (Michael W. Deem and Ramdas Pophale) SiO2 
 PCOD9418454
Probable space group: P M N A
;
_chemical_formula_sum "Si O2"
_cell_formula_units_Z 40
_cell_length_a 13.615576
_cell_length_b 5.165054
_cell_length_c 30.574008
_cell_angle_alpha 90.000000
_cell_angle_beta 90.000000
_cell_angle_gamma 90.000000
_cell_volume 2150.122777
_symmetry_space_group_name_H-M "P M N A"
_symmetry_group_IT_number 53
_symmetry_cell_setting 'orthorhombic'
loop_
_space_group_symop_operation_xyz
x,y,z
1/2-x,-y,1/2+z
x,-y,-z
1/2-x,y,1/2-z
-x,-y,-z
1/2+x,y,1/2-z
-x,y,z
1/2+x,-y,1/2+z
loop_
_atom_site_type_symbol
_atom_site_label
_atom_site_fract_x
_atom_site_fract_y
_atom_site_fract_z
Si Si1 0.118499 0.293516 0.768285
Si Si2 0.384566 0.245181 0.029526
Si Si3 0.203233 0.681741 0.623804
Si Si4 0.618077 0.818407 0.169268
Si Si5 0.882825 0.211048 0.177303
O O1 0.151663 0.231076 0.719269
O O2 0.145543 0.574245 0.786425
O O3 0.000000 0.292844 0.765547
O O4 0.141687 0.069022 0.802948
O O5 0.500000 0.215613 0.041825
O O6 0.323276 0.270083 0.073667
O O7 0.375492 0.500000 0.000000
O O8 0.357008 0.000000 0.000000
O O9 0.167060 0.399288 0.638815
O O10 0.317153 0.723841 0.635521
O O11 0.146729 0.896824 0.652925
O O12 0.500000 0.790535 0.167078
O O13 0.000000 0.226602 0.169680
#
# Coordination Sequence:
#
# PCOD9418454 Si02
#       5
#     8   8   8   8   8
#     4   9  19  35  52  74 111 153 184 220 265 305
#     4  10  21  38  58  79 106 135 165 211 274 339
#     4  12  23  35  58  83 106 143 183 222 269 320
#     4  11  22  35  53  82 116 143 179 226 267 317
#     4  10  21  37  54  76 109 148 190 225 256 303
#
# _framework density 18.603590000000001
#
# number of rings (size 3 to 8) (size 9 to 14) (size 15 to 20)
#    0.000    1.600    0.000    5.400    0.000    9.600 
#    0.000    0.000    0.000    1.200    0.000    0.000 
#    0.000    0.000    0.000    0.000    0.000    0.000 
#
# Total GULP energy -223681.144670 kJ/mol
# GULP energy per Si atom -5592.028617 kJ/mol
# Density = 1.856125 g / cm^3
# Si number density = 18.603590 Si / 1000 Ang^3
#
#
#
# Elastic Constant Matrix: (Units=GPa)
#
#
# Indices 1 2 3 4 5 6 
#
# 1 87.1360 -6.2959 22.9532 0.0000 0.0000 0.0000
# 2 -6.2959 57.4210 -18.9701 0.0000 0.0000 0.0000
# 3 22.9532 -18.9701 83.2565 0.0000 0.0000 0.0000
# 4 0.0000 0.0000 0.0000 18.2194 0.0000 0.0000
# 5 0.0000 0.0000 0.0000 0.0000 12.9415 0.0000
# 6 0.0000 0.0000 0.0000 0.0000 0.0000 12.6959
#
#
#
# Elastic Compliance Matrix: (Units=1/GPa)
#
#
# Indices 1 2 3 4 5 6 
#
# 1 0.012378 0.000249 -0.003356 0.000000 0.000000 0.000000
# 2 0.000249 0.018838 0.004224 0.000000 0.000000 0.000000
# 3 -0.003356 0.004224 0.013899 0.000000 0.000000 0.000000
# 4 0.000000 0.000000 0.000000 0.054886 0.000000 0.000000
# 5 0.000000 0.000000 0.000000 0.000000 0.077271 0.000000
# 6 0.000000 0.000000 0.000000 0.000000 0.000000 0.078766
#
#
# Mechanical properties :
#
#
# Convention : Reuss Voigt Hill
#
# Bulk Modulus (GPa) = 21.12053 24.79865 22.95959
# Shear Modulus (GPa) = 18.54684 24.11312 21.32998
#
# Velocity S-wave (km/s) = 3.16088 3.60412 3.38975
# Velocity P-wave (km/s) = 4.96982 5.53882 5.26202
#
# Compressibility (1/GPa) = 0.04734730
#
# Stress axis : x y z
#
# Youngs Moduli (GPa) = 80.78655 53.08463 71.94933
#
# Poissons Ratio (x) = -0.01319 0.24146
# Poissons Ratio (y) = -0.02008 -0.30389
# Poissons Ratio (z) = 0.27112 -0.22421
#
# Static dielectric constant tensor:
#      x y z
#    x 1.689750 0.000000 0.000000 
#    y 0.000000 1.620380 0.000000 
#    z 0.000000 0.000000 1.600590 
# 
# From -- ./inp_files/35154.got.cif
#   From: 2010.05.17/outbox.cif.g08.bks.cpg/sg53_18_cif.got.tgz:35154.got - 2010.06.03 12:45:16.
