data_PCOD9418604
_publ_section_title
;
Structure prediction by ZEFSAII (Michael W. Deem and Ramdas Pophale) SiO2 
 PCOD9418604
Probable space group: P M N A
;
_chemical_formula_sum "Si O2"
_cell_formula_units_Z 64
_cell_length_a 8.816308
_cell_length_b 24.139361
_cell_length_c 15.788272
_cell_angle_alpha 90.000000
_cell_angle_beta 90.000000
_cell_angle_gamma 90.000000
_cell_volume 3360.060702
_symmetry_space_group_name_H-M "P M N A"
_symmetry_group_IT_number 53
_symmetry_cell_setting 'orthorhombic'
loop_
_space_group_symop_operation_xyz
x,y,z
1/2-x,-y,1/2+z
x,-y,-z
1/2-x,y,1/2-z
-x,-y,-z
1/2+x,y,1/2-z
-x,y,z
1/2+x,-y,1/2+z
loop_
_atom_site_type_symbol
_atom_site_label
_atom_site_fract_x
_atom_site_fract_y
_atom_site_fract_z
Si Si1 0.817632 0.365885 0.339440
Si Si2 0.318523 0.247014 0.584695
Si Si3 0.319327 0.128585 0.338698
Si Si4 0.181207 0.366668 0.841170
Si Si5 0.681416 0.242947 0.101963
Si Si6 0.180944 0.872371 0.159501
Si Si7 0.816934 0.564635 0.495526
Si Si8 0.179433 0.934071 0.501221
O O1 0.750000 0.383871 0.250000
O O2 0.774556 0.302108 0.358361
O O3 0.769263 0.403358 0.418962
O O4 0.000000 0.368205 0.334956
O O5 0.500000 0.247709 0.566884
O O6 0.278706 0.303422 0.633105
O O7 0.230180 0.243866 0.496262
O O8 0.286079 0.192159 0.638740
O O9 0.250000 0.108663 0.250000
O O10 0.500000 0.127029 0.335627
O O11 0.263223 0.191395 0.354358
O O12 0.259072 0.093015 0.417520
O O13 0.250000 0.380103 0.750000
O O14 0.244738 0.405959 0.914548
O O15 0.000000 0.370744 0.837700
O O16 0.500000 0.236309 0.108976
O O17 0.250000 0.887419 0.250000
O O18 0.000000 0.879583 0.160415
O O19 0.251905 0.907514 0.083417
O O20 0.777276 0.500000 0.500000
O O21 0.000000 0.569153 0.489191
O O22 0.000000 0.921956 0.505334
O O23 0.200732 0.000000 0.500000
#
# Coordination Sequence:
#
# PCOD9418604 Si02
#       8
#     8   8   8   8   8   8   8   8
#     4  10  22  38  59  89 119 157 198 245 304 362
#     4  10  21  37  60  92 125 162 200 247 305 366
#     4  12  25  42  65  94 128 164 206 252 307 369
#     4  11  23  39  62  91 125 162 204 251 304 365
#     4  11  21  36  62  92 124 161 201 248 307 369
#     4  11  23  40  64  94 127 164 205 249 305 366
#     4  10  22  42  63  85 118 159 207 259 309 362
#     4  11  25  45  67  92 123 162 210 260 310 363
#
# _framework density 19.047274999999999
#
# number of rings (size 3 to 8) (size 9 to 14) (size 15 to 20)
#    0.000    1.250    2.500    3.375    0.000    5.750 
#    0.000    1.250    0.000    0.000    0.000    0.000 
#    0.000    0.000    0.000    0.000    0.000    0.000 
#
# Total GULP energy -357969.821868 kJ/mol
# GULP energy per Si atom -5593.278467 kJ/mol
# Density = 1.900392 g / cm^3
# Si number density = 19.047275 Si / 1000 Ang^3
#
#
#
# Elastic Constant Matrix: (Units=GPa)
#
#
# Indices 1 2 3 4 5 6 
#
# 1 76.7553 66.0504 74.7651 0.0000 0.0000 0.0000
# 2 66.0504 109.4914 75.6515 0.0000 0.0000 0.0000
# 3 74.7651 75.6515 200.3598 0.0000 0.0000 0.0000
# 4 0.0000 0.0000 0.0000 -5.4624 0.0000 0.0000
# 5 0.0000 0.0000 0.0000 0.0000 38.8388 0.0000
# 6 0.0000 0.0000 0.0000 0.0000 0.0000 5.7055
#
#
#
# Elastic Compliance Matrix: (Units=1/GPa)
#
#
# Indices 1 2 3 4 5 6 
#
# 1 0.032071 -0.014988 -0.006308 0.000000 0.000000 0.000000
# 2 -0.014988 0.019361 -0.001718 0.000000 0.000000 0.000000
# 3 -0.006308 -0.001718 0.007993 0.000000 0.000000 0.000000
# 4 0.000000 0.000000 0.000000 -0.183070 0.000000 0.000000
# 5 0.000000 0.000000 0.000000 0.000000 0.025747 0.000000
# 6 0.000000 0.000000 0.000000 0.000000 0.000000 0.175268
#
#
# Mechanical properties :
#
#
# Convention : Reuss Voigt Hill
#
# Bulk Modulus (GPa) = 74.63815 91.06005 82.84910
# Shear Modulus (GPa) = 39.10396 19.15902 29.13149
#
# Velocity S-wave (km/s) = 4.53591 3.17498 3.91504
# Velocity P-wave (km/s) = 8.16722 7.83274 8.00173
#
# Compressibility (1/GPa) = 0.01339797
#
# Stress axis : x y z
#
# Youngs Moduli (GPa) = 31.18117 51.64933 125.10225
#
# Poissons Ratio (x) = 0.77412 0.78916
# Poissons Ratio (y) = 0.46734 0.21488
# Poissons Ratio (z) = 0.19670 0.08871
#
# Static dielectric constant tensor:
#      x y z
#    x 1.637270 0.000000 0.000000 
#    y 0.000000 1.650360 0.000000 
#    z 0.000000 0.000000 1.615110 
# 
# From -- ./inp_files/21033.got.cif
#   From: 2010.05.17/outbox.cif.g08.bks.cpg/sg53_11_cif.got.tgz:21033.got - 2010.06.03 12:45:16.
