data_PCOD9418983
_publ_section_title
;
Structure prediction by ZEFSAII (Michael W. Deem and Ramdas Pophale) SiO2 
 PCOD9418983
Probable space group: P M N A
;
_chemical_formula_sum "Si O2"
_cell_formula_units_Z 32
_cell_length_a 11.183536
_cell_length_b 16.612008
_cell_length_c 8.478122
_cell_angle_alpha 90.000000
_cell_angle_beta 90.000000
_cell_angle_gamma 90.000000
_cell_volume 1575.073894
_symmetry_space_group_name_H-M "P M N A"
_symmetry_group_IT_number 53
_symmetry_cell_setting 'orthorhombic'
loop_
_space_group_symop_operation_xyz
x,y,z
1/2-x,-y,1/2+z
x,-y,-z
1/2-x,y,1/2-z
-x,-y,-z
1/2+x,y,1/2-z
-x,y,z
1/2+x,-y,1/2+z
loop_
_atom_site_type_symbol
_atom_site_label
_atom_site_fract_x
_atom_site_fract_y
_atom_site_fract_z
Si Si1 0.254177 0.408225 0.561985
Si Si2 0.689289 0.071372 0.607843
Si Si3 0.000000 0.161098 0.108375
Si Si4 0.500000 0.592021 0.937312
Si Si5 0.000000 0.349625 0.088438
Si Si6 0.500000 0.022590 0.181006
O O1 0.259849 0.500000 0.500000
O O2 0.250000 0.407953 0.750000
O O3 0.376979 0.367919 0.503456
O O4 0.127482 0.373053 0.497304
O O5 0.750000 0.121591 0.750000
O O6 0.613221 0.128105 0.492773
O O7 0.747223 0.000000 0.500000
O O8 0.607240 0.016958 0.721402
O O9 0.000000 0.116497 0.277126
O O10 0.000000 0.255445 0.127966
O O11 0.500000 0.598103 0.748645
O O12 0.500000 0.500000 0.000000
O O13 0.500000 0.000000 0.000000
#
# Coordination Sequence:
#
# PCOD9418983 Si02
#       6
#     8   8   4   4   4   4
#     4  11  22  40  65  91 119 160 212 261 306 368
#     4   9  17  33  56  80 108 148 196 238 279 342
#     4   9  22  37  53  83 123 151 186 245 307 362
#     4  10  21  41  64  88 117 157 207 256 306 365
#     4  12  23  40  62  92 130 166 201 252 318 380
#     4   9  17  34  56  79 104 144 192 231 274 333
#
# _framework density 20.316507999999999
#
# number of rings (size 3 to 8) (size 9 to 14) (size 15 to 20)
#    0.000    2.000    0.000    7.125    0.000    1.000 
#    0.000   20.000    0.000    0.000    0.000    0.000 
#    0.000    0.000    0.000    0.000    0.000    0.000 
#
# Total GULP energy -178139.502492 kJ/mol
# GULP energy per Si atom -5566.859453 kJ/mol
# Density = 2.027027 g / cm^3
# Si number density = 20.316508 Si / 1000 Ang^3
#
#
#
# Elastic Constant Matrix: (Units=GPa)
#
#
# Indices 1 2 3 4 5 6 
#
# 1 136.0761 22.0023 59.4485 0.0000 0.0000 0.0000
# 2 22.0023 86.4585 33.0440 0.0000 0.0000 0.0000
# 3 59.4485 33.0440 179.1590 0.0000 0.0000 0.0000
# 4 0.0000 0.0000 0.0000 14.6549 0.0000 0.0000
# 5 0.0000 0.0000 0.0000 0.0000 4.4162 0.0000
# 6 0.0000 0.0000 0.0000 0.0000 0.0000 2.0570
#
#
#
# Elastic Compliance Matrix: (Units=1/GPa)
#
#
# Indices 1 2 3 4 5 6 
#
# 1 0.008708 -0.001196 -0.002669 0.000000 0.000000 0.000000
# 2 -0.001196 0.012608 -0.001928 0.000000 0.000000 0.000000
# 3 -0.002669 -0.001928 0.006823 0.000000 0.000000 0.000000
# 4 0.000000 0.000000 0.000000 0.068237 0.000000 0.000000
# 5 0.000000 0.000000 0.000000 0.000000 0.226440 0.000000
# 6 0.000000 0.000000 0.000000 0.000000 0.000000 0.486154
#
#
# Mechanical properties :
#
#
# Convention : Reuss Voigt Hill
#
# Bulk Modulus (GPa) = 60.41619 70.07592 65.24605
# Shear Modulus (GPa) = 6.05273 23.37219 14.71246
#
# Velocity S-wave (km/s) = 1.72791 3.39544 2.69395
# Velocity P-wave (km/s) = 5.81231 7.06675 6.47001
#
# Compressibility (1/GPa) = 0.01655186
#
# Stress axis : x y z
#
# Youngs Moduli (GPa) = 114.83391 79.31679 146.56438
#
# Poissons Ratio (x) = 0.09487 0.39118
# Poissons Ratio (y) = 0.13735 0.28265
# Poissons Ratio (z) = 0.30649 0.15296
#
# Static dielectric constant tensor:
#      x y z
#    x 2.108040 0.000000 0.000000 
#    y 0.000000 1.680720 0.000000 
#    z 0.000000 0.000000 1.683990 
# 
# From -- ./inp_files/7356.got.cif
#   From: 2010.05.17/outbox.cif.g08.bks.cpg/sg53_4_cif.got.tgz:7356.got - 2010.06.03 12:45:16.
