data_PCOD9418208
_publ_section_title
;
Structure prediction by ZEFSAII (Michael W. Deem and Ramdas Pophale) SiO2 
 PCOD9418208
Probable space group: P M N A
;
_chemical_formula_sum "Si O2"
_cell_formula_units_Z 60
_cell_length_a 9.334696
_cell_length_b 19.241275
_cell_length_c 16.885058
_cell_angle_alpha 90.000000
_cell_angle_beta 90.000000
_cell_angle_gamma 90.000000
_cell_volume 3032.749798
_symmetry_space_group_name_H-M "P M N A"
_symmetry_group_IT_number 53
_symmetry_cell_setting 'orthorhombic'
loop_
_space_group_symop_operation_xyz
x,y,z
1/2-x,-y,1/2+z
x,-y,-z
1/2-x,y,1/2-z
-x,-y,-z
1/2+x,y,1/2-z
-x,y,z
1/2+x,-y,1/2+z
loop_
_atom_site_type_symbol
_atom_site_label
_atom_site_fract_x
_atom_site_fract_y
_atom_site_fract_z
Si Si1 0.342035 0.381902 0.125139
Si Si2 0.750000 0.732004 0.750000
Si Si3 0.165986 0.615862 0.033743
Si Si4 0.834167 0.540390 0.328731
Si Si5 0.168915 0.009783 0.095211
Si Si6 0.834396 0.164561 0.114845
Si Si7 0.831457 0.223003 0.947060
Si Si8 0.171278 0.120941 0.667468
O O1 0.500000 0.377014 0.087558
O O2 0.328228 0.320744 0.189658
O O3 0.331758 0.456570 0.167150
O O4 0.225438 0.381249 0.055699
O O5 0.673782 0.785511 0.690197
O O6 0.258646 0.568177 0.091862
O O7 0.175041 0.694810 0.064796
O O8 0.000000 0.593881 0.033824
O O9 0.750000 0.563302 0.250000
O O10 0.000000 0.562522 0.325852
O O11 0.225475 0.086487 0.119778
O O12 0.000000 0.000729 0.118293
O O13 0.266934 0.951396 0.133927
O O14 0.174456 0.000000 0.000000
O O15 0.000000 0.150573 0.098862
O O16 0.783603 0.204873 0.036796
O O17 0.728292 0.180635 0.890606
O O18 0.000000 0.202196 0.936310
O O19 0.250000 0.133059 0.750000
O O20 0.000000 0.120127 0.674172
#
# Coordination Sequence:
#
# PCOD9418208 Si02
#       8
#     8   4   8   8   8   8   8   8
#     4  11  24  41  64  95 135 177 217 269 324 387
#     4  12  22  40  64 102 136 174 218 264 324 394
#     4  11  24  42  68  97 129 171 219 270 329 398
#     4  11  24  43  66  95 131 171 220 272 330 392
#     4  10  20  40  68  93 127 174 216 263 323 384
#     4  10  21  39  63  93 130 173 214 258 321 387
#     4  10  21  43  68  91 124 168 214 263 325 387
#     4  12  26  43  65  95 128 169 221 272 324 384
#
# _framework density 19.784026999999998
#
# number of rings (size 3 to 8) (size 9 to 14) (size 15 to 20)
#    0.000    1.200    3.333    2.800    0.933    5.067 
#    0.000    0.667    0.000    0.000    0.000    0.000 
#    0.000    0.000    0.000    0.000    0.000    0.000 
#
# Total GULP energy -334936.494192 kJ/mol
# GULP energy per Si atom -5582.274903 kJ/mol
# Density = 1.973900 g / cm^3
# Si number density = 19.784027 Si / 1000 Ang^3
#
#
#
# Elastic Constant Matrix: (Units=GPa)
#
#
# Indices 1 2 3 4 5 6 
#
# 1 126.6876 39.7669 48.9393 0.0000 0.0000 0.0000
# 2 39.7669 71.5120 25.1268 0.0000 0.0000 0.0000
# 3 48.9393 25.1268 102.8221 0.0000 0.0000 0.0000
# 4 0.0000 0.0000 0.0000 30.5154 0.0000 0.0000
# 5 0.0000 0.0000 0.0000 0.0000 31.0673 0.0000
# 6 0.0000 0.0000 0.0000 0.0000 0.0000 15.2030
#
#
#
# Elastic Compliance Matrix: (Units=1/GPa)
#
#
# Indices 1 2 3 4 5 6 
#
# 1 0.010921 -0.004646 -0.004063 0.000000 0.000000 0.000000
# 2 -0.004646 0.017273 -0.002010 0.000000 0.000000 0.000000
# 3 -0.004063 -0.002010 0.012150 0.000000 0.000000 0.000000
# 4 0.000000 0.000000 0.000000 0.032770 0.000000 0.000000
# 5 0.000000 0.000000 0.000000 0.000000 0.032188 0.000000
# 6 0.000000 0.000000 0.000000 0.000000 0.000000 0.065776
#
#
# Mechanical properties :
#
#
# Convention : Reuss Voigt Hill
#
# Bulk Modulus (GPa) = 52.88728 58.74309 55.81518
# Shear Modulus (GPa) = 25.14849 27.83639 26.49244
#
# Velocity S-wave (km/s) = 3.56919 3.75509 3.66332
# Velocity P-wave (km/s) = 6.61633 6.96832 6.79461
#
# Compressibility (1/GPa) = 0.01890814
#
# Stress axis : x y z
#
# Youngs Moduli (GPa) = 91.56578 57.89300 82.30151
#
# Poissons Ratio (x) = 0.26895 0.33437
# Poissons Ratio (y) = 0.42537 0.16542
# Poissons Ratio (z) = 0.37201 0.11636
#
# Static dielectric constant tensor:
#      x y z
#    x 1.684400 0.000000 0.000000 
#    y 0.000000 1.716030 0.000000 
#    z 0.000000 0.000000 1.701760 
# 
# From -- ./inp_files/26566.got.cif
#   From: 2010.05.17/outbox.cif.g08.bks.cpg/sg53_14_cif.got.tgz:26566.got - 2010.06.03 12:45:16.
