data_PCOD9418342
_publ_section_title
;
Structure prediction by ZEFSAII (Michael W. Deem and Ramdas Pophale) SiO2 
 PCOD9418342
Probable space group: P M N A
;
_chemical_formula_sum "Si O2"
_cell_formula_units_Z 40
_cell_length_a 18.372697
_cell_length_b 14.662300
_cell_length_c 8.122280
_cell_angle_alpha 90.000000
_cell_angle_beta 90.000000
_cell_angle_gamma 90.000000
_cell_volume 2188.028481
_symmetry_space_group_name_H-M "P M N A"
_symmetry_group_IT_number 53
_symmetry_cell_setting 'orthorhombic'
loop_
_space_group_symop_operation_xyz
x,y,z
1/2-x,-y,1/2+z
x,-y,-z
1/2-x,y,1/2-z
-x,-y,-z
1/2+x,y,1/2-z
-x,y,z
1/2+x,-y,1/2+z
loop_
_atom_site_type_symbol
_atom_site_label
_atom_site_fract_x
_atom_site_fract_y
_atom_site_fract_z
Si Si1 0.686919 0.568122 0.639830
Si Si2 0.288878 0.263375 0.571767
Si Si3 0.702754 0.095254 0.913569
Si Si4 0.586716 0.762153 0.198907
Si Si5 0.913549 0.398824 0.435656
O O1 0.658039 0.500000 0.500000
O O2 0.750000 0.521883 0.750000
O O3 0.723457 0.651809 0.544201
O O4 0.627502 0.608539 0.763027
O O5 0.250000 0.274921 0.750000
O O6 0.253939 0.171295 0.498103
O O7 0.373210 0.256529 0.626760
O O8 0.750000 0.075892 0.750000
O O9 0.628344 0.148536 0.870047
O O10 0.690012 0.000000 0.000000
O O11 0.500000 0.772134 0.212636
O O12 0.602290 0.678560 0.072088
O O13 0.894373 0.500000 0.500000
O O14 0.000000 0.396200 0.408859
#
# Coordination Sequence:
#
# PCOD9418342 Si02
#       5
#     8   8   8   8   8
#     4  12  22  32  51  77 105 135 173 214 251 293
#     4   9  19  35  52  73 102 135 170 207 253 304
#     4   9  19  34  53  75 100 132 167 204 255 309
#     4   9  18  35  56  76 101 133 171 213 252 295
#     4  10  21  36  52  73 104 139 171 204 249 304
#
# _framework density 18.281299000000001
#
# number of rings (size 3 to 8) (size 9 to 14) (size 15 to 20)
#    0.000    2.600    0.000    4.800    0.000    4.000 
#    0.000    0.000    0.000    9.600    0.000    0.000 
#    0.000    0.000    0.000    0.000    0.000    0.000 
#
# Total GULP energy -222927.721505 kJ/mol
# GULP energy per Si atom -5573.193038 kJ/mol
# Density = 1.823969 g / cm^3
# Si number density = 18.281299 Si / 1000 Ang^3
#
#
#
# Elastic Constant Matrix: (Units=GPa)
#
#
# Indices 1 2 3 4 5 6 
#
# 1 102.9612 23.3953 24.3707 0.0000 0.0000 0.0000
# 2 23.3953 84.7965 18.9546 0.0000 0.0000 0.0000
# 3 24.3707 18.9546 37.9710 0.0000 0.0000 0.0000
# 4 0.0000 0.0000 0.0000 22.6437 0.0000 0.0000
# 5 0.0000 0.0000 0.0000 0.0000 25.1856 0.0000
# 6 0.0000 0.0000 0.0000 0.0000 0.0000 -5.8269
#
#
#
# Elastic Compliance Matrix: (Units=1/GPa)
#
#
# Indices 1 2 3 4 5 6 
#
# 1 0.011676 -0.001740 -0.006625 0.000000 0.000000 0.000000
# 2 -0.001740 0.013534 -0.005639 0.000000 0.000000 0.000000
# 3 -0.006625 -0.005639 0.033403 0.000000 0.000000 0.000000
# 4 0.000000 0.000000 0.000000 0.044162 0.000000 0.000000
# 5 0.000000 0.000000 0.000000 0.000000 0.039705 0.000000
# 6 0.000000 0.000000 0.000000 0.000000 0.000000 -0.171618
#
#
# Mechanical properties :
#
#
# Convention : Reuss Voigt Hill
#
# Bulk Modulus (GPa) = 32.67568 39.90777 36.29172
# Shear Modulus (GPa) = 551.15189 19.00102 285.07646
#
# Velocity S-wave (km/s) = 17.38213 3.22742 12.50109
# Velocity P-wave (km/s) = 20.51253 5.98043 15.10843
#
# Compressibility (1/GPa) = 0.03060380
#
# Stress axis : x y z
#
# Youngs Moduli (GPa) = 85.64560 73.89039 29.93761
#
# Poissons Ratio (x) = 0.12861 0.19834
# Poissons Ratio (y) = 0.14907 0.16881
# Poissons Ratio (z) = 0.56741 0.41664
#
# Static dielectric constant tensor:
#      x y z
#    x 1.665910 0.000000 0.000000 
#    y 0.000000 1.643130 0.000000 
#    z 0.000000 0.000000 1.613660 
# 
# From -- ./inp_files/9802.got.cif
#   From: 2010.05.17/outbox.cif.g08.bks.cpg/sg53_5_cif.got.tgz:9802.got - 2010.06.03 12:45:16.
