data_PCOD9418062
_publ_section_title
;
Structure prediction by ZEFSAII (Michael W. Deem and Ramdas Pophale) SiO2 
 PCOD9418062
Probable space group: P M N A
;
_chemical_formula_sum "Si O2"
_cell_formula_units_Z 34
_cell_length_a 7.813038
_cell_length_b 23.058813
_cell_length_c 9.279412
_cell_angle_alpha 90.000000
_cell_angle_beta 90.000000
_cell_angle_gamma 90.000000
_cell_volume 1671.773133
_symmetry_space_group_name_H-M "P M N A"
_symmetry_group_IT_number 53
_symmetry_cell_setting 'orthorhombic'
loop_
_space_group_symop_operation_xyz
x,y,z
1/2-x,-y,1/2+z
x,-y,-z
1/2-x,y,1/2-z
-x,-y,-z
1/2+x,y,1/2-z
-x,y,z
1/2+x,-y,1/2+z
loop_
_atom_site_type_symbol
_atom_site_label
_atom_site_fract_x
_atom_site_fract_y
_atom_site_fract_z
Si Si1 0.199223 0.584563 0.919384
Si Si2 0.796907 0.056134 0.082848
Si Si3 0.000000 0.500000 0.500000
Si Si4 0.793914 0.284478 0.415984
Si Si5 0.202250 0.827283 0.415923
O O1 0.250000 0.576417 0.750000
O O2 0.214605 0.652985 0.950610
O O3 0.000000 0.566710 0.939332
O O4 0.345680 0.549792 0.003628
O O5 0.750000 0.055822 0.250000
O O6 0.000000 0.052324 0.074573
O O7 0.748412 0.115954 0.006385
O O8 0.722818 0.000000 0.000000
O O9 0.750000 0.270882 0.250000
O O10 0.727776 0.232038 0.514619
O O11 0.000000 0.290213 0.427229
O O12 0.250000 0.834406 0.250000
O O13 0.000000 0.821443 0.424068
#
# Coordination Sequence:
#
# PCOD9418062 Si02
#       5
#     8   8   2   8   8
#     4  11  21  39  66  91 125 167 212 265 322 381
#     4  11  24  41  63  92 127 167 215 264 317 377
#     4  12  22  40  64  92 132 160 212 264 316 400
#     4  10  20  38  63  92 121 159 212 267 316 382
#     4  11  24  40  63  90 129 169 209 263 321 378
#
# _framework density 20.337689000000001
#
# number of rings (size 3 to 8) (size 9 to 14) (size 15 to 20)
#    0.000    1.176    2.353    5.294    0.000    9.412 
#    0.000    1.176    0.000    0.000    0.000    0.000 
#    0.000    0.000    0.000    0.000    0.000    0.000 
#
# Total GULP energy -189431.380529 kJ/mol
# GULP energy per Si atom -5571.511192 kJ/mol
# Density = 2.029140 g / cm^3
# Si number density = 20.337689 Si / 1000 Ang^3
#
#
#
# Elastic Constant Matrix: (Units=GPa)
#
#
# Indices 1 2 3 4 5 6 
#
# 1 142.1919 42.3941 18.9573 0.0000 0.0000 0.0000
# 2 42.3941 145.2098 78.9490 0.0000 0.0000 0.0000
# 3 18.9573 78.9490 101.6259 0.0000 0.0000 0.0000
# 4 0.0000 0.0000 0.0000 -48.7951 0.0000 0.0000
# 5 0.0000 0.0000 0.0000 0.0000 26.7308 0.0000
# 6 0.0000 0.0000 0.0000 0.0000 0.0000 29.0106
#
#
#
# Elastic Compliance Matrix: (Units=1/GPa)
#
#
# Indices 1 2 3 4 5 6 
#
# 1 0.007720 -0.002547 0.000538 0.000000 0.000000 0.000000
# 2 -0.002547 0.012762 -0.009439 0.000000 0.000000 0.000000
# 3 0.000538 -0.009439 0.017073 0.000000 0.000000 0.000000
# 4 0.000000 0.000000 0.000000 -0.020494 0.000000 0.000000
# 5 0.000000 0.000000 0.000000 0.000000 0.037410 0.000000
# 6 0.000000 0.000000 0.000000 0.000000 0.000000 0.034470
#
#
# Mechanical properties :
#
#
# Convention : Reuss Voigt Hill
#
# Bulk Modulus (GPa) = 68.21466 74.40316 71.30891
# Shear Modulus (GPa) = 42.83635 17.97107 30.40371
#
# Velocity S-wave (km/s) = 4.59437 2.97582 3.87065
# Velocity P-wave (km/s) = 7.85864 6.96209 7.42391
#
# Compressibility (1/GPa) = 0.01465961
#
# Stress axis : x y z
#
# Youngs Moduli (GPa) = 129.52972 78.35696 58.57317
#
# Poissons Ratio (x) = 0.19954 -0.03152
# Poissons Ratio (y) = 0.32985 0.55289
# Poissons Ratio (z) = -0.06971 0.73964
#
# Static dielectric constant tensor:
#      x y z
#    x 1.728980 0.000000 0.000000 
#    y 0.000000 1.761170 0.000000 
#    z 0.000000 0.000000 1.694040 
# 
# From -- ./inp_files/6141.got.cif
#   From: 2010.05.17/outbox.cif.g08.bks.cpg/sg53_4_cif.got.tgz:6141.got - 2010.06.03 12:45:16.
