data_PCOD9418376
_publ_section_title
;
Structure prediction by ZEFSAII (Michael W. Deem and Ramdas Pophale) SiO2 
 PCOD9418376
Probable space group: P M N A
;
_chemical_formula_sum "Si O2"
_cell_formula_units_Z 36
_cell_length_a 26.916630
_cell_length_b 12.995067
_cell_length_c 5.060126
_cell_angle_alpha 90.000000
_cell_angle_beta 90.000000
_cell_angle_gamma 90.000000
_cell_volume 1769.948129
_symmetry_space_group_name_H-M "P M N A"
_symmetry_group_IT_number 53
_symmetry_cell_setting 'orthorhombic'
loop_
_space_group_symop_operation_xyz
x,y,z
1/2-x,-y,1/2+z
x,-y,-z
1/2-x,y,1/2-z
-x,-y,-z
1/2+x,y,1/2-z
-x,y,z
1/2+x,-y,1/2+z
loop_
_atom_site_type_symbol
_atom_site_label
_atom_site_fract_x
_atom_site_fract_y
_atom_site_fract_z
Si Si1 0.055867 0.575087 0.250093
Si Si2 0.195598 0.607010 0.630507
Si Si3 0.390792 0.924880 0.252139
Si Si4 0.500000 0.925597 0.247755
Si Si5 0.847535 0.290956 0.842231
O O1 0.058586 0.500000 0.500000
O O2 0.100789 0.655133 0.245700
O O3 0.000000 0.621793 0.244023
O O4 0.060741 0.500000 0.000000
O O5 0.176830 0.500000 0.500000
O O6 0.250000 0.587284 0.750000
O O7 0.193318 0.680002 0.376846
O O8 0.165626 0.659865 0.872078
O O9 0.446182 0.874183 0.233589
O O10 0.354588 0.831086 0.319052
O O11 0.391097 0.000000 0.500000
O O12 0.381717 0.000000 0.000000
O O13 0.500000 0.000000 0.500000
O O14 0.500000 0.000000 0.000000
#
# Coordination Sequence:
#
# PCOD9418376 Si02
#       5
#     8   8   8   4   8
#     4  10  21  36  54  84 125 160 194 237 294 374
#     4  12  25  43  66  95 122 155 204 267 321 374
#     4  10  21  38  59  89 125 164 209 261 302 355
#     4   8  16  32  54  80 115 158 205 252 296 340
#     4  12  23  38  67  91 122 166 206 254 311 383
#
# _framework density 20.339580999999999
#
# number of rings (size 3 to 8) (size 9 to 14) (size 15 to 20)
#    0.000    1.333    0.000    7.333    1.556    0.000 
#    0.000    0.000    0.000   13.333    0.000    0.000 
#    0.000    0.000    0.000    0.000    0.000    0.000 
#
# Total GULP energy -200784.034098 kJ/mol
# GULP energy per Si atom -5577.334280 kJ/mol
# Density = 2.029329 g / cm^3
# Si number density = 20.339581 Si / 1000 Ang^3
#
#
#
# Elastic Constant Matrix: (Units=GPa)
#
#
# Indices 1 2 3 4 5 6 
#
# 1 64.3482 39.4658 27.0607 0.0000 0.0000 0.0000
# 2 39.4658 118.7967 56.3185 0.0000 0.0000 0.0000
# 3 27.0607 56.3185 178.0901 0.0000 0.0000 0.0000
# 4 0.0000 0.0000 0.0000 16.8095 0.0000 0.0000
# 5 0.0000 0.0000 0.0000 0.0000 103.2764 0.0000
# 6 0.0000 0.0000 0.0000 0.0000 0.0000 -50.9118
#
#
#
# Elastic Compliance Matrix: (Units=1/GPa)
#
#
# Indices 1 2 3 4 5 6 
#
# 1 0.019694 -0.006028 -0.001086 0.000000 0.000000 0.000000
# 2 -0.006028 0.011747 -0.002799 0.000000 0.000000 0.000000
# 3 -0.001086 -0.002799 0.006665 0.000000 0.000000 0.000000
# 4 0.000000 0.000000 0.000000 0.059490 0.000000 0.000000
# 5 0.000000 0.000000 0.000000 0.000000 0.009683 0.000000
# 6 0.000000 0.000000 0.000000 0.000000 0.000000 -0.019642
#
#
# Mechanical properties :
#
#
# Convention : Reuss Voigt Hill
#
# Bulk Modulus (GPa) = 54.70253 67.43612 61.06933
# Shear Modulus (GPa) = 44.03068 29.72747 36.87908
#
# Velocity S-wave (km/s) = 4.65777 3.82718 4.26275
# Velocity P-wave (km/s) = 7.47525 7.26339 7.37008
#
# Compressibility (1/GPa) = 0.01828069
#
# Stress axis : x y z
#
# Youngs Moduli (GPa) = 50.77644 85.12718 150.02976
#
# Poissons Ratio (x) = 0.51312 0.16299
# Poissons Ratio (y) = 0.30606 0.41993
# Poissons Ratio (z) = 0.05516 0.23827
#
# Static dielectric constant tensor:
#      x y z
#    x 1.825300 0.000000 0.000000 
#    y 0.000000 1.716430 0.000000 
#    z 0.000000 0.000000 1.666190 
# 
# From -- ./inp_files/4302.got.cif
#   From: 2010.05.17/outbox.cif.g08.bks.cpg/sg53_3_cif.got.tgz:4302.got - 2010.06.03 12:45:16.
