data_PCOD9418874
_publ_section_title
;
Structure prediction by ZEFSAII (Michael W. Deem and Ramdas Pophale) SiO2 
 PCOD9418874
Probable space group: P M N A
;
_chemical_formula_sum "Si O2"
_cell_formula_units_Z 24
_cell_length_a 16.144938
_cell_length_b 8.083691
_cell_length_c 8.810881
_cell_angle_alpha 90.000000
_cell_angle_beta 90.000000
_cell_angle_gamma 90.000000
_cell_volume 1149.914159
_symmetry_space_group_name_H-M "P M N A"
_symmetry_group_IT_number 53
_symmetry_cell_setting 'orthorhombic'
loop_
_space_group_symop_operation_xyz
x,y,z
1/2-x,-y,1/2+z
x,-y,-z
1/2-x,y,1/2-z
-x,-y,-z
1/2+x,y,1/2-z
-x,y,z
1/2+x,-y,1/2+z
loop_
_atom_site_type_symbol
_atom_site_label
_atom_site_fract_x
_atom_site_fract_y
_atom_site_fract_z
Si Si1 0.842510 0.996032 0.319743
Si Si2 0.342965 0.665856 0.686873
Si Si3 0.905611 0.313857 0.857848
O O1 0.750000 0.988898 0.250000
O O2 0.888663 0.836386 0.254655
O O3 0.838690 0.000000 0.500000
O O4 0.879886 0.169653 0.262068
O O5 0.250000 0.647465 0.750000
O O6 0.389146 0.493220 0.714771
O O7 0.346450 0.695862 0.505377
O O8 0.000000 0.306994 0.913524
#
# Coordination Sequence:
#
# PCOD9418874 Si02
#       3
#     8   8   8
#     4  11  23  40  64  93 124 166 216 260 306 367
#     4  10  21  39  65  92 121 163 212 256 302 368
#     4  11  24  42  65  94 129 165 204 258 321 374
#
# _framework density 20.871123999999998
#
# number of rings (size 3 to 8) (size 9 to 14) (size 15 to 20)
#    0.000    1.333    0.000    8.000    0.000   11.333 
#    0.000    1.667    0.000    0.000    0.000    0.000 
#    0.000    0.000    0.000    0.000    0.000    0.000 
#
# Total GULP energy -134150.323213 kJ/mol
# GULP energy per Si atom -5589.596801 kJ/mol
# Density = 2.082362 g / cm^3
# Si number density = 20.871124 Si / 1000 Ang^3
#
#
#
# Elastic Constant Matrix: (Units=GPa)
#
#
# Indices 1 2 3 4 5 6 
#
# 1 71.3924 22.7048 37.0867 0.0000 0.0000 0.0000
# 2 22.7048 200.9376 95.1865 0.0000 0.0000 0.0000
# 3 37.0867 95.1865 130.2150 0.0000 0.0000 0.0000
# 4 0.0000 0.0000 0.0000 14.3695 0.0000 0.0000
# 5 0.0000 0.0000 0.0000 0.0000 11.5419 0.0000
# 6 0.0000 0.0000 0.0000 0.0000 0.0000 31.5185
#
#
#
# Elastic Compliance Matrix: (Units=1/GPa)
#
#
# Indices 1 2 3 4 5 6 
#
# 1 0.016479 0.000553 -0.005098 0.000000 0.000000 0.000000
# 2 0.000553 0.007631 -0.005736 0.000000 0.000000 0.000000
# 3 -0.005098 -0.005736 0.013324 0.000000 0.000000 0.000000
# 4 0.000000 0.000000 0.000000 0.069592 0.000000 0.000000
# 5 0.000000 0.000000 0.000000 0.000000 0.086641 0.000000
# 6 0.000000 0.000000 0.000000 0.000000 0.000000 0.031727
#
#
# Mechanical properties :
#
#
# Convention : Reuss Voigt Hill
#
# Bulk Modulus (GPa) = 59.26415 79.16680 69.21547
# Shear Modulus (GPa) = 19.87431 27.99045 23.93238
#
# Velocity S-wave (km/s) = 3.08919 3.66609 3.38993
# Velocity P-wave (km/s) = 6.41724 7.47890 6.96832
#
# Compressibility (1/GPa) = 0.01687361
#
# Stress axis : x y z
#
# Youngs Moduli (GPa) = 60.68194 131.03763 75.05042
#
# Poissons Ratio (x) = -0.07242 0.38257
# Poissons Ratio (y) = -0.03354 0.43048
# Poissons Ratio (z) = 0.30933 0.75162
#
# Static dielectric constant tensor:
#      x y z
#    x 1.739490 0.000000 0.000000 
#    y 0.000000 1.777420 0.000000 
#    z 0.000000 0.000000 1.716240 
# 
# From -- ./inp_files/16345.got.cif
#   From: 2010.05.17/outbox.cif.g08.bks.cpg/sg53_9_cif.got.tgz:16345.got - 2010.06.03 12:45:16.
