data_PCOD9418921
_publ_section_title
;
Structure prediction by ZEFSAII (Michael W. Deem and Ramdas Pophale) SiO2 
 PCOD9418921
Probable space group: P M N A
;
_chemical_formula_sum "Si O2"
_cell_formula_units_Z 28
_cell_length_a 9.821483
_cell_length_b 12.384005
_cell_length_c 12.105714
_cell_angle_alpha 90.000000
_cell_angle_beta 90.000000
_cell_angle_gamma 90.000000
_cell_volume 1472.409454
_symmetry_space_group_name_H-M "P M N A"
_symmetry_group_IT_number 53
_symmetry_cell_setting 'orthorhombic'
loop_
_space_group_symop_operation_xyz
x,y,z
1/2-x,-y,1/2+z
x,-y,-z
1/2-x,y,1/2-z
-x,-y,-z
1/2+x,y,1/2-z
-x,y,z
1/2+x,-y,1/2+z
loop_
_atom_site_type_symbol
_atom_site_label
_atom_site_fract_x
_atom_site_fract_y
_atom_site_fract_z
Si Si1 0.500000 0.886189 0.629128
Si Si2 0.651028 0.373989 0.968906
Si Si3 0.750000 0.731516 0.250000
Si Si4 0.000000 0.137587 0.861235
Si Si5 0.847164 0.311354 0.155945
O O1 0.500000 0.864554 0.495980
O O2 0.625590 0.815779 0.674137
O O3 0.500000 0.009420 0.663085
O O4 0.500000 0.332086 0.998905
O O5 0.680821 0.343578 0.842922
O O6 0.652396 0.500000 0.000000
O O7 0.770177 0.324131 0.041781
O O8 0.633177 0.804195 0.309367
O O9 0.750000 0.357437 0.250000
O O10 0.000000 0.359702 0.155256
#
# Coordination Sequence:
#
# PCOD9418921 Si02
#       5
#     4   8   4   4   8
#     4   9  22  40  61  93 128 171 206 261 316 385
#     4  11  25  43  63  92 129 169 217 268 322 381
#     4  12  22  44  64  96 124 170 210 270 318 384
#     4  11  22  40  66  89 133 163 215 260 321 379
#     4  10  21  40  62  91 127 166 212 263 316 385
#
# _framework density 19.016449000000001
#
# number of rings (size 3 to 8) (size 9 to 14) (size 15 to 20)
#    0.857    0.571    4.286    0.857    4.000    0.571 
#    0.000    0.000    0.000    5.143    0.000    0.000 
#    0.000    0.000    0.000    0.000    0.000    0.000 
#
# Total GULP energy -155926.114458 kJ/mol
# GULP energy per Si atom -5568.789802 kJ/mol
# Density = 1.897317 g / cm^3
# Si number density = 19.016449 Si / 1000 Ang^3
#
#
#
# Elastic Constant Matrix: (Units=GPa)
#
#
# Indices 1 2 3 4 5 6 
#
# 1 158.3790 36.7335 51.9063 0.0000 0.0000 0.0000
# 2 36.7335 73.7289 15.2090 0.0000 0.0000 0.0000
# 3 51.9063 15.2090 90.5615 0.0000 0.0000 0.0000
# 4 0.0000 0.0000 0.0000 25.5618 0.0000 0.0000
# 5 0.0000 0.0000 0.0000 0.0000 36.4963 0.0000
# 6 0.0000 0.0000 0.0000 0.0000 0.0000 17.0052
#
#
#
# Elastic Compliance Matrix: (Units=1/GPa)
#
#
# Indices 1 2 3 4 5 6 
#
# 1 0.008503 -0.003347 -0.004312 0.000000 0.000000 0.000000
# 2 -0.003347 0.015367 -0.000662 0.000000 0.000000 0.000000
# 3 -0.004312 -0.000662 0.013625 0.000000 0.000000 0.000000
# 4 0.000000 0.000000 0.000000 0.039121 0.000000 0.000000
# 5 0.000000 0.000000 0.000000 0.000000 0.027400 0.000000
# 6 0.000000 0.000000 0.000000 0.000000 0.000000 0.058806
#
#
# Mechanical properties :
#
#
# Convention : Reuss Voigt Hill
#
# Bulk Modulus (GPa) = 47.95433 58.92969 53.44201
# Shear Modulus (GPa) = 26.82179 30.40069 28.61124
#
# Velocity S-wave (km/s) = 3.75967 4.00265 3.88306
# Velocity P-wave (km/s) = 6.64220 7.24001 6.94754
#
# Compressibility (1/GPa) = 0.02085318
#
# Stress axis : x y z
#
# Youngs Moduli (GPa) = 117.60037 65.07249 73.39591
#
# Poissons Ratio (x) = 0.21781 0.31646
# Poissons Ratio (y) = 0.39363 0.04862
# Poissons Ratio (z) = 0.50705 0.04310
#
# Static dielectric constant tensor:
#      x y z
#    x 1.682100 0.000000 0.000000 
#    y 0.000000 1.659080 0.000000 
#    z 0.000000 0.000000 1.686660 
# 
# From -- ./inp_files/13677.got.cif
#   From: 2010.05.17/outbox.cif.g08.bks.cpg/sg53_7_cif.got.tgz:13677.got - 2010.06.03 12:45:16.
