data_PCOD9418830
_publ_section_title
;
Structure prediction by ZEFSAII (Michael W. Deem and Ramdas Pophale) SiO2 
 PCOD9418830
Probable space group: P M N A
;
_chemical_formula_sum "Si O2"
_cell_formula_units_Z 48
_cell_length_a 15.604060
_cell_length_b 11.439194
_cell_length_c 13.146665
_cell_angle_alpha 90.000000
_cell_angle_beta 90.000000
_cell_angle_gamma 90.000000
_cell_volume 2346.651694
_symmetry_space_group_name_H-M "P M N A"
_symmetry_group_IT_number 53
_symmetry_cell_setting 'orthorhombic'
loop_
_space_group_symop_operation_xyz
x,y,z
1/2-x,-y,1/2+z
x,-y,-z
1/2-x,y,1/2-z
-x,-y,-z
1/2+x,y,1/2-z
-x,y,z
1/2+x,-y,1/2+z
loop_
_atom_site_type_symbol
_atom_site_label
_atom_site_fract_x
_atom_site_fract_y
_atom_site_fract_z
Si Si1 0.500000 0.805272 0.970390
Si Si2 0.650877 0.668094 0.437091
Si Si3 0.762720 0.000000 0.000000
Si Si4 0.750000 0.297284 0.250000
Si Si5 0.812737 0.241804 0.465596
Si Si6 0.096367 0.418970 0.148742
Si Si7 0.000000 0.031269 0.669136
Si Si8 0.839861 0.903634 0.189762
O O1 0.587437 0.732492 0.965657
O O2 0.500000 0.901801 0.879981
O O3 0.500000 0.877909 0.075546
O O4 0.751212 0.672634 0.470427
O O5 0.622427 0.550532 0.381632
O O6 0.603254 0.659887 0.545988
O O7 0.635887 0.782546 0.368597
O O8 0.703180 0.887176 0.009775
O O9 0.821512 0.003474 0.900104
O O10 0.775639 0.231143 0.351902
O O11 0.667131 0.373609 0.274954
O O12 0.000000 0.415043 0.187353
O O13 0.915455 0.054355 0.736752
O O14 0.750000 0.887523 0.250000
#
# Coordination Sequence:
#
# PCOD9418830 Si02
#       8
#     4   8   4   4   8   8   4   8
#     4  11  22  40  58  88 129 168 210 248 309 389
#     4   9  20  39  62  89 119 158 207 264 317 364
#     4  10  22  40  60  86 130 168 210 263 313 364
#     4  10  24  38  62  96 118 160 216 254 316 380
#     4  10  21  39  63  86 127 169 206 255 310 381
#     4  10  21  40  67  88 122 164 204 266 322 372
#     4  11  24  37  62  90 122 171 214 249 312 380
#     4  11  23  38  61  91 124 164 210 260 316 371
#
# _framework density 20.454677
#
# number of rings (size 3 to 8) (size 9 to 14) (size 15 to 20)
#    0.000    1.833    0.000    5.000    8.167    0.333 
#    0.000    0.000    0.000    2.000    0.000    0.000 
#    0.000    0.000    0.000    0.000    0.000    0.000 
#
# Total GULP energy -268019.353852 kJ/mol
# GULP energy per Si atom -5583.736539 kJ/mol
# Density = 2.040812 g / cm^3
# Si number density = 20.454677 Si / 1000 Ang^3
#
#
#
# Elastic Constant Matrix: (Units=GPa)
#
#
# Indices 1 2 3 4 5 6 
#
# 1 183.6843 33.8377 37.4553 0.0000 0.0000 0.0000
# 2 33.8377 29.2882 17.4333 0.0000 0.0000 0.0000
# 3 37.4553 17.4333 81.8956 0.0000 0.0000 0.0000
# 4 0.0000 0.0000 0.0000 12.9551 0.0000 0.0000
# 5 0.0000 0.0000 0.0000 0.0000 20.8341 0.0000
# 6 0.0000 0.0000 0.0000 0.0000 0.0000 18.3801
#
#
#
# Elastic Compliance Matrix: (Units=1/GPa)
#
#
# Indices 1 2 3 4 5 6 
#
# 1 0.007123 -0.007203 -0.001724 0.000000 0.000000 0.000000
# 2 -0.007203 0.046381 -0.006579 0.000000 0.000000 0.000000
# 3 -0.001724 -0.006579 0.014400 0.000000 0.000000 0.000000
# 4 0.000000 0.000000 0.000000 0.077190 0.000000 0.000000
# 5 0.000000 0.000000 0.000000 0.000000 0.047998 0.000000
# 6 0.000000 0.000000 0.000000 0.000000 0.000000 0.054407
#
#
# Mechanical properties :
#
#
# Convention : Reuss Voigt Hill
#
# Bulk Modulus (GPa) = 27.10661 52.48007 39.79334
# Shear Modulus (GPa) = 17.19354 24.17665 20.68509
#
# Velocity S-wave (km/s) = 2.90240 3.44170 3.18349
# Velocity P-wave (km/s) = 4.95103 6.44253 5.74538
#
# Compressibility (1/GPa) = 0.03689137
#
# Stress axis : x y z
#
# Youngs Moduli (GPa) = 140.39886 21.56058 69.44545
#
# Poissons Ratio (x) = 0.15529 0.11975
# Poissons Ratio (y) = 1.01124 0.45689
# Poissons Ratio (z) = 0.24209 0.14185
#
# Static dielectric constant tensor:
#      x y z
#    x 1.752120 0.000000 0.000000 
#    y 0.000000 1.721600 0.000000 
#    z 0.000000 0.000000 1.778550 
# 
# From -- ./inp_files/22753.got.cif
#   From: 2010.05.17/outbox.cif.g08.bks.cpg/sg53_12_cif.got.tgz:22753.got - 2010.06.03 12:45:16.
