data_PCOD9418530
_publ_section_title
;
Structure prediction by ZEFSAII (Michael W. Deem and Ramdas Pophale) SiO2 
 PCOD9418530
Probable space group: P M N A
;
_chemical_formula_sum "Si O2"
_cell_formula_units_Z 48
_cell_length_a 8.366701
_cell_length_b 10.248668
_cell_length_c 29.730962
_cell_angle_alpha 90.000000
_cell_angle_beta 90.000000
_cell_angle_gamma 90.000000
_cell_volume 2549.356877
_symmetry_space_group_name_H-M "P M N A"
_symmetry_group_IT_number 53
_symmetry_cell_setting 'orthorhombic'
loop_
_space_group_symop_operation_xyz
x,y,z
1/2-x,-y,1/2+z
x,-y,-z
1/2-x,y,1/2-z
-x,-y,-z
1/2+x,y,1/2-z
-x,y,z
1/2+x,-y,1/2+z
loop_
_atom_site_type_symbol
_atom_site_label
_atom_site_fract_x
_atom_site_fract_y
_atom_site_fract_z
Si Si1 0.691224 0.005510 0.128035
Si Si2 0.693088 0.509103 0.301082
Si Si3 0.693677 0.635437 0.022118
Si Si4 0.691571 0.212846 0.300743
Si Si5 0.308715 0.709347 0.378222
Si Si6 0.694454 0.115917 0.033367
O O1 0.500000 0.995133 0.125542
O O2 0.739002 0.098777 0.168728
O O3 0.750589 0.077993 0.082816
O O4 0.756710 0.858642 0.129880
O O5 0.750000 0.535178 0.250000
O O6 0.500000 0.511572 0.300379
O O7 0.742527 0.360801 0.313925
O O8 0.749060 0.614015 0.337992
O O9 0.500000 0.637222 0.023057
O O10 0.749172 0.661596 0.072949
O O11 0.745917 0.500000 0.000000
O O12 0.749699 0.750617 0.989046
O O13 0.750000 0.194630 0.250000
O O14 0.500000 0.207754 0.302587
O O15 0.500000 0.704272 0.378441
O O16 0.500000 0.121183 0.034921
O O17 0.739300 0.000000 0.000000
#
# Coordination Sequence:
#
# PCOD9418530 Si02
#       6
#     8   8   8   8   8   8
#     4  11  22  37  60  87 116 153 194 238 287 339
#     4   9  21  40  61  84 114 149 188 235 286 342
#     4  10  21  37  58  84 113 150 196 241 285 343
#     4  10  21  40  62  87 116 147 188 235 287 345
#     4  11  23  39  57  84 121 155 191 240 292 344
#     4   9  17  34  56  80 113 148 188 236 280 330
#
# _framework density 18.828278999999998
#
# number of rings (size 3 to 8) (size 9 to 14) (size 15 to 20)
#    0.000    2.000    1.667    1.500    2.333    3.000 
#    0.000    4.167    0.000    0.000    0.000    0.000 
#    0.000    0.000    0.000    0.000    0.000    0.000 
#
# Total GULP energy -267938.875285 kJ/mol
# GULP energy per Si atom -5582.059902 kJ/mol
# Density = 1.878543 g / cm^3
# Si number density = 18.828279 Si / 1000 Ang^3
#
#
#
# Elastic Constant Matrix: (Units=GPa)
#
#
# Indices 1 2 3 4 5 6 
#
# 1 21.2523 23.1507 13.6860 0.0000 0.0000 0.0000
# 2 23.1507 205.5707 119.6001 0.0000 0.0000 0.0000
# 3 13.6860 119.6001 134.6258 0.0000 0.0000 0.0000
# 4 0.0000 0.0000 0.0000 44.1085 0.0000 0.0000
# 5 0.0000 0.0000 0.0000 0.0000 27.3072 0.0000
# 6 0.0000 0.0000 0.0000 0.0000 0.0000 19.4400
#
#
#
# Elastic Compliance Matrix: (Units=1/GPa)
#
#
# Indices 1 2 3 4 5 6 
#
# 1 0.053635 -0.005936 -0.000179 0.000000 0.000000 0.000000
# 2 -0.005936 0.010726 -0.008925 0.000000 0.000000 0.000000
# 3 -0.000179 -0.008925 0.015375 0.000000 0.000000 0.000000
# 4 0.000000 0.000000 0.000000 0.022671 0.000000 0.000000
# 5 0.000000 0.000000 0.000000 0.000000 0.036620 0.000000
# 6 0.000000 0.000000 0.000000 0.000000 0.000000 0.051440
#
#
# Mechanical properties :
#
#
# Convention : Reuss Voigt Hill
#
# Bulk Modulus (GPa) = 20.13862 74.92472 47.53167
# Shear Modulus (GPa) = 21.08815 31.83861 26.46338
#
# Velocity S-wave (km/s) = 3.35031 4.11664 3.75308
# Velocity P-wave (km/s) = 5.06806 7.90416 6.63931
#
# Compressibility (1/GPa) = 0.04965584
#
# Stress axis : x y z
#
# Youngs Moduli (GPa) = 18.64441 93.23550 65.04049
#
# Poissons Ratio (x) = 0.55346 0.01164
# Poissons Ratio (y) = 0.11068 0.58048
# Poissons Ratio (z) = 0.00334 0.83212
#
# Static dielectric constant tensor:
#      x y z
#    x 1.652370 0.000000 0.000000 
#    y 0.000000 1.673390 0.000000 
#    z 0.000000 0.000000 1.575610 
# 
# From -- ./inp_files/37754.got.cif
#   From: 2010.05.17/outbox.cif.g08.bks.cpg/sg53_19_cif.got.tgz:37754.got - 2010.06.03 12:45:16.
