data_PCOD9418619
_publ_section_title
;
Structure prediction by ZEFSAII (Michael W. Deem and Ramdas Pophale) SiO2 
 PCOD9418619
Probable space group: P M N A
;
_chemical_formula_sum "Si O2"
_cell_formula_units_Z 32
_cell_length_a 29.609028
_cell_length_b 6.468188
_cell_length_c 8.594042
_cell_angle_alpha 90.000000
_cell_angle_beta 90.000000
_cell_angle_gamma 90.000000
_cell_volume 1645.903076
_symmetry_space_group_name_H-M "P M N A"
_symmetry_group_IT_number 53
_symmetry_cell_setting 'orthorhombic'
loop_
_space_group_symop_operation_xyz
x,y,z
1/2-x,-y,1/2+z
x,-y,-z
1/2-x,y,1/2-z
-x,-y,-z
1/2+x,y,1/2-z
-x,y,z
1/2+x,-y,1/2+z
loop_
_atom_site_type_symbol
_atom_site_label
_atom_site_fract_x
_atom_site_fract_y
_atom_site_fract_z
Si Si1 0.873215 0.426990 0.319581
Si Si2 0.201326 0.916909 0.673384
Si Si3 0.875162 0.156347 0.851657
Si Si4 0.447922 0.922233 0.821859
O O1 0.876797 0.500000 0.500000
O O2 0.827256 0.293973 0.315044
O O3 0.872958 0.597370 0.181961
O O4 0.916082 0.276043 0.298121
O O5 0.250000 0.898369 0.750000
O O6 0.207155 0.000000 0.500000
O O7 0.168027 0.080331 0.753942
O O8 0.923411 0.097479 0.777843
O O9 0.872404 0.000000 0.000000
O O10 0.500000 0.886138 0.782310
O O11 0.445287 0.000000 0.000000
#
# Coordination Sequence:
#
# PCOD9418619 Si02
#       4
#     8   8   8   8
#     4  11  20  41  65  88 124 171 215 260 324 402
#     4  11  23  41  62  92 124 162 213 266 324 397
#     4  11  23  41  62  89 127 165 208 271 332 387
#     4  10  21  37  62  94 124 163 218 268 323 397
#
# _framework density 19.442212999999999
#
# number of rings (size 3 to 8) (size 9 to 14) (size 15 to 20)
#    0.000    1.250    5.000    2.250    0.000    7.000 
#    4.500    1.250    0.000    0.000    0.000    0.000 
#    0.000    0.000    0.000    0.000    0.000    0.000 
#
# Total GULP energy -178222.676080 kJ/mol
# GULP energy per Si atom -5569.458627 kJ/mol
# Density = 1.939796 g / cm^3
# Si number density = 19.442213 Si / 1000 Ang^3
#
#
#
# Elastic Constant Matrix: (Units=GPa)
#
#
# Indices 1 2 3 4 5 6 
#
# 1 165.1430 57.5389 72.1445 0.0000 0.0000 0.0000
# 2 57.5389 132.7682 47.4589 0.0000 0.0000 0.0000
# 3 72.1445 47.4589 95.4325 0.0000 0.0000 0.0000
# 4 0.0000 0.0000 0.0000 -240.2801 0.0000 0.0000
# 5 0.0000 0.0000 0.0000 0.0000 28.9835 0.0000
# 6 0.0000 0.0000 0.0000 0.0000 0.0000 0.3795
#
#
#
# Elastic Compliance Matrix: (Units=1/GPa)
#
#
# Indices 1 2 3 4 5 6 
#
# 1 0.009407 -0.001867 -0.006183 0.000000 0.000000 0.000000
# 2 -0.001867 0.009531 -0.003329 0.000000 0.000000 0.000000
# 3 -0.006183 -0.003329 0.016808 0.000000 0.000000 0.000000
# 4 0.000000 0.000000 0.000000 -0.004162 0.000000 0.000000
# 5 0.000000 0.000000 0.000000 0.000000 0.034502 0.000000
# 6 0.000000 0.000000 0.000000 0.000000 0.000000 2.635049
#
#
# Mechanical properties :
#
#
# Convention : Reuss Voigt Hill
#
# Bulk Modulus (GPa) = 76.98660 83.06981 80.02820
# Shear Modulus (GPa) = 1.83270 -27.77001 -12.96865
#
# Velocity S-wave (km/s) = 0.97195 -3.78343 -2.58551
# Velocity P-wave (km/s) = 6.39869 4.87170 5.68668
#
# Compressibility (1/GPa) = 0.01298927
#
# Stress axis : x y z
#
# Youngs Moduli (GPa) = 106.30556 104.92453 59.49489
#
# Poissons Ratio (x) = 0.19585 0.36786
# Poissons Ratio (y) = 0.19842 0.19803
# Poissons Ratio (z) = 0.65730 0.34925
#
# Static dielectric constant tensor:
#      x y z
#    x 1.610090 0.000000 0.000000 
#    y 0.000000 2.096400 0.000000 
#    z 0.000000 0.000000 1.773610 
# 
# From -- ./inp_files/12648.got.cif
#   From: 2010.05.17/outbox.cif.g08.bks.cpg/sg53_7_cif.got.tgz:12648.got - 2010.06.03 12:45:16.
