data_PCOD9418124
_publ_section_title
;
Structure prediction by ZEFSAII (Michael W. Deem and Ramdas Pophale) SiO2 
 PCOD9418124
Probable space group: P M N A
;
_chemical_formula_sum "Si O2"
_cell_formula_units_Z 48
_cell_length_a 13.776644
_cell_length_b 8.853118
_cell_length_c 19.937292
_cell_angle_alpha 90.000000
_cell_angle_beta 90.000000
_cell_angle_gamma 90.000000
_cell_volume 2431.676840
_symmetry_space_group_name_H-M "P M N A"
_symmetry_group_IT_number 53
_symmetry_cell_setting 'orthorhombic'
loop_
_space_group_symop_operation_xyz
x,y,z
1/2-x,-y,1/2+z
x,-y,-z
1/2-x,y,1/2-z
-x,-y,-z
1/2+x,y,1/2-z
-x,y,z
1/2+x,-y,1/2+z
loop_
_atom_site_type_symbol
_atom_site_label
_atom_site_fract_x
_atom_site_fract_y
_atom_site_fract_z
Si Si1 0.890854 0.554732 0.187000
Si Si2 0.161981 0.890311 0.201382
Si Si3 0.290478 0.935601 0.074689
Si Si4 0.108006 0.877232 0.683253
Si Si5 0.889139 0.616133 0.445761
Si Si6 0.811835 0.559852 0.670594
O O1 0.894825 0.736514 0.187837
O O2 0.795516 0.495929 0.147163
O O3 0.853254 0.501079 0.259386
O O4 0.000000 0.497830 0.171653
O O5 0.250000 0.837964 0.250000
O O6 0.203063 0.943771 0.129384
O O7 0.118472 0.021661 0.249054
O O8 0.325841 0.764317 0.065326
O O9 0.374111 0.021744 0.117109
O O10 0.272729 0.000000 0.000000
O O11 0.183202 0.740035 0.677563
O O12 0.000000 0.813117 0.682630
O O13 0.848659 0.500000 0.500000
O O14 0.886501 0.513438 0.380462
O O15 0.000000 0.658853 0.463675
#
# Coordination Sequence:
#
# PCOD9418124 Si02
#       6
#     8   8   8   8   8   8
#     4  11  21  37  63  87 119 162 207 256 307 369
#     4  10  20  39  60  89 124 168 210 257 313 372
#     4  11  23  39  59  91 130 174 210 258 326 384
#     4  11  23  38  64  96 131 166 208 265 319 383
#     4  11  22  38  61  90 126 167 207 253 317 390
#     4  11  22  38  58  96 127 156 203 259 321 369
#
# _framework density 19.739466
#
# number of rings (size 3 to 8) (size 9 to 14) (size 15 to 20)
#    0.000    1.167    3.333    4.500    7.000    2.667 
#    0.000    0.000    0.000    2.500    0.000    0.000 
#    0.000    0.000    0.000    0.000    0.000    0.000 
#
# Total GULP energy -267319.054967 kJ/mol
# GULP energy per Si atom -5569.146978 kJ/mol
# Density = 1.969454 g / cm^3
# Si number density = 19.739466 Si / 1000 Ang^3
#
#
#
# Elastic Constant Matrix: (Units=GPa)
#
#
# Indices 1 2 3 4 5 6 
#
# 1 112.2182 31.8460 9.3230 0.0000 0.0000 0.0000
# 2 31.8460 126.6539 38.3126 0.0000 0.0000 0.0000
# 3 9.3230 38.3126 113.7431 0.0000 0.0000 0.0000
# 4 0.0000 0.0000 0.0000 30.4500 0.0000 0.0000
# 5 0.0000 0.0000 0.0000 0.0000 9.7260 0.0000
# 6 0.0000 0.0000 0.0000 0.0000 0.0000 -5.8285
#
#
#
# Elastic Compliance Matrix: (Units=1/GPa)
#
#
# Indices 1 2 3 4 5 6 
#
# 1 0.009596 -0.002422 0.000029 0.000000 0.000000 0.000000
# 2 -0.002422 0.009402 -0.002969 0.000000 0.000000 0.000000
# 3 0.000029 -0.002969 0.009789 0.000000 0.000000 0.000000
# 4 0.000000 0.000000 0.000000 0.032841 0.000000 0.000000
# 5 0.000000 0.000000 0.000000 0.000000 0.102818 0.000000
# 6 0.000000 0.000000 0.000000 0.000000 0.000000 -0.171570
#
#
# Mechanical properties :
#
#
# Convention : Reuss Voigt Hill
#
# Bulk Modulus (GPa) = 55.35388 56.84204 56.09796
# Shear Modulus (GPa) = 519.73501 25.07839 272.40670
#
# Velocity S-wave (km/s) = 16.24404 3.56823 11.76013
# Velocity P-wave (km/s) = 19.49175 6.77016 14.59047
#
# Compressibility (1/GPa) = 0.01806558
#
# Stress axis : x y z
#
# Youngs Moduli (GPa) = 104.20982 106.35558 102.15267
#
# Poissons Ratio (x) = 0.25756 -0.00298
# Poissons Ratio (y) = 0.25236 0.30325
# Poissons Ratio (z) = -0.00304 0.31572
#
# Static dielectric constant tensor:
#      x y z
#    x 1.822550 0.000000 0.000000 
#    y 0.000000 1.712460 0.000000 
#    z 0.000000 0.000000 1.689640 
# 
# From -- ./inp_files/28290.got.cif
#   From: 2010.05.17/outbox.cif.g08.bks.cpg/sg53_15_cif.got.tgz:28290.got - 2010.06.03 12:45:16.
