data_PCOD9418946
_publ_section_title
;
Structure prediction by ZEFSAII (Michael W. Deem and Ramdas Pophale) SiO2 
 PCOD9418946
Probable space group: P M N A
;
_chemical_formula_sum "Si O2"
_cell_formula_units_Z 48
_cell_length_a 15.523357
_cell_length_b 14.582462
_cell_length_c 9.668343
_cell_angle_alpha 90.000000
_cell_angle_beta 90.000000
_cell_angle_gamma 90.000000
_cell_volume 2188.610851
_symmetry_space_group_name_H-M "P M N A"
_symmetry_group_IT_number 53
_symmetry_cell_setting 'orthorhombic'
loop_
_space_group_symop_operation_xyz
x,y,z
1/2-x,-y,1/2+z
x,-y,-z
1/2-x,y,1/2-z
-x,-y,-z
1/2+x,y,1/2-z
-x,y,z
1/2+x,-y,1/2+z
loop_
_atom_site_type_symbol
_atom_site_label
_atom_site_fract_x
_atom_site_fract_y
_atom_site_fract_z
Si Si1 0.599580 0.588908 0.097723
Si Si2 0.500000 0.010939 0.727069
Si Si3 0.103512 0.469359 0.155507
Si Si4 0.500000 0.843917 0.508796
Si Si5 0.856610 0.740732 0.842881
Si Si6 0.677043 0.943555 0.131756
Si Si7 0.832909 0.232180 0.454114
O O1 0.500000 0.619143 0.116020
O O2 0.634322 0.548801 0.241578
O O3 0.599493 0.500000 0.000000
O O4 0.649255 0.670651 0.025015
O O5 0.500000 0.105431 0.637556
O O6 0.588739 0.011309 0.812963
O O7 0.500000 0.926576 0.620261
O O8 0.142536 0.368979 0.175732
O O9 0.000000 0.459747 0.179147
O O10 0.118370 0.500000 0.000000
O O11 0.579804 0.778279 0.541015
O O12 0.763900 0.771443 0.896158
O O13 0.883928 0.777821 0.691038
O O14 0.750000 0.939327 0.250000
O O15 0.653437 0.845030 0.068150
O O16 0.711715 0.000000 0.000000
#
# Coordination Sequence:
#
# PCOD9418946 Si02
#       7
#     8   4   8   4   8   8   8
#     4  10  21  40  68  98 137 183 231 291 347 413
#     4  11  27  48  74 114 136 195 247 299 374 433
#     4  10  21  40  64  97 134 179 231 284 348 421
#     4  11  24  44  79  97 149 182 243 293 365 446
#     4  11  23  43  68 103 139 190 233 293 360 434
#     4  12  29  50  77 109 151 187 242 305 371 440
#     4  11  26  42  69 104 142 183 242 291 365 424
#
# _framework density 21.931719999999999
#
# number of rings (size 3 to 8) (size 9 to 14) (size 15 to 20)
#    0.000    1.167    2.500    2.250    9.333    3.333 
#    0.000    0.000    0.000    0.000    0.000    0.000 
#    0.000    0.000    0.000    0.000    0.000    0.000 
#
# Total GULP energy -268432.491836 kJ/mol
# GULP energy per Si atom -5592.343580 kJ/mol
# Density = 2.188180 g / cm^3
# Si number density = 21.931720 Si / 1000 Ang^3
#
#
#
# Elastic Constant Matrix: (Units=GPa)
#
#
# Indices 1 2 3 4 5 6 
#
# 1 33.0677 -9.1391 0.4368 0.0000 0.0000 0.0000
# 2 -9.1391 67.7302 -3.2156 0.0000 0.0000 0.0000
# 3 0.4368 -3.2156 67.1899 0.0000 0.0000 0.0000
# 4 0.0000 0.0000 0.0000 28.4758 0.0000 0.0000
# 5 0.0000 0.0000 0.0000 0.0000 27.1318 0.0000
# 6 0.0000 0.0000 0.0000 0.0000 0.0000 -56.7213
#
#
#
# Elastic Compliance Matrix: (Units=1/GPa)
#
#
# Indices 1 2 3 4 5 6 
#
# 1 0.031412 0.004239 -0.000001 0.000000 0.000000 0.000000
# 2 0.004239 0.015370 0.000708 0.000000 0.000000 0.000000
# 3 -0.000001 0.000708 0.014917 0.000000 0.000000 0.000000
# 4 0.000000 0.000000 0.000000 0.035118 0.000000 0.000000
# 5 0.000000 0.000000 0.000000 0.000000 0.036857 0.000000
# 6 0.000000 0.000000 0.000000 0.000000 0.000000 -0.017630
#
#
# Mechanical properties :
#
#
# Convention : Reuss Voigt Hill
#
# Bulk Modulus (GPa) = 13.96846 16.01690 14.99268
# Shear Modulus (GPa) = 38.45652 11.77097 25.11374
#
# Velocity S-wave (km/s) = 4.19198 2.31921 3.38759
# Velocity P-wave (km/s) = 5.46015 3.80665 4.70658
#
# Compressibility (1/GPa) = 0.07158986
#
# Stress axis : x y z
#
# Youngs Moduli (GPa) = 31.83457 65.06183 67.03724
#
# Poissons Ratio (x) = -0.27577 0.00009
# Poissons Ratio (y) = -0.13493 -0.04746
# Poissons Ratio (z) = 0.00004 -0.04607
#
# Static dielectric constant tensor:
#      x y z
#    x 1.870610 0.000000 0.000000 
#    y 0.000000 1.789750 0.000000 
#    z 0.000000 0.000000 1.845750 
# 
# From -- ./inp_files/10035.got.cif
#   From: 2010.05.17/outbox.cif.g08.bks.cpg/sg53_6_cif.got.tgz:10035.got - 2010.06.03 12:45:16.
