data_PCOD9418132
_publ_section_title
;
Structure prediction by ZEFSAII (Michael W. Deem and Ramdas Pophale) SiO2 
 PCOD9418132
Probable space group: P M N A
;
_chemical_formula_sum "Si O2"
_cell_formula_units_Z 48
_cell_length_a 12.935629
_cell_length_b 11.455648
_cell_length_c 15.063981
_cell_angle_alpha 90.000000
_cell_angle_beta 90.000000
_cell_angle_gamma 90.000000
_cell_volume 2232.271277
_symmetry_space_group_name_H-M "P M N A"
_symmetry_group_IT_number 53
_symmetry_cell_setting 'orthorhombic'
loop_
_space_group_symop_operation_xyz
x,y,z
1/2-x,-y,1/2+z
x,-y,-z
1/2-x,y,1/2-z
-x,-y,-z
1/2+x,y,1/2-z
-x,y,z
1/2+x,-y,1/2+z
loop_
_atom_site_type_symbol
_atom_site_label
_atom_site_fract_x
_atom_site_fract_y
_atom_site_fract_z
Si Si1 0.614589 0.850140 0.183172
Si Si2 0.120680 0.740049 0.795839
Si Si3 0.672303 0.743552 0.363882
Si Si4 0.621417 0.882505 0.875658
Si Si5 0.124389 0.512456 0.898122
Si Si6 0.328753 0.873246 0.534470
O O1 0.500000 0.820642 0.150498
O O2 0.621163 0.822910 0.288091
O O3 0.706504 0.773690 0.142937
O O4 0.633184 0.986564 0.163345
O O5 0.154174 0.790769 0.700863
O O6 0.164820 0.623898 0.843049
O O7 0.128483 0.841512 0.869456
O O8 0.000000 0.714438 0.781016
O O9 0.650240 0.608338 0.349438
O O10 0.635881 0.780210 0.461582
O O11 0.500000 0.867810 0.898766
O O12 0.703964 0.870600 0.953917
O O13 0.000000 0.523436 0.903857
O O14 0.163490 0.500000 0.000000
O O15 0.358556 0.000000 0.500000
#
# Coordination Sequence:
#
# PCOD9418132 Si02
#       6
#     8   8   8   8   8   8
#     4  10  22  41  62  86 124 159 197 249 307 369
#     4  10  22  39  62  90 122 159 199 251 307 359
#     4  11  22  37  61  90 116 158 205 248 300 354
#     4  10  22  40  60  87 124 162 198 246 307 368
#     4  10  20  39  62  87 122 159 201 252 305 359
#     4  12  22  35  61  89 125 156 199 251 300 366
#
# _framework density 21.502763999999999
#
# number of rings (size 3 to 8) (size 9 to 14) (size 15 to 20)
#    0.000    1.500    3.333    2.000    2.333    2.000 
#    6.000    0.000    0.000    0.500    0.000    0.000 
#    0.000    0.000    0.000    0.000    0.000    0.000 
#
# Total GULP energy -268215.312922 kJ/mol
# GULP energy per Si atom -5587.819019 kJ/mol
# Density = 2.145382 g / cm^3
# Si number density = 21.502764 Si / 1000 Ang^3
#
#
#
# Elastic Constant Matrix: (Units=GPa)
#
#
# Indices 1 2 3 4 5 6 
#
# 1 37.6249 -1.6510 -14.7407 0.0000 0.0000 0.0000
# 2 -1.6510 108.5932 19.8841 0.0000 0.0000 0.0000
# 3 -14.7407 19.8841 69.3974 0.0000 0.0000 0.0000
# 4 0.0000 0.0000 0.0000 15.9837 0.0000 0.0000
# 5 0.0000 0.0000 0.0000 0.0000 16.5735 0.0000
# 6 0.0000 0.0000 0.0000 0.0000 0.0000 27.4430
#
#
#
# Elastic Compliance Matrix: (Units=1/GPa)
#
#
# Indices 1 2 3 4 5 6 
#
# 1 0.029045 -0.000726 0.006377 0.000000 0.000000 0.000000
# 2 -0.000726 0.009737 -0.002944 0.000000 0.000000 0.000000
# 3 0.006377 -0.002944 0.016608 0.000000 0.000000 0.000000
# 4 0.000000 0.000000 0.000000 0.062564 0.000000 0.000000
# 5 0.000000 0.000000 0.000000 0.000000 0.060337 0.000000
# 6 0.000000 0.000000 0.000000 0.000000 0.000000 0.036439
#
#
# Mechanical properties :
#
#
# Convention : Reuss Voigt Hill
#
# Bulk Modulus (GPa) = 16.44631 24.73339 20.58985
# Shear Modulus (GPa) = 21.77860 26.14159 23.96009
#
# Velocity S-wave (km/s) = 3.18595 3.49052 3.34170
# Velocity P-wave (km/s) = 4.60421 5.26995 4.94829
#
# Compressibility (1/GPa) = 0.06080391
#
# Stress axis : x y z
#
# Youngs Moduli (GPa) = 34.42956 102.70405 60.21215
#
# Poissons Ratio (x) = 0.07458 -0.38400
# Poissons Ratio (y) = 0.02500 0.17727
# Poissons Ratio (z) = -0.21957 0.30237
#
# Static dielectric constant tensor:
#      x y z
#    x 1.840790 0.000000 0.000000 
#    y 0.000000 1.753150 0.000000 
#    z 0.000000 0.000000 1.782070 
# 
# From -- ./inp_files/22671.got.cif
#   From: 2010.05.17/outbox.cif.g08.bks.cpg/sg53_12_cif.got.tgz:22671.got - 2010.06.03 12:45:16.
