data_PCOD9418136
_publ_section_title
;
Structure prediction by ZEFSAII (Michael W. Deem and Ramdas Pophale) SiO2 
 PCOD9418136
Probable space group: P M N A
;
_chemical_formula_sum "Si O2"
_cell_formula_units_Z 52
_cell_length_a 16.161657
_cell_length_b 7.803162
_cell_length_c 21.182306
_cell_angle_alpha 90.000000
_cell_angle_beta 90.000000
_cell_angle_gamma 90.000000
_cell_volume 2671.343562
_symmetry_space_group_name_H-M "P M N A"
_symmetry_group_IT_number 53
_symmetry_cell_setting 'orthorhombic'
loop_
_space_group_symop_operation_xyz
x,y,z
1/2-x,-y,1/2+z
x,-y,-z
1/2-x,y,1/2-z
-x,-y,-z
1/2+x,y,1/2-z
-x,y,z
1/2+x,-y,1/2+z
loop_
_atom_site_type_symbol
_atom_site_label
_atom_site_fract_x
_atom_site_fract_y
_atom_site_fract_z
Si Si1 0.280979 0.734627 0.456787
Si Si2 0.903364 0.333917 0.842595
Si Si3 0.591117 0.299378 0.117303
Si Si4 0.262018 0.120730 0.412969
Si Si5 0.649670 0.375601 0.244917
Si Si6 0.163408 0.016724 0.214561
Si Si7 0.861066 0.500000 0.500000
O O1 0.348682 0.668994 0.406895
O O2 0.300339 0.760925 0.531629
O O3 0.200569 0.617384 0.458534
O O4 0.258428 0.925683 0.435649
O O5 0.883170 0.497085 0.798474
O O6 0.000000 0.331879 0.858383
O O7 0.881308 0.160026 0.803116
O O8 0.500000 0.224593 0.129020
O O9 0.670551 0.178284 0.106835
O O10 0.616799 0.423539 0.175420
O O11 0.588520 0.395176 0.050543
O O12 0.316840 0.113377 0.350988
O O13 0.750000 0.377805 0.250000
O O14 0.621782 0.174900 0.248670
O O15 0.250000 0.974638 0.250000
#
# Coordination Sequence:
#
# PCOD9418136 Si02
#       7
#     8   8   8   8   8   8   4
#     4   9  20  37  64  81 117 157 206 237 296 367
#     4  11  24  39  59  94 130 158 200 261 309 357
#     4  11  21  36  58  88 120 149 195 256 313 357
#     4   9  18  39  59  85 110 159 201 246 292 365
#     4  11  21  39  65  88 120 166 207 245 303 373
#     4  10  20  39  63  86 115 161 213 245 298 370
#     4  10  21  38  61  84 114 160 200 246 293 372
#
# _framework density 19.465858999999998
#
# number of rings (size 3 to 8) (size 9 to 14) (size 15 to 20)
#    0.000    1.846    3.077    2.077    2.154    2.462 
#    0.000   13.462    0.000    0.000    0.000    0.000 
#    0.000    0.000    0.000    0.000    0.000    0.000 
#
# Total GULP energy -289656.477056 kJ/mol
# GULP energy per Si atom -5570.316866 kJ/mol
# Density = 1.942155 g / cm^3
# Si number density = 19.465859 Si / 1000 Ang^3
#
#
#
# Elastic Constant Matrix: (Units=GPa)
#
#
# Indices 1 2 3 4 5 6 
#
# 1 95.3897 25.9320 43.3523 0.0000 0.0000 0.0000
# 2 25.9320 47.5093 18.4729 0.0000 0.0000 0.0000
# 3 43.3523 18.4729 106.1931 0.0000 0.0000 0.0000
# 4 0.0000 0.0000 0.0000 20.5413 0.0000 0.0000
# 5 0.0000 0.0000 0.0000 0.0000 -8.1805 0.0000
# 6 0.0000 0.0000 0.0000 0.0000 0.0000 5.9038
#
#
#
# Elastic Compliance Matrix: (Units=1/GPa)
#
#
# Indices 1 2 3 4 5 6 
#
# 1 0.014274 -0.005926 -0.004796 0.000000 0.000000 0.000000
# 2 -0.005926 0.025036 -0.001936 0.000000 0.000000 0.000000
# 3 -0.004796 -0.001936 0.011712 0.000000 0.000000 0.000000
# 4 0.000000 0.000000 0.000000 0.048682 0.000000 0.000000
# 5 0.000000 0.000000 0.000000 0.000000 -0.122242 0.000000
# 6 0.000000 0.000000 0.000000 0.000000 0.000000 0.169382
#
#
# Mechanical properties :
#
#
# Convention : Reuss Voigt Hill
#
# Bulk Modulus (GPa) = 38.90324 47.17851 43.04088
# Shear Modulus (GPa) = 27.66552 14.40858 21.03705
#
# Velocity S-wave (km/s) = 3.77401 2.72361 3.29099
# Velocity P-wave (km/s) = 6.24657 5.84636 6.04977
#
# Compressibility (1/GPa) = 0.02570480
#
# Stress axis : x y z
#
# Youngs Moduli (GPa) = 70.05611 39.94253 85.38521
#
# Poissons Ratio (x) = 0.23671 0.40954
# Poissons Ratio (y) = 0.41518 0.16529
# Poissons Ratio (z) = 0.33602 0.07732
#
# Static dielectric constant tensor:
#      x y z
#    x 1.648620 0.000000 0.000000 
#    y 0.000000 1.750870 0.000000 
#    z 0.000000 0.000000 1.824290 
# 
# From -- ./inp_files/32356.got.cif
#   From: 2010.05.17/outbox.cif.g08.bks.cpg/sg53_17_cif.got.tgz:32356.got - 2010.06.03 12:45:16.
