data_PCOD9418214
_publ_section_title
;
Structure prediction by ZEFSAII (Michael W. Deem and Ramdas Pophale) SiO2 
 PCOD9418214
Probable space group: P M N A
;
_chemical_formula_sum "Si O2"
_cell_formula_units_Z 40
_cell_length_a 28.630722
_cell_length_b 8.390654
_cell_length_c 8.833835
_cell_angle_alpha 90.000000
_cell_angle_beta 90.000000
_cell_angle_gamma 90.000000
_cell_volume 2122.156441
_symmetry_space_group_name_H-M "P M N A"
_symmetry_group_IT_number 53
_symmetry_cell_setting 'orthorhombic'
loop_
_space_group_symop_operation_xyz
x,y,z
1/2-x,-y,1/2+z
x,-y,-z
1/2-x,y,1/2-z
-x,-y,-z
1/2+x,y,1/2-z
-x,y,z
1/2+x,-y,1/2+z
loop_
_atom_site_type_symbol
_atom_site_label
_atom_site_fract_x
_atom_site_fract_y
_atom_site_fract_z
Si Si1 0.915070 0.938522 0.655418
Si Si2 0.052484 0.704779 0.889093
Si Si3 0.370696 0.152465 0.606685
Si Si4 0.879716 0.595653 0.654977
Si Si5 0.201705 0.575321 0.163937
O O1 0.948396 0.862869 0.782479
O O2 0.881076 0.786283 0.624792
O O3 0.936476 0.000000 0.500000
O O4 0.888722 0.082396 0.735856
O O5 0.077858 0.578398 0.777134
O O6 0.000000 0.665934 0.934614
O O7 0.088556 0.747682 0.021928
O O8 0.326636 0.262914 0.634446
O O9 0.360523 0.000000 0.500000
O O10 0.887039 0.500000 0.500000
O O11 0.832950 0.536615 0.737191
O O12 0.250000 0.599277 0.250000
O O13 0.210297 0.500000 0.000000
#
# Coordination Sequence:
#
# PCOD9418214 Si02
#       5
#     8   8   8   8   8
#     4   9  19  35  60  86 125 160 197 250 307 351
#     4   9  20  37  62  89 123 166 206 246 307 369
#     4  10  20  41  63  87 129 157 202 258 306 367
#     4  10  21  39  59  86 127 161 199 254 302 359
#     4  12  23  41  64  90 114 159 206 250 311 371
#
# _framework density 18.848752000000001
#
# number of rings (size 3 to 8) (size 9 to 14) (size 15 to 20)
#    1.200    0.800    2.000    1.800    0.000    4.400 
#    0.000    9.000    0.000    0.000    0.000    0.000 
#    0.000    0.000    0.000    0.000    0.000    0.000 
#
# Total GULP energy -222828.931517 kJ/mol
# GULP energy per Si atom -5570.723288 kJ/mol
# Density = 1.880585 g / cm^3
# Si number density = 18.848752 Si / 1000 Ang^3
#
#
#
# Elastic Constant Matrix: (Units=GPa)
#
#
# Indices 1 2 3 4 5 6 
#
# 1 154.2416 68.5370 33.7827 0.0000 0.0000 0.0000
# 2 68.5370 54.5437 91.5050 0.0000 0.0000 0.0000
# 3 33.7827 91.5050 54.2182 0.0000 0.0000 0.0000
# 4 0.0000 0.0000 0.0000 41.5451 0.0000 0.0000
# 5 0.0000 0.0000 0.0000 0.0000 4.7911 0.0000
# 6 0.0000 0.0000 0.0000 0.0000 0.0000 7.1476
#
#
#
# Elastic Compliance Matrix: (Units=1/GPa)
#
#
# Indices 1 2 3 4 5 6 
#
# 1 0.007434 0.000857 -0.006079 0.000000 0.000000 0.000000
# 2 0.000857 -0.009912 0.016194 0.000000 0.000000 0.000000
# 3 -0.006079 0.016194 -0.005100 0.000000 0.000000 0.000000
# 4 0.000000 0.000000 0.000000 0.024070 0.000000 0.000000
# 5 0.000000 0.000000 0.000000 0.000000 0.208722 0.000000
# 6 0.000000 0.000000 0.000000 0.000000 0.000000 0.139907
#
#
# Mechanical properties :
#
#
# Convention : Reuss Voigt Hill
#
# Bulk Modulus (GPa) = 69.60098 72.29475 70.94787
# Shear Modulus (GPa) = 14.36929 15.30869 14.83899
#
# Velocity S-wave (km/s) = 2.76406 2.85298 2.80887
# Velocity P-wave (km/s) = 6.86971 7.02076 6.94565
#
# Compressibility (1/GPa) = 0.01436761
#
# Stress axis : x y z
#
# Youngs Moduli (GPa) = 134.52092 -100.88734 -196.07931
#
# Poissons Ratio (x) = 0.08650 -1.19196
# Poissons Ratio (y) = -0.11534 3.17540
# Poissons Ratio (z) = 0.81775 1.63382
#
# Static dielectric constant tensor:
#      x y z
#    x 1.624930 0.000000 0.000000 
#    y 0.000000 1.685090 0.000000 
#    z 0.000000 0.000000 1.675260 
# 
# From -- ./inp_files/12300.got.cif
#   From: 2010.05.17/outbox.cif.g08.bks.cpg/sg53_7_cif.got.tgz:12300.got - 2010.06.03 12:45:16.
