data_PCOD9418975
_publ_section_title
;
Structure prediction by ZEFSAII (Michael W. Deem and Ramdas Pophale) SiO2 
 PCOD9418975
Probable space group: P M N A
;
_chemical_formula_sum "Si O2"
_cell_formula_units_Z 40
_cell_length_a 14.134656
_cell_length_b 13.384160
_cell_length_c 9.197068
_cell_angle_alpha 90.000000
_cell_angle_beta 90.000000
_cell_angle_gamma 90.000000
_cell_volume 1739.905899
_symmetry_space_group_name_H-M "P M N A"
_symmetry_group_IT_number 53
_symmetry_cell_setting 'orthorhombic'
loop_
_space_group_symop_operation_xyz
x,y,z
1/2-x,-y,1/2+z
x,-y,-z
1/2-x,y,1/2-z
-x,-y,-z
1/2+x,y,1/2-z
-x,y,z
1/2+x,-y,1/2+z
loop_
_atom_site_type_symbol
_atom_site_label
_atom_site_fract_x
_atom_site_fract_y
_atom_site_fract_z
Si Si1 0.889060 0.695192 0.071953
Si Si2 0.774902 0.596515 0.579344
Si Si3 0.614155 0.900454 0.585359
Si Si4 0.112681 0.249007 0.601776
Si Si5 0.606228 0.968619 0.164097
O O1 0.876500 0.693332 0.245516
O O2 0.000000 0.683518 0.042315
O O3 0.824675 0.613009 0.000281
O O4 0.856437 0.799977 0.996024
O O5 0.819813 0.500000 0.500000
O O6 0.750000 0.589025 0.750000
O O7 0.838125 0.692075 0.529550
O O8 0.500000 0.892729 0.583560
O O9 0.644176 0.000000 0.500000
O O10 0.642415 0.935343 0.747245
O O11 0.152461 0.139844 0.648644
O O12 0.000000 0.237817 0.569641
O O13 0.500000 0.947666 0.227241
O O14 0.597215 0.000000 0.000000
#
# Coordination Sequence:
#
# PCOD9418975 Si02
#       5
#     8   8   8   8   8
#     4  10  21  40  70 100 131 172 220 271 329 399
#     4  12  28  48  69  93 128 171 221 285 344 396
#     4   9  15  29  56  92 130 171 211 249 308 380
#     4  10  21  41  69  99 132 174 219 271 333 395
#     4   9  17  29  54  92 133 172 209 255 312 379
#
# _framework density 22.989747000000001
#
# number of rings (size 3 to 8) (size 9 to 14) (size 15 to 20)
#    0.000    2.000    2.000    1.800    2.800    1.600 
#    0.000    1.000    0.000    0.000    0.000    0.000 
#    0.000    0.000    0.000    0.000    0.000    0.000 
#
# Total GULP energy -223070.211854 kJ/mol
# GULP energy per Si atom -5576.755296 kJ/mol
# Density = 2.293742 g / cm^3
# Si number density = 22.989747 Si / 1000 Ang^3
#
#
#
# Elastic Constant Matrix: (Units=GPa)
#
#
# Indices 1 2 3 4 5 6 
#
# 1 72.8846 13.4808 11.5974 0.0000 0.0000 0.0000
# 2 13.4808 81.2467 13.3333 0.0000 0.0000 0.0000
# 3 11.5974 13.3333 109.5037 0.0000 0.0000 0.0000
# 4 0.0000 0.0000 0.0000 31.4261 0.0000 0.0000
# 5 0.0000 0.0000 0.0000 0.0000 -73.5482 0.0000
# 6 0.0000 0.0000 0.0000 0.0000 0.0000 -46.8447
#
#
#
# Elastic Compliance Matrix: (Units=1/GPa)
#
#
# Indices 1 2 3 4 5 6 
#
# 1 0.014321 -0.002171 -0.001252 0.000000 0.000000 0.000000
# 2 -0.002171 0.012888 -0.001339 0.000000 0.000000 0.000000
# 3 -0.001252 -0.001339 0.009428 0.000000 0.000000 0.000000
# 4 0.000000 0.000000 0.000000 0.031821 0.000000 0.000000
# 5 0.000000 0.000000 0.000000 0.000000 -0.013597 0.000000
# 6 0.000000 0.000000 0.000000 0.000000 0.000000 -0.021347
#
#
# Mechanical properties :
#
#
# Convention : Reuss Voigt Hill
#
# Bulk Modulus (GPa) = 36.88388 37.82867 37.35627
# Shear Modulus (GPa) = 96.01270 -2.77845 46.61712
#
# Velocity S-wave (km/s) = 6.46946 -1.10054 4.50792
# Velocity P-wave (km/s) = 8.47843 3.85686 6.58631
#
# Compressibility (1/GPa) = 0.02711212
#
# Stress axis : x y z
#
# Youngs Moduli (GPa) = 69.82702 77.59058 106.06889
#
# Poissons Ratio (x) = 0.16842 0.13284
# Poissons Ratio (y) = 0.15157 0.14207
# Poissons Ratio (z) = 0.08745 0.10392
#
# Static dielectric constant tensor:
#      x y z
#    x 1.910710 0.000000 0.000000 
#    y 0.000000 1.854180 0.000000 
#    z 0.000000 0.000000 9.559490 
# 
# From -- ./inp_files/8370.got.cif
#   From: 2010.05.17/outbox.cif.g08.bks.cpg/sg53_5_cif.got.tgz:8370.got - 2010.06.03 12:45:16.
