data_PCOD9418150
_publ_section_title
;
Structure prediction by ZEFSAII (Michael W. Deem and Ramdas Pophale) SiO2 
 PCOD9418150
Probable space group: P M N A
;
_chemical_formula_sum "Si O2"
_cell_formula_units_Z 64
_cell_length_a 8.702238
_cell_length_b 14.796613
_cell_length_c 25.334964
_cell_angle_alpha 90.000000
_cell_angle_beta 90.000000
_cell_angle_gamma 90.000000
_cell_volume 3262.222385
_symmetry_space_group_name_H-M "P M N A"
_symmetry_group_IT_number 53
_symmetry_cell_setting 'orthorhombic'
loop_
_space_group_symop_operation_xyz
x,y,z
1/2-x,-y,1/2+z
x,-y,-z
1/2-x,y,1/2-z
-x,-y,-z
1/2+x,y,1/2-z
-x,y,z
1/2+x,-y,1/2+z
loop_
_atom_site_type_symbol
_atom_site_label
_atom_site_fract_x
_atom_site_fract_y
_atom_site_fract_z
Si Si1 0.817076 0.705512 0.807272
Si Si2 0.315583 0.774699 0.413789
Si Si3 0.823510 0.464010 0.058791
Si Si4 0.183283 0.680308 0.195777
Si Si5 0.686472 0.028898 0.940038
Si Si6 0.821293 0.846264 0.610224
Si Si7 0.179340 0.491454 0.335644
Si Si8 0.176960 0.292246 0.479940
O O1 0.750000 0.729877 0.750000
O O2 0.767217 0.781441 0.849563
O O3 0.750919 0.605895 0.821339
O O4 0.000000 0.699092 0.805436
O O5 0.500000 0.767398 0.418787
O O6 0.270199 0.734981 0.356822
O O7 0.237713 0.718836 0.461176
O O8 0.261881 0.877306 0.422864
O O9 0.710759 0.503786 0.102012
O O10 0.000000 0.480442 0.074906
O O11 0.800844 0.500000 0.000000
O O12 0.785228 0.358955 0.052743
O O13 0.250000 0.719336 0.250000
O O14 0.241576 0.577334 0.190769
O O15 0.000000 0.680034 0.198208
O O16 0.500000 0.037757 0.939153
O O17 0.731057 0.948498 0.899734
O O18 0.728713 0.000000 0.000000
O O19 0.818449 0.801210 0.551949
O O20 0.000000 0.846547 0.627007
O O21 0.000000 0.489878 0.323225
O O22 0.000000 0.324631 0.479000
#
# Coordination Sequence:
#
# PCOD9418150 Si02
#       8
#     8   8   8   8   8   8   8   8
#     4  12  25  42  65  91 125 166 210 259 311 366
#     4  11  24  40  62  94 129 161 204 257 312 373
#     4  11  23  37  54  83 124 165 206 254 308 363
#     4  11  25  45  65  89 122 162 209 262 310 361
#     4  10  20  39  65  93 126 163 203 249 305 369
#     4  10  21  39  62  91 126 161 203 254 305 364
#     4  12  24  40  63  91 123 162 210 256 305 368
#     4  11  21  36  60  88 124 163 203 248 304 369
#
# _framework density 19.618527
#
# number of rings (size 3 to 8) (size 9 to 14) (size 15 to 20)
#    0.000    1.000    2.500    4.875    0.000    7.250 
#    0.000    0.625    0.000    1.500    0.000    0.000 
#    0.000    0.000    0.000    0.000    0.000    0.000 
#
# Total GULP energy -357791.500306 kJ/mol
# GULP energy per Si atom -5590.492192 kJ/mol
# Density = 1.957387 g / cm^3
# Si number density = 19.618527 Si / 1000 Ang^3
#
#
#
# Elastic Constant Matrix: (Units=GPa)
#
#
# Indices 1 2 3 4 5 6 
#
# 1 63.0251 13.5422 40.5687 0.0000 0.0000 0.0000
# 2 13.5422 72.9559 37.2595 0.0000 0.0000 0.0000
# 3 40.5687 37.2595 128.8413 0.0000 0.0000 0.0000
# 4 0.0000 0.0000 0.0000 16.4579 0.0000 0.0000
# 5 0.0000 0.0000 0.0000 0.0000 34.8915 0.0000
# 6 0.0000 0.0000 0.0000 0.0000 0.0000 53.9806
#
#
#
# Elastic Compliance Matrix: (Units=1/GPa)
#
#
# Indices 1 2 3 4 5 6 
#
# 1 0.019921 -0.000580 -0.006105 0.000000 0.000000 0.000000
# 2 -0.000580 0.016099 -0.004473 0.000000 0.000000 0.000000
# 3 -0.006105 -0.004473 0.010977 0.000000 0.000000 0.000000
# 4 0.000000 0.000000 0.000000 0.060761 0.000000 0.000000
# 5 0.000000 0.000000 0.000000 0.000000 0.028660 0.000000
# 6 0.000000 0.000000 0.000000 0.000000 0.000000 0.018525
#
#
# Mechanical properties :
#
#
# Convention : Reuss Voigt Hill
#
# Bulk Modulus (GPa) = 40.51607 49.72924 45.12265
# Shear Modulus (GPa) = 26.95611 32.62945 29.79278
#
# Velocity S-wave (km/s) = 3.71079 4.08265 3.90116
# Velocity P-wave (km/s) = 6.24954 6.90125 6.58346
#
# Compressibility (1/GPa) = 0.02468156
#
# Stress axis : x y z
#
# Youngs Moduli (GPa) = 50.19842 62.11570 91.09706
#
# Poissons Ratio (x) = 0.03602 0.55614
# Poissons Ratio (y) = 0.02911 0.40748
# Poissons Ratio (z) = 0.30646 0.27785
#
# Static dielectric constant tensor:
#      x y z
#    x 1.662180 0.000000 0.000000 
#    y 0.000000 1.703810 0.000000 
#    z 0.000000 0.000000 1.707080 
# 
# From -- ./inp_files/34245.got.cif
#   From: 2010.05.17/outbox.cif.g08.bks.cpg/sg53_18_cif.got.tgz:34245.got - 2010.06.03 12:45:16.
