data_PCOD9418424
_publ_section_title
;
Structure prediction by ZEFSAII (Michael W. Deem and Ramdas Pophale) SiO2 
 PCOD9418424
Probable space group: P M N A
;
_chemical_formula_sum "Si O2"
_cell_formula_units_Z 40
_cell_length_a 15.067909
_cell_length_b 12.701691
_cell_length_c 8.360878
_cell_angle_alpha 90.000000
_cell_angle_beta 90.000000
_cell_angle_gamma 90.000000
_cell_volume 1600.171084
_symmetry_space_group_name_H-M "P M N A"
_symmetry_group_IT_number 53
_symmetry_cell_setting 'orthorhombic'
loop_
_space_group_symop_operation_xyz
x,y,z
1/2-x,-y,1/2+z
x,-y,-z
1/2-x,y,1/2-z
-x,-y,-z
1/2+x,y,1/2-z
-x,y,z
1/2+x,-y,1/2+z
loop_
_atom_site_type_symbol
_atom_site_label
_atom_site_fract_x
_atom_site_fract_y
_atom_site_fract_z
Si Si1 0.902471 0.112913 0.078784
Si Si2 0.858133 0.265739 0.735884
Si Si3 0.137618 0.610472 0.575620
Si Si4 0.151020 0.026032 0.682275
Si Si5 0.157718 0.333770 0.068316
O O1 0.832868 0.206310 0.071128
O O2 0.000000 0.151159 0.030169
O O3 0.905494 0.072049 0.257299
O O4 0.882234 0.000000 0.000000
O O5 0.750000 0.269362 0.750000
O O6 0.887555 0.307086 0.562998
O O7 0.883030 0.141781 0.736376
O O8 0.885314 0.339216 0.889246
O O9 0.108773 0.500000 0.500000
O O10 0.245885 0.613798 0.572338
O O11 0.112884 0.633535 0.761821
O O12 0.250000 0.018931 0.750000
O O13 0.158869 0.000000 0.500000
#
# Coordination Sequence:
#
# PCOD9418424 Si02
#       5
#     8   8   8   8   8
#     4  11  23  40  60  87 126 171 212 249 307 385
#     4   9  19  33  50  84 121 154 198 244 305 376
#     4  10  22  35  58  94 119 151 203 264 325 371
#     4  11  22  34  60  90 129 165 203 258 317 381
#     4  10  21  36  58  83 125 157 196 256 313 369
#
# _framework density 24.997328
#
# number of rings (size 3 to 8) (size 9 to 14) (size 15 to 20)
#    0.000    1.800    2.000    1.800   16.800    0.400 
#    0.000    0.000    0.000    1.200    0.000    0.000 
#    0.000    0.000    0.000    0.000    0.000    0.000 
#
# Total GULP energy -222901.209706 kJ/mol
# GULP energy per Si atom -5572.530243 kJ/mol
# Density = 2.494043 g / cm^3
# Si number density = 24.997328 Si / 1000 Ang^3
#
#
#
# Elastic Constant Matrix: (Units=GPa)
#
#
# Indices 1 2 3 4 5 6 
#
# 1 69.7984 8.9199 13.0638 0.0000 0.0000 0.0000
# 2 8.9199 91.2545 14.7930 0.0000 0.0000 0.0000
# 3 13.0638 14.7930 199.0343 0.0000 0.0000 0.0000
# 4 0.0000 0.0000 0.0000 37.7509 0.0000 0.0000
# 5 0.0000 0.0000 0.0000 0.0000 -36.6905 0.0000
# 6 0.0000 0.0000 0.0000 0.0000 0.0000 -17.5137
#
#
#
# Elastic Compliance Matrix: (Units=1/GPa)
#
#
# Indices 1 2 3 4 5 6 
#
# 1 0.014654 -0.001292 -0.000866 0.000000 0.000000 0.000000
# 2 -0.001292 0.011206 -0.000748 0.000000 0.000000 0.000000
# 3 -0.000866 -0.000748 0.005137 0.000000 0.000000 0.000000
# 4 0.000000 0.000000 0.000000 0.026489 0.000000 0.000000
# 5 0.000000 0.000000 0.000000 0.000000 -0.027255 0.000000
# 6 0.000000 0.000000 0.000000 0.000000 0.000000 -0.057098
#
#
# Mechanical properties :
#
#
# Convention : Reuss Voigt Hill
#
# Bulk Modulus (GPa) = 39.70633 48.18229 43.94431
# Shear Modulus (GPa) = -394.94266 18.26336 -188.33965
#
# Velocity S-wave (km/s) = -12.58320 2.70592 -8.68950
# Velocity P-wave (km/s) = 13.97130 5.39254 9.11366
#
# Compressibility (1/GPa) = 0.02518490
#
# Stress axis : x y z
#
# Youngs Moduli (GPa) = 68.24013 89.23850 194.67799
#
# Poissons Ratio (x) = 0.11530 0.16855
# Poissons Ratio (y) = 0.08817 0.14563
# Poissons Ratio (z) = 0.05908 0.06676
#
# Static dielectric constant tensor:
#      x y z
#    x 2.049150 0.000000 0.000000 
#    y 0.000000 1.980280 0.000000 
#    z 0.000000 0.000000 2.355340 
# 
# From -- ./inp_files/10747.got.cif
#   From: 2010.05.17/outbox.cif.g08.bks.cpg/sg53_6_cif.got.tgz:10747.got - 2010.06.03 12:45:16.
