data_PCOD9418429
_publ_section_title
;
Structure prediction by ZEFSAII (Michael W. Deem and Ramdas Pophale) SiO2 
 PCOD9418429
Probable space group: P M N A
;
_chemical_formula_sum "Si O2"
_cell_formula_units_Z 40
_cell_length_a 14.063699
_cell_length_b 6.968418
_cell_length_c 18.153205
_cell_angle_alpha 90.000000
_cell_angle_beta 90.000000
_cell_angle_gamma 90.000000
_cell_volume 1779.045554
_symmetry_space_group_name_H-M "P M N A"
_symmetry_group_IT_number 53
_symmetry_cell_setting 'orthorhombic'
loop_
_space_group_symop_operation_xyz
x,y,z
1/2-x,-y,1/2+z
x,-y,-z
1/2-x,y,1/2-z
-x,-y,-z
1/2+x,y,1/2-z
-x,y,z
1/2+x,-y,1/2+z
loop_
_atom_site_type_symbol
_atom_site_label
_atom_site_fract_x
_atom_site_fract_y
_atom_site_fract_z
Si Si1 0.254363 0.897543 0.574442
Si Si2 0.243177 0.481440 0.625522
Si Si3 0.606441 0.005724 0.703116
Si Si4 0.393120 0.447933 0.262982
Si Si5 0.110892 0.855960 0.368909
O O1 0.314430 0.998868 0.640050
O O2 0.145074 0.948590 0.592820
O O3 0.284695 0.000000 0.500000
O O4 0.263517 0.667622 0.576104
O O5 0.172553 0.541572 0.691783
O O6 0.341903 0.443558 0.669053
O O7 0.182182 0.302846 0.596620
O O8 0.500000 0.061123 0.678094
O O9 0.627058 0.114648 0.780394
O O10 0.602521 0.778178 0.720904
O O11 0.500000 0.516256 0.250119
O O12 0.000000 0.816932 0.380635
#
# Coordination Sequence:
#
# PCOD9418429 Si02
#       5
#     8   8   8   8   8
#     4  11  24  41  60  87 130 170 200 245 304 374
#     4  10  21  36  58  88 121 154 198 250 304 355
#     4   9  19  38  64  92 119 152 203 258 307 358
#     4   9  17  33  58  87 117 148 186 246 309 350
#     4  11  23  39  64  91 117 156 209 262 306 357
#
# _framework density 22.483965999999999
#
# number of rings (size 3 to 8) (size 9 to 14) (size 15 to 20)
#    0.000    2.000    2.000    1.200    5.600    2.400 
#    0.000    1.000    0.000    0.000    0.000    7.000 
#    0.000    0.000    0.000    0.000    0.000    0.000 
#
# Total GULP energy -223267.743531 kJ/mol
# GULP energy per Si atom -5581.693588 kJ/mol
# Density = 2.243279 g / cm^3
# Si number density = 22.483966 Si / 1000 Ang^3
#
#
#
# Elastic Constant Matrix: (Units=GPa)
#
#
# Indices 1 2 3 4 5 6 
#
# 1 109.6658 -2.8939 7.3937 0.0000 0.0000 0.0000
# 2 -2.8939 64.0218 -11.3633 0.0000 0.0000 0.0000
# 3 7.3937 -11.3633 26.2779 0.0000 0.0000 0.0000
# 4 0.0000 0.0000 0.0000 19.4766 0.0000 0.0000
# 5 0.0000 0.0000 0.0000 0.0000 9.6199 0.0000
# 6 0.0000 0.0000 0.0000 0.0000 0.0000 34.3672
#
#
#
# Elastic Compliance Matrix: (Units=1/GPa)
#
#
# Indices 1 2 3 4 5 6 
#
# 1 0.009295 -0.000048 -0.002636 0.000000 0.000000 0.000000
# 2 -0.000048 0.016918 0.007329 0.000000 0.000000 0.000000
# 3 -0.002636 0.007329 0.041966 0.000000 0.000000 0.000000
# 4 0.000000 0.000000 0.000000 0.051344 0.000000 0.000000
# 5 0.000000 0.000000 0.000000 0.000000 0.103951 0.000000
# 6 0.000000 0.000000 0.000000 0.000000 0.000000 0.029098
#
#
# Mechanical properties :
#
#
# Convention : Reuss Voigt Hill
#
# Bulk Modulus (GPa) = 12.90806 20.69316 16.80061
# Shear Modulus (GPa) = 18.58021 26.48134 22.53078
#
# Velocity S-wave (km/s) = 2.87779 3.43561 3.16900
# Velocity P-wave (km/s) = 4.09826 4.99614 4.56931
#
# Compressibility (1/GPa) = 0.07747098
#
# Stress axis : x y z
#
# Youngs Moduli (GPa) = 107.58393 59.10714 23.82885
#
# Poissons Ratio (x) = 0.00282 0.06281
# Poissons Ratio (y) = 0.00513 -0.17465
# Poissons Ratio (z) = 0.28358 -0.43322
#
# Static dielectric constant tensor:
#      x y z
#    x 1.824560 0.000000 0.000000 
#    y 0.000000 1.963180 0.000000 
#    z 0.000000 0.000000 1.842790 
# 
# From -- ./inp_files/28087.got.cif
#   From: 2010.05.17/outbox.cif.g08.bks.cpg/sg53_15_cif.got.tgz:28087.got - 2010.06.03 12:45:16.
