data_PCOD9418128
_publ_section_title
;
Structure prediction by ZEFSAII (Michael W. Deem and Ramdas Pophale) SiO2 
 PCOD9418128
Probable space group: P M N A
;
_chemical_formula_sum "Si O2"
_cell_formula_units_Z 64
_cell_length_a 9.184158
_cell_length_b 15.040982
_cell_length_c 24.061818
_cell_angle_alpha 90.000000
_cell_angle_beta 90.000000
_cell_angle_gamma 90.000000
_cell_volume 3323.869585
_symmetry_space_group_name_H-M "P M N A"
_symmetry_group_IT_number 53
_symmetry_cell_setting 'orthorhombic'
loop_
_space_group_symop_operation_xyz
x,y,z
1/2-x,-y,1/2+z
x,-y,-z
1/2-x,y,1/2-z
-x,-y,-z
1/2+x,y,1/2-z
-x,y,z
1/2+x,-y,1/2+z
loop_
_atom_site_type_symbol
_atom_site_label
_atom_site_fract_x
_atom_site_fract_y
_atom_site_fract_z
Si Si1 0.172221 0.210553 0.306147
Si Si2 0.170358 0.394740 0.988153
Si Si3 0.326333 0.339945 0.875384
Si Si4 0.171948 0.658934 0.887938
Si Si5 0.836130 0.895251 0.984357
Si Si6 0.825929 0.146363 0.594632
Si Si7 0.673877 0.051612 0.123941
Si Si8 0.172829 0.490990 0.807786
O O1 0.250000 0.238362 0.250000
O O2 0.231093 0.270538 0.355934
O O3 0.207678 0.108223 0.321489
O O4 0.000000 0.220221 0.300548
O O5 0.269812 0.367608 0.936644
O O6 0.000000 0.376697 0.974457
O O7 0.182103 0.500000 0.000000
O O8 0.206293 0.348482 0.046826
O O9 0.500000 0.353426 0.871203
O O10 0.294307 0.234710 0.870576
O O11 0.243626 0.400738 0.831071
O O12 0.193827 0.565388 0.855681
O O13 0.000000 0.680420 0.882662
O O14 0.749398 0.897746 0.927171
O O15 0.000000 0.860783 0.977847
O O16 0.754436 0.849152 0.035316
O O17 0.843675 0.000000 0.000000
O O18 0.000000 0.144004 0.584782
O O19 0.783538 0.052143 0.622421
O O20 0.500000 0.055187 0.115471
O O21 0.250000 0.516805 0.750000
O O22 0.000000 0.481229 0.799056
#
# Coordination Sequence:
#
# PCOD9418128 Si02
#       8
#     8   8   8   8   8   8   8   8
#     4  11  24  40  60  85 114 150 197 246 296 351
#     4  10  20  39  61  86 121 160 195 236 296 354
#     4  11  23  37  58  90 123 158 199 243 288 346
#     4  10  22  40  63  88 118 155 192 236 293 353
#     4   9  17  29  49  79 109 139 181 230 277 330
#     4   9  19  36  56  79 114 154 191 230 282 342
#     4   9  19  37  57  77 108 150 190 233 284 341
#     4  11  23  42  64  86 114 152 195 240 292 348
#
# _framework density 19.254666
#
# number of rings (size 3 to 8) (size 9 to 14) (size 15 to 20)
#    0.000    2.000    1.250    1.875    1.750    6.250 
#    0.000    0.625    0.000    1.500    0.000    0.000 
#    0.000    0.000    0.000    0.000    0.000    0.000 
#
# Total GULP energy -357416.343092 kJ/mol
# GULP energy per Si atom -5584.630361 kJ/mol
# Density = 1.921084 g / cm^3
# Si number density = 19.254666 Si / 1000 Ang^3
#
#
#
# Elastic Constant Matrix: (Units=GPa)
#
#
# Indices 1 2 3 4 5 6 
#
# 1 39.2329 32.5973 22.1230 0.0000 0.0000 0.0000
# 2 32.5973 73.8269 6.7891 0.0000 0.0000 0.0000
# 3 22.1230 6.7891 54.6207 0.0000 0.0000 0.0000
# 4 0.0000 0.0000 0.0000 20.3364 0.0000 0.0000
# 5 0.0000 0.0000 0.0000 0.0000 25.4187 0.0000
# 6 0.0000 0.0000 0.0000 0.0000 0.0000 19.6375
#
#
#
# Elastic Compliance Matrix: (Units=1/GPa)
#
#
# Indices 1 2 3 4 5 6 
#
# 1 0.055353 -0.022638 -0.019606 0.000000 0.000000 0.000000
# 2 -0.022638 0.022960 0.006315 0.000000 0.000000 0.000000
# 3 -0.019606 0.006315 0.025464 0.000000 0.000000 0.000000
# 4 0.000000 0.000000 0.000000 0.049173 0.000000 0.000000
# 5 0.000000 0.000000 0.000000 0.000000 0.039341 0.000000
# 6 0.000000 0.000000 0.000000 0.000000 0.000000 0.050923
#
#
# Mechanical properties :
#
#
# Convention : Reuss Voigt Hill
#
# Bulk Modulus (GPa) = 31.32800 32.29990 31.81395
# Shear Modulus (GPa) = 15.35103 20.15659 17.75381
#
# Velocity S-wave (km/s) = 2.82665 3.23900 3.03983
# Velocity P-wave (km/s) = 5.19220 5.54975 5.37395
#
# Compressibility (1/GPa) = 0.03192033
#
# Stress axis : x y z
#
# Youngs Moduli (GPa) = 18.06581 43.55442 39.27098
#
# Poissons Ratio (x) = 0.98596 0.76994
# Poissons Ratio (y) = 0.40897 -0.24800
# Poissons Ratio (z) = 0.35420 -0.27505
#
# Static dielectric constant tensor:
#      x y z
#    x 1.642240 0.000000 0.000000 
#    y 0.000000 1.712110 0.000000 
#    z 0.000000 0.000000 1.639680 
# 
# From -- ./inp_files/34285.got.cif
#   From: 2010.05.17/outbox.cif.g08.bks.cpg/sg53_18_cif.got.tgz:34285.got - 2010.06.03 12:45:16.
