data_PCOD9418042
_publ_section_title
;
Structure prediction by ZEFSAII (Michael W. Deem and Ramdas Pophale) SiO2 
 PCOD9418042
Probable space group: P M N A
;
_chemical_formula_sum "Si O2"
_cell_formula_units_Z 64
_cell_length_a 8.583084
_cell_length_b 25.543719
_cell_length_c 14.952637
_cell_angle_alpha 90.000000
_cell_angle_beta 90.000000
_cell_angle_gamma 90.000000
_cell_volume 3278.274240
_symmetry_space_group_name_H-M "P M N A"
_symmetry_group_IT_number 53
_symmetry_cell_setting 'orthorhombic'
loop_
_space_group_symop_operation_xyz
x,y,z
1/2-x,-y,1/2+z
x,-y,-z
1/2-x,y,1/2-z
-x,-y,-z
1/2+x,y,1/2-z
-x,y,z
1/2+x,-y,1/2+z
loop_
_atom_site_type_symbol
_atom_site_label
_atom_site_fract_x
_atom_site_fract_y
_atom_site_fract_z
Si Si1 0.812378 0.498259 0.851213
Si Si2 0.812198 0.616700 0.148687
Si Si3 0.312296 0.886698 0.350521
Si Si4 0.687832 0.386852 0.351419
Si Si5 0.814485 0.888626 0.648906
Si Si6 0.187303 0.190956 0.005487
Si Si7 0.314565 0.308247 0.002020
Si Si8 0.187128 0.997669 0.851693
O O1 0.750000 0.498296 0.750000
O O2 0.765195 0.441393 0.887663
O O3 0.765132 0.555078 0.887889
O O4 0.000000 0.498245 0.850954
O O5 0.750000 0.621295 0.250000
O O6 0.000000 0.619498 0.149139
O O7 0.744963 0.661277 0.085615
O O8 0.250000 0.880328 0.250000
O O9 0.500000 0.885990 0.346042
O O10 0.260837 0.841283 0.417382
O O11 0.268627 0.944760 0.386649
O O12 0.750000 0.382361 0.250000
O O13 0.500000 0.384168 0.350877
O O14 0.754425 0.341829 0.413832
O O15 0.750000 0.884665 0.750000
O O16 0.749891 0.841592 0.589626
O O17 0.757193 0.944501 0.609433
O O18 0.000000 0.888053 0.651609
O O19 0.000000 0.191139 0.007618
O O20 0.248412 0.249780 0.004672
O O21 0.500000 0.306652 0.002555
O O22 0.250000 0.998620 0.750000
O O23 0.000000 0.993126 0.853066
#
# Coordination Sequence:
#
# PCOD9418042 Si02
#       8
#     8   8   8   8   8   8   8   8
#     4   8  16  31  56  87 118 148 185 229 282 343
#     4  10  20  38  62  89 119 154 191 236 289 343
#     4   9  20  37  61  88 117 150 187 231 284 338
#     4  10  20  38  62  89 119 153 189 235 289 345
#     4  11  22  38  60  88 118 152 189 233 285 341
#     4  11  24  43  61  82 112 151 197 245 289 338
#     4  12  26  42  58  83 115 153 200 246 287 341
#     4   9  16  31  55  86 118 149 183 225 277 339
#
# _framework density 19.522468
#
# number of rings (size 3 to 8) (size 9 to 14) (size 15 to 20)
#    0.000    2.000    0.000    4.500    0.000    4.500 
#    0.000    8.750    0.000    0.000    0.000    0.000 
#    0.000    0.000    0.000    0.000    0.000    0.000 
#
# Total GULP energy -357280.031789 kJ/mol
# GULP energy per Si atom -5582.500497 kJ/mol
# Density = 1.947803 g / cm^3
# Si number density = 19.522468 Si / 1000 Ang^3
#
#
#
# Elastic Constant Matrix: (Units=GPa)
#
#
# Indices 1 2 3 4 5 6 
#
# 1 95.9898 71.8131 39.5633 0.0000 0.0000 0.0000
# 2 71.8131 239.6602 94.2710 0.0000 0.0000 0.0000
# 3 39.5633 94.2710 113.4850 0.0000 0.0000 0.0000
# 4 0.0000 0.0000 0.0000 36.9994 0.0000 0.0000
# 5 0.0000 0.0000 0.0000 0.0000 24.1231 0.0000
# 6 0.0000 0.0000 0.0000 0.0000 0.0000 28.0242
#
#
#
# Elastic Compliance Matrix: (Units=1/GPa)
#
#
# Indices 1 2 3 4 5 6 
#
# 1 0.013737 -0.003316 -0.002034 0.000000 0.000000 0.000000
# 2 -0.003316 0.006998 -0.004657 0.000000 0.000000 0.000000
# 3 -0.002034 -0.004657 0.013390 0.000000 0.000000 0.000000
# 4 0.000000 0.000000 0.000000 0.027027 0.000000 0.000000
# 5 0.000000 0.000000 0.000000 0.000000 0.041454 0.000000
# 6 0.000000 0.000000 0.000000 0.000000 0.000000 0.035683
#
#
# Mechanical properties :
#
#
# Convention : Reuss Voigt Hill
#
# Bulk Modulus (GPa) = 70.87416 95.60330 83.23873
# Shear Modulus (GPa) = 30.67321 34.06183 32.36752
#
# Velocity S-wave (km/s) = 3.96810 4.18155 4.07623
# Velocity P-wave (km/s) = 7.57477 8.50829 8.05507
#
# Compressibility (1/GPa) = 0.01410951
#
# Stress axis : x y z
#
# Youngs Moduli (GPa) = 72.79547 142.89497 74.68392
#
# Poissons Ratio (x) = 0.47384 0.15194
# Poissons Ratio (y) = 0.24139 0.34782
# Poissons Ratio (z) = 0.14810 0.66550
#
# Static dielectric constant tensor:
#      x y z
#    x 1.650230 0.000000 0.000000 
#    y 0.000000 1.699400 0.000000 
#    z 0.000000 0.000000 1.667810 
# 
# From -- ./inp_files/20935.got.cif
#   From: 2010.05.17/outbox.cif.g08.bks.cpg/sg53_11_cif.got.tgz:20935.got - 2010.06.03 12:45:16.
