data_PCOD9418503
_publ_section_title
;
Structure prediction by ZEFSAII (Michael W. Deem and Ramdas Pophale) SiO2 
 PCOD9418503
Probable space group: P M N A
;
_chemical_formula_sum "Si O2"
_cell_formula_units_Z 64
_cell_length_a 8.692140
_cell_length_b 19.679150
_cell_length_c 19.871256
_cell_angle_alpha 90.000000
_cell_angle_beta 90.000000
_cell_angle_gamma 90.000000
_cell_volume 3399.056371
_symmetry_space_group_name_H-M "P M N A"
_symmetry_group_IT_number 53
_symmetry_cell_setting 'orthorhombic'
loop_
_space_group_symop_operation_xyz
x,y,z
1/2-x,-y,1/2+z
x,-y,-z
1/2-x,y,1/2-z
-x,-y,-z
1/2+x,y,1/2-z
-x,y,z
1/2+x,-y,1/2+z
loop_
_atom_site_type_symbol
_atom_site_label
_atom_site_fract_x
_atom_site_fract_y
_atom_site_fract_z
Si Si1 0.184164 0.211093 0.052297
Si Si2 0.184370 0.993027 0.175584
Si Si3 0.186136 0.428379 0.410818
Si Si4 0.184293 0.696788 0.825223
Si Si5 0.315722 0.724091 0.077827
Si Si6 0.316760 0.836724 0.324201
Si Si7 0.186295 0.576929 0.430410
Si Si8 0.816375 0.062371 0.451980
O O1 0.228297 0.239889 0.125962
O O2 0.242231 0.135601 0.035337
O O3 0.000000 0.212403 0.047304
O O4 0.255760 0.260800 0.996877
O O5 0.250000 0.003756 0.250000
O O6 0.219632 0.914616 0.156380
O O7 0.000000 0.002168 0.174604
O O8 0.266346 0.041076 0.122614
O O9 0.258485 0.371273 0.363512
O O10 0.236627 0.506393 0.396718
O O11 0.226179 0.420356 0.490076
O O12 0.000000 0.423333 0.405384
O O13 0.250000 0.701724 0.750000
O O14 0.000000 0.695069 0.821416
O O15 0.500000 0.725942 0.077451
O O16 0.252888 0.782810 0.125203
O O17 0.263925 0.648723 0.100009
O O18 0.250000 0.825812 0.250000
O O19 0.500000 0.830290 0.322621
O O20 0.000000 0.574650 0.428830
O O21 0.000000 0.068244 0.458369
O O22 0.764489 0.000000 0.500000
#
# Coordination Sequence:
#
# PCOD9418503 Si02
#       8
#     8   8   8   8   8   8   8   8
#     4  11  24  40  58  84 117 152 195 241 291 349
#     4  10  21  38  60  82 109 146 188 233 284 344
#     4   9  16  34  59  83 112 147 189 233 281 339
#     4  11  24  40  59  85 117 156 200 246 296 347
#     4  11  20  34  58  87 117 151 190 235 287 343
#     4  10  21  37  57  83 114 150 189 232 284 343
#     4   8  16  30  56  87 113 146 186 229 281 339
#     4  11  24  40  60  87 117 150 190 239 293 348
#
# _framework density 18.828755000000001
#
# number of rings (size 3 to 8) (size 9 to 14) (size 15 to 20)
#    0.000    1.875    1.250    3.750    0.000    6.500 
#    0.000    4.375    0.000    0.000    0.000    0.000 
#    0.000    0.000    0.000    0.000    0.000    0.000 
#
# Total GULP energy -357265.335678 kJ/mol
# GULP energy per Si atom -5582.270870 kJ/mol
# Density = 1.878590 g / cm^3
# Si number density = 18.828755 Si / 1000 Ang^3
#
#
#
# Elastic Constant Matrix: (Units=GPa)
#
#
# Indices 1 2 3 4 5 6 
#
# 1 34.2014 20.8125 6.7510 0.0000 0.0000 0.0000
# 2 20.8125 93.9091 21.0840 0.0000 0.0000 0.0000
# 3 6.7510 21.0840 35.9377 0.0000 0.0000 0.0000
# 4 0.0000 0.0000 0.0000 26.5326 0.0000 0.0000
# 5 0.0000 0.0000 0.0000 0.0000 29.3192 0.0000
# 6 0.0000 0.0000 0.0000 0.0000 0.0000 56.9494
#
#
#
# Elastic Compliance Matrix: (Units=1/GPa)
#
#
# Indices 1 2 3 4 5 6 
#
# 1 0.033955 -0.007018 -0.002261 0.000000 0.000000 0.000000
# 2 -0.007018 0.013714 -0.006728 0.000000 0.000000 0.000000
# 3 -0.002261 -0.006728 0.032198 0.000000 0.000000 0.000000
# 4 0.000000 0.000000 0.000000 0.037690 0.000000 0.000000
# 5 0.000000 0.000000 0.000000 0.000000 0.034107 0.000000
# 6 0.000000 0.000000 0.000000 0.000000 0.000000 0.017559
#
#
# Mechanical properties :
#
#
# Convention : Reuss Voigt Hill
#
# Bulk Modulus (GPa) = 20.89694 29.03813 24.96753
# Shear Modulus (GPa) = 23.02150 30.25364 26.63757
#
# Velocity S-wave (km/s) = 3.50047 4.01281 3.76537
# Velocity P-wave (km/s) = 5.24025 6.07667 5.67390
#
# Compressibility (1/GPa) = 0.04785390
#
# Stress axis : x y z
#
# Youngs Moduli (GPa) = 29.45050 72.91654 31.05809
#
# Poissons Ratio (x) = 0.51170 0.07024
# Poissons Ratio (y) = 0.20667 0.20895
# Poissons Ratio (z) = 0.06660 0.49056
#
# Static dielectric constant tensor:
#      x y z
#    x 1.632110 0.000000 0.000000 
#    y 0.000000 1.692750 0.000000 
#    z 0.000000 0.000000 1.727970 
# 
# From -- ./inp_files/31178.got.cif
#   From: 2010.05.17/outbox.cif.g08.bks.cpg/sg53_16_cif.got.tgz:31178.got - 2010.06.03 12:45:16.
