data_PCOD9418462
_publ_section_title
;
Structure prediction by ZEFSAII (Michael W. Deem and Ramdas Pophale) SiO2 
 PCOD9418462
Probable space group: P M N A
;
_chemical_formula_sum "Si O2"
_cell_formula_units_Z 40
_cell_length_a 8.688139
_cell_length_b 18.981095
_cell_length_c 13.868879
_cell_angle_alpha 90.000000
_cell_angle_beta 90.000000
_cell_angle_gamma 90.000000
_cell_volume 2287.122269
_symmetry_space_group_name_H-M "P M N A"
_symmetry_group_IT_number 53
_symmetry_cell_setting 'orthorhombic'
loop_
_space_group_symop_operation_xyz
x,y,z
1/2-x,-y,1/2+z
x,-y,-z
1/2-x,y,1/2-z
-x,-y,-z
1/2+x,y,1/2-z
-x,y,z
1/2+x,-y,1/2+z
loop_
_atom_site_type_symbol
_atom_site_label
_atom_site_fract_x
_atom_site_fract_y
_atom_site_fract_z
Si Si1 0.184505 0.535240 0.644717
Si Si2 0.814827 0.961711 0.646363
Si Si3 0.185386 0.397364 0.956507
Si Si4 0.183990 0.749798 0.142431
Si Si5 0.685958 0.108655 0.948642
O O1 0.250000 0.551693 0.750000
O O2 0.247908 0.587636 0.562564
O O3 0.245434 0.458374 0.611605
O O4 0.000000 0.535386 0.644946
O O5 0.750000 0.942383 0.750000
O O6 0.768041 0.911244 0.557979
O O7 0.000000 0.961034 0.649735
O O8 0.767935 0.041303 0.616553
O O9 0.226690 0.320934 0.915546
O O10 0.000000 0.404575 0.958288
O O11 0.250000 0.746481 0.250000
O O12 0.244747 0.819524 0.090046
O O13 0.000000 0.752719 0.147861
O O14 0.500000 0.112818 0.945733
#
# Coordination Sequence:
#
# PCOD9418462 Si02
#       5
#     8   8   8   8   8
#     4  11  21  35  57  82 107 139 177 217 262 311
#     4   9  18  33  53  77 103 136 174 215 260 307
#     4  10  21  37  55  79 109 139 176 219 259 310
#     4  11  23  36  54  79 107 138 172 211 259 310
#     4   9  19  35  53  75 106 138 173 214 258 308
#
# _framework density 17.489227
#
# number of rings (size 3 to 8) (size 9 to 14) (size 15 to 20)
#    0.000    2.000    0.000    6.600    0.000    8.000 
#    0.000    3.000    0.000    2.400    0.000    0.000 
#    0.000    0.000    0.000    0.000    0.000    0.000 
#
# Total GULP energy -223372.127121 kJ/mol
# GULP energy per Si atom -5584.303178 kJ/mol
# Density = 1.744942 g / cm^3
# Si number density = 17.489227 Si / 1000 Ang^3
#
#
#
# Elastic Constant Matrix: (Units=GPa)
#
#
# Indices 1 2 3 4 5 6 
#
# 1 68.8591 52.3807 51.7223 0.0000 0.0000 0.0000
# 2 52.3807 147.3751 91.5780 0.0000 0.0000 0.0000
# 3 51.7223 91.5780 166.4285 0.0000 0.0000 0.0000
# 4 0.0000 0.0000 0.0000 12.8150 0.0000 0.0000
# 5 0.0000 0.0000 0.0000 0.0000 29.4879 0.0000
# 6 0.0000 0.0000 0.0000 0.0000 0.0000 44.2570
#
#
#
# Elastic Compliance Matrix: (Units=1/GPa)
#
#
# Indices 1 2 3 4 5 6 
#
# 1 0.021329 -0.005261 -0.003734 0.000000 0.000000 0.000000
# 2 -0.005261 0.011608 -0.004753 0.000000 0.000000 0.000000
# 3 -0.003734 -0.004753 0.009784 0.000000 0.000000 0.000000
# 4 0.000000 0.000000 0.000000 0.078034 0.000000 0.000000
# 5 0.000000 0.000000 0.000000 0.000000 0.033912 0.000000
# 6 0.000000 0.000000 0.000000 0.000000 0.000000 0.022595
#
#
# Mechanical properties :
#
#
# Convention : Reuss Voigt Hill
#
# Bulk Modulus (GPa) = 65.67248 86.00275 75.83761
# Shear Modulus (GPa) = 23.82854 29.77742 26.80298
#
# Velocity S-wave (km/s) = 3.69517 4.13075 3.91902
# Velocity P-wave (km/s) = 7.47245 8.48718 7.99593
#
# Compressibility (1/GPa) = 0.01522708
#
# Stress axis : x y z
#
# Youngs Moduli (GPa) = 46.88518 86.14399 102.20559
#
# Poissons Ratio (x) = 0.45317 0.38162
# Poissons Ratio (y) = 0.24664 0.48576
# Poissons Ratio (z) = 0.17506 0.40942
#
# Static dielectric constant tensor:
#      x y z
#    x 1.588740 0.000000 0.000000 
#    y 0.000000 1.574300 0.000000 
#    z 0.000000 0.000000 1.581560 
# 
# From -- ./inp_files/20020.got.cif
#   From: 2010.05.17/outbox.cif.g08.bks.cpg/sg53_11_cif.got.tgz:20020.got - 2010.06.03 12:45:16.
