data_PCOD9418308
_publ_section_title
;
Structure prediction by ZEFSAII (Michael W. Deem and Ramdas Pophale) SiO2 
 PCOD9418308
Probable space group: P M N A
;
_chemical_formula_sum "Si O2"
_cell_formula_units_Z 64
_cell_length_a 15.440775
_cell_length_b 20.839324
_cell_length_c 9.799127
_cell_angle_alpha 90.000000
_cell_angle_beta 90.000000
_cell_angle_gamma 90.000000
_cell_volume 3153.117158
_symmetry_space_group_name_H-M "P M N A"
_symmetry_group_IT_number 53
_symmetry_cell_setting 'orthorhombic'
loop_
_space_group_symop_operation_xyz
x,y,z
1/2-x,-y,1/2+z
x,-y,-z
1/2-x,y,1/2-z
-x,-y,-z
1/2+x,y,1/2-z
-x,y,z
1/2+x,-y,1/2+z
loop_
_atom_site_type_symbol
_atom_site_label
_atom_site_fract_x
_atom_site_fract_y
_atom_site_fract_z
Si Si1 0.400471 0.492902 0.150480
Si Si2 0.604462 0.878768 0.665808
Si Si3 0.346949 0.613020 0.311357
Si Si4 0.835713 0.754099 0.161734
Si Si5 0.106365 0.002369 0.344756
Si Si6 0.600811 0.600907 0.616689
Si Si7 0.898512 0.893755 0.139034
Si Si8 0.831772 0.737478 0.843271
O O1 0.500000 0.471199 0.129209
O O2 0.398346 0.561504 0.223744
O O3 0.362935 0.443090 0.261138
O O4 0.359910 0.500000 0.000000
O O5 0.500000 0.880182 0.659944
O O6 0.637686 0.898228 0.514740
O O7 0.630160 0.806126 0.700057
O O8 0.633081 0.931353 0.774069
O O9 0.250000 0.612639 0.250000
O O10 0.380091 0.686391 0.301343
O O11 0.351299 0.594331 0.471317
O O12 0.750000 0.760785 0.250000
O O13 0.889072 0.819179 0.178653
O O14 0.810020 0.746665 0.003022
O O15 0.136572 0.942872 0.251248
O O16 0.000000 0.000952 0.347469
O O17 0.136403 0.000000 0.500000
O O18 0.500000 0.583450 0.592940
O O19 0.606989 0.675396 0.660275
O O20 0.000000 0.909400 0.127828
O O21 0.750000 0.722953 0.750000
#
# Coordination Sequence:
#
# PCOD9418308 Si02
#       8
#     8   8   8   8   8   8   8   8
#     4  10  22  38  56  82 115 148 186 232 278 331
#     4   9  17  32  53  75 102 136 175 218 266 324
#     4  10  21  36  57  84 111 144 187 234 284 337
#     4   9  20  36  52  75 106 138 172 215 269 327
#     4   9  17  29  47  75 106 133 169 219 270 319
#     4  10  21  39  62  85 113 153 196 235 282 342
#     4   9  17  31  53  77  99 132 177 220 262 315
#     4  10  21  35  55  81 109 140 180 229 277 329
#
# _framework density 20.297374999999999
#
# number of rings (size 3 to 8) (size 9 to 14) (size 15 to 20)
#    0.000    2.500    0.000    1.500    0.000   11.500 
#    0.000    0.625    0.000    5.250    0.000    0.000 
#    0.000    0.000    0.000    0.000    0.000    0.000 
#
# Total GULP energy -356939.826874 kJ/mol
# GULP energy per Si atom -5577.184795 kJ/mol
# Density = 2.025118 g / cm^3
# Si number density = 20.297375 Si / 1000 Ang^3
#
#
#
# Elastic Constant Matrix: (Units=GPa)
#
#
# Indices 1 2 3 4 5 6 
#
# 1 30.0758 1.4688 19.2853 0.0000 0.0000 0.0000
# 2 1.4688 116.5793 88.6358 0.0000 0.0000 0.0000
# 3 19.2853 88.6358 125.5206 0.0000 0.0000 0.0000
# 4 0.0000 0.0000 0.0000 10.4623 0.0000 0.0000
# 5 0.0000 0.0000 0.0000 0.0000 19.9482 0.0000
# 6 0.0000 0.0000 0.0000 0.0000 0.0000 96.9807
#
#
#
# Elastic Compliance Matrix: (Units=1/GPa)
#
#
# Indices 1 2 3 4 5 6 
#
# 1 0.041019 0.009231 -0.012821 0.000000 0.000000 0.000000
# 2 0.009231 0.020599 -0.015964 0.000000 0.000000 0.000000
# 3 -0.012821 -0.015964 0.021210 0.000000 0.000000 0.000000
# 4 0.000000 0.000000 0.000000 0.095581 0.000000 0.000000
# 5 0.000000 0.000000 0.000000 0.000000 0.050130 0.000000
# 6 0.000000 0.000000 0.000000 0.000000 0.000000 0.010311
#
#
# Mechanical properties :
#
#
# Convention : Reuss Voigt Hill
#
# Bulk Modulus (GPa) = 22.87277 54.55060 38.71169
# Shear Modulus (GPa) = 17.09212 36.33064 26.71138
#
# Velocity S-wave (km/s) = 2.90502 4.23533 3.63161
# Velocity P-wave (km/s) = 4.74821 7.13102 6.05792
#
# Compressibility (1/GPa) = 0.04372011
#
# Stress axis : x y z
#
# Youngs Moduli (GPa) = 24.37871 48.54523 47.14804
#
# Poissons Ratio (x) = -0.44811 0.60447
# Poissons Ratio (y) = -0.22503 0.75269
# Poissons Ratio (z) = 0.31255 0.77499
#
# Static dielectric constant tensor:
#      x y z
#    x 1.739910 0.000000 0.000000 
#    y 0.000000 1.727740 0.000000 
#    z 0.000000 0.000000 1.723260 
# 
# From -- ./inp_files/10252.got.cif
#   From: 2010.05.17/outbox.cif.g08.bks.cpg/sg53_6_cif.got.tgz:10252.got - 2010.06.03 12:45:16.
