data_PCOD9418215
_publ_section_title
;
Structure prediction by ZEFSAII (Michael W. Deem and Ramdas Pophale) SiO2 
 PCOD9418215
Probable space group: P M N A
;
_chemical_formula_sum "Si O2"
_cell_formula_units_Z 48
_cell_length_a 8.797375
_cell_length_b 15.248726
_cell_length_c 19.627243
_cell_angle_alpha 90.000000
_cell_angle_beta 90.000000
_cell_angle_gamma 90.000000
_cell_volume 2632.970328
_symmetry_space_group_name_H-M "P M N A"
_symmetry_group_IT_number 53
_symmetry_cell_setting 'orthorhombic'
loop_
_space_group_symop_operation_xyz
x,y,z
1/2-x,-y,1/2+z
x,-y,-z
1/2-x,y,1/2-z
-x,-y,-z
1/2+x,y,1/2-z
-x,y,z
1/2+x,-y,1/2+z
loop_
_atom_site_type_symbol
_atom_site_label
_atom_site_fract_x
_atom_site_fract_y
_atom_site_fract_z
Si Si1 0.182550 0.533878 0.576484
Si Si2 0.181333 0.389784 0.825435
Si Si3 0.817238 0.773362 0.408731
Si Si4 0.817199 0.736962 0.565463
Si Si5 0.317667 0.928836 0.324344
Si Si6 0.681278 0.132995 0.323730
O O1 0.215204 0.500000 0.500000
O O2 0.267280 0.473950 0.630893
O O3 0.223969 0.636106 0.580842
O O4 0.000000 0.525058 0.586468
O O5 0.250000 0.394150 0.750000
O O6 0.247761 0.305036 0.864134
O O7 0.000000 0.383953 0.822021
O O8 0.774980 0.759201 0.487645
O O9 0.754316 0.864162 0.379283
O O10 0.000000 0.770538 0.403452
O O11 0.744052 0.803580 0.618418
O O12 0.000000 0.743353 0.570267
O O13 0.250000 0.906583 0.250000
O O14 0.500000 0.919198 0.322909
O O15 0.280034 0.030872 0.337955
O O16 0.750000 0.155497 0.250000
O O17 0.500000 0.139557 0.320122
#
# Coordination Sequence:
#
# PCOD9418215 Si02
#       6
#     8   8   8   8   8   8
#     4  10  20  41  65  86 118 157 197 243 296 354
#     4  12  25  40  61  90 122 158 201 248 296 354
#     4  11  22  39  61  88 121 159 197 242 298 358
#     4  10  22  39  63  89 118 157 197 241 297 355
#     4  10  21  38  59  86 118 158 199 246 299 350
#     4  10  22  40  62  86 119 156 199 249 297 351
#
# _framework density 18.230360000000001
#
# number of rings (size 3 to 8) (size 9 to 14) (size 15 to 20)
#    0.000    1.500    1.667    3.500    0.000    5.667 
#    0.000    3.333    0.000    0.000    0.000    0.000 
#    0.000    0.000    0.000    0.000    0.000    0.000 
#
# Total GULP energy -268344.118413 kJ/mol
# GULP energy per Si atom -5590.502467 kJ/mol
# Density = 1.818887 g / cm^3
# Si number density = 18.230360 Si / 1000 Ang^3
#
#
#
# Elastic Constant Matrix: (Units=GPa)
#
#
# Indices 1 2 3 4 5 6 
#
# 1 76.4034 62.8572 75.7776 0.0000 0.0000 0.0000
# 2 62.8572 130.3005 107.4380 0.0000 0.0000 0.0000
# 3 75.7776 107.4380 172.0692 0.0000 0.0000 0.0000
# 4 0.0000 0.0000 0.0000 32.3060 0.0000 0.0000
# 5 0.0000 0.0000 0.0000 0.0000 35.8807 0.0000
# 6 0.0000 0.0000 0.0000 0.0000 0.0000 36.6400
#
#
#
# Elastic Compliance Matrix: (Units=1/GPa)
#
#
# Indices 1 2 3 4 5 6 
#
# 1 0.025503 -0.006270 -0.007316 0.000000 0.000000 0.000000
# 2 -0.006270 0.017360 -0.008078 0.000000 0.000000 0.000000
# 3 -0.007316 -0.008078 0.014078 0.000000 0.000000 0.000000
# 4 0.000000 0.000000 0.000000 0.030954 0.000000 0.000000
# 5 0.000000 0.000000 0.000000 0.000000 0.027870 0.000000
# 6 0.000000 0.000000 0.000000 0.000000 0.000000 0.027293
#
#
# Mechanical properties :
#
#
# Convention : Reuss Voigt Hill
#
# Bulk Modulus (GPa) = 73.46671 96.76876 85.11773
# Shear Modulus (GPa) = 26.18840 29.81203 28.00022
#
# Velocity S-wave (km/s) = 3.79427 4.04827 3.92332
# Velocity P-wave (km/s) = 7.71893 8.66300 8.20456
#
# Compressibility (1/GPa) = 0.01361161
#
# Stress axis : x y z
#
# Youngs Moduli (GPa) = 39.21041 57.60368 71.03527
#
# Poissons Ratio (x) = 0.36119 0.51972
# Poissons Ratio (y) = 0.24586 0.57382
# Poissons Ratio (z) = 0.28688 0.46532
#
# Static dielectric constant tensor:
#      x y z
#    x 1.609490 0.000000 0.000000 
#    y 0.000000 1.613080 0.000000 
#    z 0.000000 0.000000 1.588180 
# 
# From -- ./inp_files/26152.got.cif
#   From: 2010.05.17/outbox.cif.g08.bks.cpg/sg53_14_cif.got.tgz:26152.got - 2010.06.03 12:45:16.
