data_PCOD9418063
_publ_section_title
;
Structure prediction by ZEFSAII (Michael W. Deem and Ramdas Pophale) SiO2 
 PCOD9418063
Probable space group: P M N A
;
_chemical_formula_sum "Si O2"
_cell_formula_units_Z 56
_cell_length_a 16.909976
_cell_length_b 10.806886
_cell_length_c 14.647348
_cell_angle_alpha 90.000000
_cell_angle_beta 90.000000
_cell_angle_gamma 90.000000
_cell_volume 2676.717642
_symmetry_space_group_name_H-M "P M N A"
_symmetry_group_IT_number 53
_symmetry_cell_setting 'orthorhombic'
loop_
_space_group_symop_operation_xyz
x,y,z
1/2-x,-y,1/2+z
x,-y,-z
1/2-x,y,1/2-z
-x,-y,-z
1/2+x,y,1/2-z
-x,y,z
1/2+x,-y,1/2+z
loop_
_atom_site_type_symbol
_atom_site_label
_atom_site_fract_x
_atom_site_fract_y
_atom_site_fract_z
Si Si1 0.619276 0.106978 0.931260
Si Si2 0.199904 0.844839 0.063654
Si Si3 0.911924 0.169071 0.102695
Si Si4 0.088322 0.055812 0.780130
Si Si5 0.913250 0.396546 0.578558
Si Si6 0.911175 0.462447 0.107143
Si Si7 0.242406 0.393605 0.848709
O O1 0.714049 0.097655 0.932819
O O2 0.596558 0.081774 0.826406
O O3 0.596594 0.251125 0.951822
O O4 0.589232 0.000000 0.000000
O O5 0.149182 0.877867 0.152708
O O6 0.217287 0.699073 0.071538
O O7 0.152137 0.869734 0.971823
O O8 0.908177 0.314837 0.117043
O O9 0.000000 0.141252 0.065854
O O10 0.902602 0.088931 0.194105
O O11 0.000000 0.094967 0.807589
O O12 0.916519 0.500000 0.500000
O O13 0.832544 0.431917 0.631014
O O14 0.000000 0.401403 0.625984
O O15 0.831639 0.513612 0.154337
O O16 0.000000 0.504010 0.138923
O O17 0.907772 0.500000 0.000000
O O18 0.250000 0.329560 0.750000
#
# Coordination Sequence:
#
# PCOD9418063 Si02
#       7
#     8   8   8   8   8   8   8
#     4  11  24  42  66  93 127 176 223 273 335 401
#     4  11  21  38  63  92 127 162 212 270 331 403
#     4  10  21  38  63  95 128 167 213 272 345 405
#     4  11  23  39  61  91 129 167 214 270 327 399
#     4  10  23  44  67  90 122 168 226 277 320 385
#     4  10  20  38  63  93 130 172 218 271 341 417
#     4  11  23  38  61  93 130 171 213 267 334 401
#
# _framework density 20.921147999999999
#
# number of rings (size 3 to 8) (size 9 to 14) (size 15 to 20)
#    0.000    1.429    1.429    4.714    2.000    3.429 
#    2.571    0.000    0.000    0.000    0.000    0.000 
#    0.000    0.000    0.000    0.000    0.000    0.000 
#
# Total GULP energy -312191.288462 kJ/mol
# GULP energy per Si atom -5574.844437 kJ/mol
# Density = 2.087353 g / cm^3
# Si number density = 20.921148 Si / 1000 Ang^3
#
#
#
# Elastic Constant Matrix: (Units=GPa)
#
#
# Indices 1 2 3 4 5 6 
#
# 1 181.5424 46.9612 31.3995 0.0000 0.0000 0.0000
# 2 46.9612 89.1044 40.1114 0.0000 0.0000 0.0000
# 3 31.3995 40.1114 75.7670 0.0000 0.0000 0.0000
# 4 0.0000 0.0000 0.0000 22.3386 0.0000 0.0000
# 5 0.0000 0.0000 0.0000 0.0000 25.2826 0.0000
# 6 0.0000 0.0000 0.0000 0.0000 0.0000 21.7283
#
#
#
# Elastic Compliance Matrix: (Units=1/GPa)
#
#
# Indices 1 2 3 4 5 6 
#
# 1 0.006453 -0.002885 -0.001147 0.000000 0.000000 0.000000
# 2 -0.002885 0.016024 -0.007288 0.000000 0.000000 0.000000
# 3 -0.001147 -0.007288 0.017532 0.000000 0.000000 0.000000
# 4 0.000000 0.000000 0.000000 0.044766 0.000000 0.000000
# 5 0.000000 0.000000 0.000000 0.000000 0.039553 0.000000
# 6 0.000000 0.000000 0.000000 0.000000 0.000000 0.046023
#
#
# Mechanical properties :
#
#
# Convention : Reuss Voigt Hill
#
# Bulk Modulus (GPa) = 57.57088 64.81757 61.19422
# Shear Modulus (GPa) = 25.15364 29.06600 27.10982
#
# Velocity S-wave (km/s) = 3.47119 3.73139 3.60364
# Velocity P-wave (km/s) = 6.60631 7.04368 6.82850
#
# Compressibility (1/GPa) = 0.01736989
#
# Stress axis : x y z
#
# Youngs Moduli (GPa) = 154.96832 62.40785 57.03901
#
# Poissons Ratio (x) = 0.18002 0.06543
# Poissons Ratio (y) = 0.44701 0.41568
# Poissons Ratio (z) = 0.17777 0.45480
#
# Static dielectric constant tensor:
#      x y z
#    x 1.803050 0.000000 0.000000 
#    y 0.000000 1.793390 0.000000 
#    z 0.000000 0.000000 1.718390 
# 
# From -- ./inp_files/22830.got.cif
#   From: 2010.05.17/outbox.cif.g08.bks.cpg/sg53_12_cif.got.tgz:22830.got - 2010.06.03 12:45:16.
