data_PCOD9418119
_publ_section_title
;
Structure prediction by ZEFSAII (Michael W. Deem and Ramdas Pophale) SiO2 
 PCOD9418119
Probable space group: P M N A
;
_chemical_formula_sum "Si O2"
_cell_formula_units_Z 48
_cell_length_a 18.004123
_cell_length_b 5.236934
_cell_length_c 21.342223
_cell_angle_alpha 90.000000
_cell_angle_beta 90.000000
_cell_angle_gamma 90.000000
_cell_volume 2012.281457
_symmetry_space_group_name_H-M "P M N A"
_symmetry_group_IT_number 53
_symmetry_cell_setting 'orthorhombic'
loop_
_space_group_symop_operation_xyz
x,y,z
1/2-x,-y,1/2+z
x,-y,-z
1/2-x,y,1/2-z
-x,-y,-z
1/2+x,y,1/2-z
-x,y,z
1/2+x,-y,1/2+z
loop_
_atom_site_type_symbol
_atom_site_label
_atom_site_fract_x
_atom_site_fract_y
_atom_site_fract_z
Si Si1 0.584099 0.555950 0.892165
Si Si2 0.675710 0.942862 0.097863
Si Si3 0.207564 0.709204 0.168285
Si Si4 0.583224 0.487764 0.257943
Si Si5 0.416550 0.909928 0.627465
Si Si6 0.206482 0.321102 0.059315
O O1 0.500000 0.522790 0.914302
O O2 0.615574 0.834688 0.906247
O O3 0.583070 0.554175 0.816110
O O4 0.634307 0.321919 0.917317
O O5 0.720600 0.890753 0.163415
O O6 0.743335 0.068813 0.059636
O O7 0.138226 0.854066 0.135823
O O8 0.163573 0.616183 0.228917
O O9 0.227732 0.473093 0.123204
O O10 0.500000 0.611217 0.270592
O O11 0.584700 0.250304 0.306868
O O12 0.500000 0.981668 0.613565
O O13 0.379029 0.747950 0.572039
O O14 0.217315 0.500000 0.000000
#
# Coordination Sequence:
#
# PCOD9418119 Si02
#       6
#     8   8   8   8   8   8
#     4  11  24  43  66  92 127 168 209 259 323 387
#     4  11  23  43  62  96 125 162 209 266 318 379
#     4  10  20  39  59  92 129 165 214 258 313 372
#     4   9  20  37  59  89 130 175 209 247 306 372
#     4   9  19  35  58  91 131 170 218 261 302 373
#     4  10  22  42  65  89 125 172 216 269 333 379
#
# _framework density 23.853521000000001
#
# number of rings (size 3 to 8) (size 9 to 14) (size 15 to 20)
#    0.000    2.000    1.667    1.000    2.333    4.333 
#    6.000    0.833    0.000    3.000    0.000    0.000 
#    0.000    0.000    0.000    0.000    0.000    0.000 
#
# Total GULP energy -267560.511477 kJ/mol
# GULP energy per Si atom -5574.177322 kJ/mol
# Density = 2.379923 g / cm^3
# Si number density = 23.853521 Si / 1000 Ang^3
#
#
#
# Elastic Constant Matrix: (Units=GPa)
#
#
# Indices 1 2 3 4 5 6 
#
# 1 71.7165 47.2835 -8.1947 0.0000 0.0000 0.0000
# 2 47.2835 106.4813 10.9215 0.0000 0.0000 0.0000
# 3 -8.1947 10.9215 64.0423 0.0000 0.0000 0.0000
# 4 0.0000 0.0000 0.0000 22.4223 0.0000 0.0000
# 5 0.0000 0.0000 0.0000 0.0000 -9.6927 0.0000
# 6 0.0000 0.0000 0.0000 0.0000 0.0000 45.9875
#
#
#
# Elastic Compliance Matrix: (Units=1/GPa)
#
#
# Indices 1 2 3 4 5 6 
#
# 1 0.020826 -0.009691 0.004318 0.000000 0.000000 0.000000
# 2 -0.009691 0.014068 -0.003639 0.000000 0.000000 0.000000
# 3 0.004318 -0.003639 0.016788 0.000000 0.000000 0.000000
# 4 0.000000 0.000000 0.000000 0.044598 0.000000 0.000000
# 5 0.000000 0.000000 0.000000 0.000000 -0.103170 0.000000
# 6 0.000000 0.000000 0.000000 0.000000 0.000000 0.021745
#
#
# Mechanical properties :
#
#
# Convention : Reuss Voigt Hill
#
# Bulk Modulus (GPa) = 29.71141 38.02896 33.87018
# Shear Modulus (GPa) = 113.38007 24.55874 68.96941
#
# Velocity S-wave (km/s) = 6.90181 3.21216 5.38298
# Velocity P-wave (km/s) = 8.71758 5.45295 7.27086
#
# Compressibility (1/GPa) = 0.03365711
#
# Stress axis : x y z
#
# Youngs Moduli (GPa) = 48.01585 71.08401 59.56736
#
# Poissons Ratio (x) = 0.68887 -0.25718
# Poissons Ratio (y) = 0.46532 0.21677
# Poissons Ratio (z) = -0.20731 0.25868
#
# Static dielectric constant tensor:
#      x y z
#    x 1.956180 0.000000 0.000000 
#    y 0.000000 1.973760 0.000000 
#    z 0.000000 0.000000 2.007740 
# 
# From -- ./inp_files/35465.got.cif
#   From: 2010.05.17/outbox.cif.g08.bks.cpg/sg53_18_cif.got.tgz:35465.got - 2010.06.03 12:45:16.
