data_PCOD9418637
_publ_section_title
;
Structure prediction by ZEFSAII (Michael W. Deem and Ramdas Pophale) SiO2 
 PCOD9418637
Probable space group: P M N A
;
_chemical_formula_sum "Si O2"
_cell_formula_units_Z 40
_cell_length_a 17.612641
_cell_length_b 9.384050
_cell_length_c 11.043842
_cell_angle_alpha 90.000000
_cell_angle_beta 90.000000
_cell_angle_gamma 90.000000
_cell_volume 1825.303055
_symmetry_space_group_name_H-M "P M N A"
_symmetry_group_IT_number 53
_symmetry_cell_setting 'orthorhombic'
loop_
_space_group_symop_operation_xyz
x,y,z
1/2-x,-y,1/2+z
x,-y,-z
1/2-x,y,1/2-z
-x,-y,-z
1/2+x,y,1/2-z
-x,y,z
1/2+x,-y,1/2+z
loop_
_atom_site_type_symbol
_atom_site_label
_atom_site_fract_x
_atom_site_fract_y
_atom_site_fract_z
Si Si1 0.696488 0.171396 0.642401
Si Si2 0.654706 0.835355 0.008857
Si Si3 0.084921 0.059470 0.136921
Si Si4 0.089685 0.326231 0.281316
Si Si5 0.090172 0.652913 0.264660
O O1 0.750000 0.225309 0.750000
O O2 0.754177 0.161298 0.532177
O O3 0.626675 0.279152 0.644051
O O4 0.657258 0.025292 0.687580
O O5 0.633655 0.755469 0.886523
O O6 0.615278 0.747109 0.118614
O O7 0.628916 0.000000 0.000000
O O8 0.095452 0.226217 0.162510
O O9 0.000000 0.023839 0.186938
O O10 0.084996 0.000000 0.000000
O O11 0.115380 0.488965 0.273398
O O12 0.000000 0.329968 0.313657
O O13 0.000000 0.656727 0.256978
#
# Coordination Sequence:
#
# PCOD9418637 Si02
#       5
#     8   8   8   8   8
#     4  10  21  38  56  83 120 158 200 247 307 376
#     4  11  22  37  59  90 126 162 207 260 322 387
#     4  10  21  39  62  86 114 154 205 255 306 368
#     4  10  21  39  64  92 122 159 208 268 325 379
#     4  10  21  39  63  92 125 162 209 263 321 385
#
# _framework density 21.914169000000001
#
# number of rings (size 3 to 8) (size 9 to 14) (size 15 to 20)
#    0.000    1.800    0.000    4.800    0.000    4.800 
#    0.000   22.000    0.000    4.800    0.000    0.000 
#    0.000    0.000    0.000    0.000    0.000    0.600 
#
# Total GULP energy -223074.945018 kJ/mol
# GULP energy per Si atom -5576.873625 kJ/mol
# Density = 2.186429 g / cm^3
# Si number density = 21.914169 Si / 1000 Ang^3
#
#
#
# Elastic Constant Matrix: (Units=GPa)
#
#
# Indices 1 2 3 4 5 6 
#
# 1 76.8449 49.1723 19.5673 0.0000 0.0000 0.0000
# 2 49.1723 196.9557 45.7295 0.0000 0.0000 0.0000
# 3 19.5673 45.7295 68.3270 0.0000 0.0000 0.0000
# 4 0.0000 0.0000 0.0000 25.9071 0.0000 0.0000
# 5 0.0000 0.0000 0.0000 0.0000 36.3970 0.0000
# 6 0.0000 0.0000 0.0000 0.0000 0.0000 -219.6463
#
#
#
# Elastic Compliance Matrix: (Units=1/GPa)
#
#
# Indices 1 2 3 4 5 6 
#
# 1 0.015769 -0.003420 -0.002227 0.000000 0.000000 0.000000
# 2 -0.003420 0.006753 -0.003540 0.000000 0.000000 0.000000
# 3 -0.002227 -0.003540 0.017643 0.000000 0.000000 0.000000
# 4 0.000000 0.000000 0.000000 0.038600 0.000000 0.000000
# 5 0.000000 0.000000 0.000000 0.000000 0.027475 0.000000
# 6 0.000000 0.000000 0.000000 0.000000 0.000000 -0.004553
#
#
# Mechanical properties :
#
#
# Convention : Reuss Voigt Hill
#
# Bulk Modulus (GPa) = 45.89222 63.45176 54.67199
# Shear Modulus (GPa) = 39.27008 -16.29122 11.48943
#
# Velocity S-wave (km/s) = 4.23779 -2.72951 2.29223
# Velocity P-wave (km/s) = 6.70316 4.36851 5.65757
#
# Compressibility (1/GPa) = 0.02179019
#
# Stress axis : x y z
#
# Youngs Moduli (GPa) = 63.41733 148.08119 56.68063
#
# Poissons Ratio (x) = 0.50640 0.12623
# Poissons Ratio (y) = 0.21687 0.20067
# Poissons Ratio (z) = 0.14123 0.52425
#
# Static dielectric constant tensor:
#      x y z
#    x 1.861280 0.000000 0.000000 
#    y 0.000000 1.811250 0.000000 
#    z 0.000000 0.000000 1.870680 
# 
# From -- ./inp_files/16650.got.cif
#   From: 2010.05.17/outbox.cif.g08.bks.cpg/sg53_9_cif.got.tgz:16650.got - 2010.06.03 12:45:16.
