data_PCOD9418889
_publ_section_title
;
Structure prediction by ZEFSAII (Michael W. Deem and Ramdas Pophale) SiO2 
 PCOD9418889
Probable space group: P M N A
;
_chemical_formula_sum "Si O2"
_cell_formula_units_Z 52
_cell_length_a 21.821759
_cell_length_b 21.321584
_cell_length_c 5.360068
_cell_angle_alpha 90.000000
_cell_angle_beta 90.000000
_cell_angle_gamma 90.000000
_cell_volume 2493.902785
_symmetry_space_group_name_H-M "P M N A"
_symmetry_group_IT_number 53
_symmetry_cell_setting 'orthorhombic'
loop_
_space_group_symop_operation_xyz
x,y,z
1/2-x,-y,1/2+z
x,-y,-z
1/2-x,y,1/2-z
-x,-y,-z
1/2+x,y,1/2-z
-x,y,z
1/2+x,-y,1/2+z
loop_
_atom_site_type_symbol
_atom_site_label
_atom_site_fract_x
_atom_site_fract_y
_atom_site_fract_z
Si Si1 0.930099 0.041989 0.249879
Si Si2 0.180709 0.434661 0.937802
Si Si3 0.678242 0.225067 0.731430
Si Si4 0.863523 0.342153 0.554690
Si Si5 0.321878 0.856445 0.768114
Si Si6 0.566973 0.439682 0.185950
Si Si7 0.250000 0.337560 0.250000
O O1 0.874167 0.090898 0.249565
O O2 0.000000 0.069311 0.250791
O O3 0.925053 0.000000 0.500000
O O4 0.925423 0.000000 0.000000
O O5 0.120743 0.439920 0.111657
O O6 0.223821 0.380586 0.034620
O O7 0.213136 0.500000 0.000000
O O8 0.161069 0.408144 0.671502
O O9 0.750000 0.245500 0.750000
O O10 0.634817 0.286195 0.747616
O O11 0.670852 0.189286 0.470423
O O12 0.669248 0.178665 0.966513
O O13 0.924493 0.370689 0.438192
O O14 0.813566 0.312231 0.362853
O O15 0.250000 0.878199 0.750000
O O16 0.500000 0.443425 0.302917
O O17 0.571307 0.500000 0.000000
#
# Coordination Sequence:
#
# PCOD9418889 Si02
#       7
#     8   8   8   8   8   8   4
#     4  10  21  39  66  98 134 172 209 254 309 362
#     4  11  22  34  54  82 106 141 185 246 316 377
#     4  10  22  38  62  86 126 165 208 254 306 368
#     4  11  23  39  57  84 109 156 199 248 313 377
#     4  10  22  39  62  95 128 173 213 255 304 360
#     4  10  22  40  57  77 107 145 196 254 319 387
#     4  10  24  32  56  78 116 138 184 246 310 388
#
# _framework density 20.850850999999999
#
# number of rings (size 3 to 8) (size 9 to 14) (size 15 to 20)
#    0.000    1.692    1.538    2.308    9.692    1.538 
#    0.000    1.538    0.000    0.000    0.000    0.000 
#    0.000    0.000    0.000    0.000    0.000    0.000 
#
# Total GULP energy -289670.502494 kJ/mol
# GULP energy per Si atom -5570.586586 kJ/mol
# Density = 2.080339 g / cm^3
# Si number density = 20.850851 Si / 1000 Ang^3
#
#
#
# Elastic Constant Matrix: (Units=GPa)
#
#
# Indices 1 2 3 4 5 6 
#
# 1 121.8129 57.8939 35.9545 0.0000 0.0000 0.0000
# 2 57.8939 93.5898 32.2915 0.0000 0.0000 0.0000
# 3 35.9545 32.2915 102.9094 0.0000 0.0000 0.0000
# 4 0.0000 0.0000 0.0000 28.7729 0.0000 0.0000
# 5 0.0000 0.0000 0.0000 0.0000 15.7007 0.0000
# 6 0.0000 0.0000 0.0000 0.0000 0.0000 13.9898
#
#
#
# Elastic Compliance Matrix: (Units=1/GPa)
#
#
# Indices 1 2 3 4 5 6 
#
# 1 0.012017 -0.006711 -0.002092 0.000000 0.000000 0.000000
# 2 -0.006711 0.015731 -0.002591 0.000000 0.000000 0.000000
# 3 -0.002092 -0.002591 0.011261 0.000000 0.000000 0.000000
# 4 0.000000 0.000000 0.000000 0.034755 0.000000 0.000000
# 5 0.000000 0.000000 0.000000 0.000000 0.063691 0.000000
# 6 0.000000 0.000000 0.000000 0.000000 0.000000 0.071481
#
#
# Mechanical properties :
#
#
# Convention : Reuss Voigt Hill
#
# Bulk Modulus (GPa) = 61.65780 63.39911 62.52845
# Shear Modulus (GPa) = 21.08530 24.50416 22.79473
#
# Velocity S-wave (km/s) = 3.18346 3.43185 3.30999
# Velocity P-wave (km/s) = 6.56868 6.79526 6.68293
#
# Compressibility (1/GPa) = 0.01621855
#
# Stress axis : x y z
#
# Youngs Moduli (GPa) = 83.21783 63.57027 88.79872
#
# Poissons Ratio (x) = 0.42665 0.18580
# Poissons Ratio (y) = 0.55851 0.23010
# Poissons Ratio (z) = 0.17413 0.16472
#
# Static dielectric constant tensor:
#      x y z
#    x 1.798530 0.000000 0.000000 
#    y 0.000000 1.789620 0.000000 
#    z 0.000000 0.000000 2.069440 
# 
# From -- ./inp_files/2998.got.cif
#   From: 2010.05.17/outbox.cif.g08.bks.cpg/sg53_2_cif.got.tgz:2998.got - 2010.06.03 12:45:16.
