data_PCOD9418323
_publ_section_title
;
Structure prediction by ZEFSAII (Michael W. Deem and Ramdas Pophale) SiO2 
 PCOD9418323
Probable space group: P M N A
;
_chemical_formula_sum "Si O2"
_cell_formula_units_Z 48
_cell_length_a 19.592076
_cell_length_b 21.640110
_cell_length_c 5.431472
_cell_angle_alpha 90.000000
_cell_angle_beta 90.000000
_cell_angle_gamma 90.000000
_cell_volume 2302.806602
_symmetry_space_group_name_H-M "P M N A"
_symmetry_group_IT_number 53
_symmetry_cell_setting 'orthorhombic'
loop_
_space_group_symop_operation_xyz
x,y,z
1/2-x,-y,1/2+z
x,-y,-z
1/2-x,y,1/2-z
-x,-y,-z
1/2+x,y,1/2-z
-x,y,z
1/2+x,-y,1/2+z
loop_
_atom_site_type_symbol
_atom_site_label
_atom_site_fract_x
_atom_site_fract_y
_atom_site_fract_z
Si Si1 0.417566 0.031245 0.254101
Si Si2 0.921628 0.706702 0.917385
Si Si3 0.830922 0.468604 0.744321
Si Si4 0.322764 0.765959 0.182464
Si Si5 0.182844 0.643483 0.595742
Si Si6 0.575422 0.165826 0.107406
O O1 0.500000 0.022721 0.254881
O O2 0.389957 0.000000 0.500000
O O3 0.406667 0.104913 0.257445
O O4 0.393021 0.000000 0.000000
O O5 0.884238 0.651667 0.766448
O O6 0.926242 0.769459 0.754556
O O7 0.000000 0.691650 0.992340
O O8 0.869880 0.727450 0.129762
O O9 0.861924 0.500000 0.500000
O O10 0.750000 0.482020 0.750000
O O11 0.831506 0.397265 0.649229
O O12 0.857006 0.500000 0.000000
O O13 0.250000 0.791884 0.250000
O O14 0.369330 0.821640 0.096919
O O15 0.302681 0.713529 0.983497
O O16 0.250000 0.621079 0.750000
O O17 0.500000 0.155967 0.999256
#
# Coordination Sequence:
#
# PCOD9418323 Si02
#       6
#     8   8   8   8   8   8
#     4   9  18  32  54  85 118 157 206 260 314 368
#     4  10  22  38  59  90 125 167 209 260 323 388
#     4  10  21  35  58  92 126 160 203 258 312 361
#     4  11  21  34  59  90 120 165 212 262 326 386
#     4  11  21  37  62  91 130 163 206 265 322 381
#     4   9  20  35  54  86 126 161 205 265 323 385
#
# _framework density 20.844131999999998
#
# number of rings (size 3 to 8) (size 9 to 14) (size 15 to 20)
#    0.000    2.000    1.667    2.500    4.667    0.667 
#    0.000    0.000    0.000    1.000    4.333    0.000 
#    0.000    0.667    0.000    0.000    0.000    0.000 
#
# Total GULP energy -267211.836259 kJ/mol
# GULP energy per Si atom -5566.913255 kJ/mol
# Density = 2.079669 g / cm^3
# Si number density = 20.844132 Si / 1000 Ang^3
#
#
#
# Elastic Constant Matrix: (Units=GPa)
#
#
# Indices 1 2 3 4 5 6 
#
# 1 120.5394 37.6299 49.5479 0.0000 0.0000 0.0000
# 2 37.6299 98.0425 41.4268 0.0000 0.0000 0.0000
# 3 49.5479 41.4268 121.5760 0.0000 0.0000 0.0000
# 4 0.0000 0.0000 0.0000 29.4852 0.0000 0.0000
# 5 0.0000 0.0000 0.0000 0.0000 22.6849 0.0000
# 6 0.0000 0.0000 0.0000 0.0000 0.0000 7.3764
#
#
#
# Elastic Compliance Matrix: (Units=1/GPa)
#
#
# Indices 1 2 3 4 5 6 
#
# 1 0.010502 -0.002596 -0.003396 0.000000 0.000000 0.000000
# 2 -0.002596 0.012557 -0.003221 0.000000 0.000000 0.000000
# 3 -0.003396 -0.003221 0.010707 0.000000 0.000000 0.000000
# 4 0.000000 0.000000 0.000000 0.033915 0.000000 0.000000
# 5 0.000000 0.000000 0.000000 0.000000 0.044082 0.000000
# 6 0.000000 0.000000 0.000000 0.000000 0.000000 0.135568
#
#
# Mechanical properties :
#
#
# Convention : Reuss Voigt Hill
#
# Bulk Modulus (GPa) = 65.18464 66.37413 65.77939
# Shear Modulus (GPa) = 18.45906 26.01285 22.23596
#
# Velocity S-wave (km/s) = 2.97909 3.53649 3.26969
# Velocity P-wave (km/s) = 6.57066 6.97050 6.77353
#
# Compressibility (1/GPa) = 0.01534104
#
# Stress axis : x y z
#
# Youngs Moduli (GPa) = 95.21777 79.63704 93.40046
#
# Poissons Ratio (x) = 0.20675 0.31714
# Poissons Ratio (y) = 0.24720 0.30082
# Poissons Ratio (z) = 0.32331 0.25649
#
# Static dielectric constant tensor:
#      x y z
#    x 1.775680 0.000000 0.000000 
#    y 0.000000 1.792750 0.000000 
#    z 0.000000 0.000000 2.900690 
# 
# From -- ./inp_files/2960.got.cif
#   From: 2010.05.17/outbox.cif.g08.bks.cpg/sg53_2_cif.got.tgz:2960.got - 2010.06.03 12:45:16.
