data_PCOD9418421
_publ_section_title
;
Structure prediction by ZEFSAII (Michael W. Deem and Ramdas Pophale) SiO2 
 PCOD9418421
Probable space group: P M N A
;
_chemical_formula_sum "Si O2"
_cell_formula_units_Z 48
_cell_length_a 29.723276
_cell_length_b 17.030560
_cell_length_c 5.231967
_cell_angle_alpha 90.000000
_cell_angle_beta 90.000000
_cell_angle_gamma 90.000000
_cell_volume 2648.442808
_symmetry_space_group_name_H-M "P M N A"
_symmetry_group_IT_number 53
_symmetry_cell_setting 'orthorhombic'
loop_
_space_group_symop_operation_xyz
x,y,z
1/2-x,-y,1/2+z
x,-y,-z
1/2-x,y,1/2-z
-x,-y,-z
1/2+x,y,1/2-z
-x,y,z
1/2+x,-y,1/2+z
loop_
_atom_site_type_symbol
_atom_site_label
_atom_site_fract_x
_atom_site_fract_y
_atom_site_fract_z
Si Si1 0.500000 0.689600 0.708829
Si Si2 0.052154 0.947410 0.746371
Si Si3 0.403138 0.460750 0.749328
Si Si4 0.635569 0.295690 0.821990
Si Si5 0.000000 0.580631 0.282296
Si Si6 0.904432 0.218585 0.178140
Si Si7 0.280633 0.406416 0.996540
O O1 0.500000 0.634207 0.465605
O O2 0.546362 0.738931 0.682419
O O3 0.500000 0.637760 0.969265
O O4 0.083754 0.873165 0.799338
O O5 0.000000 0.921172 0.701846
O O6 0.064869 0.000000 0.500000
O O7 0.052358 0.000000 0.000000
O O8 0.382679 0.500000 0.500000
O O9 0.396612 0.368762 0.757468
O O10 0.456179 0.472658 0.759648
O O11 0.384322 0.500000 0.000000
O O12 0.627406 0.243510 0.563591
O O13 0.619111 0.246290 0.062098
O O14 0.679512 0.343955 0.929486
O O15 0.250000 0.390082 0.250000
O O16 0.292656 0.500000 0.000000
O O17 0.250000 0.398343 0.750000
#
# Coordination Sequence:
#
# PCOD9418421 Si02
#       7
#     4   8   8   8   4   8   8
#     4  12  20  37  52  75 110 158 196 242 292 333
#     4  10  21  36  57  84 116 161 208 243 280 333
#     4  12  23  35  49  71 106 148 196 247 279 329
#     4  12  24  38  59  85 112 148 194 244 304 358
#     4  12  22  37  48  67 106 152 208 238 284 325
#     4  12  22  38  58  83 120 155 199 246 288 347
#     4  10  22  42  65  86 113 149 191 247 311 369
#
# _framework density 18.123857999999998
#
# number of rings (size 3 to 8) (size 9 to 14) (size 15 to 20)
#    0.000    0.667    4.167    5.000    0.000    2.000 
#    0.000    0.000    0.000    0.000    0.000    0.000 
#    0.000   37.333    0.000    0.000    0.000    0.000 
#
# Total GULP energy -267550.688963 kJ/mol
# GULP energy per Si atom -5573.972687 kJ/mol
# Density = 1.808261 g / cm^3
# Si number density = 18.123858 Si / 1000 Ang^3
#
#
#
# Elastic Constant Matrix: (Units=GPa)
#
#
# Indices 1 2 3 4 5 6 
#
# 1 88.2278 30.0735 40.4996 0.0000 0.0000 0.0000
# 2 30.0735 110.8469 64.1843 0.0000 0.0000 0.0000
# 3 40.4996 64.1843 189.8490 0.0000 0.0000 0.0000
# 4 0.0000 0.0000 0.0000 28.6297 0.0000 0.0000
# 5 0.0000 0.0000 0.0000 0.0000 21.9737 0.0000
# 6 0.0000 0.0000 0.0000 0.0000 0.0000 20.3874
#
#
#
# Elastic Compliance Matrix: (Units=1/GPa)
#
#
# Indices 1 2 3 4 5 6 
#
# 1 0.013059 -0.002400 -0.001974 0.000000 0.000000 0.000000
# 2 -0.002400 0.011658 -0.003430 0.000000 0.000000 0.000000
# 3 -0.001974 -0.003430 0.006848 0.000000 0.000000 0.000000
# 4 0.000000 0.000000 0.000000 0.034929 0.000000 0.000000
# 5 0.000000 0.000000 0.000000 0.000000 0.045509 0.000000
# 6 0.000000 0.000000 0.000000 0.000000 0.000000 0.049050
#
#
# Mechanical properties :
#
#
# Convention : Reuss Voigt Hill
#
# Bulk Modulus (GPa) = 62.66579 73.15983 67.91281
# Shear Modulus (GPa) = 27.47569 31.14258 29.30914
#
# Velocity S-wave (km/s) = 3.89780 4.14976 4.02575
# Velocity P-wave (km/s) = 7.41004 7.96335 7.69167
#
# Compressibility (1/GPa) = 0.01595767
#
# Stress axis : x y z
#
# Youngs Moduli (GPa) = 76.57809 85.77568 146.02770
#
# Poissons Ratio (x) = 0.20583 0.28833
# Poissons Ratio (y) = 0.18376 0.50081
# Poissons Ratio (z) = 0.15120 0.29417
#
# Static dielectric constant tensor:
#      x y z
#    x 1.635770 0.000000 0.000000 
#    y 0.000000 1.616960 0.000000 
#    z 0.000000 0.000000 1.663400 
# 
# From -- ./inp_files/4522.got.cif
#   From: 2010.05.17/outbox.cif.g08.bks.cpg/sg53_3_cif.got.tgz:4522.got - 2010.06.03 12:45:16.
