data_PCOD9418235
_publ_section_title
;
Structure prediction by ZEFSAII (Michael W. Deem and Ramdas Pophale) SiO2 
 PCOD9418235
Probable space group: P M N A
;
_chemical_formula_sum "Si O2"
_cell_formula_units_Z 64
_cell_length_a 17.545488
_cell_length_b 5.359655
_cell_length_c 36.285027
_cell_angle_alpha 90.000000
_cell_angle_beta 90.000000
_cell_angle_gamma 90.000000
_cell_volume 3412.162751
_symmetry_space_group_name_H-M "P M N A"
_symmetry_group_IT_number 53
_symmetry_cell_setting 'orthorhombic'
loop_
_space_group_symop_operation_xyz
x,y,z
1/2-x,-y,1/2+z
x,-y,-z
1/2-x,y,1/2-z
-x,-y,-z
1/2+x,y,1/2-z
-x,y,z
1/2+x,-y,1/2+z
loop_
_atom_site_type_symbol
_atom_site_label
_atom_site_fract_x
_atom_site_fract_y
_atom_site_fract_z
Si Si1 0.908688 0.499989 0.836094
Si Si2 0.801774 0.499953 0.458089
Si Si3 0.658023 0.500019 0.744908
Si Si4 0.090564 0.000014 0.117862
Si Si5 0.090266 0.499965 0.387774
Si Si6 0.825678 0.999980 0.275344
Si Si7 0.225428 0.000046 0.930469
Si Si8 0.333263 0.000034 0.859847
O O1 0.864157 0.500008 0.797700
O O2 0.890422 0.749458 0.859147
O O3 0.000000 0.500000 0.828982
O O4 0.890426 0.250498 0.859142
O O5 0.829822 0.500000 0.500000
O O6 0.868788 0.499961 0.427764
O O7 0.752765 0.250025 0.450765
O O8 0.752750 0.749843 0.450759
O O9 0.750000 0.500022 0.750000
O O10 0.629929 0.750436 0.764490
O O11 0.629929 0.249606 0.764491
O O12 0.137151 0.999990 0.080028
O O13 0.000000 0.000018 0.111917
O O14 0.118622 0.749236 0.367167
O O15 0.000000 0.499976 0.391431
O O16 0.118617 0.250685 0.367168
O O17 0.750000 0.999978 0.250000
O O18 0.804379 0.999978 0.318079
O O19 0.267295 0.000031 0.890500
#
# Coordination Sequence:
#
# PCOD9418235 Si02
#       8
#     8   8   8   8   8   8   8   8
#     4  10  21  36  52  76 109 144 183 242 294 329
#     4  10  21  39  61  92 122 150 187 229 276 332
#     4  10  21  32  51  75 103 140 189 238 284 343
#     4  10  21  36  59  84 111 144 185 232 285 338
#     4  10  21  39  60  86 118 154 192 233 283 343
#     4  10  21  35  50  78 104 143 193 243 283 335
#     4  10  21  35  61  88 114 152 185 237 279 332
#     4  10  21  36  57  84 111 146 202 241 285 330
#
# _framework density 18.756432
#
# number of rings (size 3 to 8) (size 9 to 14) (size 15 to 20)
#    0.000    2.000    0.000    3.000    7.000    0.250 
#    0.000    3.750    0.000    6.750    0.000    0.000 
#    0.000    0.000    0.000    0.000    0.000    0.000 
#
# Total GULP energy -357290.574998 kJ/mol
# GULP energy per Si atom -5582.665234 kJ/mol
# Density = 1.871374 g / cm^3
# Si number density = 18.756432 Si / 1000 Ang^3
#
#
#
# Elastic Constant Matrix: (Units=GPa)
#
#
# Indices 1 2 3 4 5 6 
#
# 1 44.6815 26.7455 27.7299 0.0000 0.0000 0.0000
# 2 26.7455 180.6310 38.5710 0.0000 0.0000 0.0000
# 3 27.7299 38.5710 114.1572 0.0000 0.0000 0.0000
# 4 0.0000 0.0000 0.0000 13.2672 0.0000 0.0000
# 5 0.0000 0.0000 0.0000 0.0000 16.1589 0.0000
# 6 0.0000 0.0000 0.0000 0.0000 0.0000 3.6115
#
#
#
# Elastic Compliance Matrix: (Units=1/GPa)
#
#
# Indices 1 2 3 4 5 6 
#
# 1 0.027667 -0.002868 -0.005751 0.000000 0.000000 0.000000
# 2 -0.002868 0.006264 -0.001420 0.000000 0.000000 0.000000
# 3 -0.005751 -0.001420 0.010637 0.000000 0.000000 0.000000
# 4 0.000000 0.000000 0.000000 0.075374 0.000000 0.000000
# 5 0.000000 0.000000 0.000000 0.000000 0.061886 0.000000
# 6 0.000000 0.000000 0.000000 0.000000 0.000000 0.276896
#
#
# Mechanical properties :
#
#
# Convention : Reuss Voigt Hill
#
# Bulk Modulus (GPa) = 40.83542 58.39584 49.61563
# Shear Modulus (GPa) = 10.26769 23.03573 16.65171
#
# Velocity S-wave (km/s) = 2.34224 3.50830 2.98281
# Velocity P-wave (km/s) = 5.39755 6.90016 6.19458
#
# Compressibility (1/GPa) = 0.02448855
#
# Stress axis : x y z
#
# Youngs Moduli (GPa) = 36.14410 159.64178 94.01488
#
# Poissons Ratio (x) = 0.45792 0.54072
# Poissons Ratio (y) = 0.10368 0.13347
# Poissons Ratio (z) = 0.20788 0.22664
#
# Static dielectric constant tensor:
#      x y z
#    x 1.621150 0.000000 0.000000 
#    y 0.000000 1.645600 0.000000 
#    z 0.000000 0.000000 1.620120 
# 
# From -- ./inp_files/39047.got.cif
#   From: 2010.05.17/outbox.cif.g08.bks.cpg/sg53_20_cif.got.tgz:39047.got - 2010.06.03 12:45:16.
