data_PCOD9418986
_publ_section_title
;
Structure prediction by ZEFSAII (Michael W. Deem and Ramdas Pophale) SiO2 
 PCOD9418986
Probable space group: P M N A
;
_chemical_formula_sum "Si O2"
_cell_formula_units_Z 56
_cell_length_a 20.136584
_cell_length_b 15.650215
_cell_length_c 8.695465
_cell_angle_alpha 90.000000
_cell_angle_beta 90.000000
_cell_angle_gamma 90.000000
_cell_volume 2740.305092
_symmetry_space_group_name_H-M "P M N A"
_symmetry_group_IT_number 53
_symmetry_cell_setting 'orthorhombic'
loop_
_space_group_symop_operation_xyz
x,y,z
1/2-x,-y,1/2+z
x,-y,-z
1/2-x,y,1/2-z
-x,-y,-z
1/2+x,y,1/2-z
-x,y,z
1/2+x,-y,1/2+z
loop_
_atom_site_type_symbol
_atom_site_label
_atom_site_fract_x
_atom_site_fract_y
_atom_site_fract_z
Si Si1 0.820480 0.158047 0.168618
Si Si2 0.143728 0.488776 0.830383
Si Si3 0.576944 0.988765 0.686208
Si Si4 0.356103 0.328529 0.169062
Si Si5 0.500000 0.637873 0.943268
Si Si6 0.000000 0.461060 0.747868
Si Si7 0.325985 0.142357 0.699897
Si Si8 0.682105 0.685704 0.167531
O O1 0.750000 0.135708 0.250000
O O2 0.880290 0.096066 0.222217
O O3 0.837216 0.255088 0.213723
O O4 0.819482 0.151176 0.984449
O O5 0.152156 0.577394 0.740161
O O6 0.066021 0.465754 0.845885
O O7 0.165777 0.408334 0.729304
O O8 0.173967 0.500000 0.000000
O O9 0.500000 0.987129 0.739290
O O10 0.574585 0.000000 0.500000
O O11 0.622521 0.067452 0.741015
O O12 0.432087 0.319273 0.110552
O O13 0.313602 0.317848 0.014814
O O14 0.500000 0.546362 0.856593
O O15 0.500000 0.616383 0.124915
O O16 0.250000 0.121144 0.750000
O O17 0.356101 0.229687 0.775159
O O18 0.750000 0.705639 0.250000
#
# Coordination Sequence:
#
# PCOD9418986 Si02
#       8
#     8   8   8   8   4   4   8   8
#     4  11  22  38  66  96 125 169 209 254 316 381
#     4  11  22  37  59  90 123 164 211 261 311 374
#     4   9  20  40  65  95 127 159 204 262 317 368
#     4  11  23  40  63  90 128 166 212 262 317 373
#     4   9  18  36  62  84 117 165 200 262 319 361
#     4   9  17  36  58  82 115 158 211 249 313 374
#     4  10  21  41  64  89 128 168 210 256 311 382
#     4  11  23  39  59  86 123 167 209 260 314 373
#
# _framework density 20.435682
#
# number of rings (size 3 to 8) (size 9 to 14) (size 15 to 20)
#    0.000    1.714    1.429    3.643    1.000    1.714 
#    2.571    2.143    0.000    3.429    0.000    0.000 
#    0.000    0.000    0.000    0.000    0.000    0.000 
#
# Total GULP energy -312343.176401 kJ/mol
# GULP energy per Si atom -5577.556721 kJ/mol
# Density = 2.038917 g / cm^3
# Si number density = 20.435682 Si / 1000 Ang^3
#
#
#
# Elastic Constant Matrix: (Units=GPa)
#
#
# Indices 1 2 3 4 5 6 
#
# 1 95.4073 39.4013 9.5647 0.0000 0.0000 0.0000
# 2 39.4013 133.8088 15.2739 0.0000 0.0000 0.0000
# 3 9.5647 15.2739 70.0889 0.0000 0.0000 0.0000
# 4 0.0000 0.0000 0.0000 18.9934 0.0000 0.0000
# 5 0.0000 0.0000 0.0000 0.0000 30.9541 0.0000
# 6 0.0000 0.0000 0.0000 0.0000 0.0000 23.8925
#
#
#
# Elastic Compliance Matrix: (Units=1/GPa)
#
#
# Indices 1 2 3 4 5 6 
#
# 1 0.011986 -0.003428 -0.000889 0.000000 0.000000 0.000000
# 2 -0.003428 0.008644 -0.001416 0.000000 0.000000 0.000000
# 3 -0.000889 -0.001416 0.014697 0.000000 0.000000 0.000000
# 4 0.000000 0.000000 0.000000 0.052650 0.000000 0.000000
# 5 0.000000 0.000000 0.000000 0.000000 0.032306 0.000000
# 6 0.000000 0.000000 0.000000 0.000000 0.000000 0.041854
#
#
# Mechanical properties :
#
#
# Convention : Reuss Voigt Hill
#
# Bulk Modulus (GPa) = 41.90645 47.53165 44.71905
# Shear Modulus (GPa) = 27.53951 30.43902 28.98926
#
# Velocity S-wave (km/s) = 3.67498 3.86360 3.77047
# Velocity P-wave (km/s) = 6.20953 6.57364 6.39418
#
# Compressibility (1/GPa) = 0.02386267
#
# Stress axis : x y z
#
# Youngs Moduli (GPa) = 83.42957 115.68199 68.03901
#
# Poissons Ratio (x) = 0.39656 0.06046
# Poissons Ratio (y) = 0.28600 0.09634
# Poissons Ratio (z) = 0.07414 0.16381
#
# Static dielectric constant tensor:
#      x y z
#    x 1.705590 0.000000 0.000000 
#    y 0.000000 1.787290 0.000000 
#    z 0.000000 0.000000 1.692330 
# 
# From -- ./inp_files/11119.got.cif
#   From: 2010.05.17/outbox.cif.g08.bks.cpg/sg53_6_cif.got.tgz:11119.got - 2010.06.03 12:45:16.
