data_PCOD9418996
_publ_section_title
;
Structure prediction by ZEFSAII (Michael W. Deem and Ramdas Pophale) SiO2 
 PCOD9418996
Probable space group: P M N A
;
_chemical_formula_sum "Si O2"
_cell_formula_units_Z 40
_cell_length_a 15.061877
_cell_length_b 7.680454
_cell_length_c 16.043918
_cell_angle_alpha 90.000000
_cell_angle_beta 90.000000
_cell_angle_gamma 90.000000
_cell_volume 1855.993380
_symmetry_space_group_name_H-M "P M N A"
_symmetry_group_IT_number 53
_symmetry_cell_setting 'orthorhombic'
loop_
_space_group_symop_operation_xyz
x,y,z
1/2-x,-y,1/2+z
x,-y,-z
1/2-x,y,1/2-z
-x,-y,-z
1/2+x,y,1/2-z
-x,y,z
1/2+x,-y,1/2+z
loop_
_atom_site_type_symbol
_atom_site_label
_atom_site_fract_x
_atom_site_fract_y
_atom_site_fract_z
Si Si1 0.594593 0.617911 0.080925
Si Si2 0.100398 0.698948 0.885463
Si Si3 0.142832 0.587806 0.247105
Si Si4 0.271349 0.186295 0.532989
Si Si5 0.156754 0.045315 0.798009
O O1 0.500000 0.714937 0.084342
O O2 0.606060 0.511077 0.166719
O O3 0.590710 0.500000 0.000000
O O4 0.685626 0.719316 0.068024
O O5 0.113862 0.523620 0.832290
O O6 0.172411 0.720335 0.959823
O O7 0.000000 0.705627 0.919190
O O8 0.113208 0.861475 0.821236
O O9 0.250000 0.586443 0.250000
O O10 0.113201 0.791310 0.249839
O O11 0.330539 0.137537 0.612223
O O12 0.240269 0.000000 0.500000
O O13 0.250000 0.010103 0.750000
#
# Coordination Sequence:
#
# PCOD9418996 Si02
#       5
#     8   8   8   8   8
#     4  11  23  40  64  95 129 168 221 276 327 392
#     4  11  25  41  66 102 135 173 221 274 334 399
#     4  11  21  42  71  92 131 179 218 271 337 393
#     4  10  22  42  66  92 131 170 216 268 335 392
#     4  10  21  41  66  94 127 177 218 267 324 393
#
# _framework density 21.551801000000001
#
# number of rings (size 3 to 8) (size 9 to 14) (size 15 to 20)
#    0.000    1.400    4.000    2.400    0.000    7.200 
#    0.000    1.000    0.000    0.000    0.000    0.000 
#    0.000    0.000    0.000    0.000    0.000    0.000 
#
# Total GULP energy -223078.812793 kJ/mol
# GULP energy per Si atom -5576.970320 kJ/mol
# Density = 2.150275 g / cm^3
# Si number density = 21.551801 Si / 1000 Ang^3
#
#
#
# Elastic Constant Matrix: (Units=GPa)
#
#
# Indices 1 2 3 4 5 6 
#
# 1 96.5370 23.7493 11.2218 0.0000 0.0000 0.0000
# 2 23.7493 60.9780 2.9449 0.0000 0.0000 0.0000
# 3 11.2218 2.9449 93.5090 0.0000 0.0000 0.0000
# 4 0.0000 0.0000 0.0000 29.1660 0.0000 0.0000
# 5 0.0000 0.0000 0.0000 0.0000 -17.2437 0.0000
# 6 0.0000 0.0000 0.0000 0.0000 0.0000 28.2498
#
#
#
# Elastic Compliance Matrix: (Units=1/GPa)
#
#
# Indices 1 2 3 4 5 6 
#
# 1 0.011601 -0.004458 -0.001252 0.000000 0.000000 0.000000
# 2 -0.004458 0.018137 -0.000036 0.000000 0.000000 0.000000
# 3 -0.001252 -0.000036 0.010846 0.000000 0.000000 0.000000
# 4 0.000000 0.000000 0.000000 0.034286 0.000000 0.000000
# 5 0.000000 0.000000 0.000000 0.000000 -0.057992 0.000000
# 6 0.000000 0.000000 0.000000 0.000000 0.000000 0.035399
#
#
# Mechanical properties :
#
#
# Convention : Reuss Voigt Hill
#
# Bulk Modulus (GPa) = 34.37363 36.31733 35.34548
# Shear Modulus (GPa) = 68.05906 22.24161 45.15034
#
# Velocity S-wave (km/s) = 5.62564 3.21597 4.58205
# Velocity P-wave (km/s) = 7.62765 5.53875 6.66554
#
# Compressibility (1/GPa) = 0.02909207
#
# Stress axis : x y z
#
# Youngs Moduli (GPa) = 86.20008 55.13498 92.20394
#
# Poissons Ratio (x) = 0.24578 0.11542
# Poissons Ratio (y) = 0.38426 0.00334
# Poissons Ratio (z) = 0.10791 0.00200
#
# Static dielectric constant tensor:
#      x y z
#    x 1.823940 0.000000 0.000000 
#    y 0.000000 1.965660 0.000000 
#    z 0.000000 0.000000 1.938190 
# 
# From -- ./inp_files/22454.got.cif
#   From: 2010.05.17/outbox.cif.g08.bks.cpg/sg53_12_cif.got.tgz:22454.got - 2010.06.03 12:45:16.
