data_PCOD9418827
_publ_section_title
;
Structure prediction by ZEFSAII (Michael W. Deem and Ramdas Pophale) SiO2 
 PCOD9418827
Probable space group: P M N A
;
_chemical_formula_sum "Si O2"
_cell_formula_units_Z 32
_cell_length_a 23.229320
_cell_length_b 7.795294
_cell_length_c 8.336723
_cell_angle_alpha 90.000000
_cell_angle_beta 90.000000
_cell_angle_gamma 90.000000
_cell_volume 1509.608622
_symmetry_space_group_name_H-M "P M N A"
_symmetry_group_IT_number 53
_symmetry_cell_setting 'orthorhombic'
loop_
_space_group_symop_operation_xyz
x,y,z
1/2-x,-y,1/2+z
x,-y,-z
1/2-x,y,1/2-z
-x,-y,-z
1/2+x,y,1/2-z
-x,y,z
1/2+x,-y,1/2+z
loop_
_atom_site_type_symbol
_atom_site_label
_atom_site_fract_x
_atom_site_fract_y
_atom_site_fract_z
Si Si1 0.171975 0.173002 0.355503
Si Si2 0.435366 0.700615 0.055215
Si Si3 0.619913 0.125371 0.647846
Si Si4 0.715837 0.685845 0.543228
O O1 0.115707 0.215368 0.454787
O O2 0.230748 0.183516 0.455392
O O3 0.157115 0.001628 0.259791
O O4 0.186251 0.312155 0.217870
O O5 0.500000 0.759608 0.013683
O O6 0.422950 0.764381 0.238706
O O7 0.433021 0.500000 0.000000
O O8 0.665488 0.256022 0.573292
O O9 0.597840 0.000000 0.500000
O O10 0.738543 0.500000 0.500000
#
# Coordination Sequence:
#
# PCOD9418827 Si02
#       4
#     8   8   8   8
#     4  10  22  38  60  91 122 159 201 247 304 365
#     4  11  24  42  63  87 118 160 208 253 301 364
#     4  10  23  40  62  90 124 159 201 254 310 369
#     4  10  21  39  62  90 124 158 197 248 307 365
#
# _framework density 21.197547
#
# number of rings (size 3 to 8) (size 9 to 14) (size 15 to 20)
#    0.000    1.750    0.000    3.000    0.000   17.500 
#    0.000    3.750    0.000   13.500    0.000    0.000 
#    0.000    0.000    0.000    0.000    0.000    0.000 
#
# Total GULP energy -178427.514436 kJ/mol
# GULP energy per Si atom -5575.859826 kJ/mol
# Density = 2.114930 g / cm^3
# Si number density = 21.197547 Si / 1000 Ang^3
#
#
#
# Elastic Constant Matrix: (Units=GPa)
#
#
# Indices 1 2 3 4 5 6 
#
# 1 119.8459 1.6890 64.2874 0.0000 0.0000 0.0000
# 2 1.6890 86.3882 48.2881 0.0000 0.0000 0.0000
# 3 64.2874 48.2881 94.8254 0.0000 0.0000 0.0000
# 4 0.0000 0.0000 0.0000 36.6852 0.0000 0.0000
# 5 0.0000 0.0000 0.0000 0.0000 -259.8282 0.0000
# 6 0.0000 0.0000 0.0000 0.0000 0.0000 39.5416
#
#
#
# Elastic Compliance Matrix: (Units=1/GPa)
#
#
# Indices 1 2 3 4 5 6 
#
# 1 0.016485 0.008282 -0.015393 0.000000 0.000000 0.000000
# 2 0.008282 0.020343 -0.015974 0.000000 0.000000 0.000000
# 3 -0.015393 -0.015974 0.029116 0.000000 0.000000 0.000000
# 4 0.000000 0.000000 0.000000 0.027259 0.000000 0.000000
# 5 0.000000 0.000000 0.000000 0.000000 -0.003849 0.000000
# 6 0.000000 0.000000 0.000000 0.000000 0.000000 0.025290
#
#
# Mechanical properties :
#
#
# Convention : Reuss Voigt Hill
#
# Bulk Modulus (GPa) = 50.57433 58.84316 54.70874
# Shear Modulus (GPa) = 29.86779 -24.26729 2.80025
#
# Velocity S-wave (km/s) = 3.75777 -3.38718 1.15061
# Velocity P-wave (km/s) = 6.53744 3.53869 5.25645
#
# Compressibility (1/GPa) = 0.01977288
#
# Stress axis : x y z
#
# Youngs Moduli (GPa) = 60.66301 49.15793 34.34537
#
# Poissons Ratio (x) = -0.40713 0.52869
# Poissons Ratio (y) = -0.50241 0.54863
# Poissons Ratio (z) = 0.93380 0.78524
#
# Static dielectric constant tensor:
#      x y z
#    x 1.700170 0.000000 0.000000 
#    y 0.000000 1.786520 0.000000 
#    z 0.000000 0.000000 1.855020 
# 
# From -- ./inp_files/10470.got.cif
#   From: 2010.05.17/outbox.cif.g08.bks.cpg/sg53_6_cif.got.tgz:10470.got - 2010.06.03 12:45:16.
