data_PCOD9418712
_publ_section_title
;
Structure prediction by ZEFSAII (Michael W. Deem and Ramdas Pophale) SiO2 
 PCOD9418712
Probable space group: P M N A
;
_chemical_formula_sum "Si O2"
_cell_formula_units_Z 40
_cell_length_a 14.365021
_cell_length_b 12.595032
_cell_length_c 11.721693
_cell_angle_alpha 90.000000
_cell_angle_beta 90.000000
_cell_angle_gamma 90.000000
_cell_volume 2120.781289
_symmetry_space_group_name_H-M "P M N A"
_symmetry_group_IT_number 53
_symmetry_cell_setting 'orthorhombic'
loop_
_space_group_symop_operation_xyz
x,y,z
1/2-x,-y,1/2+z
x,-y,-z
1/2-x,y,1/2-z
-x,-y,-z
1/2+x,y,1/2-z
-x,y,z
1/2+x,-y,1/2+z
loop_
_atom_site_type_symbol
_atom_site_label
_atom_site_fract_x
_atom_site_fract_y
_atom_site_fract_z
Si Si1 0.338605 0.385175 0.667592
Si Si2 0.241749 0.321860 0.069766
Si Si3 0.780911 0.890846 0.437442
Si Si4 0.106851 0.388091 0.256881
Si Si5 0.895806 0.151127 0.788188
O O1 0.250000 0.374918 0.750000
O O2 0.300192 0.382390 0.539160
O O3 0.387831 0.493631 0.703628
O O4 0.395336 0.277380 0.686581
O O5 0.159935 0.315449 0.163839
O O6 0.327873 0.380789 0.131328
O O7 0.274604 0.207838 0.024109
O O8 0.680503 0.896839 0.374359
O O9 0.855363 0.866282 0.338422
O O10 0.801962 0.000000 0.500000
O O11 0.000000 0.359123 0.277381
O O12 0.000000 0.109182 0.800893
#
# Coordination Sequence:
#
# PCOD9418712 Si02
#       5
#     8   8   8   8   8
#     4  11  19  39  62  86 118 161 195 239 286 353
#     4  10  22  40  60  81 123 156 198 242 292 354
#     4  10  22  41  62  84 115 156 195 249 304 341
#     4  11  24  37  59  92 124 158 192 237 297 354
#     4  10  21  38  61  89 115 149 202 245 288 354
#
# _framework density 18.860973999999999
#
# number of rings (size 3 to 8) (size 9 to 14) (size 15 to 20)
#    0.000    1.600    6.000    1.200    0.000    9.600 
#    0.000    3.000    0.000    0.000    0.000    0.000 
#    0.000    0.000    0.000    0.000    0.000    0.000 
#
# Total GULP energy -223255.222174 kJ/mol
# GULP energy per Si atom -5581.380554 kJ/mol
# Density = 1.881805 g / cm^3
# Si number density = 18.860974 Si / 1000 Ang^3
#
#
#
# Elastic Constant Matrix: (Units=GPa)
#
#
# Indices 1 2 3 4 5 6 
#
# 1 131.7636 -4.1045 51.2187 0.0000 0.0000 0.0000
# 2 -4.1045 79.2238 52.2777 0.0000 0.0000 0.0000
# 3 51.2187 52.2777 117.0587 0.0000 0.0000 0.0000
# 4 0.0000 0.0000 0.0000 26.6279 0.0000 0.0000
# 5 0.0000 0.0000 0.0000 0.0000 4.1886 0.0000
# 6 0.0000 0.0000 0.0000 0.0000 0.0000 930.6787
#
#
#
# Elastic Compliance Matrix: (Units=1/GPa)
#
#
# Indices 1 2 3 4 5 6 
#
# 1 0.010381 0.005012 -0.006781 0.000000 0.000000 0.000000
# 2 0.005012 0.020316 -0.011266 0.000000 0.000000 0.000000
# 3 -0.006781 -0.011266 0.016541 0.000000 0.000000 0.000000
# 4 0.000000 0.000000 0.000000 0.037555 0.000000 0.000000
# 5 0.000000 0.000000 0.000000 0.000000 0.238744 0.000000
# 6 0.000000 0.000000 0.000000 0.000000 0.000000 0.001074
#
#
# Mechanical properties :
#
#
# Convention : Reuss Voigt Hill
#
# Bulk Modulus (GPa) = 47.23830 58.53666 52.88748
# Shear Modulus (GPa) = 13.97669 207.54263 110.75966
#
# Velocity S-wave (km/s) = 2.72515 10.50129 7.67149
# Velocity P-wave (km/s) = 5.91624 13.34688 10.32330
#
# Compressibility (1/GPa) = 0.02116926
#
# Stress axis : x y z
#
# Youngs Moduli (GPa) = 96.32725 49.22111 60.45553
#
# Poissons Ratio (x) = -0.24671 0.40993
# Poissons Ratio (y) = -0.48282 0.68111
# Poissons Ratio (z) = 0.65317 0.55454
#
# Static dielectric constant tensor:
#      x y z
#    x 1.648890 0.000000 0.000000 
#    y 0.000000 1.661280 0.000000 
#    z 0.000000 0.000000 1.665110 
# 
# From -- ./inp_files/15780.got.cif
#   From: 2010.05.17/outbox.cif.g08.bks.cpg/sg53_8_cif.got.tgz:15780.got - 2010.06.03 12:45:16.
