data_PCOD9418574
_publ_section_title
;
Structure prediction by ZEFSAII (Michael W. Deem and Ramdas Pophale) SiO2 
 PCOD9418574
Probable space group: P M N A
;
_chemical_formula_sum "Si O2"
_cell_formula_units_Z 48
_cell_length_a 8.769108
_cell_length_b 15.519690
_cell_length_c 17.863141
_cell_angle_alpha 90.000000
_cell_angle_beta 90.000000
_cell_angle_gamma 90.000000
_cell_volume 2431.063413
_symmetry_space_group_name_H-M "P M N A"
_symmetry_group_IT_number 53
_symmetry_cell_setting 'orthorhombic'
loop_
_space_group_symop_operation_xyz
x,y,z
1/2-x,-y,1/2+z
x,-y,-z
1/2-x,y,1/2-z
-x,-y,-z
1/2+x,y,1/2-z
-x,y,z
1/2+x,-y,1/2+z
loop_
_atom_site_type_symbol
_atom_site_label
_atom_site_fract_x
_atom_site_fract_y
_atom_site_fract_z
Si Si1 0.183142 0.136808 0.077672
Si Si2 0.681773 0.651024 0.167588
Si Si3 0.681357 0.016328 0.829827
Si Si4 0.682364 0.817902 0.405440
Si Si5 0.683657 0.691187 0.666950
Si Si6 0.684006 0.486134 0.412976
O O1 0.228857 0.220178 0.126351
O O2 0.000000 0.124416 0.085137
O O3 0.266252 0.052950 0.108729
O O4 0.215199 0.155753 0.990973
O O5 0.750000 0.664474 0.250000
O O6 0.500000 0.654372 0.170611
O O7 0.745868 0.726371 0.114781
O O8 0.737744 0.559612 0.136126
O O9 0.750000 0.989134 0.750000
O O10 0.500000 0.020783 0.825318
O O11 0.749436 0.108752 0.852153
O O12 0.500000 0.813519 0.396261
O O13 0.750000 0.685235 0.750000
O O14 0.500000 0.691298 0.671579
O O15 0.727512 0.608103 0.617541
O O16 0.723268 0.500000 0.500000
O O17 0.500000 0.494653 0.406285
#
# Coordination Sequence:
#
# PCOD9418574 Si02
#       6
#     8   8   8   8   8   8
#     4  10  22  41  64  90 120 158 201 245 299 361
#     4  12  25  41  62  90 124 161 205 254 305 362
#     4  12  25  41  62  90 124 160 201 248 299 357
#     4  11  23  42  66  90 120 158 201 250 305 363
#     4  10  21  37  59  87 118 154 197 243 293 351
#     4  10  21  40  64  89 120 160 204 250 303 362
#
# _framework density 19.744444999999999
#
# number of rings (size 3 to 8) (size 9 to 14) (size 15 to 20)
#    0.000    1.167    0.000    6.500    0.000   10.333 
#    0.000    1.667    0.000    0.000    0.000    0.000 
#    0.000    0.000    0.000    0.000    0.000    0.000 
#
# Total GULP energy -268642.357454 kJ/mol
# GULP energy per Si atom -5596.715780 kJ/mol
# Density = 1.969951 g / cm^3
# Si number density = 19.744445 Si / 1000 Ang^3
#
#
#
# Elastic Constant Matrix: (Units=GPa)
#
#
# Indices 1 2 3 4 5 6 
#
# 1 51.8632 10.5989 20.7490 0.0000 0.0000 0.0000
# 2 10.5989 64.4248 -22.2897 0.0000 0.0000 0.0000
# 3 20.7490 -22.2897 58.1914 0.0000 0.0000 0.0000
# 4 0.0000 0.0000 0.0000 47.1271 0.0000 0.0000
# 5 0.0000 0.0000 0.0000 0.0000 6.2379 0.0000
# 6 0.0000 0.0000 0.0000 0.0000 0.0000 32.0252
#
#
#
# Elastic Compliance Matrix: (Units=1/GPa)
#
#
# Indices 1 2 3 4 5 6 
#
# 1 0.026103 -0.008663 -0.012625 0.000000 0.000000 0.000000
# 2 -0.008663 0.020768 0.011044 0.000000 0.000000 0.000000
# 3 -0.012625 0.011044 0.025917 0.000000 0.000000 0.000000
# 4 0.000000 0.000000 0.000000 0.021219 0.000000 0.000000
# 5 0.000000 0.000000 0.000000 0.000000 0.160310 0.000000
# 6 0.000000 0.000000 0.000000 0.000000 0.000000 0.031225
#
#
# Mechanical properties :
#
#
# Convention : Reuss Voigt Hill
#
# Bulk Modulus (GPa) = 19.12076 21.39952 20.26014
# Shear Modulus (GPa) = 15.45770 28.10612 21.78191
#
# Velocity S-wave (km/s) = 2.80105 3.77702 3.32504
# Velocity P-wave (km/s) = 4.49069 5.46653 5.00246
#
# Compressibility (1/GPa) = 0.05229919
#
# Stress axis : x y z
#
# Youngs Moduli (GPa) = 38.30995 48.15089 38.58520
#
# Poissons Ratio (x) = 0.41711 0.48716
# Poissons Ratio (y) = 0.33186 -0.42613
# Poissons Ratio (z) = 0.48368 -0.53177
#
# Static dielectric constant tensor:
#      x y z
#    x 1.660940 0.000000 0.000000 
#    y 0.000000 1.662830 0.000000 
#    z 0.000000 0.000000 1.668960 
# 
# From -- ./inp_files/26227.got.cif
#   From: 2010.05.17/outbox.cif.g08.bks.cpg/sg53_14_cif.got.tgz:26227.got - 2010.06.03 12:45:16.
