data_PCOD9418787
_publ_section_title
;
Structure prediction by ZEFSAII (Michael W. Deem and Ramdas Pophale) SiO2 
 PCOD9418787
Probable space group: P M N A
;
_chemical_formula_sum "Si O2"
_cell_formula_units_Z 56
_cell_length_a 24.367281
_cell_length_b 5.043389
_cell_length_c 25.054551
_cell_angle_alpha 90.000000
_cell_angle_beta 90.000000
_cell_angle_gamma 90.000000
_cell_volume 3079.045897
_symmetry_space_group_name_H-M "P M N A"
_symmetry_group_IT_number 53
_symmetry_cell_setting 'orthorhombic'
loop_
_space_group_symop_operation_xyz
x,y,z
1/2-x,-y,1/2+z
x,-y,-z
1/2-x,y,1/2-z
-x,-y,-z
1/2+x,y,1/2-z
-x,y,z
1/2+x,-y,1/2+z
loop_
_atom_site_type_symbol
_atom_site_label
_atom_site_fract_x
_atom_site_fract_y
_atom_site_fract_z
Si Si1 0.733818 0.347689 0.810813
Si Si2 0.173562 0.869968 0.944614
Si Si3 0.333293 0.163625 0.153671
Si Si4 0.197603 0.762093 0.535781
Si Si5 0.563454 0.005915 0.218969
Si Si6 0.063699 0.506949 0.209324
Si Si7 0.844336 0.621444 0.123109
O O1 0.750000 0.284985 0.750000
O O2 0.692457 0.595410 0.812540
O O3 0.787830 0.426626 0.844399
O O4 0.705332 0.093211 0.837672
O O5 0.239110 0.832718 0.950682
O O6 0.152406 0.584115 0.926063
O O7 0.159400 0.081330 0.898927
O O8 0.153802 0.000000 0.000000
O O9 0.332158 0.255476 0.092375
O O10 0.392942 0.083435 0.174476
O O11 0.196898 0.500000 0.500000
O O12 0.174830 0.000000 0.500000
O O13 0.500000 0.027741 0.201722
O O14 0.571333 0.212644 0.267665
O O15 0.573290 0.713874 0.242416
O O16 0.105300 0.573222 0.162439
O O17 0.000000 0.538568 0.192999
#
# Coordination Sequence:
#
# PCOD9418787 Si02
#       7
#     8   8   8   8   8   8   8
#     4  12  23  34  52  85 120 146 174 225 289 345
#     4  11  22  36  56  80 112 149 192 229 276 338
#     4  12  22  37  55  84 114 149 185 230 282 335
#     4  11  21  36  55  78 113 147 189 229 272 333
#     4  10  21  39  59  82 112 152 193 227 270 336
#     4  10  22  39  60  83 111 151 194 228 270 338
#     4  12  20  37  56  83 113 148 184 230 284 333
#
# _framework density 18.187449999999998
#
# number of rings (size 3 to 8) (size 9 to 14) (size 15 to 20)
#    0.000    0.857    2.857    6.857    0.000    0.000 
#    0.000    0.000    0.000    3.429    0.000    0.000 
#    0.000    0.000    0.000    0.000    0.000    0.000 
#
# Total GULP energy -313022.748018 kJ/mol
# GULP energy per Si atom -5589.691929 kJ/mol
# Density = 1.814606 g / cm^3
# Si number density = 18.187450 Si / 1000 Ang^3
#
#
#
# Elastic Constant Matrix: (Units=GPa)
#
#
# Indices 1 2 3 4 5 6 
#
# 1 71.0908 5.4803 37.1194 0.0000 0.0000 0.0000
# 2 5.4803 74.2255 -1.7954 0.0000 0.0000 0.0000
# 3 37.1194 -1.7954 76.9431 0.0000 0.0000 0.0000
# 4 0.0000 0.0000 0.0000 32.9758 0.0000 0.0000
# 5 0.0000 0.0000 0.0000 0.0000 7.7264 0.0000
# 6 0.0000 0.0000 0.0000 0.0000 0.0000 -127.3287
#
#
#
# Elastic Compliance Matrix: (Units=1/GPa)
#
#
# Indices 1 2 3 4 5 6 
#
# 1 0.018997 -0.001625 -0.009202 0.000000 0.000000 0.000000
# 2 -0.001625 0.013619 0.001102 0.000000 0.000000 0.000000
# 3 -0.009202 0.001102 0.017462 0.000000 0.000000 0.000000
# 4 0.000000 0.000000 0.000000 0.030325 0.000000 0.000000
# 5 0.000000 0.000000 0.000000 0.000000 0.129427 0.000000
# 6 0.000000 0.000000 0.000000 0.000000 0.000000 -0.007854
#
#
# Mechanical properties :
#
#
# Convention : Reuss Voigt Hill
#
# Bulk Modulus (GPa) = 32.65193 33.76311 33.20752
# Shear Modulus (GPa) = 21.58551 -5.22830 8.17860
#
# Velocity S-wave (km/s) = 3.44879 -1.69733 2.12288
# Velocity P-wave (km/s) = 5.81814 3.84227 4.93020
#
# Compressibility (1/GPa) = 0.03062606
#
# Stress axis : x y z
#
# Youngs Moduli (GPa) = 52.64046 73.42633 57.26771
#
# Poissons Ratio (x) = 0.11933 0.52700
# Poissons Ratio (y) = 0.08555 -0.06310
# Poissons Ratio (z) = 0.48442 -0.08090
#
# Static dielectric constant tensor:
#      x y z
#    x 1.602420 0.000000 0.000000 
#    y 0.000000 1.628710 0.000000 
#    z 0.000000 0.000000 1.606190 
# 
# From -- ./inp_files/37229.got.cif
#   From: 2010.05.17/outbox.cif.g08.bks.cpg/sg53_19_cif.got.tgz:37229.got - 2010.06.03 12:45:16.
