data_PCOD9418155
_publ_section_title
;
Structure prediction by ZEFSAII (Michael W. Deem and Ramdas Pophale) SiO2 
 PCOD9418155
Probable space group: P M N A
;
_chemical_formula_sum "Si O2"
_cell_formula_units_Z 40
_cell_length_a 16.534274
_cell_length_b 9.050386
_cell_length_c 12.365297
_cell_angle_alpha 90.000000
_cell_angle_beta 90.000000
_cell_angle_gamma 90.000000
_cell_volume 1850.362357
_symmetry_space_group_name_H-M "P M N A"
_symmetry_group_IT_number 53
_symmetry_cell_setting 'orthorhombic'
loop_
_space_group_symop_operation_xyz
x,y,z
1/2-x,-y,1/2+z
x,-y,-z
1/2-x,y,1/2-z
-x,-y,-z
1/2+x,y,1/2-z
-x,y,z
1/2+x,-y,1/2+z
loop_
_atom_site_type_symbol
_atom_site_label
_atom_site_fract_x
_atom_site_fract_y
_atom_site_fract_z
Si Si1 0.662818 0.850687 0.929292
Si Si2 0.659165 0.821702 0.504446
Si Si3 0.908858 0.370878 0.569539
Si Si4 0.406996 0.281278 0.279472
Si Si5 0.402133 0.629097 0.304074
O O1 0.750508 0.782064 0.955557
O O2 0.644479 0.822433 0.802518
O O3 0.592307 0.761305 0.987335
O O4 0.664263 0.000000 0.000000
O O5 0.599056 0.778518 0.599836
O O6 0.638260 0.727922 0.397173
O O7 0.655521 0.000000 0.500000
O O8 0.867251 0.500000 0.500000
O O9 0.876301 0.316923 0.684350
O O10 0.000000 0.422791 0.594711
O O11 0.500000 0.280010 0.243080
O O12 0.381560 0.454024 0.292291
O O13 0.500000 0.640593 0.320370
#
# Coordination Sequence:
#
# PCOD9418155 Si02
#       5
#     8   8   8   8   8
#     4  11  25  43  64  94 136 174 212 269 335 400
#     4  11  26  44  62  94 137 176 216 269 335 400
#     4  10  20  39  65  96 129 164 215 273 326 384
#     4  11  23  44  70  95 128 169 224 281 328 391
#     4  10  22  42  68  96 128 168 219 275 325 386
#
# _framework density 21.617387999999998
#
# number of rings (size 3 to 8) (size 9 to 14) (size 15 to 20)
#    0.000    1.400    2.000    2.400    2.800    7.200 
#    3.600    0.000    0.000    0.000    0.000    0.000 
#    0.000    0.000    0.000    0.000    0.000    0.000 
#
# Total GULP energy -222684.053271 kJ/mol
# GULP energy per Si atom -5567.101332 kJ/mol
# Density = 2.156819 g / cm^3
# Si number density = 21.617388 Si / 1000 Ang^3
#
#
#
# Elastic Constant Matrix: (Units=GPa)
#
#
# Indices 1 2 3 4 5 6 
#
# 1 65.0698 22.1938 26.9085 0.0000 0.0000 0.0000
# 2 22.1938 55.1291 31.3665 0.0000 0.0000 0.0000
# 3 26.9085 31.3665 177.3763 0.0000 0.0000 0.0000
# 4 0.0000 0.0000 0.0000 40.8339 0.0000 0.0000
# 5 0.0000 0.0000 0.0000 0.0000 30.1221 0.0000
# 6 0.0000 0.0000 0.0000 0.0000 0.0000 137.7323
#
#
#
# Elastic Compliance Matrix: (Units=1/GPa)
#
#
# Indices 1 2 3 4 5 6 
#
# 1 0.018229 -0.006410 -0.001632 0.000000 0.000000 0.000000
# 2 -0.006410 0.022423 -0.002993 0.000000 0.000000 0.000000
# 3 -0.001632 -0.002993 0.006415 0.000000 0.000000 0.000000
# 4 0.000000 0.000000 0.000000 0.024489 0.000000 0.000000
# 5 0.000000 0.000000 0.000000 0.000000 0.033198 0.000000
# 6 0.000000 0.000000 0.000000 0.000000 0.000000 0.007260
#
#
# Mechanical properties :
#
#
# Convention : Reuss Voigt Hill
#
# Bulk Modulus (GPa) = 40.00507 50.94586 45.47546
# Shear Modulus (GPa) = 35.10831 56.21142 45.65986
#
# Velocity S-wave (km/s) = 4.03436 5.10483 4.60083
# Velocity P-wave (km/s) = 6.34409 7.63963 7.02181
#
# Compressibility (1/GPa) = 0.02499683
#
# Stress axis : x y z
#
# Youngs Moduli (GPa) = 54.85662 44.59793 155.89672
#
# Poissons Ratio (x) = 0.28588 0.25440
# Poissons Ratio (y) = 0.35164 0.46655
# Poissons Ratio (z) = 0.08952 0.13347
#
# Static dielectric constant tensor:
#      x y z
#    x 1.854580 0.000000 0.000000 
#    y 0.000000 2.351370 0.000000 
#    z 0.000000 0.000000 1.537420 
# 
# From -- ./inp_files/16690.got.cif
#   From: 2010.05.17/outbox.cif.g08.bks.cpg/sg53_9_cif.got.tgz:16690.got - 2010.06.03 12:45:16.
