data_PCOD9418256
_publ_section_title
;
Structure prediction by ZEFSAII (Michael W. Deem and Ramdas Pophale) SiO2 
 PCOD9418256
Probable space group: P M N A
;
_chemical_formula_sum "Si O2"
_cell_formula_units_Z 60
_cell_length_a 8.928843
_cell_length_b 18.863178
_cell_length_c 18.591808
_cell_angle_alpha 90.000000
_cell_angle_beta 90.000000
_cell_angle_gamma 90.000000
_cell_volume 3131.350451
_symmetry_space_group_name_H-M "P M N A"
_symmetry_group_IT_number 53
_symmetry_cell_setting 'orthorhombic'
loop_
_space_group_symop_operation_xyz
x,y,z
1/2-x,-y,1/2+z
x,-y,-z
1/2-x,y,1/2-z
-x,-y,-z
1/2+x,y,1/2-z
-x,y,z
1/2+x,-y,1/2+z
loop_
_atom_site_type_symbol
_atom_site_label
_atom_site_fract_x
_atom_site_fract_y
_atom_site_fract_z
Si Si1 0.167489 0.682943 0.140790
Si Si2 0.321041 0.951087 0.670980
Si Si3 0.320161 0.142048 0.041995
Si Si4 0.173258 0.904961 0.376495
Si Si5 0.822452 0.528654 0.177164
Si Si6 0.318875 0.288216 0.485783
Si Si7 0.250000 0.203404 0.750000
Si Si8 0.826810 0.437035 0.441393
O O1 0.240720 0.608117 0.160772
O O2 0.156967 0.739603 0.203793
O O3 0.000000 0.662385 0.118539
O O4 0.231079 0.718260 0.069575
O O5 0.250000 0.935208 0.750000
O O6 0.500000 0.942007 0.674480
O O7 0.252238 0.905928 0.604661
O O8 0.278817 0.032012 0.650838
O O9 0.500000 0.140604 0.048371
O O10 0.256000 0.221179 0.052091
O O11 0.285462 0.117826 0.958715
O O12 0.182275 0.845358 0.313381
O O13 0.000000 0.929431 0.379484
O O14 0.750000 0.504601 0.250000
O O15 0.772983 0.472724 0.119080
O O16 0.000000 0.532522 0.184509
O O17 0.500000 0.284885 0.477412
O O18 0.253026 0.364416 0.464293
O O19 0.830384 0.500000 0.500000
O O20 0.000000 0.423022 0.420984
#
# Coordination Sequence:
#
# PCOD9418256 Si02
#       8
#     8   8   8   8   8   8   4   8
#     4  10  21  34  55  88 129 171 209 252 308 374
#     4  12  26  45  70  97 127 169 219 272 328 387
#     4  11  24  44  67  97 134 171 216 270 326 385
#     4  11  24  40  64  97 136 177 215 262 318 382
#     4  11  22  39  60  88 124 166 209 259 314 375
#     4  11  22  40  63  92 125 166 217 266 318 377
#     4  12  20  38  60  96 138 178 210 252 312 378
#     4  11  23  39  61  90 122 164 213 262 314 374
#
# _framework density 19.161062000000001
#
# number of rings (size 3 to 8) (size 9 to 14) (size 15 to 20)
#    0.000    0.933    4.000    3.600    0.000    3.733 
#    0.000    0.667    0.000    0.000    0.000    0.000 
#    0.000    0.000    0.000    0.000    0.000    0.000 
#
# Total GULP energy -334448.919897 kJ/mol
# GULP energy per Si atom -5574.148665 kJ/mol
# Density = 1.911745 g / cm^3
# Si number density = 19.161062 Si / 1000 Ang^3
#
#
#
# Elastic Constant Matrix: (Units=GPa)
#
#
# Indices 1 2 3 4 5 6 
#
# 1 104.9864 41.7862 45.4816 0.0000 0.0000 0.0000
# 2 41.7862 112.2685 57.4280 0.0000 0.0000 0.0000
# 3 45.4816 57.4280 109.9188 0.0000 0.0000 0.0000
# 4 0.0000 0.0000 0.0000 48.6956 0.0000 0.0000
# 5 0.0000 0.0000 0.0000 0.0000 18.8240 0.0000
# 6 0.0000 0.0000 0.0000 0.0000 0.0000 36.0792
#
#
#
# Elastic Compliance Matrix: (Units=1/GPa)
#
#
# Indices 1 2 3 4 5 6 
#
# 1 0.012163 -0.002665 -0.003640 0.000000 0.000000 0.000000
# 2 -0.002665 0.012740 -0.005553 0.000000 0.000000 0.000000
# 3 -0.003640 -0.005553 0.013505 0.000000 0.000000 0.000000
# 4 0.000000 0.000000 0.000000 0.020536 0.000000 0.000000
# 5 0.000000 0.000000 0.000000 0.000000 0.053124 0.000000
# 6 0.000000 0.000000 0.000000 0.000000 0.000000 0.027717
#
#
# Mechanical properties :
#
#
# Convention : Reuss Voigt Hill
#
# Bulk Modulus (GPa) = 68.07025 68.50724 68.28874
# Shear Modulus (GPa) = 29.69160 32.88497 31.28829
#
# Velocity S-wave (km/s) = 3.94074 4.14725 4.04531
# Velocity P-wave (km/s) = 7.50389 7.66576 7.58526
#
# Compressibility (1/GPa) = 0.01469071
#
# Stress axis : x y z
#
# Youngs Moduli (GPa) = 82.21834 78.49470 74.04504
#
# Poissons Ratio (x) = 0.20917 0.26955
# Poissons Ratio (y) = 0.21910 0.41120
# Poissons Ratio (z) = 0.29931 0.43591
#
# Static dielectric constant tensor:
#      x y z
#    x 1.656580 0.000000 0.000000 
#    y 0.000000 1.683880 0.000000 
#    z 0.000000 0.000000 1.696920 
# 
# From -- ./inp_files/26578.got.cif
#   From: 2010.05.17/outbox.cif.g08.bks.cpg/sg53_14_cif.got.tgz:26578.got - 2010.06.03 12:45:16.
