data_PCOD9418106
_publ_section_title
;
Structure prediction by ZEFSAII (Michael W. Deem and Ramdas Pophale) SiO2 
 PCOD9418106
Probable space group: P M N A
;
_chemical_formula_sum "Si O2"
_cell_formula_units_Z 56
_cell_length_a 13.603341
_cell_length_b 6.126031
_cell_length_c 30.214195
_cell_angle_alpha 90.000000
_cell_angle_beta 90.000000
_cell_angle_gamma 90.000000
_cell_volume 2517.884491
_symmetry_space_group_name_H-M "P M N A"
_symmetry_group_IT_number 53
_symmetry_cell_setting 'orthorhombic'
loop_
_space_group_symop_operation_xyz
x,y,z
1/2-x,-y,1/2+z
x,-y,-z
1/2-x,y,1/2-z
-x,-y,-z
1/2+x,y,1/2-z
-x,y,z
1/2+x,-y,1/2+z
loop_
_atom_site_type_symbol
_atom_site_label
_atom_site_fract_x
_atom_site_fract_y
_atom_site_fract_z
Si Si1 0.113997 0.662852 0.423015
Si Si2 0.784484 0.750870 0.019620
Si Si3 0.116242 0.071988 0.897964
Si Si4 0.605046 0.033651 0.153752
Si Si5 0.675995 0.647237 0.317416
Si Si6 0.233199 0.324789 0.118340
Si Si7 0.606829 0.322954 0.780659
O O1 0.169267 0.756309 0.465969
O O2 0.115746 0.842153 0.383293
O O3 0.188014 0.470685 0.408110
O O4 0.000000 0.602517 0.429808
O O5 0.848586 0.757991 0.064893
O O6 0.800679 0.500000 0.000000
O O7 0.804614 0.000000 0.000000
O O8 0.153667 0.148708 0.849376
O O9 0.000000 0.049917 0.897657
O O10 0.171929 0.847641 0.909559
O O11 0.500000 0.141160 0.144612
O O12 0.602593 0.924740 0.201796
O O13 0.694846 0.189813 0.149706
O O14 0.656419 0.451223 0.350961
O O15 0.790458 0.611073 0.303467
O O16 0.618742 0.656824 0.271679
O O17 0.500000 0.419478 0.794365
#
# Coordination Sequence:
#
# PCOD9418106 Si02
#       7
#     8   8   8   8   8   8   8
#     4  11  23  43  72 107 146 189 230 287 373 457
#     4  12  27  50  77 110 152 192 245 311 380 453
#     4  12  27  48  71  99 138 190 249 307 371 439
#     4  10  20  38  68 100 139 186 231 283 357 441
#     4  11  23  42  68  95 140 186 234 302 360 431
#     4  12  20  43  68 102 135 190 244 300 355 441
#     4  10  20  40  63  96 141 184 231 292 364 434
#
# _framework density 22.240891999999999
#
# number of rings (size 3 to 8) (size 9 to 14) (size 15 to 20)
#    0.000    0.857    5.714    1.714    0.000    2.857 
#    5.143    0.000    0.000    0.000    0.000    0.000 
#    0.000    0.000    0.000    0.000    0.000    0.000 
#
# Total GULP energy -311870.446646 kJ/mol
# GULP energy per Si atom -5569.115119 kJ/mol
# Density = 2.219027 g / cm^3
# Si number density = 22.240892 Si / 1000 Ang^3
#
#
#
# Elastic Constant Matrix: (Units=GPa)
#
#
# Indices 1 2 3 4 5 6 
#
# 1 122.1594 34.8831 8.1795 0.0000 0.0000 0.0000
# 2 34.8831 92.8353 26.8075 0.0000 0.0000 0.0000
# 3 8.1795 26.8075 66.1057 0.0000 0.0000 0.0000
# 4 0.0000 0.0000 0.0000 22.8520 0.0000 0.0000
# 5 0.0000 0.0000 0.0000 0.0000 19.0822 0.0000
# 6 0.0000 0.0000 0.0000 0.0000 0.0000 14.8339
#
#
#
# Elastic Compliance Matrix: (Units=1/GPa)
#
#
# Indices 1 2 3 4 5 6 
#
# 1 0.009175 -0.003534 0.000298 0.000000 0.000000 0.000000
# 2 -0.003534 0.013561 -0.005062 0.000000 0.000000 0.000000
# 3 0.000298 -0.005062 0.017143 0.000000 0.000000 0.000000
# 4 0.000000 0.000000 0.000000 0.043760 0.000000 0.000000
# 5 0.000000 0.000000 0.000000 0.000000 0.052405 0.000000
# 6 0.000000 0.000000 0.000000 0.000000 0.000000 0.067413
#
#
# Mechanical properties :
#
#
# Convention : Reuss Voigt Hill
#
# Bulk Modulus (GPa) = 42.94879 46.76006 44.85443
# Shear Modulus (GPa) = 21.94762 25.43563 23.69163
#
# Velocity S-wave (km/s) = 3.14477 3.38545 3.26732
# Velocity P-wave (km/s) = 5.70427 6.02924 5.86900
#
# Compressibility (1/GPa) = 0.02328354
#
# Stress axis : x y z
#
# Youngs Moduli (GPa) = 108.99056 73.73936 58.33176
#
# Poissons Ratio (x) = 0.26056 -0.01736
# Poissons Ratio (y) = 0.38512 0.29529
# Poissons Ratio (z) = -0.03244 0.37328
#
# Static dielectric constant tensor:
#      x y z
#    x 1.817060 0.000000 0.000000 
#    y 0.000000 1.901180 0.000000 
#    z 0.000000 0.000000 1.848760 
# 
# From -- ./inp_files/38863.got.cif
#   From: 2010.05.17/outbox.cif.g08.bks.cpg/sg53_20_cif.got.tgz:38863.got - 2010.06.03 12:45:16.
