data_PCOD9418674
_publ_section_title
;
Structure prediction by ZEFSAII (Michael W. Deem and Ramdas Pophale) SiO2 
 PCOD9418674
Probable space group: P M N A
;
_chemical_formula_sum "Si O2"
_cell_formula_units_Z 32
_cell_length_a 16.624337
_cell_length_b 19.603128
_cell_length_c 5.072496
_cell_angle_alpha 90.000000
_cell_angle_beta 90.000000
_cell_angle_gamma 90.000000
_cell_volume 1653.070680
_symmetry_space_group_name_H-M "P M N A"
_symmetry_group_IT_number 53
_symmetry_cell_setting 'orthorhombic'
loop_
_space_group_symop_operation_xyz
x,y,z
1/2-x,-y,1/2+z
x,-y,-z
1/2-x,y,1/2-z
-x,-y,-z
1/2+x,y,1/2-z
-x,y,z
1/2+x,-y,1/2+z
loop_
_atom_site_type_symbol
_atom_site_label
_atom_site_fract_x
_atom_site_fract_y
_atom_site_fract_z
Si Si1 0.093171 0.707264 0.859735
Si Si2 0.342225 0.219546 0.853297
Si Si3 0.191910 0.423143 0.000357
Si Si4 0.808858 0.073876 0.500864
O O1 0.142147 0.731320 0.601602
O O2 0.126911 0.635868 0.969366
O O3 0.000000 0.702534 0.787458
O O4 0.105808 0.759869 0.100388
O O5 0.250000 0.223784 0.750000
O O6 0.358299 0.142812 0.956345
O O7 0.250000 0.419203 0.250000
O O8 0.157255 0.500000 0.000000
O O9 0.250000 0.413311 0.750000
O O10 0.750000 0.082567 0.250000
O O11 0.851656 0.000000 0.500000
O O12 0.750000 0.069357 0.750000
#
# Coordination Sequence:
#
# PCOD9418674 Si02
#       4
#     8   8   8   8
#     4  12  24  37  56  84 118 149 182 228 278 330
#     4  11  21  37  60  83 110 148 191 231 274 328
#     4  10  21  38  60  83 108 143 187 230 273 327
#     4   9  17  30  52  83 110 135 180 239 283 316
#
# _framework density 19.357913
#
# number of rings (size 3 to 8) (size 9 to 14) (size 15 to 20)
#    0.000    1.500    0.000    8.250    0.000    0.500 
#    0.000    0.000    0.000   12.000    0.000    0.000 
#    0.000    0.000    0.000    0.000    0.000    0.000 
#
# Total GULP energy -178644.286154 kJ/mol
# GULP energy per Si atom -5582.633942 kJ/mol
# Density = 1.931385 g / cm^3
# Si number density = 19.357913 Si / 1000 Ang^3
#
#
#
# Elastic Constant Matrix: (Units=GPa)
#
#
# Indices 1 2 3 4 5 6 
#
# 1 57.7061 54.3999 19.2780 0.0000 0.0000 0.0000
# 2 54.3999 152.6291 37.1321 0.0000 0.0000 0.0000
# 3 19.2780 37.1321 145.1705 0.0000 0.0000 0.0000
# 4 0.0000 0.0000 0.0000 25.6850 0.0000 0.0000
# 5 0.0000 0.0000 0.0000 0.0000 16.2084 0.0000
# 6 0.0000 0.0000 0.0000 0.0000 0.0000 -4.6459
#
#
#
# Elastic Compliance Matrix: (Units=1/GPa)
#
#
# Indices 1 2 3 4 5 6 
#
# 1 0.026282 -0.009084 -0.001167 0.000000 0.000000 0.000000
# 2 -0.009084 0.010126 -0.001384 0.000000 0.000000 0.000000
# 3 -0.001167 -0.001384 0.007397 0.000000 0.000000 0.000000
# 4 0.000000 0.000000 0.000000 0.038933 0.000000 0.000000
# 5 0.000000 0.000000 0.000000 0.000000 0.061696 0.000000
# 6 0.000000 0.000000 0.000000 0.000000 0.000000 -0.215242
#
#
# Mechanical properties :
#
#
# Convention : Reuss Voigt Hill
#
# Bulk Modulus (GPa) = 48.69199 64.12506 56.40853
# Shear Modulus (GPa) = -122.87225 23.76254 -49.55485
#
# Velocity S-wave (km/s) = -7.97569 3.50742 -5.06506
# Velocity P-wave (km/s) = 7.72059 7.04277 2.23683
#
# Compressibility (1/GPa) = 0.02053726
#
# Stress axis : x y z
#
# Youngs Moduli (GPa) = 38.04870 98.75511 135.18370
#
# Poissons Ratio (x) = 0.89705 0.15772
# Poissons Ratio (y) = 0.34562 0.18707
# Poissons Ratio (z) = 0.04439 0.13666
#
# Static dielectric constant tensor:
#      x y z
#    x 1.629040 0.000000 0.000000 
#    y 0.000000 1.773710 0.000000 
#    z 0.000000 0.000000 1.653800 
# 
# From -- ./inp_files/1266.got.cif
#   From: 2010.05.17/outbox.cif.g08.bks.cpg/sg53_1_cif.got.tgz:1266.got - 2010.06.03 12:45:16.
