data_PCOD9418722
_publ_section_title
;
Structure prediction by ZEFSAII (Michael W. Deem and Ramdas Pophale) SiO2 
 PCOD9418722
Probable space group: P M N A
;
_chemical_formula_sum "Si O2"
_cell_formula_units_Z 64
_cell_length_a 8.764346
_cell_length_b 24.267325
_cell_length_c 15.842448
_cell_angle_alpha 90.000000
_cell_angle_beta 90.000000
_cell_angle_gamma 90.000000
_cell_volume 3369.486426
_symmetry_space_group_name_H-M "P M N A"
_symmetry_group_IT_number 53
_symmetry_cell_setting 'orthorhombic'
loop_
_space_group_symop_operation_xyz
x,y,z
1/2-x,-y,1/2+z
x,-y,-z
1/2-x,y,1/2-z
-x,-y,-z
1/2+x,y,1/2-z
-x,y,z
1/2+x,-y,1/2+z
loop_
_atom_site_type_symbol
_atom_site_label
_atom_site_fract_x
_atom_site_fract_y
_atom_site_fract_z
Si Si1 0.315992 0.060855 0.897797
Si Si2 0.317270 0.370975 0.501869
Si Si3 0.184400 0.939265 0.597727
Si Si4 0.817986 0.826270 0.162752
Si Si5 0.183083 0.178201 0.338425
Si Si6 0.183850 0.242060 0.002631
Si Si7 0.182499 0.566986 0.659037
Si Si8 0.182407 0.562794 0.340940
O O1 0.500000 0.064505 0.888743
O O2 0.239098 0.111367 0.850958
O O3 0.263767 0.999455 0.871428
O O4 0.280416 0.065792 0.997968
O O5 0.500000 0.376101 0.502056
O O6 0.277798 0.306349 0.504290
O O7 0.251632 0.398348 0.417237
O O8 0.250685 0.402050 0.583088
O O9 0.238577 0.884794 0.645006
O O10 0.000000 0.940123 0.602881
O O11 0.750000 0.804515 0.250000
O O12 0.000000 0.825526 0.167251
O O13 0.769167 0.790719 0.081657
O O14 0.250000 0.198080 0.250000
O O15 0.239332 0.214522 0.416402
O O16 0.000000 0.178240 0.335677
O O17 0.000000 0.237107 0.010722
O O18 0.250000 0.583225 0.750000
O O19 0.219016 0.502088 0.646049
O O20 0.000000 0.572707 0.660290
O O21 0.250000 0.578994 0.250000
O O22 0.000000 0.568277 0.339460
#
# Coordination Sequence:
#
# PCOD9418722 Si02
#       8
#     8   8   8   8   8   8   8   8
#     4   9  16  33  58  84 114 145 182 228 283 346
#     4  11  23  39  61  87 118 156 198 244 293 344
#     4   8  16  31  56  85 114 146 180 226 284 344
#     4  11  23  39  59  83 112 147 190 238 288 344
#     4  11  22  38  61  86 112 150 192 235 290 347
#     4  10  24  44  60  81 114 151 196 247 288 334
#     4  10  21  38  61  91 125 159 195 237 286 342
#     4  10  21  38  61  91 126 159 194 237 286 341
#
# _framework density 18.993993
#
# number of rings (size 3 to 8) (size 9 to 14) (size 15 to 20)
#    0.000    2.000    1.250    3.000    0.000    6.000 
#    0.000    5.000    0.000    0.000    0.000    0.000 
#    0.000    0.000    0.000    0.000    0.000    0.000 
#
# Total GULP energy -357525.070213 kJ/mol
# GULP energy per Si atom -5586.329222 kJ/mol
# Density = 1.895076 g / cm^3
# Si number density = 18.993993 Si / 1000 Ang^3
#
#
#
# Elastic Constant Matrix: (Units=GPa)
#
#
# Indices 1 2 3 4 5 6 
#
# 1 42.0635 48.8275 54.5281 0.0000 0.0000 0.0000
# 2 48.8275 112.9813 92.8373 0.0000 0.0000 0.0000
# 3 54.5281 92.8373 171.5277 0.0000 0.0000 0.0000
# 4 0.0000 0.0000 0.0000 -15.1366 0.0000 0.0000
# 5 0.0000 0.0000 0.0000 0.0000 34.0144 0.0000
# 6 0.0000 0.0000 0.0000 0.0000 0.0000 -27.8608
#
#
#
# Elastic Compliance Matrix: (Units=1/GPa)
#
#
# Indices 1 2 3 4 5 6 
#
# 1 0.053241 -0.016392 -0.008053 0.000000 0.000000 0.000000
# 2 -0.016392 0.020987 -0.006148 0.000000 0.000000 0.000000
# 3 -0.008053 -0.006148 0.011718 0.000000 0.000000 0.000000
# 4 0.000000 0.000000 0.000000 -0.066065 0.000000 0.000000
# 5 0.000000 0.000000 0.000000 0.000000 0.029399 0.000000
# 6 0.000000 0.000000 0.000000 0.000000 0.000000 -0.035893
#
#
# Mechanical properties :
#
#
# Convention : Reuss Voigt Hill
#
# Bulk Modulus (GPa) = 40.38897 79.88426 60.13662
# Shear Modulus (GPa) = 60.36698 6.89538 33.63118
#
# Velocity S-wave (km/s) = 5.64368 1.90740 4.21244
# Velocity P-wave (km/s) = 7.98614 6.85564 7.44239
#
# Compressibility (1/GPa) = 0.02475924
#
# Stress axis : x y z
#
# Youngs Moduli (GPa) = 18.78251 47.64825 85.34179
#
# Poissons Ratio (x) = 0.78105 0.68727
# Poissons Ratio (y) = 0.30788 0.52469
# Poissons Ratio (z) = 0.15126 0.29294
#
# Static dielectric constant tensor:
#      x y z
#    x 1.632480 0.000000 0.000000 
#    y 0.000000 1.653590 0.000000 
#    z 0.000000 0.000000 1.640780 
# 
# From -- ./inp_files/20953.got.cif
#   From: 2010.05.17/outbox.cif.g08.bks.cpg/sg53_11_cif.got.tgz:20953.got - 2010.06.03 12:45:16.
