data_PCOD9418025
_publ_section_title
;
Structure prediction by ZEFSAII (Michael W. Deem and Ramdas Pophale) SiO2 
 PCOD9418025
Probable space group: P M N A
;
_chemical_formula_sum "Si O2"
_cell_formula_units_Z 48
_cell_length_a 27.987809
_cell_length_b 9.848308
_cell_length_c 9.396111
_cell_angle_alpha 90.000000
_cell_angle_beta 90.000000
_cell_angle_gamma 90.000000
_cell_volume 2589.874160
_symmetry_space_group_name_H-M "P M N A"
_symmetry_group_IT_number 53
_symmetry_cell_setting 'orthorhombic'
loop_
_space_group_symop_operation_xyz
x,y,z
1/2-x,-y,1/2+z
x,-y,-z
1/2-x,y,1/2-z
-x,-y,-z
1/2+x,y,1/2-z
-x,y,z
1/2+x,-y,1/2+z
loop_
_atom_site_type_symbol
_atom_site_label
_atom_site_fract_x
_atom_site_fract_y
_atom_site_fract_z
Si Si1 0.793320 0.090636 0.139220
Si Si2 0.555825 0.253249 0.815570
Si Si3 0.293960 0.412157 0.359412
Si Si4 0.118739 0.480274 0.338479
Si Si5 0.554541 0.783168 0.855836
Si Si6 0.897773 0.990139 0.168937
O O1 0.750000 0.079634 0.250000
O O2 0.800750 0.251228 0.106554
O O3 0.843049 0.031509 0.200249
O O4 0.782787 0.000000 0.000000
O O5 0.500000 0.259217 0.774354
O O6 0.580180 0.400353 0.819106
O O7 0.587471 0.159412 0.715468
O O8 0.557829 0.190548 0.974949
O O9 0.284993 0.500000 0.500000
O O10 0.250000 0.420315 0.250000
O O11 0.339683 0.473366 0.277152
O O12 0.138142 0.500000 0.500000
O O13 0.090629 0.339187 0.328247
O O14 0.500000 0.741702 0.827214
O O15 0.568837 0.908686 0.758107
O O16 0.904301 0.000000 0.000000
#
# Coordination Sequence:
#
# PCOD9418025 Si02
#       6
#     8   8   8   8   8   8
#     4  10  24  44  63  91 122 159 200 247 301 360
#     4  10  22  38  61  90 121 161 209 251 297 357
#     4  11  24  43  66  93 125 157 201 249 303 365
#     4  10  21  39  62  91 121 160 201 252 306 354
#     4  10  20  38  61  86 120 159 205 252 300 356
#     4  11  23  39  58  89 123 160 200 251 303 357
#
# _framework density 18.533719999999999
#
# number of rings (size 3 to 8) (size 9 to 14) (size 15 to 20)
#    0.000    1.667    1.667    2.000    4.667    6.667 
#    3.000    0.000    0.000    3.000    0.000    0.000 
#    0.000    0.000    0.000    0.000    0.000    0.000 
#
# Total GULP energy -268003.628700 kJ/mol
# GULP energy per Si atom -5583.408931 kJ/mol
# Density = 1.849154 g / cm^3
# Si number density = 18.533720 Si / 1000 Ang^3
#
#
#
# Elastic Constant Matrix: (Units=GPa)
#
#
# Indices 1 2 3 4 5 6 
#
# 1 82.6548 15.1581 37.3305 0.0000 0.0000 0.0000
# 2 15.1581 69.2919 31.1762 0.0000 0.0000 0.0000
# 3 37.3305 31.1762 61.1701 0.0000 0.0000 0.0000
# 4 0.0000 0.0000 0.0000 28.5126 0.0000 0.0000
# 5 0.0000 0.0000 0.0000 0.0000 2.1326 0.0000
# 6 0.0000 0.0000 0.0000 0.0000 0.0000 24.0770
#
#
#
# Elastic Compliance Matrix: (Units=1/GPa)
#
#
# Indices 1 2 3 4 5 6 
#
# 1 0.016781 0.001215 -0.010860 0.000000 0.000000 0.000000
# 2 0.001215 0.018814 -0.010330 0.000000 0.000000 0.000000
# 3 -0.010860 -0.010330 0.028241 0.000000 0.000000 0.000000
# 4 0.000000 0.000000 0.000000 0.035072 0.000000 0.000000
# 5 0.000000 0.000000 0.000000 0.000000 0.468914 0.000000
# 6 0.000000 0.000000 0.000000 0.000000 0.000000 0.041533
#
#
# Mechanical properties :
#
#
# Convention : Reuss Voigt Hill
#
# Bulk Modulus (GPa) = 41.86818 42.27183 42.07000
# Shear Modulus (GPa) = 7.60727 19.57456 13.59092
#
# Velocity S-wave (km/s) = 2.02817 3.25339 2.71090
# Velocity P-wave (km/s) = 5.30320 6.08032 5.70501
#
# Compressibility (1/GPa) = 0.02388449
#
# Stress axis : x y z
#
# Youngs Moduli (GPa) = 59.59283 53.15265 35.41006
#
# Poissons Ratio (x) = -0.06460 0.38456
# Poissons Ratio (y) = -0.07243 0.36580
# Poissons Ratio (z) = 0.64719 0.54909
#
# Static dielectric constant tensor:
#      x y z
#    x 1.624980 0.000000 0.000000 
#    y 0.000000 1.619730 0.000000 
#    z 0.000000 0.000000 1.619640 
# 
# From -- ./inp_files/12987.got.cif
#   From: 2010.05.17/outbox.cif.g08.bks.cpg/sg53_7_cif.got.tgz:12987.got - 2010.06.03 12:45:16.
