data_PCOD9418423
_publ_section_title
;
Structure prediction by ZEFSAII (Michael W. Deem and Ramdas Pophale) SiO2 
 PCOD9418423
Probable space group: P M N A
;
_chemical_formula_sum "Si O2"
_cell_formula_units_Z 48
_cell_length_a 23.509348
_cell_length_b 7.143675
_cell_length_c 11.899878
_cell_angle_alpha 90.000000
_cell_angle_beta 90.000000
_cell_angle_gamma 90.000000
_cell_volume 1998.502896
_symmetry_space_group_name_H-M "P M N A"
_symmetry_group_IT_number 53
_symmetry_cell_setting 'orthorhombic'
loop_
_space_group_symop_operation_xyz
x,y,z
1/2-x,-y,1/2+z
x,-y,-z
1/2-x,y,1/2-z
-x,-y,-z
1/2+x,y,1/2-z
-x,y,z
1/2+x,-y,1/2+z
loop_
_atom_site_type_symbol
_atom_site_label
_atom_site_fract_x
_atom_site_fract_y
_atom_site_fract_z
Si Si1 0.785610 0.662607 0.652707
Si Si2 0.618670 0.826497 0.229509
Si Si3 0.000000 0.795862 0.391119
Si Si4 0.000000 0.752625 0.648321
Si Si5 0.610699 0.726206 0.715184
Si Si6 0.731832 0.250284 0.912377
Si Si7 0.361598 0.202696 0.532334
O O1 0.750000 0.764610 0.750000
O O2 0.844399 0.617481 0.709306
O O3 0.793675 0.770073 0.537545
O O4 0.756491 0.467654 0.619798
O O5 0.563664 0.758747 0.158976
O O6 0.680955 0.805438 0.171215
O O7 0.612255 0.729134 0.351445
O O8 0.617590 0.049991 0.258025
O O9 0.000000 0.707043 0.515942
O O10 0.000000 0.021718 0.369812
O O11 0.051532 0.686911 0.726011
O O12 0.626759 0.691364 0.584541
O O13 0.795391 0.173129 0.931031
O O14 0.386199 0.000000 0.500000
#
# Coordination Sequence:
#
# PCOD9418423 Si02
#       7
#     8   8   4   4   8   8   8
#     4  11  22  37  56  82 115 154 191 238 294 347
#     4  10  21  36  59  85 117 154 198 239 295 347
#     4   9  18  35  56  84 115 153 194 250 287 344
#     4   9  18  35  58  86 115 151 203 243 292 344
#     4  10  21  37  60  86 117 157 196 242 293 350
#     4  11  23  37  57  84 117 154 192 242 295 351
#     4  10  21  36  57  89 120 153 195 248 294 351
#
# _framework density 24.017977999999999
#
# number of rings (size 3 to 8) (size 9 to 14) (size 15 to 20)
#    0.000    1.833    1.667    2.500    2.333    2.000 
#    0.000    4.167    0.000    3.000    0.000    3.500 
#    0.000    0.000    0.000    0.000    0.000    0.000 
#
# Total GULP energy -267493.326516 kJ/mol
# GULP energy per Si atom -5572.777636 kJ/mol
# Density = 2.396331 g / cm^3
# Si number density = 24.017978 Si / 1000 Ang^3
#
#
#
# Elastic Constant Matrix: (Units=GPa)
#
#
# Indices 1 2 3 4 5 6 
#
# 1 141.7784 -5.6157 84.3829 0.0000 0.0000 0.0000
# 2 -5.6157 54.7191 0.3072 0.0000 0.0000 0.0000
# 3 84.3829 0.3072 227.8173 0.0000 0.0000 0.0000
# 4 0.0000 0.0000 0.0000 18.0361 0.0000 0.0000
# 5 0.0000 0.0000 0.0000 0.0000 19.6413 0.0000
# 6 0.0000 0.0000 0.0000 0.0000 0.0000 21.4260
#
#
#
# Elastic Compliance Matrix: (Units=1/GPa)
#
#
# Indices 1 2 3 4 5 6 
#
# 1 0.009097 0.000953 -0.003371 0.000000 0.000000 0.000000
# 2 0.000953 0.018375 -0.000378 0.000000 0.000000 0.000000
# 3 -0.003371 -0.000378 0.005639 0.000000 0.000000 0.000000
# 4 0.000000 0.000000 0.000000 0.055444 0.000000 0.000000
# 5 0.000000 0.000000 0.000000 0.000000 0.050913 0.000000
# 6 0.000000 0.000000 0.000000 0.000000 0.000000 0.046672
#
#
# Mechanical properties :
#
#
# Convention : Reuss Voigt Hill
#
# Bulk Modulus (GPa) = 36.33855 64.71818 50.52837
# Shear Modulus (GPa) = 24.88732 34.83670 29.86201
#
# Velocity S-wave (km/s) = 3.22249 3.81260 3.52990
# Velocity P-wave (km/s) = 5.38595 6.81069 6.13979
#
# Compressibility (1/GPa) = 0.02751898
#
# Stress axis : x y z
#
# Youngs Moduli (GPa) = 109.92330 54.42166 177.35031
#
# Poissons Ratio (x) = -0.05184 0.59783
# Poissons Ratio (y) = -0.10471 0.06697
# Poissons Ratio (z) = 0.37054 0.02055
#
# Static dielectric constant tensor:
#      x y z
#    x 2.000580 0.000000 0.000000 
#    y 0.000000 2.024620 0.000000 
#    z 0.000000 0.000000 1.957410 
# 
# From -- ./inp_files/18315.got.cif
#   From: 2010.05.17/outbox.cif.g08.bks.cpg/sg53_10_cif.got.tgz:18315.got - 2010.06.03 12:45:16.
