data_PCOD9418673
_publ_section_title
;
Structure prediction by ZEFSAII (Michael W. Deem and Ramdas Pophale) SiO2 
 PCOD9418673
Probable space group: P M N A
;
_chemical_formula_sum "Si O2"
_cell_formula_units_Z 34
_cell_length_a 18.872672
_cell_length_b 13.051654
_cell_length_c 6.148400
_cell_angle_alpha 90.000000
_cell_angle_beta 90.000000
_cell_angle_gamma 90.000000
_cell_volume 1514.471336
_symmetry_space_group_name_H-M "P M N A"
_symmetry_group_IT_number 53
_symmetry_cell_setting 'orthorhombic'
loop_
_space_group_symop_operation_xyz
x,y,z
1/2-x,-y,1/2+z
x,-y,-z
1/2-x,y,1/2-z
-x,-y,-z
1/2+x,y,1/2-z
-x,y,z
1/2+x,-y,1/2+z
loop_
_atom_site_type_symbol
_atom_site_label
_atom_site_fract_x
_atom_site_fract_y
_atom_site_fract_z
Si Si1 0.419088 0.813789 0.005880
Si Si2 0.824105 0.075002 0.175504
Si Si3 0.924718 0.624567 0.834556
Si Si4 0.680035 0.271353 0.618014
Si Si5 0.000000 0.500000 0.500000
O O1 0.500000 0.843484 0.053589
O O2 0.375064 0.897996 0.873434
O O3 0.421642 0.716500 0.842021
O O4 0.376944 0.777554 0.216967
O O5 0.750000 0.025631 0.250000
O O6 0.803639 0.180787 0.053738
O O7 0.858900 0.000000 0.000000
O O8 0.000000 0.640286 0.959592
O O9 0.939063 0.526619 0.685454
O O10 0.858103 0.637514 0.988059
O O11 0.750000 0.299526 0.750000
#
# Coordination Sequence:
#
# PCOD9418673 Si02
#       5
#     8   8   8   8   2
#     4  10  21  38  59  93 125 162 222 273 329 403
#     4  11  23  38  59  86 124 176 232 276 327 392
#     4   8  18  35  59  90 128 163 216 269 325 406
#     4  11  20  35  59  90 125 176 220 269 338 401
#     4   8  16  40  62  96 126 170 210 274 334 406
#
# _framework density 22.450081000000001
#
# number of rings (size 3 to 8) (size 9 to 14) (size 15 to 20)
#    0.706    1.412    2.353    1.412    0.000    1.412 
#    0.000    3.529    0.000    0.000    6.118    1.647 
#    0.000    0.000    0.000    3.294    0.000    1.412 
#
# Total GULP energy -189352.892787 kJ/mol
# GULP energy per Si atom -5569.202729 kJ/mol
# Density = 2.239898 g / cm^3
# Si number density = 22.450081 Si / 1000 Ang^3
#
#
#
# Elastic Constant Matrix: (Units=GPa)
#
#
# Indices 1 2 3 4 5 6 
#
# 1 148.7796 11.4913 76.7962 0.0000 0.0000 0.0000
# 2 11.4913 40.7563 37.3248 0.0000 0.0000 0.0000
# 3 76.7962 37.3248 110.1069 0.0000 0.0000 0.0000
# 4 0.0000 0.0000 0.0000 41.5307 0.0000 0.0000
# 5 0.0000 0.0000 0.0000 0.0000 51.3225 0.0000
# 6 0.0000 0.0000 0.0000 0.0000 0.0000 14.2266
#
#
#
# Elastic Compliance Matrix: (Units=1/GPa)
#
#
# Indices 1 2 3 4 5 6 
#
# 1 0.011403 0.005900 -0.009954 0.000000 0.000000 0.000000
# 2 0.005900 0.038636 -0.017212 0.000000 0.000000 0.000000
# 3 -0.009954 -0.017212 0.021859 0.000000 0.000000 0.000000
# 4 0.000000 0.000000 0.000000 0.024079 0.000000 0.000000
# 5 0.000000 0.000000 0.000000 0.000000 0.019485 0.000000
# 6 0.000000 0.000000 0.000000 0.000000 0.000000 0.070291
#
#
# Mechanical properties :
#
#
# Convention : Reuss Voigt Hill
#
# Bulk Modulus (GPa) = 34.05175 61.20748 47.62961
# Shear Modulus (GPa) = 21.00196 33.01799 27.00998
#
# Velocity S-wave (km/s) = 3.06191 3.83917 3.47235
# Velocity P-wave (km/s) = 5.26318 6.85385 6.11050
#
# Compressibility (1/GPa) = 0.02936707
#
# Stress axis : x y z
#
# Youngs Moduli (GPa) = 87.69239 25.88286 45.74708
#
# Poissons Ratio (x) = -0.15272 0.45536
# Poissons Ratio (y) = -0.51743 0.78742
# Poissons Ratio (z) = 0.87287 0.44551
#
# Static dielectric constant tensor:
#      x y z
#    x 1.783480 0.000000 0.000000 
#    y 0.000000 1.906390 0.000000 
#    z 0.000000 0.000000 1.825350 
# 
# From -- ./inp_files/2773.got.cif
#   From: 2010.05.17/outbox.cif.g08.bks.cpg/sg53_2_cif.got.tgz:2773.got - 2010.06.03 12:45:16.
