data_PCOD9418628
_publ_section_title
;
Structure prediction by ZEFSAII (Michael W. Deem and Ramdas Pophale) SiO2 
 PCOD9418628
Probable space group: P M N A
;
_chemical_formula_sum "Si O2"
_cell_formula_units_Z 48
_cell_length_a 17.719700
_cell_length_b 8.302973
_cell_length_c 17.269691
_cell_angle_alpha 90.000000
_cell_angle_beta 90.000000
_cell_angle_gamma 90.000000
_cell_volume 2540.823851
_symmetry_space_group_name_H-M "P M N A"
_symmetry_group_IT_number 53
_symmetry_cell_setting 'orthorhombic'
loop_
_space_group_symop_operation_xyz
x,y,z
1/2-x,-y,1/2+z
x,-y,-z
1/2-x,y,1/2-z
-x,-y,-z
1/2+x,y,1/2-z
-x,y,z
1/2+x,-y,1/2+z
loop_
_atom_site_type_symbol
_atom_site_label
_atom_site_fract_x
_atom_site_fract_y
_atom_site_fract_z
Si Si1 0.211579 0.376565 0.427524
Si Si2 0.500000 0.644114 0.387122
Si Si3 0.412349 0.190684 0.986929
Si Si4 0.157763 0.891163 0.921266
Si Si5 0.186732 0.317192 0.653090
Si Si6 0.653943 0.197403 0.674492
Si Si7 0.500000 0.289084 0.430355
O O1 0.226418 0.500000 0.500000
O O2 0.136052 0.280251 0.448281
O O3 0.279016 0.248508 0.419366
O O4 0.192702 0.490287 0.354683
O O5 0.575580 0.726297 0.354110
O O6 0.500000 0.450843 0.378717
O O7 0.500000 0.669343 0.478886
O O8 0.500000 0.235743 0.987345
O O9 0.372353 0.245583 0.907734
O O10 0.406033 0.000000 0.000000
O O11 0.075808 0.811004 0.919054
O O12 0.159127 0.010479 0.847783
O O13 0.165821 0.000000 0.000000
O O14 0.165801 0.247106 0.736560
O O15 0.271953 0.265883 0.631882
#
# Coordination Sequence:
#
# PCOD9418628 Si02
#       7
#     8   4   8   8   8   8   4
#     4  10  21  37  64  91 121 154 209 257 310 366
#     4  11  23  40  61  88 126 169 201 253 305 369
#     4  10  21  39  63  90 118 153 203 255 306 364
#     4  12  21  37  64  95 125 162 209 256 305 365
#     4  10  23  41  61  88 120 162 201 252 311 367
#     4  11  23  41  61  87 125 163 206 246 311 364
#     4  11  24  35  60  93 128 159 210 253 301 362
#
# _framework density 18.89151
#
# number of rings (size 3 to 8) (size 9 to 14) (size 15 to 20)
#    0.000    1.333    1.667    5.250    3.500    3.000 
#    0.000   11.667    0.000    0.000    0.000    0.000 
#    0.000    0.000    0.000    0.000    0.000    0.000 
#
# Total GULP energy -267888.624364 kJ/mol
# GULP energy per Si atom -5581.013008 kJ/mol
# Density = 1.884851 g / cm^3
# Si number density = 18.891510 Si / 1000 Ang^3
#
#
#
# Elastic Constant Matrix: (Units=GPa)
#
#
# Indices 1 2 3 4 5 6 
#
# 1 199.6445 91.2729 46.4873 0.0000 0.0000 0.0000
# 2 91.2729 140.6528 53.3286 0.0000 0.0000 0.0000
# 3 46.4873 53.3286 57.7240 0.0000 0.0000 0.0000
# 4 0.0000 0.0000 0.0000 32.8285 0.0000 0.0000
# 5 0.0000 0.0000 0.0000 0.0000 8.8407 0.0000
# 6 0.0000 0.0000 0.0000 0.0000 0.0000 98.5893
#
#
#
# Elastic Compliance Matrix: (Units=1/GPa)
#
#
# Indices 1 2 3 4 5 6 
#
# 1 0.007318 -0.003870 -0.002318 0.000000 0.000000 0.000000
# 2 -0.003870 0.012989 -0.008884 0.000000 0.000000 0.000000
# 3 -0.002318 -0.008884 0.027398 0.000000 0.000000 0.000000
# 4 0.000000 0.000000 0.000000 0.030461 0.000000 0.000000
# 5 0.000000 0.000000 0.000000 0.000000 0.113113 0.000000
# 6 0.000000 0.000000 0.000000 0.000000 0.000000 0.010143
#
#
# Mechanical properties :
#
#
# Convention : Reuss Voigt Hill
#
# Bulk Modulus (GPa) = 56.94202 86.68873 71.81538
# Shear Modulus (GPa) = 21.05976 41.84720 31.45348
#
# Velocity S-wave (km/s) = 3.34245 4.71163 4.08481
# Velocity P-wave (km/s) = 6.71587 8.69405 7.76819
#
# Compressibility (1/GPa) = 0.01756172
#
# Stress axis : x y z
#
# Youngs Moduli (GPa) = 136.65155 76.98758 36.49910
#
# Poissons Ratio (x) = 0.29792 0.08461
# Poissons Ratio (y) = 0.52881 0.32424
# Poissons Ratio (z) = 0.31679 0.68392
#
# Static dielectric constant tensor:
#      x y z
#    x 1.645400 0.000000 0.000000 
#    y 0.000000 1.722110 0.000000 
#    z 0.000000 0.000000 1.671100 
# 
# From -- ./inp_files/28320.got.cif
#   From: 2010.05.17/outbox.cif.g08.bks.cpg/sg53_15_cif.got.tgz:28320.got - 2010.06.03 12:45:16.
