data_PCOD9418947
_publ_section_title
;
Structure prediction by ZEFSAII (Michael W. Deem and Ramdas Pophale) SiO2 
 PCOD9418947
Probable space group: P M N A
;
_chemical_formula_sum "Si O2"
_cell_formula_units_Z 28
_cell_length_a 19.770829
_cell_length_b 6.298743
_cell_length_c 10.291042
_cell_angle_alpha 90.000000
_cell_angle_beta 90.000000
_cell_angle_gamma 90.000000
_cell_volume 1281.557567
_symmetry_space_group_name_H-M "P M N A"
_symmetry_group_IT_number 53
_symmetry_cell_setting 'orthorhombic'
loop_
_space_group_symop_operation_xyz
x,y,z
1/2-x,-y,1/2+z
x,-y,-z
1/2-x,y,1/2-z
-x,-y,-z
1/2+x,y,1/2-z
-x,y,z
1/2+x,-y,1/2+z
loop_
_atom_site_type_symbol
_atom_site_label
_atom_site_fract_x
_atom_site_fract_y
_atom_site_fract_z
Si Si1 0.720861 0.834658 0.381258
Si Si2 0.923218 0.823261 0.612150
Si Si3 0.679758 0.500000 0.000000
Si Si4 0.573528 0.118953 0.637824
O O1 0.750000 0.938798 0.250000
O O2 0.771988 0.648453 0.415633
O O3 0.643827 0.754916 0.361325
O O4 0.721026 0.000000 0.500000
O O5 0.868566 0.642883 0.589528
O O6 0.000000 0.740542 0.598584
O O7 0.912989 0.000000 0.500000
O O8 0.918782 0.944610 0.748710
O O9 0.500000 0.227616 0.657724
O O10 0.570745 0.000000 0.500000
#
# Coordination Sequence:
#
# PCOD9418947 Si02
#       4
#     8   8   4   8
#     4  11  24  41  62  90 125 165 206 254 309 368
#     4  10  21  40  65  90 121 161 206 256 307 365
#     4  12  23  36  61  98 128 156 202 258 317 368
#     4   9  19  38  61  83 114 159 203 244 294 354
#
# _framework density 21.848412
#
# number of rings (size 3 to 8) (size 9 to 14) (size 15 to 20)
#    0.000    1.714    0.000    4.714    0.000    5.714 
#    0.000    2.143    0.000    0.000    0.000    0.000 
#    0.000    0.000    0.000    0.000    0.000    0.000 
#
# Total GULP energy -156504.796880 kJ/mol
# GULP energy per Si atom -5589.457031 kJ/mol
# Density = 2.179868 g / cm^3
# Si number density = 21.848412 Si / 1000 Ang^3
#
#
#
# Elastic Constant Matrix: (Units=GPa)
#
#
# Indices 1 2 3 4 5 6 
#
# 1 233.0723 71.7453 43.6072 0.0000 0.0000 0.0000
# 2 71.7453 54.6646 30.6568 0.0000 0.0000 0.0000
# 3 43.6072 30.6568 155.9559 0.0000 0.0000 0.0000
# 4 0.0000 0.0000 0.0000 11.0079 0.0000 0.0000
# 5 0.0000 0.0000 0.0000 0.0000 31.2381 0.0000
# 6 0.0000 0.0000 0.0000 0.0000 0.0000 -84.2516
#
#
#
# Elastic Compliance Matrix: (Units=1/GPa)
#
#
# Indices 1 2 3 4 5 6 
#
# 1 0.007203 -0.009356 -0.000175 0.000000 0.000000 0.000000
# 2 -0.009356 0.032712 -0.003814 0.000000 0.000000 0.000000
# 3 -0.000175 -0.003814 0.007211 0.000000 0.000000 0.000000
# 4 0.000000 0.000000 0.000000 0.090844 0.000000 0.000000
# 5 0.000000 0.000000 0.000000 0.000000 0.032012 0.000000
# 6 0.000000 0.000000 0.000000 0.000000 0.000000 -0.011869
#
#
# Mechanical properties :
#
#
# Convention : Reuss Voigt Hill
#
# Bulk Modulus (GPa) = 48.93444 81.74572 65.34008
# Shear Modulus (GPa) = 26.09405 11.44445 18.76925
#
# Velocity S-wave (km/s) = 3.45965 2.29118 2.93416
# Velocity P-wave (km/s) = 6.19716 6.67049 6.43818
#
# Compressibility (1/GPa) = 0.02043550
#
# Stress axis : x y z
#
# Youngs Moduli (GPa) = 138.82722 30.57019 138.68124
#
# Poissons Ratio (x) = 0.28601 0.02427
# Poissons Ratio (y) = 1.29884 0.52896
# Poissons Ratio (z) = 0.02429 0.11660
#
# Static dielectric constant tensor:
#      x y z
#    x 1.861310 0.000000 0.000000 
#    y 0.000000 1.749840 0.000000 
#    z 0.000000 0.000000 1.796410 
# 
# From -- ./inp_files/17313.got.cif
#   From: 2010.05.17/outbox.cif.g08.bks.cpg/sg53_9_cif.got.tgz:17313.got - 2010.06.03 12:45:16.
