data_PCOD9418932
_publ_section_title
;
Structure prediction by ZEFSAII (Michael W. Deem and Ramdas Pophale) SiO2 
 PCOD9418932
Probable space group: P M N A
;
_chemical_formula_sum "Si O2"
_cell_formula_units_Z 32
_cell_length_a 13.094297
_cell_length_b 8.435831
_cell_length_c 13.480583
_cell_angle_alpha 90.000000
_cell_angle_beta 90.000000
_cell_angle_gamma 90.000000
_cell_volume 1489.082407
_symmetry_space_group_name_H-M "P M N A"
_symmetry_group_IT_number 53
_symmetry_cell_setting 'orthorhombic'
loop_
_space_group_symop_operation_xyz
x,y,z
1/2-x,-y,1/2+z
x,-y,-z
1/2-x,y,1/2-z
-x,-y,-z
1/2+x,y,1/2-z
-x,y,z
1/2+x,-y,1/2+z
loop_
_atom_site_type_symbol
_atom_site_label
_atom_site_fract_x
_atom_site_fract_y
_atom_site_fract_z
Si Si1 0.500000 0.408843 0.361535
Si Si2 0.500000 0.544866 0.863760
Si Si3 0.172847 0.242161 0.008092
Si Si4 0.820905 0.500000 0.500000
Si Si5 0.000000 0.203476 0.866250
Si Si6 0.667418 0.000000 0.000000
Si Si7 0.500000 0.160538 0.861276
O O1 0.500000 0.382028 0.244309
O O2 0.401712 0.331220 0.414920
O O3 0.500000 0.601425 0.370065
O O4 0.602755 0.584286 0.923264
O O5 0.500000 0.352250 0.865016
O O6 0.244357 0.372358 0.953702
O O7 0.099851 0.159059 0.928356
O O8 0.255270 0.122593 0.052086
O O9 0.000000 0.132407 0.756709
O O10 0.596239 0.912050 0.080062
#
# Coordination Sequence:
#
# PCOD9418932 Si02
#       7
#     4   4   8   4   4   4   4
#     4  10  21  40  64 101 129 162 227 276 315 380
#     4  10  22  38  65  97 128 172 222 276 316 379
#     4  11  21  41  66  95 134 171 209 272 331 381
#     4  11  20  39  64  94 128 169 220 273 318 370
#     4  10  21  40  68  97 124 169 225 273 314 392
#     4  11  24  41  64  94 136 183 206 267 338 394
#     4  10  22  42  63  93 135 171 223 263 323 399
#
# _framework density 21.489744999999999
#
# number of rings (size 3 to 8) (size 9 to 14) (size 15 to 20)
#    0.000    1.500    5.000    0.750    0.000    4.000 
#    0.000    7.500    0.000    0.000    0.000    0.000 
#    0.000    0.000    0.000    0.000    0.000    0.000 
#
# Total GULP energy -178573.942372 kJ/mol
# GULP energy per Si atom -5580.435699 kJ/mol
# Density = 2.144083 g / cm^3
# Si number density = 21.489745 Si / 1000 Ang^3
#
#
#
# Elastic Constant Matrix: (Units=GPa)
#
#
# Indices 1 2 3 4 5 6 
#
# 1 180.8532 54.4474 73.1589 0.0000 0.0000 0.0000
# 2 54.4474 62.6940 24.8291 0.0000 0.0000 0.0000
# 3 73.1589 24.8291 157.8922 0.0000 0.0000 0.0000
# 4 0.0000 0.0000 0.0000 26.4255 0.0000 0.0000
# 5 0.0000 0.0000 0.0000 0.0000 2.6530 0.0000
# 6 0.0000 0.0000 0.0000 0.0000 0.0000 25.4393
#
#
#
# Elastic Compliance Matrix: (Units=1/GPa)
#
#
# Indices 1 2 3 4 5 6 
#
# 1 0.008651 -0.006319 -0.003015 0.000000 0.000000 0.000000
# 2 -0.006319 0.021626 -0.000473 0.000000 0.000000 0.000000
# 3 -0.003015 -0.000473 0.007805 0.000000 0.000000 0.000000
# 4 0.000000 0.000000 0.000000 0.037842 0.000000 0.000000
# 5 0.000000 0.000000 0.000000 0.000000 0.376931 0.000000
# 6 0.000000 0.000000 0.000000 0.000000 0.000000 0.039309
#
#
# Mechanical properties :
#
#
# Convention : Reuss Voigt Hill
#
# Bulk Modulus (GPa) = 54.14744 78.47890 66.31317
# Shear Modulus (GPa) = 9.65373 27.50383 18.57878
#
# Velocity S-wave (km/s) = 2.12179 3.58139 2.94350
# Velocity P-wave (km/s) = 5.59055 7.32805 6.51746
#
# Compressibility (1/GPa) = 0.01846809
#
# Stress axis : x y z
#
# Youngs Moduli (GPa) = 115.58752 46.24082 128.12809
#
# Poissons Ratio (x) = 0.29222 0.38629
# Poissons Ratio (y) = 0.73045 0.06056
# Poissons Ratio (z) = 0.34848 0.02186
#
# Static dielectric constant tensor:
#      x y z
#    x 1.751850 0.000000 0.000000 
#    y 0.000000 1.892660 0.000000 
#    z 0.000000 0.000000 1.759860 
# 
# From -- ./inp_files/21524.got.cif
#   From: 2010.05.17/outbox.cif.g08.bks.cpg/sg53_11_cif.got.tgz:21524.got - 2010.06.03 12:45:16.
