data_PCOD9418573
_publ_section_title
;
Structure prediction by ZEFSAII (Michael W. Deem and Ramdas Pophale) SiO2 
 PCOD9418573
Probable space group: P M N A
;
_chemical_formula_sum "Si O2"
_cell_formula_units_Z 32
_cell_length_a 9.052862
_cell_length_b 7.213770
_cell_length_c 24.744611
_cell_angle_alpha 90.000000
_cell_angle_beta 90.000000
_cell_angle_gamma 90.000000
_cell_volume 1615.953362
_symmetry_space_group_name_H-M "P M N A"
_symmetry_group_IT_number 53
_symmetry_cell_setting 'orthorhombic'
loop_
_space_group_symop_operation_xyz
x,y,z
1/2-x,-y,1/2+z
x,-y,-z
1/2-x,y,1/2-z
-x,-y,-z
1/2+x,y,1/2-z
-x,y,z
1/2+x,-y,1/2+z
loop_
_atom_site_type_symbol
_atom_site_label
_atom_site_fract_x
_atom_site_fract_y
_atom_site_fract_z
Si Si1 0.831537 0.278841 0.513799
Si Si2 0.172916 0.382478 0.882465
Si Si3 0.325290 0.046440 0.692253
Si Si4 0.177118 0.777035 0.605745
O O1 0.835388 0.500000 0.500000
O O2 0.726877 0.266380 0.565235
O O3 0.785117 0.185240 0.457470
O O4 0.000000 0.223550 0.527549
O O5 0.194215 0.254949 0.830212
O O6 0.266475 0.570061 0.881145
O O7 0.000000 0.427235 0.888376
O O8 0.250000 0.021886 0.750000
O O9 0.500000 0.008600 0.695525
O O10 0.251648 0.913974 0.647849
O O11 0.000000 0.784055 0.609411
#
# Coordination Sequence:
#
# PCOD9418573 Si02
#       4
#     8   8   8   8
#     4   8  16  32  55  85 117 150 187 225 277 342
#     4  10  21  37  59  87 118 151 188 235 287 338
#     4  11  25  42  59  82 112 149 195 240 283 335
#     4  10  21  38  61  87 117 152 188 232 284 339
#
# _framework density 19.802551999999999
#
# number of rings (size 3 to 8) (size 9 to 14) (size 15 to 20)
#    0.000    2.250    0.000    3.750    0.000   11.500 
#    0.000    7.500    0.000    0.000    0.000    0.000 
#    0.000    0.000    0.000    0.000    0.000    0.000 
#
# Total GULP energy -178789.906256 kJ/mol
# GULP energy per Si atom -5587.184571 kJ/mol
# Density = 1.975748 g / cm^3
# Si number density = 19.802552 Si / 1000 Ang^3
#
#
#
# Elastic Constant Matrix: (Units=GPa)
#
#
# Indices 1 2 3 4 5 6 
#
# 1 73.4652 32.2742 47.8690 0.0000 0.0000 0.0000
# 2 32.2742 56.8222 24.5568 0.0000 0.0000 0.0000
# 3 47.8690 24.5568 105.1014 0.0000 0.0000 0.0000
# 4 0.0000 0.0000 0.0000 23.3268 0.0000 0.0000
# 5 0.0000 0.0000 0.0000 0.0000 14.8594 0.0000
# 6 0.0000 0.0000 0.0000 0.0000 0.0000 -79.6937
#
#
#
# Elastic Compliance Matrix: (Units=1/GPa)
#
#
# Indices 1 2 3 4 5 6 
#
# 1 0.023279 -0.009611 -0.008357 0.000000 0.000000 0.000000
# 2 -0.009611 0.023543 -0.001124 0.000000 0.000000 0.000000
# 3 -0.008357 -0.001124 0.013583 0.000000 0.000000 0.000000
# 4 0.000000 0.000000 0.000000 0.042869 0.000000 0.000000
# 5 0.000000 0.000000 0.000000 0.000000 0.067297 0.000000
# 6 0.000000 0.000000 0.000000 0.000000 0.000000 -0.012548
#
#
# Mechanical properties :
#
#
# Convention : Reuss Voigt Hill
#
# Bulk Modulus (GPa) = 44.99834 49.42100 47.20967
# Shear Modulus (GPa) = 24.55615 0.41109 12.48362
#
# Velocity S-wave (km/s) = 3.52525 0.45612 2.51351
# Velocity P-wave (km/s) = 6.27238 5.02876 5.68468
#
# Compressibility (1/GPa) = 0.02222304
#
# Stress axis : x y z
#
# Youngs Moduli (GPa) = 42.95638 42.47537 73.61880
#
# Poissons Ratio (x) = 0.40822 0.61525
# Poissons Ratio (y) = 0.41284 0.08272
# Poissons Ratio (z) = 0.35900 0.04772
#
# Static dielectric constant tensor:
#      x y z
#    x 1.656000 0.000000 0.000000 
#    y 0.000000 1.740730 0.000000 
#    z 0.000000 0.000000 1.680340 
# 
# From -- ./inp_files/30004.got.cif
#   From: 2010.05.17/outbox.cif.g08.bks.cpg/sg53_16_cif.got.tgz:30004.got - 2010.06.03 12:45:16.
