data_PCOD9418861
_publ_section_title
;
Structure prediction by ZEFSAII (Michael W. Deem and Ramdas Pophale) SiO2 
 PCOD9418861
Probable space group: P M N A
;
_chemical_formula_sum "Si O2"
_cell_formula_units_Z 56
_cell_length_a 16.504603
_cell_length_b 4.808078
_cell_length_c 27.031366
_cell_angle_alpha 90.000000
_cell_angle_beta 90.000000
_cell_angle_gamma 90.000000
_cell_volume 2145.085364
_symmetry_space_group_name_H-M "P M N A"
_symmetry_group_IT_number 53
_symmetry_cell_setting 'orthorhombic'
loop_
_space_group_symop_operation_xyz
x,y,z
1/2-x,-y,1/2+z
x,-y,-z
1/2-x,y,1/2-z
-x,-y,-z
1/2+x,y,1/2-z
-x,y,z
1/2+x,-y,1/2+z
loop_
_atom_site_type_symbol
_atom_site_label
_atom_site_fract_x
_atom_site_fract_y
_atom_site_fract_z
Si Si1 0.090767 0.698550 0.302428
Si Si2 0.346961 0.552549 0.053745
Si Si3 0.909774 0.249068 0.913568
Si Si4 0.804125 0.777949 0.912778
Si Si5 0.088236 0.671747 0.194534
Si Si6 0.090217 0.054060 0.397252
Si Si7 0.250709 0.695070 0.804716
O O1 0.089853 0.823708 0.247062
O O2 0.098587 0.943218 0.341947
O O3 0.168702 0.497539 0.306398
O O4 0.000000 0.569484 0.309041
O O5 0.260780 0.402202 0.057168
O O6 0.349609 0.871775 0.068998
O O7 0.398132 0.378741 0.093869
O O8 0.382157 0.500000 0.000000
O O9 0.880114 0.565287 0.909632
O O10 0.911165 0.153400 0.855695
O O11 0.000000 0.226203 0.934314
O O12 0.841371 0.053776 0.936335
O O13 0.761805 0.836256 0.858795
O O14 0.169366 0.491875 0.195664
O O15 0.000000 0.520683 0.193151
O O16 0.000000 0.979815 0.414242
O O17 0.250000 0.839496 0.750000
#
# Coordination Sequence:
#
# PCOD9418861 Si02
#       7
#     8   8   8   8   8   8   8
#     4   9  17  34  57  87 128 170 209 256 310 371
#     4  12  26  44  67  92 124 163 209 266 324 380
#     4  10  21  39  64  94 127 167 208 255 309 376
#     4  11  22  40  63  91 127 161 211 261 313 387
#     4   8  16  31  55  88 125 166 210 251 304 369
#     4  11  24  43  66  92 124 165 212 266 318 372
#     4   9  17  33  56  88 121 170 207 260 305 374
#
# _framework density 26.106186999999998
#
# number of rings (size 3 to 8) (size 9 to 14) (size 15 to 20)
#    0.000    2.000    1.429    2.143    2.000    2.286 
#    2.571    0.714    0.000    9.429    0.000    0.000 
#    0.000    0.000    0.000    0.000    0.000    0.000 
#
# Total GULP energy -313004.488379 kJ/mol
# GULP energy per Si atom -5589.365864 kJ/mol
# Density = 2.604677 g / cm^3
# Si number density = 26.106187 Si / 1000 Ang^3
#
#
#
# Elastic Constant Matrix: (Units=GPa)
#
#
# Indices 1 2 3 4 5 6 
#
# 1 159.1289 42.9022 -21.0114 0.0000 0.0000 0.0000
# 2 42.9022 83.6646 -5.4674 0.0000 0.0000 0.0000
# 3 -21.0114 -5.4674 63.1019 0.0000 0.0000 0.0000
# 4 0.0000 0.0000 0.0000 7.7784 0.0000 0.0000
# 5 0.0000 0.0000 0.0000 0.0000 7.0106 0.0000
# 6 0.0000 0.0000 0.0000 0.0000 0.0000 39.9483
#
#
#
# Elastic Compliance Matrix: (Units=1/GPa)
#
#
# Indices 1 2 3 4 5 6 
#
# 1 0.007585 -0.003745 0.002201 0.000000 0.000000 0.000000
# 2 -0.003745 0.013870 -0.000045 0.000000 0.000000 0.000000
# 3 0.002201 -0.000045 0.016576 0.000000 0.000000 0.000000
# 4 0.000000 0.000000 0.000000 0.128562 0.000000 0.000000
# 5 0.000000 0.000000 0.000000 0.000000 0.142641 0.000000
# 6 0.000000 0.000000 0.000000 0.000000 0.000000 0.025032
#
#
# Mechanical properties :
#
#
# Convention : Reuss Voigt Hill
#
# Bulk Modulus (GPa) = 28.69330 37.63801 33.16566
# Shear Modulus (GPa) = 14.32409 30.24561 22.28485
#
# Velocity S-wave (km/s) = 2.34494 3.40746 2.92485
# Velocity P-wave (km/s) = 4.28329 5.47079 4.91305
#
# Compressibility (1/GPa) = 0.03485134
#
# Stress axis : x y z
#
# Youngs Moduli (GPa) = 131.84554 72.09722 60.32705
#
# Poissons Ratio (x) = 0.27004 -0.13278
# Poissons Ratio (y) = 0.49382 0.00274
# Poissons Ratio (z) = -0.29019 0.00327
#
# Static dielectric constant tensor:
#      x y z
#    x 2.110410 0.000000 0.000000 
#    y 0.000000 1.988780 0.000000 
#    z 0.000000 0.000000 2.089320 
# 
# From -- ./inp_files/38883.got.cif
#   From: 2010.05.17/outbox.cif.g08.bks.cpg/sg53_20_cif.got.tgz:38883.got - 2010.06.03 12:45:16.
