data_PCOD9418711
_publ_section_title
;
Structure prediction by ZEFSAII (Michael W. Deem and Ramdas Pophale) SiO2 
 PCOD9418711
Probable space group: P M N A
;
_chemical_formula_sum "Si O2"
_cell_formula_units_Z 64
_cell_length_a 8.584486
_cell_length_b 24.589055
_cell_length_c 14.901471
_cell_angle_alpha 90.000000
_cell_angle_beta 90.000000
_cell_angle_gamma 90.000000
_cell_volume 3145.468041
_symmetry_space_group_name_H-M "P M N A"
_symmetry_group_IT_number 53
_symmetry_cell_setting 'orthorhombic'
loop_
_space_group_symop_operation_xyz
x,y,z
1/2-x,-y,1/2+z
x,-y,-z
1/2-x,y,1/2-z
-x,-y,-z
1/2+x,y,1/2-z
-x,y,z
1/2+x,-y,1/2+z
loop_
_atom_site_type_symbol
_atom_site_label
_atom_site_fract_x
_atom_site_fract_y
_atom_site_fract_z
Si Si1 0.182422 0.435174 0.492600
Si Si2 0.817733 0.738952 0.343983
Si Si3 0.682916 0.380280 0.663672
Si Si4 0.685234 0.911614 0.348867
Si Si5 0.314756 0.244592 0.459238
Si Si6 0.188183 0.353906 0.148739
Si Si7 0.312469 0.968274 0.848893
Si Si8 0.314214 0.867269 0.972411
O O1 0.195782 0.500000 0.500000
O O2 0.286141 0.410870 0.572050
O O3 0.241104 0.406263 0.401981
O O4 0.000000 0.421065 0.505755
O O5 0.750000 0.761514 0.250000
O O6 0.785955 0.674262 0.339411
O O7 0.733889 0.753486 0.436454
O O8 0.000000 0.751264 0.349797
O O9 0.750000 0.411870 0.750000
O O10 0.500000 0.367405 0.673153
O O11 0.750000 0.898594 0.250000
O O12 0.500000 0.910703 0.345643
O O13 0.746336 0.873313 0.427692
O O14 0.744037 0.972638 0.371676
O O15 0.500000 0.241781 0.452740
O O16 0.264896 0.299428 0.407397
O O17 0.242408 0.188057 0.425710
O O18 0.250000 0.350154 0.250000
O O19 0.000000 0.357025 0.147996
O O20 0.250000 0.954788 0.750000
O O21 0.500000 0.972624 0.847721
O O22 0.266549 0.920714 0.916847
O O23 0.500000 0.866506 0.978357
#
# Coordination Sequence:
#
# PCOD9418711 Si02
#       8
#     8   8   8   8   8   8   8   8
#     4  11  24  42  66  96 129 165 208 259 314 372
#     4  11  21  36  61  89 120 157 197 245 300 364
#     4  11  21  36  60  90 123 159 199 244 300 361
#     4  11  22  38  62  90 123 163 206 255 313 378
#     4  11  24  42  63  91 124 163 211 260 311 371
#     4  11  25  45  70  95 127 169 214 262 313 373
#     4  10  21  38  61  88 121 160 206 258 313 373
#     4  11  24  40  60  89 124 163 207 259 314 369
#
# _framework density 20.346731999999999
#
# number of rings (size 3 to 8) (size 9 to 14) (size 15 to 20)
#    0.000    1.125    1.250    7.125    0.000    7.500 
#    0.000    5.000    0.000    0.000    0.000    0.000 
#    0.000    0.000    0.000    0.000    0.000    0.000 
#
# Total GULP energy -357789.516950 kJ/mol
# GULP energy per Si atom -5590.461202 kJ/mol
# Density = 2.030042 g / cm^3
# Si number density = 20.346732 Si / 1000 Ang^3
#
#
#
# Elastic Constant Matrix: (Units=GPa)
#
#
# Indices 1 2 3 4 5 6 
#
# 1 73.1375 32.7007 21.0712 0.0000 0.0000 0.0000
# 2 32.7007 101.5039 52.5378 0.0000 0.0000 0.0000
# 3 21.0712 52.5378 109.6620 0.0000 0.0000 0.0000
# 4 0.0000 0.0000 0.0000 3.7133 0.0000 0.0000
# 5 0.0000 0.0000 0.0000 0.0000 -11.8849 0.0000
# 6 0.0000 0.0000 0.0000 0.0000 0.0000 26.7986
#
#
#
# Elastic Compliance Matrix: (Units=1/GPa)
#
#
# Indices 1 2 3 4 5 6 
#
# 1 0.016027 -0.004746 -0.000806 0.000000 0.000000 0.000000
# 2 -0.004746 0.014506 -0.006038 0.000000 0.000000 0.000000
# 3 -0.000806 -0.006038 0.012166 0.000000 0.000000 0.000000
# 4 0.000000 0.000000 0.000000 0.269301 0.000000 0.000000
# 5 0.000000 0.000000 0.000000 0.000000 -0.084140 0.000000
# 6 0.000000 0.000000 0.000000 0.000000 0.000000 0.037315
#
#
# Mechanical properties :
#
#
# Convention : Reuss Voigt Hill
#
# Bulk Modulus (GPa) = 51.22913 55.21363 53.22138
# Shear Modulus (GPa) = 16.95715 15.59166 16.27440
#
# Velocity S-wave (km/s) = 2.89001 2.77121 2.83124
# Velocity P-wave (km/s) = 6.03067 6.11840 6.07469
#
# Compressibility (1/GPa) = 0.01952015
#
# Stress axis : x y z
#
# Youngs Moduli (GPa) = 62.39424 68.93713 82.19426
#
# Poissons Ratio (x) = 0.32720 0.06622
# Poissons Ratio (y) = 0.29614 0.49626
# Poissons Ratio (z) = 0.05027 0.41622
#
# Static dielectric constant tensor:
#      x y z
#    x 1.684010 0.000000 0.000000 
#    y 0.000000 1.759760 0.000000 
#    z 0.000000 0.000000 1.743470 
# 
# From -- ./inp_files/20827.got.cif
#   From: 2010.05.17/outbox.cif.g08.bks.cpg/sg53_11_cif.got.tgz:20827.got - 2010.06.03 12:45:16.
