data_PCOD9418200
_publ_section_title
;
Structure prediction by ZEFSAII (Michael W. Deem and Ramdas Pophale) SiO2 
 PCOD9418200
Probable space group: P M N A
;
_chemical_formula_sum "Si O2"
_cell_formula_units_Z 28
_cell_length_a 26.945160
_cell_length_b 8.222453
_cell_length_c 5.467146
_cell_angle_alpha 90.000000
_cell_angle_beta 90.000000
_cell_angle_gamma 90.000000
_cell_volume 1211.275236
_symmetry_space_group_name_H-M "P M N A"
_symmetry_group_IT_number 53
_symmetry_cell_setting 'orthorhombic'
loop_
_space_group_symop_operation_xyz
x,y,z
1/2-x,-y,1/2+z
x,-y,-z
1/2-x,y,1/2-z
-x,-y,-z
1/2+x,y,1/2-z
-x,y,z
1/2+x,-y,1/2+z
loop_
_atom_site_type_symbol
_atom_site_label
_atom_site_fract_x
_atom_site_fract_y
_atom_site_fract_z
Si Si1 0.698844 0.822192 0.594515
Si Si2 0.401916 0.697100 0.760028
Si Si3 0.250000 0.403121 0.750000
Si Si4 0.441479 0.328548 0.742147
O O1 0.750000 0.831318 0.750000
O O2 0.655600 0.741251 0.750698
O O3 0.706942 0.711267 0.354604
O O4 0.685940 0.000000 0.500000
O O5 0.413222 0.503096 0.750891
O O6 0.425556 0.758875 0.506491
O O7 0.426676 0.759318 0.007917
O O8 0.236636 0.500000 0.500000
O O9 0.500000 0.362861 0.738999
#
# Coordination Sequence:
#
# PCOD9418200 Si02
#       4
#     8   8   4   8
#     4  12  28  48  72 101 157 205 243 295 380 443
#     4  10  22  35  67  99 130 183 245 282 353 448
#     4  12  28  44  74 104 138 186 254 314 346 420
#     4  10  20  40  67 102 143 178 229 318 385 417
#
# _framework density 23.116133000000001
#
# number of rings (size 3 to 8) (size 9 to 14) (size 15 to 20)
#    0.000    1.143    2.857    4.286    8.000    2.286 
#    0.000    0.000    0.000    9.429    0.000    0.000 
#    0.000    0.000    0.000    0.000    0.000    0.000 
#
# Total GULP energy -156495.268036 kJ/mol
# GULP energy per Si atom -5589.116716 kJ/mol
# Density = 2.306352 g / cm^3
# Si number density = 23.116133 Si / 1000 Ang^3
#
#
#
# Elastic Constant Matrix: (Units=GPa)
#
#
# Indices 1 2 3 4 5 6 
#
# 1 168.3840 37.7390 48.8358 0.0000 0.0000 0.0000
# 2 37.7390 70.3778 30.4314 0.0000 0.0000 0.0000
# 3 48.8358 30.4314 227.0032 0.0000 0.0000 0.0000
# 4 0.0000 0.0000 0.0000 3.6122 0.0000 0.0000
# 5 0.0000 0.0000 0.0000 0.0000 46.3739 0.0000
# 6 0.0000 0.0000 0.0000 0.0000 0.0000 48.8429
#
#
#
# Elastic Compliance Matrix: (Units=1/GPa)
#
#
# Indices 1 2 3 4 5 6 
#
# 1 0.006983 -0.003285 -0.001062 0.000000 0.000000 0.000000
# 2 -0.003285 0.016629 -0.001522 0.000000 0.000000 0.000000
# 3 -0.001062 -0.001522 0.004838 0.000000 0.000000 0.000000
# 4 0.000000 0.000000 0.000000 0.276837 0.000000 0.000000
# 5 0.000000 0.000000 0.000000 0.000000 0.021564 0.000000
# 6 0.000000 0.000000 0.000000 0.000000 0.000000 0.020474
#
#
# Mechanical properties :
#
#
# Convention : Reuss Voigt Hill
#
# Bulk Modulus (GPa) = 59.84264 77.75305 68.79785
# Shear Modulus (GPa) = 13.71239 43.01640 28.36439
#
# Velocity S-wave (km/s) = 2.43820 4.31847 3.50671
# Velocity P-wave (km/s) = 5.81983 7.65340 6.79871
#
# Compressibility (1/GPa) = 0.01671049
#
# Stress axis : x y z
#
# Youngs Moduli (GPa) = 143.20241 60.13551 206.70727
#
# Poissons Ratio (x) = 0.19757 0.21949
# Poissons Ratio (y) = 0.47048 0.31470
# Poissons Ratio (z) = 0.15206 0.09155
#
# Static dielectric constant tensor:
#      x y z
#    x 1.862070 0.000000 0.000000 
#    y 0.000000 1.867070 0.000000 
#    z 0.000000 0.000000 1.601790 
# 
# From -- ./inp_files/4876.got.cif
#   From: 2010.05.17/outbox.cif.g08.bks.cpg/sg53_3_cif.got.tgz:4876.got - 2010.06.03 12:45:16.
