data_PCOD9418436
_publ_section_title
;
Structure prediction by ZEFSAII (Michael W. Deem and Ramdas Pophale) SiO2 
 PCOD9418436
Probable space group: P M N A
;
_chemical_formula_sum "Si O2"
_cell_formula_units_Z 60
_cell_length_a 20.169147
_cell_length_b 12.235047
_cell_length_c 12.152181
_cell_angle_alpha 90.000000
_cell_angle_beta 90.000000
_cell_angle_gamma 90.000000
_cell_volume 2998.799314
_symmetry_space_group_name_H-M "P M N A"
_symmetry_group_IT_number 53
_symmetry_cell_setting 'orthorhombic'
loop_
_space_group_symop_operation_xyz
x,y,z
1/2-x,-y,1/2+z
x,-y,-z
1/2-x,y,1/2-z
-x,-y,-z
1/2+x,y,1/2-z
-x,y,z
1/2+x,-y,1/2+z
loop_
_atom_site_type_symbol
_atom_site_label
_atom_site_fract_x
_atom_site_fract_y
_atom_site_fract_z
Si Si1 0.331196 0.000000 0.500000
Si Si2 0.078966 0.318182 0.689281
Si Si3 0.927758 0.744828 0.859273
Si Si4 0.574730 0.570399 0.825108
Si Si5 0.921382 0.119042 0.827333
Si Si6 0.425317 0.928304 0.831905
Si Si7 0.852918 0.249503 0.471022
Si Si8 0.220720 0.804990 0.875855
O O1 0.379016 0.921977 0.429291
O O2 0.288410 0.930111 0.585833
O O3 0.096003 0.446088 0.692194
O O4 0.089931 0.245155 0.797302
O O5 0.120381 0.264092 0.592260
O O6 0.000000 0.309324 0.665155
O O7 0.929188 0.633138 0.790300
O O8 0.928995 0.845271 0.772035
O O9 0.851743 0.753261 0.897619
O O10 0.000000 0.752120 0.920353
O O11 0.500000 0.569767 0.872698
O O12 0.618271 0.647613 0.902390
O O13 0.000000 0.100458 0.845468
O O14 0.903827 0.042513 0.721535
O O15 0.500000 0.939261 0.876517
O O16 0.380292 0.863578 0.918000
O O17 0.774892 0.248303 0.454500
O O18 0.250000 0.796631 0.750000
#
# Coordination Sequence:
#
# PCOD9418436 Si02
#       8
#     4   8   8   8   8   8   8   8
#     4  12  25  40  62  82 121 164 208 252 312 384
#     4  10  21  36  59  95 132 160 196 255 313 371
#     4   9  17  34  61  87 111 150 204 253 293 346
#     4   9  17  33  62  91 122 162 200 245 305 367
#     4  10  21  38  61  88 120 158 208 255 302 365
#     4   9  16  30  54  85 115 153 196 244 294 352
#     4  11  20  33  57  88 126 162 204 243 306 370
#     4  12  23  39  60  89 119 156 202 253 307 365
#
# _framework density 20.008008
#
# number of rings (size 3 to 8) (size 9 to 14) (size 15 to 20)
#    0.000    1.867    4.000    2.600    0.000    4.267 
#    0.000    2.000    8.800    0.000    0.000    4.200 
#    0.000    0.000    0.000    0.000    0.000    0.000 
#
# Total GULP energy -334527.674208 kJ/mol
# GULP energy per Si atom -5575.461237 kJ/mol
# Density = 1.996247 g / cm^3
# Si number density = 20.008008 Si / 1000 Ang^3
#
#
#
# Elastic Constant Matrix: (Units=GPa)
#
#
# Indices 1 2 3 4 5 6 
#
# 1 112.1958 35.3280 35.2833 0.0000 0.0000 0.0000
# 2 35.3280 84.4315 35.8910 0.0000 0.0000 0.0000
# 3 35.2833 35.8910 44.9971 0.0000 0.0000 0.0000
# 4 0.0000 0.0000 0.0000 14.3157 0.0000 0.0000
# 5 0.0000 0.0000 0.0000 0.0000 17.4666 0.0000
# 6 0.0000 0.0000 0.0000 0.0000 0.0000 34.5101
#
#
#
# Elastic Compliance Matrix: (Units=1/GPa)
#
#
# Indices 1 2 3 4 5 6 
#
# 1 0.011961 -0.001540 -0.008151 0.000000 0.000000 0.000000
# 2 -0.001540 0.018118 -0.013244 0.000000 0.000000 0.000000
# 3 -0.008151 -0.013244 0.039179 0.000000 0.000000 0.000000
# 4 0.000000 0.000000 0.000000 0.069854 0.000000 0.000000
# 5 0.000000 0.000000 0.000000 0.000000 0.057252 0.000000
# 6 0.000000 0.000000 0.000000 0.000000 0.000000 0.028977
#
#
# Mechanical properties :
#
#
# Convention : Reuss Voigt Hill
#
# Bulk Modulus (GPa) = 42.75598 50.51432 46.63515
# Shear Modulus (GPa) = 17.92077 22.26663 20.09370
#
# Velocity S-wave (km/s) = 2.99604 3.33961 3.17248
# Velocity P-wave (km/s) = 5.77790 6.33818 6.06452
#
# Compressibility (1/GPa) = 0.02338854
#
# Stress axis : x y z
#
# Youngs Moduli (GPa) = 83.60429 55.19313 25.52418
#
# Poissons Ratio (x) = 0.08500 0.20804
# Poissons Ratio (y) = 0.12876 0.33804
# Poissons Ratio (z) = 0.68142 0.73098
#
# Static dielectric constant tensor:
#      x y z
#    x 1.745220 0.000000 0.000000 
#    y 0.000000 1.721860 0.000000 
#    z 0.000000 0.000000 1.733950 
# 
# From -- ./inp_files/17904.got.cif
#   From: 2010.05.17/outbox.cif.g08.bks.cpg/sg53_9_cif.got.tgz:17904.got - 2010.06.03 12:45:16.
