data_PCOD9418007
_publ_section_title
;
Structure prediction by ZEFSAII (Michael W. Deem and Ramdas Pophale) SiO2 
 PCOD9418007
Probable space group: P M N A
;
_chemical_formula_sum "Si O2"
_cell_formula_units_Z 40
_cell_length_a 21.595488
_cell_length_b 8.609403
_cell_length_c 10.570884
_cell_angle_alpha 90.000000
_cell_angle_beta 90.000000
_cell_angle_gamma 90.000000
_cell_volume 1965.383777
_symmetry_space_group_name_H-M "P M N A"
_symmetry_group_IT_number 53
_symmetry_cell_setting 'orthorhombic'
loop_
_space_group_symop_operation_xyz
x,y,z
1/2-x,-y,1/2+z
x,-y,-z
1/2-x,y,1/2-z
-x,-y,-z
1/2+x,y,1/2-z
-x,y,z
1/2+x,-y,1/2+z
loop_
_atom_site_type_symbol
_atom_site_label
_atom_site_fract_x
_atom_site_fract_y
_atom_site_fract_z
Si Si1 0.699367 0.000000 0.500000
Si Si2 0.750000 0.539066 0.750000
Si Si3 0.702440 0.231823 0.043796
Si Si4 0.633524 0.347498 0.808871
Si Si5 0.000000 0.591199 0.365047
Si Si6 0.000000 0.969607 0.351735
Si Si7 0.631255 0.983862 0.754294
O O1 0.746389 0.138818 0.536807
O O2 0.658690 0.943637 0.617736
O O3 0.761651 0.646336 0.629450
O O4 0.688172 0.438444 0.740378
O O5 0.669236 0.108689 0.137939
O O6 0.653368 0.318536 0.955353
O O7 0.567765 0.436471 0.803020
O O8 0.633869 0.170937 0.760195
O O9 0.000000 0.500000 0.500000
O O10 0.000000 0.781016 0.356319
O O11 0.940403 0.043037 0.284996
O O12 0.000000 0.000000 0.500000
#
# Coordination Sequence:
#
# PCOD9418007 Si02
#       7
#     4   4   8   8   4   4   8
#     4  12  22  37  62  85 128 160 204 260 318 370
#     4  12  24  36  58  96 126 162 214 254 332 384
#     4  12  22  39  62  92 123 165 213 262 320 381
#     4  11  23  39  63  92 129 164 208 270 315 388
#     4  10  20  38  59  89 126 161 196 251 328 371
#     4  10  22  39  65  93 116 161 212 263 307 379
#     4  11  22  40  63  89 124 165 211 256 322 371
#
# _framework density 20.352260000000001
#
# number of rings (size 3 to 8) (size 9 to 14) (size 15 to 20)
#    0.000    0.800    4.000    5.400    0.000    0.400 
#    0.000    0.000    0.000    0.000    0.000    7.000 
#    0.000    0.000    0.000    0.000    0.000    0.000 
#
# Total GULP energy -223200.546357 kJ/mol
# GULP energy per Si atom -5580.013659 kJ/mol
# Density = 2.030594 g / cm^3
# Si number density = 20.352260 Si / 1000 Ang^3
#
#
#
# Elastic Constant Matrix: (Units=GPa)
#
#
# Indices 1 2 3 4 5 6 
#
# 1 182.8287 38.5403 39.5364 0.0000 0.0000 0.0000
# 2 38.5403 48.4017 -6.1306 0.0000 0.0000 0.0000
# 3 39.5364 -6.1306 48.5534 0.0000 0.0000 0.0000
# 4 0.0000 0.0000 0.0000 35.4947 0.0000 0.0000
# 5 0.0000 0.0000 0.0000 0.0000 33.0382 0.0000
# 6 0.0000 0.0000 0.0000 0.0000 0.0000 19.6069
#
#
#
# Elastic Compliance Matrix: (Units=1/GPa)
#
#
# Indices 1 2 3 4 5 6 
#
# 1 0.009022 -0.008246 -0.008387 0.000000 0.000000 0.000000
# 2 -0.008246 0.028533 0.010317 0.000000 0.000000 0.000000
# 3 -0.008387 0.010317 0.028728 0.000000 0.000000 0.000000
# 4 0.000000 0.000000 0.000000 0.028173 0.000000 0.000000
# 5 0.000000 0.000000 0.000000 0.000000 0.030268 0.000000
# 6 0.000000 0.000000 0.000000 0.000000 0.000000 0.051002
#
#
# Mechanical properties :
#
#
# Convention : Reuss Voigt Hill
#
# Bulk Modulus (GPa) = 18.63893 47.07510 32.85701
# Shear Modulus (GPa) = 24.24333 31.48380 27.86356
#
# Velocity S-wave (km/s) = 3.45510 3.93739 3.70410
# Velocity P-wave (km/s) = 5.00949 6.62201 5.87137
#
# Compressibility (1/GPa) = 0.05365116
#
# Stress axis : x y z
#
# Youngs Moduli (GPa) = 110.84529 35.04701 34.80883
#
# Poissons Ratio (x) = 0.28899 0.29195
# Poissons Ratio (y) = 0.91402 -0.35913
# Poissons Ratio (z) = 0.92970 -0.36159
#
# Static dielectric constant tensor:
#      x y z
#    x 1.829960 0.000000 0.000000 
#    y 0.000000 1.771030 0.000000 
#    z 0.000000 0.000000 1.726370 
# 
# From -- ./inp_files/17702.got.cif
#   From: 2010.05.17/outbox.cif.g08.bks.cpg/sg53_9_cif.got.tgz:17702.got - 2010.06.03 12:45:16.
