data_PCOD9418108
_publ_section_title
;
Structure prediction by ZEFSAII (Michael W. Deem and Ramdas Pophale) SiO2 
 PCOD9418108
Probable space group: P M N A
;
_chemical_formula_sum "Si O2"
_cell_formula_units_Z 48
_cell_length_a 28.531006
_cell_length_b 8.846866
_cell_length_c 8.490951
_cell_angle_alpha 90.000000
_cell_angle_beta 90.000000
_cell_angle_gamma 90.000000
_cell_volume 2143.200831
_symmetry_space_group_name_H-M "P M N A"
_symmetry_group_IT_number 53
_symmetry_cell_setting 'orthorhombic'
loop_
_space_group_symop_operation_xyz
x,y,z
1/2-x,-y,1/2+z
x,-y,-z
1/2-x,y,1/2-z
-x,-y,-z
1/2+x,y,1/2-z
-x,y,z
1/2+x,-y,1/2+z
loop_
_atom_site_type_symbol
_atom_site_label
_atom_site_fract_x
_atom_site_fract_y
_atom_site_fract_z
Si Si1 0.876964 0.866404 0.605266
Si Si2 0.447792 0.876830 0.635174
Si Si3 0.447667 0.658641 0.090058
Si Si4 0.896456 0.347941 0.907640
Si Si5 0.799611 0.677943 0.797894
Si Si6 0.201682 0.328035 0.824703
O O1 0.915413 0.935330 0.724866
O O2 0.908294 0.757340 0.496294
O O3 0.839974 0.770701 0.709236
O O4 0.855349 0.000000 0.500000
O O5 0.500000 0.831877 0.688217
O O6 0.420144 0.744785 0.547099
O O7 0.452110 0.000000 0.500000
O O8 0.500000 0.727678 0.084847
O O9 0.433690 0.626540 0.270354
O O10 0.448860 0.500000 0.000000
O O11 0.852102 0.270220 0.817891
O O12 0.880849 0.500000 0.000000
O O13 0.750000 0.744667 0.750000
O O14 0.801927 0.499149 0.754696
O O15 0.795030 0.677371 0.986537
O O16 0.250000 0.263567 0.750000
#
# Coordination Sequence:
#
# PCOD9418108 Si02
#       6
#     8   8   8   8   8   8
#     4  12  25  45  69  98 144 189 228 288 349 425
#     4  11  24  43  67  94 129 181 237 284 339 412
#     4  11  25  41  64 101 139 183 239 295 354 412
#     4  12  22  41  66 100 136 176 227 291 350 413
#     4  10  21  41  66 100 135 172 225 277 352 421
#     4  10  20  38  68 104 131 167 221 294 349 408
#
# _framework density 22.396407
#
# number of rings (size 3 to 8) (size 9 to 14) (size 15 to 20)
#    0.000    1.000    3.333    4.000    2.333    5.333 
#    0.000    0.833    0.000    0.000    0.000    0.000 
#    0.000    0.000    0.000    0.000    0.000    0.000 
#
# Total GULP energy -267800.906920 kJ/mol
# GULP energy per Si atom -5579.185561 kJ/mol
# Density = 2.234543 g / cm^3
# Si number density = 22.396407 Si / 1000 Ang^3
#
#
#
# Elastic Constant Matrix: (Units=GPa)
#
#
# Indices 1 2 3 4 5 6 
#
# 1 161.4411 29.2238 48.8042 0.0000 0.0000 0.0000
# 2 29.2238 43.0387 24.1051 0.0000 0.0000 0.0000
# 3 48.8042 24.1051 105.7211 0.0000 0.0000 0.0000
# 4 0.0000 0.0000 0.0000 33.1637 0.0000 0.0000
# 5 0.0000 0.0000 0.0000 0.0000 41.8896 0.0000
# 6 0.0000 0.0000 0.0000 0.0000 0.0000 12.9840
#
#
#
# Elastic Compliance Matrix: (Units=1/GPa)
#
#
# Indices 1 2 3 4 5 6 
#
# 1 0.007681 -0.003702 -0.002702 0.000000 0.000000 0.000000
# 2 -0.003702 0.028421 -0.004771 0.000000 0.000000 0.000000
# 3 -0.002702 -0.004771 0.011794 0.000000 0.000000 0.000000
# 4 0.000000 0.000000 0.000000 0.030153 0.000000 0.000000
# 5 0.000000 0.000000 0.000000 0.000000 0.023872 0.000000
# 6 0.000000 0.000000 0.000000 0.000000 0.000000 0.077018
#
#
# Mechanical properties :
#
#
# Convention : Reuss Voigt Hill
#
# Bulk Modulus (GPa) = 39.14539 57.16298 48.15418
# Shear Modulus (GPa) = 23.83164 31.47865 27.65515
#
# Velocity S-wave (km/s) = 3.26557 3.75310 3.51779
# Velocity P-wave (km/s) = 5.63338 6.66031 6.16825
#
# Compressibility (1/GPa) = 0.02554579
#
# Stress axis : x y z
#
# Youngs Moduli (GPa) = 130.18891 35.18518 84.78992
#
# Poissons Ratio (x) = 0.13027 0.22908
# Poissons Ratio (y) = 0.48202 0.40453
# Poissons Ratio (z) = 0.35173 0.16787
#
# Static dielectric constant tensor:
#      x y z
#    x 1.920610 0.000000 0.000000 
#    y 0.000000 1.749280 0.000000 
#    z 0.000000 0.000000 1.818510 
# 
# From -- ./inp_files/13053.got.cif
#   From: 2010.05.17/outbox.cif.g08.bks.cpg/sg53_7_cif.got.tgz:13053.got - 2010.06.03 12:45:16.
