data_PCOD9418014
_publ_section_title
;
Structure prediction by ZEFSAII (Michael W. Deem and Ramdas Pophale) SiO2 
 PCOD9418014
Probable space group: P M N A
;
_chemical_formula_sum "Si O2"
_cell_formula_units_Z 48
_cell_length_a 18.913920
_cell_length_b 15.534202
_cell_length_c 8.600618
_cell_angle_alpha 90.000000
_cell_angle_beta 90.000000
_cell_angle_gamma 90.000000
_cell_volume 2526.970400
_symmetry_space_group_name_H-M "P M N A"
_symmetry_group_IT_number 53
_symmetry_cell_setting 'orthorhombic'
loop_
_space_group_symop_operation_xyz
x,y,z
1/2-x,-y,1/2+z
x,-y,-z
1/2-x,y,1/2-z
-x,-y,-z
1/2+x,y,1/2-z
-x,y,z
1/2+x,-y,1/2+z
loop_
_atom_site_type_symbol
_atom_site_label
_atom_site_fract_x
_atom_site_fract_y
_atom_site_fract_z
Si Si1 0.816352 0.071330 0.631186
Si Si2 0.659386 0.236865 0.426082
Si Si3 0.419553 0.915683 0.394770
Si Si4 0.581687 0.589792 0.564673
Si Si5 0.581975 0.593184 0.938909
Si Si6 0.827563 0.241544 0.435960
O O1 0.750000 0.077859 0.750000
O O2 0.884266 0.052602 0.735841
O O3 0.835666 0.160077 0.546408
O O4 0.800892 0.000000 0.500000
O O5 0.629537 0.157161 0.524930
O O6 0.621613 0.323855 0.481658
O O7 0.743011 0.252968 0.436217
O O8 0.646829 0.222121 0.240975
O O9 0.500000 0.883374 0.376681
O O10 0.420913 0.000000 0.500000
O O11 0.611237 0.500000 0.500000
O O12 0.500000 0.595573 0.513553
O O13 0.583527 0.588089 0.751759
O O14 0.500000 0.606872 0.987153
O O15 0.630961 0.672899 0.987559
O O16 0.605165 0.500000 0.000000
#
# Coordination Sequence:
#
# PCOD9418014 Si02
#       6
#     8   8   8   8   8   8
#     4  12  25  41  65  91 123 165 207 260 315 382
#     4  10  20  38  60  87 121 160 200 255 310 366
#     4  11  24  42  63  90 123 160 204 256 312 373
#     4   9  18  33  54  81 113 157 204 244 296 362
#     4   9  19  37  58  84 122 165 205 252 310 365
#     4  10  22  37  62  90 121 159 210 253 308 375
#
# _framework density 18.995079
#
# number of rings (size 3 to 8) (size 9 to 14) (size 15 to 20)
#    0.000    1.833    1.667    2.000    2.333    3.667 
#    0.000    1.667    0.000    0.000    0.000    0.000 
#    0.000    0.000    0.000    0.000    0.000    0.000 
#
# Total GULP energy -267828.223056 kJ/mol
# GULP energy per Si atom -5579.754647 kJ/mol
# Density = 1.895184 g / cm^3
# Si number density = 18.995079 Si / 1000 Ang^3
#
#
#
# Elastic Constant Matrix: (Units=GPa)
#
#
# Indices 1 2 3 4 5 6 
#
# 1 74.9475 42.9426 32.2553 0.0000 0.0000 0.0000
# 2 42.9426 117.9050 44.1874 0.0000 0.0000 0.0000
# 3 32.2553 44.1874 57.5583 0.0000 0.0000 0.0000
# 4 0.0000 0.0000 0.0000 38.6305 0.0000 0.0000
# 5 0.0000 0.0000 0.0000 0.0000 14.5326 0.0000
# 6 0.0000 0.0000 0.0000 0.0000 0.0000 32.2523
#
#
#
# Elastic Compliance Matrix: (Units=1/GPa)
#
#
# Indices 1 2 3 4 5 6 
#
# 1 0.018891 -0.004089 -0.007447 0.000000 0.000000 0.000000
# 2 -0.004089 0.012793 -0.007529 0.000000 0.000000 0.000000
# 3 -0.007447 -0.007529 0.027327 0.000000 0.000000 0.000000
# 4 0.000000 0.000000 0.000000 0.025886 0.000000 0.000000
# 5 0.000000 0.000000 0.000000 0.000000 0.068811 0.000000
# 6 0.000000 0.000000 0.000000 0.000000 0.000000 0.031005
#
#
# Mechanical properties :
#
#
# Convention : Reuss Voigt Hill
#
# Bulk Modulus (GPa) = 47.89391 54.35350 51.12370
# Shear Modulus (GPa) = 21.75776 25.81811 23.78793
#
# Velocity S-wave (km/s) = 3.38811 3.69073 3.54265
# Velocity P-wave (km/s) = 6.36980 6.84388 6.61109
#
# Compressibility (1/GPa) = 0.02087948
#
# Stress axis : x y z
#
# Youngs Moduli (GPa) = 52.93618 78.17072 36.59396
#
# Poissons Ratio (x) = 0.31967 0.27251
# Poissons Ratio (y) = 0.21648 0.27552
# Poissons Ratio (z) = 0.39421 0.58856
#
# Static dielectric constant tensor:
#      x y z
#    x 1.674260 0.000000 0.000000 
#    y 0.000000 1.629820 0.000000 
#    z 0.000000 0.000000 1.679700 
# 
# From -- ./inp_files/10007.got.cif
#   From: 2010.05.17/outbox.cif.g08.bks.cpg/sg53_6_cif.got.tgz:10007.got - 2010.06.03 12:45:16.
