data_PCOD9418514
_publ_section_title
;
Structure prediction by ZEFSAII (Michael W. Deem and Ramdas Pophale) SiO2 
 PCOD9418514
Probable space group: P M N A
;
_chemical_formula_sum "Si O2"
_cell_formula_units_Z 48
_cell_length_a 8.862545
_cell_length_b 15.321428
_cell_length_c 19.641246
_cell_angle_alpha 90.000000
_cell_angle_beta 90.000000
_cell_angle_gamma 90.000000
_cell_volume 2667.022828
_symmetry_space_group_name_H-M "P M N A"
_symmetry_group_IT_number 53
_symmetry_cell_setting 'orthorhombic'
loop_
_space_group_symop_operation_xyz
x,y,z
1/2-x,-y,1/2+z
x,-y,-z
1/2-x,y,1/2-z
-x,-y,-z
1/2+x,y,1/2-z
-x,y,z
1/2+x,-y,1/2+z
loop_
_atom_site_type_symbol
_atom_site_label
_atom_site_fract_x
_atom_site_fract_y
_atom_site_fract_z
Si Si1 0.318118 0.726467 0.417489
Si Si2 0.318935 0.634100 0.676003
Si Si3 0.818724 0.432677 0.823460
Si Si4 0.319269 0.762431 0.935243
Si Si5 0.680313 0.894163 0.324932
Si Si6 0.181464 0.034741 0.424856
O O1 0.500000 0.725585 0.426886
O O2 0.272221 0.636950 0.380189
O O3 0.240016 0.739416 0.489740
O O4 0.280561 0.807220 0.367856
O O5 0.250000 0.654316 0.750000
O O6 0.500000 0.640474 0.678670
O O7 0.278343 0.532924 0.660256
O O8 0.253834 0.698407 0.619662
O O9 0.750000 0.410442 0.750000
O O10 0.000000 0.428157 0.817787
O O11 0.500000 0.754955 0.933257
O O12 0.279470 0.863318 0.920015
O O13 0.750000 0.890951 0.250000
O O14 0.500000 0.898714 0.319721
O O15 0.741529 0.976121 0.367614
O O16 0.000000 0.025865 0.418969
O O17 0.224695 0.000000 0.500000
#
# Coordination Sequence:
#
# PCOD9418514 Si02
#       6
#     8   8   8   8   8   8
#     4  10  21  37  57  85 118 152 189 231 283 341
#     4  10  21  39  61  84 114 150 191 238 284 337
#     4   9  19  36  58  83 114 153 191 232 284 336
#     4  11  23  38  60  86 113 150 191 236 288 340
#     4  11  23  37  59  88 118 151 190 236 283 338
#     4  10  21  40  61  81 111 150 190 235 287 339
#
# _framework density 17.997596999999999
#
# number of rings (size 3 to 8) (size 9 to 14) (size 15 to 20)
#    0.000    1.833    1.667    2.000    0.000    5.000 
#    0.000    3.333    0.000    0.000    0.000    0.000 
#    0.000    0.000    0.000    0.000    0.000    0.000 
#
# Total GULP energy -268160.911900 kJ/mol
# GULP energy per Si atom -5586.685665 kJ/mol
# Density = 1.795663 g / cm^3
# Si number density = 17.997597 Si / 1000 Ang^3
#
#
#
# Elastic Constant Matrix: (Units=GPa)
#
#
# Indices 1 2 3 4 5 6 
#
# 1 43.8636 62.8668 67.7826 0.0000 0.0000 0.0000
# 2 62.8668 150.9429 123.3560 0.0000 0.0000 0.0000
# 3 67.7826 123.3560 183.7855 0.0000 0.0000 0.0000
# 4 0.0000 0.0000 0.0000 39.1745 0.0000 0.0000
# 5 0.0000 0.0000 0.0000 0.0000 38.4436 0.0000
# 6 0.0000 0.0000 0.0000 0.0000 0.0000 26.8172
#
#
#
# Elastic Compliance Matrix: (Units=1/GPa)
#
#
# Indices 1 2 3 4 5 6 
#
# 1 0.069270 -0.017658 -0.013696 0.000000 0.000000 0.000000
# 2 -0.017658 0.019175 -0.006358 0.000000 0.000000 0.000000
# 3 -0.013696 -0.006358 0.014760 0.000000 0.000000 0.000000
# 4 0.000000 0.000000 0.000000 0.025527 0.000000 0.000000
# 5 0.000000 0.000000 0.000000 0.000000 0.026012 0.000000
# 6 0.000000 0.000000 0.000000 0.000000 0.000000 0.037290
#
#
# Mechanical properties :
#
#
# Convention : Reuss Voigt Hill
#
# Bulk Modulus (GPa) = 35.99482 98.51140 67.25311
# Shear Modulus (GPa) = 18.06902 29.19282 23.63092
#
# Velocity S-wave (km/s) = 3.17198 4.03183 3.62747
# Velocity P-wave (km/s) = 5.78433 8.74808 7.41577
#
# Compressibility (1/GPa) = 0.02778177
#
# Stress axis : x y z
#
# Youngs Moduli (GPa) = 14.43635 52.15047 67.75154
#
# Poissons Ratio (x) = 0.92085 0.92792
# Poissons Ratio (y) = 0.25491 0.43076
# Poissons Ratio (z) = 0.19772 0.33157
#
# Static dielectric constant tensor:
#      x y z
#    x 1.603840 0.000000 0.000000 
#    y 0.000000 1.610820 0.000000 
#    z 0.000000 0.000000 1.568630 
# 
# From -- ./inp_files/26153.got.cif
#   From: 2010.05.17/outbox.cif.g08.bks.cpg/sg53_14_cif.got.tgz:26153.got - 2010.06.03 12:45:16.
