data_PCOD9418685
_publ_section_title
;
Structure prediction by ZEFSAII (Michael W. Deem and Ramdas Pophale) SiO2 
 PCOD9418685
Probable space group: P M N A
;
_chemical_formula_sum "Si O2"
_cell_formula_units_Z 40
_cell_length_a 8.869663
_cell_length_b 25.674702
_cell_length_c 9.416508
_cell_angle_alpha 90.000000
_cell_angle_beta 90.000000
_cell_angle_gamma 90.000000
_cell_volume 2144.383271
_symmetry_space_group_name_H-M "P M N A"
_symmetry_group_IT_number 53
_symmetry_cell_setting 'orthorhombic'
loop_
_space_group_symop_operation_xyz
x,y,z
1/2-x,-y,1/2+z
x,-y,-z
1/2-x,y,1/2-z
-x,-y,-z
1/2+x,y,1/2-z
-x,y,z
1/2+x,-y,1/2+z
loop_
_atom_site_type_symbol
_atom_site_label
_atom_site_fract_x
_atom_site_fract_y
_atom_site_fract_z
Si Si1 0.819803 0.449612 0.595229
Si Si2 0.181537 0.049881 0.406861
Si Si3 0.181040 0.150654 0.594281
Si Si4 0.679674 0.361413 0.403812
Si Si5 0.820033 0.760857 0.904329
O O1 0.783017 0.500000 0.500000
O O2 0.750000 0.455978 0.750000
O O3 0.752578 0.398835 0.519408
O O4 0.000000 0.445214 0.604698
O O5 0.250000 0.049189 0.250000
O O6 0.221966 0.102085 0.492817
O O7 0.000000 0.048266 0.394306
O O8 0.229427 0.000000 0.500000
O O9 0.250000 0.143380 0.750000
O O10 0.245882 0.202434 0.521350
O O11 0.000000 0.153338 0.603706
O O12 0.750000 0.373674 0.250000
O O13 0.500000 0.369017 0.398819
O O14 0.709304 0.300302 0.432723
O O15 0.750000 0.773217 0.750000
O O16 0.000000 0.768734 0.899947
#
# Coordination Sequence:
#
# PCOD9418685 Si02
#       5
#     8   8   8   8   8
#     4  11  24  40  60  86 116 151 190 234 284 338
#     4  10  22  39  59  85 115 148 188 233 283 339
#     4  11  23  38  58  84 115 152 193 237 286 339
#     4  10  21  38  61  87 116 151 190 234 284 338
#     4  10  21  38  60  86 116 151 191 235 284 338
#
# _framework density 18.653382000000001
#
# number of rings (size 3 to 8) (size 9 to 14) (size 15 to 20)
#    0.000    1.600    0.000    4.200    0.000   10.000 
#    0.000    0.000    0.000    0.000    0.000    0.000 
#    0.000    0.000    0.000    0.000    0.000    0.000 
#
# Total GULP energy -223665.260656 kJ/mol
# GULP energy per Si atom -5591.631516 kJ/mol
# Density = 1.861093 g / cm^3
# Si number density = 18.653382 Si / 1000 Ang^3
#
#
#
# Elastic Constant Matrix: (Units=GPa)
#
#
# Indices 1 2 3 4 5 6 
#
# 1 64.4374 62.9122 75.9217 0.0000 0.0000 0.0000
# 2 62.9122 99.2725 102.5721 0.0000 0.0000 0.0000
# 3 75.9217 102.5721 200.1147 0.0000 0.0000 0.0000
# 4 0.0000 0.0000 0.0000 46.3670 0.0000 0.0000
# 5 0.0000 0.0000 0.0000 0.0000 42.6827 0.0000
# 6 0.0000 0.0000 0.0000 0.0000 0.0000 -342.1475
#
#
#
# Elastic Compliance Matrix: (Units=1/GPa)
#
#
# Indices 1 2 3 4 5 6 
#
# 1 0.042916 -0.022054 -0.004978 0.000000 0.000000 0.000000
# 2 -0.022054 0.032748 -0.008418 0.000000 0.000000 0.000000
# 3 -0.004978 -0.008418 0.011201 0.000000 0.000000 0.000000
# 4 0.000000 0.000000 0.000000 0.021567 0.000000 0.000000
# 5 0.000000 0.000000 0.000000 0.000000 0.023429 0.000000
# 6 0.000000 0.000000 0.000000 0.000000 0.000000 -0.002923
#
#
# Mechanical properties :
#
#
# Convention : Reuss Voigt Hill
#
# Bulk Modulus (GPa) = 62.64059 94.07072 78.35565
# Shear Modulus (GPa) = 24.37144 -42.45834 -9.04345
#
# Velocity S-wave (km/s) = 3.61853 -4.77610 -2.20424
# Velocity P-wave (km/s) = 7.14931 4.48615 5.96817
#
# Compressibility (1/GPa) = 0.01596409
#
# Stress axis : x y z
#
# Youngs Moduli (GPa) = 23.30149 30.53659 89.28097
#
# Poissons Ratio (x) = 0.67345 0.44442
# Poissons Ratio (y) = 0.51389 0.75159
# Poissons Ratio (z) = 0.11599 0.25707
#
# Static dielectric constant tensor:
#      x y z
#    x 1.621870 0.000000 0.000000 
#    y 0.000000 1.635430 0.000000 
#    z 0.000000 0.000000 1.600450 
# 
# From -- ./inp_files/6248.got.cif
#   From: 2010.05.17/outbox.cif.g08.bks.cpg/sg53_4_cif.got.tgz:6248.got - 2010.06.03 12:45:16.
