data_PCOD9418584
_publ_section_title
;
Structure prediction by ZEFSAII (Michael W. Deem and Ramdas Pophale) SiO2 
 PCOD9418584
Probable space group: P M N A
;
_chemical_formula_sum "Si O2"
_cell_formula_units_Z 40
_cell_length_a 15.609527
_cell_length_b 14.202098
_cell_length_c 8.124686
_cell_angle_alpha 90.000000
_cell_angle_beta 90.000000
_cell_angle_gamma 90.000000
_cell_volume 1801.145651
_symmetry_space_group_name_H-M "P M N A"
_symmetry_group_IT_number 53
_symmetry_cell_setting 'orthorhombic'
loop_
_space_group_symop_operation_xyz
x,y,z
1/2-x,-y,1/2+z
x,-y,-z
1/2-x,y,1/2-z
-x,-y,-z
1/2+x,y,1/2-z
-x,y,z
1/2+x,-y,1/2+z
loop_
_atom_site_type_symbol
_atom_site_label
_atom_site_fract_x
_atom_site_fract_y
_atom_site_fract_z
Si Si1 0.754395 0.392170 0.049846
Si Si2 0.597017 0.260099 0.406393
Si Si3 0.093541 0.060272 0.161732
Si Si4 0.189453 0.918571 0.393057
Si Si5 0.097512 0.268568 0.482536
O O1 0.750000 0.386557 0.250000
O O2 0.838314 0.330707 0.005796
O O3 0.669611 0.345145 0.969758
O O4 0.762546 0.500000 0.000000
O O5 0.500000 0.258164 0.477662
O O6 0.639692 0.156126 0.394442
O O7 0.590176 0.284591 0.213579
O O8 0.000000 0.095533 0.218977
O O9 0.126188 0.990290 0.299429
O O10 0.082988 0.000000 0.000000
O O11 0.250000 0.878798 0.250000
O O12 0.139666 0.834100 0.481471
O O13 0.237451 0.000000 0.500000
O O14 0.000000 0.274430 0.550382
#
# Coordination Sequence:
#
# PCOD9418584 Si02
#       5
#     8   8   8   8   8
#     4  10  23  42  66  91 124 163 215 275 331 382
#     4   9  19  38  66  94 127 169 209 256 320 390
#     4  10  21  37  59  90 131 171 208 251 305 378
#     4  12  25  36  60  93 131 173 217 260 318 383
#     4  10  22  41  65  91 124 170 219 260 315 387
#
# _framework density 22.208086000000002
#
# number of rings (size 3 to 8) (size 9 to 14) (size 15 to 20)
#    0.000    1.800    2.000    1.200    5.600    2.400 
#    0.000    0.000    0.000    0.000    0.000    0.000 
#    0.000    0.000    0.000    0.000    0.000    0.000 
#
# Total GULP energy -223052.556469 kJ/mol
# GULP energy per Si atom -5576.313912 kJ/mol
# Density = 2.215754 g / cm^3
# Si number density = 22.208086 Si / 1000 Ang^3
#
#
#
# Elastic Constant Matrix: (Units=GPa)
#
#
# Indices 1 2 3 4 5 6 
#
# 1 149.3431 79.3093 17.4845 0.0000 0.0000 0.0000
# 2 79.3093 166.1644 1.3733 0.0000 0.0000 0.0000
# 3 17.4845 1.3733 26.7716 0.0000 0.0000 0.0000
# 4 0.0000 0.0000 0.0000 35.1836 0.0000 0.0000
# 5 0.0000 0.0000 0.0000 0.0000 11.7894 0.0000
# 6 0.0000 0.0000 0.0000 0.0000 0.0000 25.8734
#
#
#
# Elastic Compliance Matrix: (Units=1/GPa)
#
#
# Indices 1 2 3 4 5 6 
#
# 1 0.009910 -0.004679 -0.006232 0.000000 0.000000 0.000000
# 2 -0.004679 0.008229 0.002633 0.000000 0.000000 0.000000
# 3 -0.006232 0.002633 0.041288 0.000000 0.000000 0.000000
# 4 0.000000 0.000000 0.000000 0.028422 0.000000 0.000000
# 5 0.000000 0.000000 0.000000 0.000000 0.084822 0.000000
# 6 0.000000 0.000000 0.000000 0.000000 0.000000 0.038650
#
#
# Mechanical properties :
#
#
# Convention : Reuss Voigt Hill
#
# Bulk Modulus (GPa) = 23.32476 59.84593 41.58534
# Shear Modulus (GPa) = 20.64682 30.84341 25.74512
#
# Velocity S-wave (km/s) = 3.05240 3.73075 3.40850
# Velocity P-wave (km/s) = 4.79046 6.75014 5.85290
#
# Compressibility (1/GPa) = 0.04287290
#
# Stress axis : x y z
#
# Youngs Moduli (GPa) = 100.90571 121.51496 24.21996
#
# Poissons Ratio (x) = 0.56852 0.15095
# Poissons Ratio (y) = 0.47210 -0.06378
# Poissons Ratio (z) = 0.62888 -0.32000
#
# Static dielectric constant tensor:
#      x y z
#    x 1.939720 0.000000 0.000000 
#    y 0.000000 1.770430 0.000000 
#    z 0.000000 0.000000 1.914580 
# 
# From -- ./inp_files/8429.got.cif
#   From: 2010.05.17/outbox.cif.g08.bks.cpg/sg53_5_cif.got.tgz:8429.got - 2010.06.03 12:45:16.
