data_PCOD9418049
_publ_section_title
;
Structure prediction by ZEFSAII (Michael W. Deem and Ramdas Pophale) SiO2 
 PCOD9418049
Probable space group: P M N A
;
_chemical_formula_sum "Si O2"
_cell_formula_units_Z 34
_cell_length_a 7.680420
_cell_length_b 10.262794
_cell_length_c 20.114104
_cell_angle_alpha 90.000000
_cell_angle_beta 90.000000
_cell_angle_gamma 90.000000
_cell_volume 1585.445336
_symmetry_space_group_name_H-M "P M N A"
_symmetry_group_IT_number 53
_symmetry_cell_setting 'orthorhombic'
loop_
_space_group_symop_operation_xyz
x,y,z
1/2-x,-y,1/2+z
x,-y,-z
1/2-x,y,1/2-z
-x,-y,-z
1/2+x,y,1/2-z
-x,y,z
1/2+x,-y,1/2+z
loop_
_atom_site_type_symbol
_atom_site_label
_atom_site_fract_x
_atom_site_fract_y
_atom_site_fract_z
Si Si1 0.788834 0.039398 0.926788
Si Si2 0.292024 0.819700 0.673302
Si Si3 0.700951 0.523109 0.827279
Si Si4 0.803034 0.335316 0.940422
Si Si5 0.500000 0.500000 0.000000
O O1 0.752183 0.191125 0.915661
O O2 0.000000 0.029108 0.926032
O O3 0.724800 0.935161 0.873206
O O4 0.728405 0.000000 0.000000
O O5 0.250000 0.847306 0.750000
O O6 0.500000 0.810022 0.666764
O O7 0.221226 0.676022 0.657434
O O8 0.750000 0.505214 0.750000
O O9 0.500000 0.488217 0.838815
O O10 0.804796 0.433047 0.877671
O O11 0.000000 0.329085 0.969539
O O12 0.655481 0.390100 0.988768
#
# Coordination Sequence:
#
# PCOD9418049 Si02
#       5
#     8   8   8   8   2
#     4   9  21  40  63  91 124 166 213 261 323 384
#     4  10  20  38  62  92 125 167 213 260 323 384
#     4  11  22  40  64  97 129 167 221 266 321 387
#     4  11  24  44  66  94 131 171 212 272 324 376
#     4  12  26  44  62 102 128 168 228 250 324 406
#
# _framework density 21.445077000000001
#
# number of rings (size 3 to 8) (size 9 to 14) (size 15 to 20)
#    0.000    1.647    1.176    4.588    3.294    0.941 
#    4.235    2.941    0.000    0.000    0.000    0.000 
#    0.000    0.000    0.000    0.000    0.000    0.000 
#
# Total GULP energy -189538.248757 kJ/mol
# GULP energy per Si atom -5574.654375 kJ/mol
# Density = 2.139627 g / cm^3
# Si number density = 21.445077 Si / 1000 Ang^3
#
#
#
# Elastic Constant Matrix: (Units=GPa)
#
#
# Indices 1 2 3 4 5 6 
#
# 1 110.2692 4.6719 -0.9814 0.0000 0.0000 0.0000
# 2 4.6719 148.5055 76.8924 0.0000 0.0000 0.0000
# 3 -0.9814 76.8924 84.2897 0.0000 0.0000 0.0000
# 4 0.0000 0.0000 0.0000 3.5938 0.0000 0.0000
# 5 0.0000 0.0000 0.0000 0.0000 24.1819 0.0000
# 6 0.0000 0.0000 0.0000 0.0000 0.0000 1.2791
#
#
#
# Elastic Compliance Matrix: (Units=1/GPa)
#
#
# Indices 1 2 3 4 5 6 
#
# 1 0.009102 -0.000647 0.000696 0.000000 0.000000 0.000000
# 2 -0.000647 0.012807 -0.011691 0.000000 0.000000 0.000000
# 3 0.000696 -0.011691 0.022537 0.000000 0.000000 0.000000
# 4 0.000000 0.000000 0.000000 0.278260 0.000000 0.000000
# 5 0.000000 0.000000 0.000000 0.000000 0.041353 0.000000
# 6 0.000000 0.000000 0.000000 0.000000 0.000000 0.781820
#
#
# Mechanical properties :
#
#
# Convention : Reuss Voigt Hill
#
# Bulk Modulus (GPa) = 47.25193 56.02558 51.63875
# Shear Modulus (GPa) = 4.25092 23.30970 13.78031
#
# Velocity S-wave (km/s) = 1.40945 3.30047 2.53768
# Velocity P-wave (km/s) = 4.97297 6.38012 5.71998
#
# Compressibility (1/GPa) = 0.02116316
#
# Stress axis : x y z
#
# Youngs Moduli (GPa) = 109.86227 78.08018 44.37177
#
# Poissons Ratio (x) = 0.05049 -0.03088
# Poissons Ratio (y) = 0.07105 0.51875
# Poissons Ratio (z) = -0.07645 0.91283
#
# Static dielectric constant tensor:
#      x y z
#    x 1.790830 0.000000 0.000000 
#    y 0.000000 1.744010 0.000000 
#    z 0.000000 0.000000 2.008120 
# 
# From -- ./inp_files/30097.got.cif
#   From: 2010.05.17/outbox.cif.g08.bks.cpg/sg53_16_cif.got.tgz:30097.got - 2010.06.03 12:45:16.
