data_PCOD9418990
_publ_section_title
;
Structure prediction by ZEFSAII (Michael W. Deem and Ramdas Pophale) SiO2 
 PCOD9418990
Probable space group: P M N A
;
_chemical_formula_sum "Si O2"
_cell_formula_units_Z 60
_cell_length_a 24.556574
_cell_length_b 17.134149
_cell_length_c 7.062178
_cell_angle_alpha 90.000000
_cell_angle_beta 90.000000
_cell_angle_gamma 90.000000
_cell_volume 2971.453751
_symmetry_space_group_name_H-M "P M N A"
_symmetry_group_IT_number 53
_symmetry_cell_setting 'orthorhombic'
loop_
_space_group_symop_operation_xyz
x,y,z
1/2-x,-y,1/2+z
x,-y,-z
1/2-x,y,1/2-z
-x,-y,-z
1/2+x,y,1/2-z
-x,y,z
1/2+x,-y,1/2+z
loop_
_atom_site_type_symbol
_atom_site_label
_atom_site_fract_x
_atom_site_fract_y
_atom_site_fract_z
Si Si1 0.200049 0.904828 0.984389
Si Si2 0.833244 0.500000 0.000000
Si Si3 0.618776 0.775540 0.378160
Si Si4 0.691739 0.361082 0.780912
Si Si5 0.439774 0.282099 0.253408
Si Si6 0.124238 0.574282 0.617030
Si Si7 0.678813 0.090731 0.043558
Si Si8 0.559119 0.850463 0.060975
O O1 0.184617 0.890737 0.765374
O O2 0.158957 0.849696 0.097997
O O3 0.237759 0.879593 0.469008
O O4 0.194649 0.000000 0.000000
O O5 0.805744 0.432272 0.872222
O O6 0.863158 0.546713 0.830876
O O7 0.647300 0.704019 0.269607
O O8 0.600487 0.742299 0.579555
O O9 0.567515 0.806056 0.259034
O O10 0.750000 0.322161 0.750000
O O11 0.675331 0.395547 0.987538
O O12 0.500000 0.298845 0.330403
O O13 0.417369 0.355633 0.138851
O O14 0.443247 0.211263 0.107989
O O15 0.102938 0.500000 0.500000
O O16 0.618078 0.110491 0.974499
O O17 0.683786 0.000000 0.000000
O O18 0.500000 0.892983 0.062614
#
# Coordination Sequence:
#
# PCOD9418990 Si02
#       8
#     8   4   8   8   8   8   8   8
#     4  10  22  39  65  99 131 170 213 271 331 385
#     4  10  22  42  65  88 132 170 207 272 318 388
#     4  12  23  42  65  94 130 167 220 268 327 390
#     4  11  25  38  63  95 129 172 208 260 325 399
#     4  11  23  43  65  88 125 169 215 271 321 378
#     4  10  22  43  63  92 125 162 218 264 322 385
#     4  10  21  41  65  92 130 169 211 267 326 385
#     4  11  24  41  64  91 126 172 216 265 320 382
#
# _framework density 20.192135
#
# number of rings (size 3 to 8) (size 9 to 14) (size 15 to 20)
#    0.000    1.333    4.000    1.200    4.667    1.600 
#    0.000    0.333    0.000    2.000    0.000    0.000 
#    0.000    0.000    0.000    0.000    0.000    0.000 
#
# Total GULP energy -334157.451710 kJ/mol
# GULP energy per Si atom -5569.290862 kJ/mol
# Density = 2.014618 g / cm^3
# Si number density = 20.192135 Si / 1000 Ang^3
#
#
#
# Elastic Constant Matrix: (Units=GPa)
#
#
# Indices 1 2 3 4 5 6 
#
# 1 134.8223 37.7458 32.4218 0.0000 0.0000 0.0000
# 2 37.7458 51.2926 17.0525 0.0000 0.0000 0.0000
# 3 32.4218 17.0525 96.3337 0.0000 0.0000 0.0000
# 4 0.0000 0.0000 0.0000 28.6439 0.0000 0.0000
# 5 0.0000 0.0000 0.0000 0.0000 16.5680 0.0000
# 6 0.0000 0.0000 0.0000 0.0000 0.0000 25.9199
#
#
#
# Elastic Compliance Matrix: (Units=1/GPa)
#
#
# Indices 1 2 3 4 5 6 
#
# 1 0.009738 -0.006457 -0.002135 0.000000 0.000000 0.000000
# 2 -0.006457 0.024996 -0.002252 0.000000 0.000000 0.000000
# 3 -0.002135 -0.002252 0.011498 0.000000 0.000000 0.000000
# 4 0.000000 0.000000 0.000000 0.034911 0.000000 0.000000
# 5 0.000000 0.000000 0.000000 0.000000 0.060357 0.000000
# 6 0.000000 0.000000 0.000000 0.000000 0.000000 0.038580
#
#
# Mechanical properties :
#
#
# Convention : Reuss Voigt Hill
#
# Bulk Modulus (GPa) = 40.73966 50.76543 45.75254
# Shear Modulus (GPa) = 23.81538 27.24158 25.52848
#
# Velocity S-wave (km/s) = 3.43802 3.67702 3.55953
# Velocity P-wave (km/s) = 5.99832 6.57442 6.29297
#
# Compressibility (1/GPa) = 0.02454610
#
# Stress axis : x y z
#
# Youngs Moduli (GPa) = 102.68931 40.00654 86.97508
#
# Poissons Ratio (x) = 0.25831 0.18565
# Poissons Ratio (y) = 0.66302 0.19584
# Poissons Ratio (z) = 0.21919 0.09008
#
# Static dielectric constant tensor:
#      x y z
#    x 1.786090 0.000000 0.000000 
#    y 0.000000 1.716870 0.000000 
#    z 0.000000 0.000000 1.721400 
# 
# From -- ./inp_files/4645.got.cif
#   From: 2010.05.17/outbox.cif.g08.bks.cpg/sg53_3_cif.got.tgz:4645.got - 2010.06.03 12:45:16.
