data_PCOD9418123
_publ_section_title
;
Structure prediction by ZEFSAII (Michael W. Deem and Ramdas Pophale) SiO2 
 PCOD9418123
Probable space group: P M N A
;
_chemical_formula_sum "Si O2"
_cell_formula_units_Z 40
_cell_length_a 23.767047
_cell_length_b 8.790320
_cell_length_c 9.610442
_cell_angle_alpha 90.000000
_cell_angle_beta 90.000000
_cell_angle_gamma 90.000000
_cell_volume 2007.813049
_symmetry_space_group_name_H-M "P M N A"
_symmetry_group_IT_number 53
_symmetry_cell_setting 'orthorhombic'
loop_
_space_group_symop_operation_xyz
x,y,z
1/2-x,-y,1/2+z
x,-y,-z
1/2-x,y,1/2-z
-x,-y,-z
1/2+x,y,1/2-z
-x,y,z
1/2+x,-y,1/2+z
loop_
_atom_site_type_symbol
_atom_site_label
_atom_site_fract_x
_atom_site_fract_y
_atom_site_fract_z
Si Si1 0.217045 0.111317 0.108772
Si Si2 0.500000 0.063605 0.848034
Si Si3 0.500000 0.569467 0.151459
Si Si4 0.597913 0.943755 0.354025
Si Si5 0.221538 0.615408 0.104287
Si Si6 0.402072 0.424308 0.643620
O O1 0.250000 0.147906 0.250000
O O2 0.159275 0.024054 0.152108
O O3 0.206487 0.251715 0.005114
O O4 0.249295 0.000000 0.000000
O O5 0.500000 0.247035 0.852611
O O6 0.555905 0.011338 0.767731
O O7 0.500000 0.000000 0.000000
O O8 0.444000 0.524022 0.236122
O O9 0.500000 0.500000 0.000000
O O10 0.598716 0.760072 0.357188
O O11 0.573365 0.000000 0.500000
O O12 0.250000 0.664226 0.250000
O O13 0.163772 0.535029 0.154679
O O14 0.254123 0.500000 0.000000
O O15 0.422049 0.500000 0.500000
#
# Coordination Sequence:
#
# PCOD9418123 Si02
#       6
#     8   4   4   8   8   8
#     4  11  22  39  62  92 122 164 205 249 303 363
#     4  10  23  40  58  90 126 156 193 254 306 354
#     4  10  23  42  60  88 124 154 201 252 306 356
#     4  10  20  39  60  88 117 157 203 241 293 365
#     4  11  23  42  63  92 124 157 207 254 304 362
#     4  10  21  39  64  86 116 158 203 246 294 360
#
# _framework density 19.922173000000001
#
# number of rings (size 3 to 8) (size 9 to 14) (size 15 to 20)
#    0.000    1.600    4.000    1.800    0.000    3.200 
#    3.600    0.000    0.000    0.000    0.000    0.000 
#    0.000    0.000    0.000    0.000    0.000    0.000 
#
# Total GULP energy -222776.209239 kJ/mol
# GULP energy per Si atom -5569.405231 kJ/mol
# Density = 1.987683 g / cm^3
# Si number density = 19.922173 Si / 1000 Ang^3
#
#
#
# Elastic Constant Matrix: (Units=GPa)
#
#
# Indices 1 2 3 4 5 6 
#
# 1 91.0096 25.7879 91.9853 0.0000 0.0000 0.0000
# 2 25.7879 46.5026 32.6624 0.0000 0.0000 0.0000
# 3 91.9853 32.6624 201.3455 0.0000 0.0000 0.0000
# 4 0.0000 0.0000 0.0000 38.4773 0.0000 0.0000
# 5 0.0000 0.0000 0.0000 0.0000 23.9366 0.0000
# 6 0.0000 0.0000 0.0000 0.0000 0.0000 13.6888
#
#
#
# Elastic Compliance Matrix: (Units=1/GPa)
#
#
# Indices 1 2 3 4 5 6 
#
# 1 0.021682 -0.005718 -0.008978 0.000000 0.000000 0.000000
# 2 -0.005718 0.025777 -0.001569 0.000000 0.000000 0.000000
# 3 -0.008978 -0.001569 0.009323 0.000000 0.000000 0.000000
# 4 0.000000 0.000000 0.000000 0.025989 0.000000 0.000000
# 5 0.000000 0.000000 0.000000 0.000000 0.041777 0.000000
# 6 0.000000 0.000000 0.000000 0.000000 0.000000 0.073052
#
#
# Mechanical properties :
#
#
# Convention : Reuss Voigt Hill
#
# Bulk Modulus (GPa) = 41.23405 71.08098 56.15751
# Shear Modulus (GPa) = 20.98935 27.78203 24.38569
#
# Velocity S-wave (km/s) = 3.24939 3.73839 3.50243
# Velocity P-wave (km/s) = 5.90089 7.37502 6.67875
#
# Compressibility (1/GPa) = 0.02425180
#
# Stress axis : x y z
#
# Youngs Moduli (GPa) = 46.12028 38.79380 107.26327
#
# Poissons Ratio (x) = 0.22182 0.96302
# Poissons Ratio (y) = 0.26371 0.16834
# Poissons Ratio (z) = 0.41407 0.06088
#
# Static dielectric constant tensor:
#      x y z
#    x 1.731370 0.000000 0.000000 
#    y 0.000000 1.861660 0.000000 
#    z 0.000000 0.000000 1.860180 
# 
# From -- ./inp_files/12353.got.cif
#   From: 2010.05.17/outbox.cif.g08.bks.cpg/sg53_7_cif.got.tgz:12353.got - 2010.06.03 12:45:16.
