data_PCOD9418247
_publ_section_title
;
Structure prediction by ZEFSAII (Michael W. Deem and Ramdas Pophale) SiO2 
 PCOD9418247
Probable space group: P M N A
;
_chemical_formula_sum "Si O2"
_cell_formula_units_Z 56
_cell_length_a 14.240524
_cell_length_b 15.837293
_cell_length_c 10.235248
_cell_angle_alpha 90.000000
_cell_angle_beta 90.000000
_cell_angle_gamma 90.000000
_cell_volume 2308.369310
_symmetry_space_group_name_H-M "P M N A"
_symmetry_group_IT_number 53
_symmetry_cell_setting 'orthorhombic'
loop_
_space_group_symop_operation_xyz
x,y,z
1/2-x,-y,1/2+z
x,-y,-z
1/2-x,y,1/2-z
-x,-y,-z
1/2+x,y,1/2-z
-x,y,z
1/2+x,-y,1/2+z
loop_
_atom_site_type_symbol
_atom_site_label
_atom_site_fract_x
_atom_site_fract_y
_atom_site_fract_z
Si Si1 0.886014 0.552828 0.171317
Si Si2 0.606174 0.024505 0.345700
Si Si3 0.608803 0.773547 0.006758
Si Si4 0.386010 0.410779 0.950363
Si Si5 0.613929 0.367800 0.394832
Si Si6 0.611484 0.158667 0.702098
Si Si7 0.799854 0.191604 0.079141
O O1 0.854680 0.598136 0.301485
O O2 0.863235 0.453341 0.184107
O O3 0.000000 0.554203 0.164159
O O4 0.857174 0.600734 0.040656
O O5 0.500000 0.038686 0.300605
O O6 0.658271 0.112493 0.345352
O O7 0.604684 0.000000 0.500000
O O8 0.640853 0.939128 0.276493
O O9 0.500000 0.790419 0.975228
O O10 0.632448 0.675613 0.976826
O O11 0.620862 0.791472 0.162281
O O12 0.689032 0.822341 0.932251
O O13 0.500000 0.416690 0.949049
O O14 0.349197 0.500000 0.000000
O O15 0.500000 0.355258 0.390020
O O16 0.664660 0.280639 0.363401
O O17 0.500000 0.158410 0.670142
O O18 0.662309 0.191883 0.572168
#
# Coordination Sequence:
#
# PCOD9418247 Si02
#       7
#     8   8   8   8   8   8   8
#     4   8  15  28  46  73 108 144 180 227 293 347
#     4   8  15  28  49  80 110 136 164 213 285 348
#     4  10  21  34  50  78 111 150 199 236 270 326
#     4   9  17  32  53  74 102 151 203 239 271 319
#     4   9  16  27  47  77 114 144 173 228 296 355
#     4   9  17  31  52  81 114 140 175 230 288 347
#     4  11  18  28  50  80 111 138 182 224 289 346
#
# _framework density 24.259550000000001
#
# number of rings (size 3 to 8) (size 9 to 14) (size 15 to 20)
#    0.000    2.857    0.000    4.286    0.000    2.286 
#    2.571    0.000    0.000    3.857   22.286    0.000 
#    0.000    0.000    0.000    0.000    0.000    0.000 
#
# Total GULP energy -313043.249787 kJ/mol
# GULP energy per Si atom -5590.058032 kJ/mol
# Density = 2.420433 g / cm^3
# Si number density = 24.259550 Si / 1000 Ang^3
#
#
#
# Elastic Constant Matrix: (Units=GPa)
#
#
# Indices 1 2 3 4 5 6 
#
# 1 113.5261 42.7287 27.0237 0.0000 0.0000 0.0000
# 2 42.7287 144.8490 16.9238 0.0000 0.0000 0.0000
# 3 27.0237 16.9238 32.2015 0.0000 0.0000 0.0000
# 4 0.0000 0.0000 0.0000 21.1495 0.0000 0.0000
# 5 0.0000 0.0000 0.0000 0.0000 12.5135 0.0000
# 6 0.0000 0.0000 0.0000 0.0000 0.0000 -48.7117
#
#
#
# Elastic Compliance Matrix: (Units=1/GPa)
#
#
# Indices 1 2 3 4 5 6 
#
# 1 0.011784 -0.002472 -0.008590 0.000000 0.000000 0.000000
# 2 -0.002472 0.007874 -0.002063 0.000000 0.000000 0.000000
# 3 -0.008590 -0.002063 0.039347 0.000000 0.000000 0.000000
# 4 0.000000 0.000000 0.000000 0.047283 0.000000 0.000000
# 5 0.000000 0.000000 0.000000 0.000000 0.079914 0.000000
# 6 0.000000 0.000000 0.000000 0.000000 0.000000 -0.020529
#
#
# Mechanical properties :
#
#
# Convention : Reuss Voigt Hill
#
# Bulk Modulus (GPa) = 30.53033 51.54768 41.03901
# Shear Modulus (GPa) = 24.64972 10.58360 17.61666
#
# Velocity S-wave (km/s) = 3.19106 2.09096 2.69769
# Velocity P-wave (km/s) = 5.11756 5.20807 5.16301
#
# Compressibility (1/GPa) = 0.03275432
#
# Stress axis : x y z
#
# Youngs Moduli (GPa) = 84.86225 126.99737 25.41466
#
# Poissons Ratio (x) = 0.31400 0.21830
# Poissons Ratio (y) = 0.20982 0.05244
# Poissons Ratio (z) = 0.72893 0.26205
#
# Static dielectric constant tensor:
#      x y z
#    x 1.948260 0.000000 0.000000 
#    y 0.000000 1.915360 0.000000 
#    z 0.000000 0.000000 1.902920 
# 
# From -- ./inp_files/16052.got.cif
#   From: 2010.05.17/outbox.cif.g08.bks.cpg/sg53_9_cif.got.tgz:16052.got - 2010.06.03 12:45:16.
