data_PCOD9418971
_publ_section_title
;
Structure prediction by ZEFSAII (Michael W. Deem and Ramdas Pophale) SiO2 
 PCOD9418971
Probable space group: P M N A
;
_chemical_formula_sum "Si O2"
_cell_formula_units_Z 32
_cell_length_a 14.219656
_cell_length_b 11.662243
_cell_length_c 9.129599
_cell_angle_alpha 90.000000
_cell_angle_beta 90.000000
_cell_angle_gamma 90.000000
_cell_volume 1513.989555
_symmetry_space_group_name_H-M "P M N A"
_symmetry_group_IT_number 53
_symmetry_cell_setting 'orthorhombic'
loop_
_space_group_symop_operation_xyz
x,y,z
1/2-x,-y,1/2+z
x,-y,-z
1/2-x,y,1/2-z
-x,-y,-z
1/2+x,y,1/2-z
-x,y,z
1/2+x,-y,1/2+z
loop_
_atom_site_type_symbol
_atom_site_label
_atom_site_fract_x
_atom_site_fract_y
_atom_site_fract_z
Si Si1 0.708875 0.708502 0.905493
Si Si2 0.500000 0.874264 0.418822
Si Si3 0.000000 0.639231 0.495843
Si Si4 0.701894 0.897354 0.389885
Si Si5 0.163783 0.500000 0.000000
Si Si6 0.000000 0.636291 0.148060
O O1 0.750000 0.754648 0.750000
O O2 0.596721 0.685505 0.926542
O O3 0.744032 0.793529 0.033932
O O4 0.767685 0.592120 0.927414
O O5 0.597716 0.867338 0.337635
O O6 0.500000 0.740665 0.474829
O O7 0.500000 0.000000 0.500000
O O8 0.000000 0.500000 0.500000
O O9 0.000000 0.668487 0.320753
O O10 0.750000 0.944911 0.250000
O O11 0.694465 0.000000 0.500000
O O12 0.093140 0.437920 0.886263
#
# Coordination Sequence:
#
# PCOD9418971 Si02
#       6
#     8   4   4   8   4   4
#     4  12  26  43  67 100 140 182 228 281 345 408
#     4  10  21  40  68  96 126 175 228 278 335 407
#     4  12  25  42  69  99 140 180 235 282 340 415
#     4  11  24  45  70  98 133 177 228 285 345 408
#     4  11  24  39  68  98 146 179 224 279 346 406
#     4  11  22  42  67 105 132 184 235 276 345 419
#
# _framework density 21.136209999999998
#
# number of rings (size 3 to 8) (size 9 to 14) (size 15 to 20)
#    0.000    0.750    3.750    3.750    0.000    2.000 
#    0.000    5.000    0.000    0.000    0.000    0.000 
#    0.000    0.000    0.000    0.000    0.000    0.000 
#
# Total GULP energy -178166.369940 kJ/mol
# GULP energy per Si atom -5567.699061 kJ/mol
# Density = 2.108810 g / cm^3
# Si number density = 21.136210 Si / 1000 Ang^3
#
#
#
# Elastic Constant Matrix: (Units=GPa)
#
#
# Indices 1 2 3 4 5 6 
#
# 1 208.9845 29.1775 45.7045 0.0000 0.0000 0.0000
# 2 29.1775 89.3008 2.3731 0.0000 0.0000 0.0000
# 3 45.7045 2.3731 98.4953 0.0000 0.0000 0.0000
# 4 0.0000 0.0000 0.0000 28.2509 0.0000 0.0000
# 5 0.0000 0.0000 0.0000 0.0000 -29.9765 0.0000
# 6 0.0000 0.0000 0.0000 0.0000 0.0000 -47.6079
#
#
#
# Elastic Compliance Matrix: (Units=1/GPa)
#
#
# Indices 1 2 3 4 5 6 
#
# 1 0.005588 -0.001758 -0.002551 0.000000 0.000000 0.000000
# 2 -0.001758 0.011758 0.000533 0.000000 0.000000 0.000000
# 3 -0.002551 0.000533 0.011324 0.000000 0.000000 0.000000
# 4 0.000000 0.000000 0.000000 0.035397 0.000000 0.000000
# 5 0.000000 0.000000 0.000000 0.000000 -0.033359 0.000000
# 6 0.000000 0.000000 0.000000 0.000000 0.000000 -0.021005
#
#
# Mechanical properties :
#
#
# Convention : Reuss Voigt Hill
#
# Bulk Modulus (GPa) = 47.35400 61.25452 54.30426
# Shear Modulus (GPa) = 205.80406 11.43502 108.61954
#
# Velocity S-wave (km/s) = 9.87835 2.32850 7.17648
# Velocity P-wave (km/s) = 12.35159 6.02270 9.71686
#
# Compressibility (1/GPa) = 0.02111754
#
# Stress axis : x y z
#
# Youngs Moduli (GPa) = 178.94355 85.04563 88.31139
#
# Poissons Ratio (x) = 0.14952 0.22526
# Poissons Ratio (y) = 0.31460 -0.04703
# Poissons Ratio (z) = 0.45645 -0.04529
#
# Static dielectric constant tensor:
#      x y z
#    x 2.178230 0.000000 0.000000 
#    y 0.000000 1.844000 0.000000 
#    z 0.000000 0.000000 1.756630 
# 
# From -- ./inp_files/8202.got.cif
#   From: 2010.05.17/outbox.cif.g08.bks.cpg/sg53_5_cif.got.tgz:8202.got - 2010.06.03 12:45:16.
