data_PCOD9418870
_publ_section_title
;
Structure prediction by ZEFSAII (Michael W. Deem and Ramdas Pophale) SiO2 
 PCOD9418870
Probable space group: P M N A
;
_chemical_formula_sum "Si O2"
_cell_formula_units_Z 32
_cell_length_a 14.540751
_cell_length_b 20.018019
_cell_length_c 4.920306
_cell_angle_alpha 90.000000
_cell_angle_beta 90.000000
_cell_angle_gamma 90.000000
_cell_volume 1432.188056
_symmetry_space_group_name_H-M "P M N A"
_symmetry_group_IT_number 53
_symmetry_cell_setting 'orthorhombic'
loop_
_space_group_symop_operation_xyz
x,y,z
1/2-x,-y,1/2+z
x,-y,-z
1/2-x,y,1/2-z
-x,-y,-z
1/2+x,y,1/2-z
-x,y,z
1/2+x,-y,1/2+z
loop_
_atom_site_type_symbol
_atom_site_label
_atom_site_fract_x
_atom_site_fract_y
_atom_site_fract_z
Si Si1 0.500000 0.653174 0.010182
Si Si2 0.895268 0.953349 0.739402
Si Si3 0.642013 0.450919 0.755384
Si Si4 0.188625 0.818387 0.974367
Si Si5 0.500000 0.737955 0.480843
O O1 0.585120 0.613320 0.147580
O O2 0.500000 0.722639 0.161245
O O3 0.500000 0.673274 0.690545
O O4 0.840569 0.888946 0.838624
O O5 0.000000 0.933765 0.652368
O O6 0.855028 0.000000 0.500000
O O7 0.902400 0.000000 0.000000
O O8 0.619363 0.500000 0.500000
O O9 0.750000 0.433898 0.750000
O O10 0.624501 0.500000 0.000000
O O11 0.250000 0.781476 0.750000
O O12 0.093403 0.779006 0.988785
O O13 0.250000 0.825168 0.250000
#
# Coordination Sequence:
#
# PCOD9418870 Si02
#       5
#     4   8   8   8   4
#     4  12  24  41  70  93 136 185 227 284 333 410
#     4  10  21  40  69 101 132 166 215 288 359 418
#     4  10  21  39  65 100 136 172 221 284 350 410
#     4  12  26  46  71  98 137 187 232 289 350 417
#     4  12  28  47  64 101 139 183 246 284 329 402
#
# _framework density 22.343436000000001
#
# number of rings (size 3 to 8) (size 9 to 14) (size 15 to 20)
#    0.000    1.000    1.250    5.250    0.000    5.000 
#    0.000    0.000    0.000    0.000    0.000    0.000 
#    0.000    0.000    0.000    0.000    0.000    0.000 
#
# Total GULP energy -178418.552137 kJ/mol
# GULP energy per Si atom -5575.579754 kJ/mol
# Density = 2.229258 g / cm^3
# Si number density = 22.343436 Si / 1000 Ang^3
#
#
#
# Elastic Constant Matrix: (Units=GPa)
#
#
# Indices 1 2 3 4 5 6 
#
# 1 123.8824 40.4438 30.2252 0.0000 0.0000 0.0000
# 2 40.4438 46.6377 16.6961 0.0000 0.0000 0.0000
# 3 30.2252 16.6961 155.3153 0.0000 0.0000 0.0000
# 4 0.0000 0.0000 0.0000 29.7836 0.0000 0.0000
# 5 0.0000 0.0000 0.0000 0.0000 23.6986 0.0000
# 6 0.0000 0.0000 0.0000 0.0000 0.0000 -82.0754
#
#
#
# Elastic Compliance Matrix: (Units=1/GPa)
#
#
# Indices 1 2 3 4 5 6 
#
# 1 0.011475 -0.009517 -0.001210 0.000000 0.000000 0.000000
# 2 -0.009517 0.030194 -0.001394 0.000000 0.000000 0.000000
# 3 -0.001210 -0.001394 0.006824 0.000000 0.000000 0.000000
# 4 0.000000 0.000000 0.000000 0.033575 0.000000 0.000000
# 5 0.000000 0.000000 0.000000 0.000000 0.042197 0.000000
# 6 0.000000 0.000000 0.000000 0.000000 0.000000 -0.012184
#
#
# Mechanical properties :
#
#
# Convention : Reuss Voigt Hill
#
# Bulk Modulus (GPa) = 41.23627 55.61841 48.42734
# Shear Modulus (GPa) = 34.62452 10.17940 22.40196
#
# Velocity S-wave (km/s) = 3.94083 2.13677 3.16985
# Velocity P-wave (km/s) = 6.26120 5.57084 5.92608
#
# Compressibility (1/GPa) = 0.02425050
#
# Stress axis : x y z
#
# Youngs Moduli (GPa) = 87.14949 33.11883 146.54627
#
# Poissons Ratio (x) = 0.31521 0.17730
# Poissons Ratio (y) = 0.82944 0.20424
# Poissons Ratio (z) = 0.10544 0.04616
#
# Static dielectric constant tensor:
#      x y z
#    x 1.951540 0.000000 0.000000 
#    y 0.000000 1.808830 0.000000 
#    z 0.000000 0.000000 1.708160 
# 
# From -- ./inp_files/1233.got.cif
#   From: 2010.05.17/outbox.cif.g08.bks.cpg/sg53_1_cif.got.tgz:1233.got - 2010.06.03 12:45:16.
