data_PCOD9418651
_publ_section_title
;
Structure prediction by ZEFSAII (Michael W. Deem and Ramdas Pophale) SiO2 
 PCOD9418651
Probable space group: P M N A
;
_chemical_formula_sum "Si O2"
_cell_formula_units_Z 48
_cell_length_a 30.567153
_cell_length_b 9.886913
_cell_length_c 8.871487
_cell_angle_alpha 90.000000
_cell_angle_beta 90.000000
_cell_angle_gamma 90.000000
_cell_volume 2681.094513
_symmetry_space_group_name_H-M "P M N A"
_symmetry_group_IT_number 53
_symmetry_cell_setting 'orthorhombic'
loop_
_space_group_symop_operation_xyz
x,y,z
1/2-x,-y,1/2+z
x,-y,-z
1/2-x,y,1/2-z
-x,-y,-z
1/2+x,y,1/2-z
-x,y,z
1/2+x,-y,1/2+z
loop_
_atom_site_type_symbol
_atom_site_label
_atom_site_fract_x
_atom_site_fract_y
_atom_site_fract_z
Si Si1 0.731043 0.636923 0.917736
Si Si2 0.876608 0.819400 0.193498
Si Si3 0.370630 0.344262 0.995329
Si Si4 0.916833 0.084330 0.354812
Si Si5 0.547437 0.157707 0.458434
Si Si6 0.721992 0.869270 0.399216
O O1 0.750000 0.637420 0.750000
O O2 0.744491 0.500000 0.000000
O O3 0.678667 0.648402 0.937934
O O4 0.752651 0.756585 0.009201
O O5 0.874836 0.705841 0.322793
O O6 0.827666 0.828131 0.132529
O O7 0.888452 0.965779 0.270877
O O8 0.912251 0.790650 0.061608
O O9 0.387789 0.500000 0.000000
O O10 0.392349 0.217097 0.082303
O O11 0.945766 0.148699 0.221318
O O12 0.935791 0.000000 0.500000
O O13 0.500000 0.220463 0.495220
O O14 0.545340 0.000000 0.500000
O O15 0.750000 0.895623 0.250000
O O16 0.720604 0.000000 0.500000
#
# Coordination Sequence:
#
# PCOD9418651 Si02
#       6
#     8   8   8   8   8   8
#     4  11  25  40  57  80 117 158 203 248 283 343
#     4  10  21  38  58  85 120 149 192 243 289 349
#     4  10  22  39  58  80 116 157 196 236 289 349
#     4   9  19  35  59  86 118 150 189 241 290 346
#     4   9  18  35  61  91 116 147 193 243 295 348
#     4  12  24  36  56  88 120 158 197 238 294 346
#
# _framework density 17.903134999999999
#
# number of rings (size 3 to 8) (size 9 to 14) (size 15 to 20)
#    0.000    1.833    1.667    2.500    9.333    0.333 
#    0.000    3.333    0.000    3.000    0.000    0.000 
#    0.000    0.000    0.000    0.000    0.000    0.000 
#
# Total GULP energy -267204.549057 kJ/mol
# GULP energy per Si atom -5566.761439 kJ/mol
# Density = 1.786239 g / cm^3
# Si number density = 17.903135 Si / 1000 Ang^3
#
#
#
# Elastic Constant Matrix: (Units=GPa)
#
#
# Indices 1 2 3 4 5 6 
#
# 1 78.6504 4.1453 46.9603 0.0000 0.0000 0.0000
# 2 4.1453 93.0123 25.0574 0.0000 0.0000 0.0000
# 3 46.9603 25.0574 131.1612 0.0000 0.0000 0.0000
# 4 0.0000 0.0000 0.0000 25.2837 0.0000 0.0000
# 5 0.0000 0.0000 0.0000 0.0000 11.3064 0.0000
# 6 0.0000 0.0000 0.0000 0.0000 0.0000 2.5591
#
#
#
# Elastic Compliance Matrix: (Units=1/GPa)
#
#
# Indices 1 2 3 4 5 6 
#
# 1 0.016241 0.000888 -0.005985 0.000000 0.000000 0.000000
# 2 0.000888 0.011383 -0.002493 0.000000 0.000000 0.000000
# 3 -0.005985 -0.002493 0.010243 0.000000 0.000000 0.000000
# 4 0.000000 0.000000 0.000000 0.039551 0.000000 0.000000
# 5 0.000000 0.000000 0.000000 0.000000 0.088445 0.000000
# 6 0.000000 0.000000 0.000000 0.000000 0.000000 0.390758
#
#
# Mechanical properties :
#
#
# Convention : Reuss Voigt Hill
#
# Bulk Modulus (GPa) = 44.07337 50.57222 47.32280
# Shear Modulus (GPa) = 8.63018 22.94058 15.78538
#
# Velocity S-wave (km/s) = 2.19794 3.58351 2.97258
# Velocity P-wave (km/s) = 5.57785 6.74026 6.18642
#
# Compressibility (1/GPa) = 0.02268944
#
# Stress axis : x y z
#
# Youngs Moduli (GPa) = 61.57294 87.84865 97.62661
#
# Poissons Ratio (x) = -0.07805 0.58425
# Poissons Ratio (y) = -0.05470 0.24336
# Poissons Ratio (z) = 0.36849 0.21899
#
# Static dielectric constant tensor:
#      x y z
#    x 1.648850 0.000000 0.000000 
#    y 0.000000 1.629220 0.000000 
#    z 0.000000 0.000000 1.418840 
# 
# From -- ./inp_files/13012.got.cif
#   From: 2010.05.17/outbox.cif.g08.bks.cpg/sg53_7_cif.got.tgz:13012.got - 2010.06.03 12:45:16.
