data_PCOD9418538
_publ_section_title
;
Structure prediction by ZEFSAII (Michael W. Deem and Ramdas Pophale) SiO2 
 PCOD9418538
Probable space group: P M N A
;
_chemical_formula_sum "Si O2"
_cell_formula_units_Z 60
_cell_length_a 15.082902
_cell_length_b 8.401014
_cell_length_c 23.253527
_cell_angle_alpha 90.000000
_cell_angle_beta 90.000000
_cell_angle_gamma 90.000000
_cell_volume 2946.493260
_symmetry_space_group_name_H-M "P M N A"
_symmetry_group_IT_number 53
_symmetry_cell_setting 'orthorhombic'
loop_
_space_group_symop_operation_xyz
x,y,z
1/2-x,-y,1/2+z
x,-y,-z
1/2-x,y,1/2-z
-x,-y,-z
1/2+x,y,1/2-z
-x,y,z
1/2+x,-y,1/2+z
loop_
_atom_site_type_symbol
_atom_site_label
_atom_site_fract_x
_atom_site_fract_y
_atom_site_fract_z
Si Si1 0.100593 0.849735 0.532111
Si Si2 0.099014 0.100835 0.681683
Si Si3 0.598231 0.506992 0.306489
Si Si4 0.599574 0.413679 0.437417
Si Si5 0.598206 0.340779 0.919245
Si Si6 0.786596 0.358413 0.391746
Si Si7 0.659812 0.228886 0.225657
Si Si8 0.750000 0.715844 0.250000
O O1 0.098597 0.709388 0.485278
O O2 0.152865 0.782163 0.584600
O O3 0.000000 0.891724 0.548365
O O4 0.141665 0.000000 0.500000
O O5 0.105945 0.177595 0.617683
O O6 0.182362 0.181796 0.712287
O O7 0.000000 0.150594 0.701125
O O8 0.105360 0.914035 0.696964
O O9 0.500000 0.561189 0.287801
O O10 0.596695 0.508556 0.376258
O O11 0.612303 0.334175 0.275144
O O12 0.680839 0.611483 0.286693
O O13 0.609769 0.500000 0.500000
O O14 0.500000 0.337089 0.440277
O O15 0.691714 0.325802 0.422055
O O16 0.500000 0.410135 0.905140
O O17 0.674072 0.469401 0.908214
O O18 0.801929 0.345959 0.323611
O O19 0.750000 0.153976 0.250000
#
# Coordination Sequence:
#
# PCOD9418538 Si02
#       8
#     8   8   8   8   8   8   8   4
#     4  10  21  37  58  90 130 166 201 245 302 378
#     4  11  24  40  61  88 127 171 204 253 318 378
#     4  11  22  39  64  90 122 163 207 263 321 375
#     4  10  21  37  58  85 116 152 203 259 308 362
#     4  10  21  37  58  92 127 158 204 253 305 371
#     4  12  22  37  66  89 123 164 207 260 315 369
#     4  12  23  42  60  88 122 162 205 260 315 386
#     4  12  22  38  60  90 128 152 208 260 306 380
#
# _framework density 20.363189999999999
#
# number of rings (size 3 to 8) (size 9 to 14) (size 15 to 20)
#    0.000    1.067    2.667    4.800    0.000    5.333 
#    0.000    0.000    0.000    0.400    0.000    0.000 
#    0.000    0.000    0.000    0.000    0.000    0.000 
#
# Total GULP energy -334050.262669 kJ/mol
# GULP energy per Si atom -5567.504378 kJ/mol
# Density = 2.031684 g / cm^3
# Si number density = 20.363190 Si / 1000 Ang^3
#
#
#
# Elastic Constant Matrix: (Units=GPa)
#
#
# Indices 1 2 3 4 5 6 
#
# 1 134.7725 26.9113 42.2705 0.0000 0.0000 0.0000
# 2 26.9113 62.6294 18.3637 0.0000 0.0000 0.0000
# 3 42.2705 18.3637 101.3111 0.0000 0.0000 0.0000
# 4 0.0000 0.0000 0.0000 28.4682 0.0000 0.0000
# 5 0.0000 0.0000 0.0000 0.0000 18.6814 0.0000
# 6 0.0000 0.0000 0.0000 0.0000 0.0000 10.3178
#
#
#
# Elastic Compliance Matrix: (Units=1/GPa)
#
#
# Indices 1 2 3 4 5 6 
#
# 1 0.009018 -0.002927 -0.003232 0.000000 0.000000 0.000000
# 2 -0.002927 0.017813 -0.002007 0.000000 0.000000 0.000000
# 3 -0.003232 -0.002007 0.011583 0.000000 0.000000 0.000000
# 4 0.000000 0.000000 0.000000 0.035127 0.000000 0.000000
# 5 0.000000 0.000000 0.000000 0.000000 0.053529 0.000000
# 6 0.000000 0.000000 0.000000 0.000000 0.000000 0.096920
#
#
# Mechanical properties :
#
#
# Convention : Reuss Voigt Hill
#
# Bulk Modulus (GPa) = 45.28826 52.64487 48.96657
# Shear Modulus (GPa) = 20.18693 25.57131 22.87912
#
# Velocity S-wave (km/s) = 3.15198 3.54752 3.35558
# Velocity P-wave (km/s) = 5.96114 6.53368 6.25396
#
# Compressibility (1/GPa) = 0.02208078
#
# Stress axis : x y z
#
# Youngs Moduli (GPa) = 110.88732 56.13752 86.33344
#
# Poissons Ratio (x) = 0.16433 0.27904
# Poissons Ratio (y) = 0.32461 0.17331
# Poissons Ratio (z) = 0.35840 0.11269
#
# Static dielectric constant tensor:
#      x y z
#    x 1.764200 0.000000 0.000000 
#    y 0.000000 1.725510 0.000000 
#    z 0.000000 0.000000 1.760940 
# 
# From -- ./inp_files/35266.got.cif
#   From: 2010.05.17/outbox.cif.g08.bks.cpg/sg53_18_cif.got.tgz:35266.got - 2010.06.03 12:45:16.
