data_PCOD9418418
_publ_section_title
;
Structure prediction by ZEFSAII (Michael W. Deem and Ramdas Pophale) SiO2 
 PCOD9418418
Probable space group: P M N A
;
_chemical_formula_sum "Si O2"
_cell_formula_units_Z 28
_cell_length_a 9.785203
_cell_length_b 11.531912
_cell_length_c 13.125960
_cell_angle_alpha 90.000000
_cell_angle_beta 90.000000
_cell_angle_gamma 90.000000
_cell_volume 1481.160890
_symmetry_space_group_name_H-M "P M N A"
_symmetry_group_IT_number 53
_symmetry_cell_setting 'orthorhombic'
loop_
_space_group_symop_operation_xyz
x,y,z
1/2-x,-y,1/2+z
x,-y,-z
1/2-x,y,1/2-z
-x,-y,-z
1/2+x,y,1/2-z
-x,y,z
1/2+x,-y,1/2+z
loop_
_atom_site_type_symbol
_atom_site_label
_atom_site_fract_x
_atom_site_fract_y
_atom_site_fract_z
Si Si1 0.841282 0.196328 0.151568
Si Si2 0.661366 0.364328 0.017638
Si Si3 0.755122 0.000000 0.000000
Si Si4 0.347347 0.182806 0.844501
O O1 0.750000 0.164789 0.250000
O O2 0.762477 0.304378 0.098495
O O3 0.000000 0.220595 0.176725
O O4 0.836508 0.090942 0.070156
O O5 0.500000 0.346832 0.045681
O O6 0.684622 0.500000 0.000000
O O7 0.683197 0.296371 0.911612
O O8 0.667121 0.077246 0.923149
O O9 0.250000 0.167542 0.750000
O O10 0.500000 0.190407 0.804973
#
# Coordination Sequence:
#
# PCOD9418418 Si02
#       4
#     8   8   4   8
#     4  11  23  38  58  85 115 149 189 233 282 336
#     4   9  20  40  61  82 112 149 188 231 278 330
#     4  10  22  38  58  80 110 150 192 232 276 332
#     4  10  21  36  57  83 111 144 183 228 279 333
#
# _framework density 18.904091000000001
#
# number of rings (size 3 to 8) (size 9 to 14) (size 15 to 20)
#    0.000    2.000    0.000    2.571    0.000   13.143 
#    0.000    2.857    0.000    0.000    0.000    0.000 
#    0.000    0.000    0.000    0.000    0.000    0.000 
#
# Total GULP energy -156276.292511 kJ/mol
# GULP energy per Si atom -5581.296161 kJ/mol
# Density = 1.886106 g / cm^3
# Si number density = 18.904091 Si / 1000 Ang^3
#
#
#
# Elastic Constant Matrix: (Units=GPa)
#
#
# Indices 1 2 3 4 5 6 
#
# 1 108.7397 35.5812 81.5449 0.0000 0.0000 0.0000
# 2 35.5812 125.3011 45.1160 0.0000 0.0000 0.0000
# 3 81.5449 45.1160 113.4265 0.0000 0.0000 0.0000
# 4 0.0000 0.0000 0.0000 5.2101 0.0000 0.0000
# 5 0.0000 0.0000 0.0000 0.0000 15.9012 0.0000
# 6 0.0000 0.0000 0.0000 0.0000 0.0000 46.4552
#
#
#
# Elastic Compliance Matrix: (Units=1/GPa)
#
#
# Indices 1 2 3 4 5 6 
#
# 1 0.019991 -0.000586 -0.014139 0.000000 0.000000 0.000000
# 2 -0.000586 0.009332 -0.003291 0.000000 0.000000 0.000000
# 3 -0.014139 -0.003291 0.020290 0.000000 0.000000 0.000000
# 4 0.000000 0.000000 0.000000 0.191936 0.000000 0.000000
# 5 0.000000 0.000000 0.000000 0.000000 0.062888 0.000000
# 6 0.000000 0.000000 0.000000 0.000000 0.000000 0.021526
#
#
# Mechanical properties :
#
#
# Convention : Reuss Voigt Hill
#
# Bulk Modulus (GPa) = 73.62692 74.66129 74.14410
# Shear Modulus (GPa) = 13.64177 25.86164 19.75170
#
# Velocity S-wave (km/s) = 2.68923 3.70272 3.23590
# Velocity P-wave (km/s) = 6.97673 7.60662 7.29848
#
# Compressibility (1/GPa) = 0.01358199
#
# Stress axis : x y z
#
# Youngs Moduli (GPa) = 50.02296 107.15840 49.28564
#
# Poissons Ratio (x) = 0.06278 0.69684
# Poissons Ratio (y) = 0.02931 0.16218
# Poissons Ratio (z) = 0.70727 0.35262
#
# Static dielectric constant tensor:
#      x y z
#    x 1.647980 0.000000 0.000000 
#    y 0.000000 1.650940 0.000000 
#    z 0.000000 0.000000 1.644520 
# 
# From -- ./inp_files/14514.got.cif
#   From: 2010.05.17/outbox.cif.g08.bks.cpg/sg53_8_cif.got.tgz:14514.got - 2010.06.03 12:45:16.
