data_PCOD9418578
_publ_section_title
;
Structure prediction by ZEFSAII (Michael W. Deem and Ramdas Pophale) SiO2 
 PCOD9418578
Probable space group: P M N A
;
_chemical_formula_sum "Si O2"
_cell_formula_units_Z 64
_cell_length_a 8.873241
_cell_length_b 21.868135
_cell_length_c 17.734797
_cell_angle_alpha 90.000000
_cell_angle_beta 90.000000
_cell_angle_gamma 90.000000
_cell_volume 3441.281860
_symmetry_space_group_name_H-M "P M N A"
_symmetry_group_IT_number 53
_symmetry_cell_setting 'orthorhombic'
loop_
_space_group_symop_operation_xyz
x,y,z
1/2-x,-y,1/2+z
x,-y,-z
1/2-x,y,1/2-z
-x,-y,-z
1/2+x,y,1/2-z
-x,y,z
1/2+x,-y,1/2+z
loop_
_atom_site_type_symbol
_atom_site_label
_atom_site_fract_x
_atom_site_fract_y
_atom_site_fract_z
Si Si1 0.680219 0.684984 0.449987
Si Si2 0.820010 0.102959 0.569910
Si Si3 0.318963 0.213170 0.666955
Si Si4 0.679016 0.378838 0.328314
Si Si5 0.679036 0.248036 0.393728
Si Si6 0.821889 0.119433 0.391549
Si Si7 0.820762 0.999788 0.170408
Si Si8 0.819686 0.569027 0.520209
O O1 0.500000 0.675271 0.453621
O O2 0.716635 0.722929 0.375169
O O3 0.718523 0.728097 0.521946
O O4 0.760336 0.620360 0.462145
O O5 0.748841 0.159295 0.615652
O O6 0.791328 0.109648 0.480833
O O7 0.000000 0.101674 0.581062
O O8 0.747575 0.042029 0.604384
O O9 0.250000 0.210562 0.750000
O O10 0.500000 0.206583 0.669813
O O11 0.750000 0.398945 0.250000
O O12 0.500000 0.387540 0.328972
O O13 0.708076 0.306511 0.341301
O O14 0.750989 0.412779 0.399302
O O15 0.500000 0.234426 0.392954
O O16 0.770899 0.188054 0.373082
O O17 0.729909 0.069027 0.345710
O O18 0.000000 0.111010 0.378408
O O19 0.750000 0.979365 0.250000
O O20 0.000000 0.994121 0.172843
O O21 0.775271 0.500000 0.500000
O O22 0.000000 0.572402 0.523448
#
# Coordination Sequence:
#
# PCOD9418578 Si02
#       8
#     8   8   8   8   8   8   8   8
#     4   9  19  36  58  83 115 152 191 236 283 339
#     4  11  23  40  61  86 115 149 191 237 289 348
#     4  11  22  37  58  86 118 151 192 239 291 346
#     4  10  21  37  59  88 121 158 197 243 291 342
#     4   9  18  35  57  83 114 149 190 232 283 342
#     4  11  23  38  60  88 116 148 189 237 288 347
#     4  12  26  43  61  80 110 150 191 241 295 347
#     4  10  21  37  60  89 120 157 200 242 287 343
#
# _framework density 18.597722000000001
#
# number of rings (size 3 to 8) (size 9 to 14) (size 15 to 20)
#    0.000    1.625    1.250    4.500    0.000    8.000 
#    0.000    1.875    0.000    1.500    0.000    0.000 
#    0.000    0.000    0.000    0.000    0.000    0.000 
#
# Total GULP energy -357723.942459 kJ/mol
# GULP energy per Si atom -5589.436601 kJ/mol
# Density = 1.855539 g / cm^3
# Si number density = 18.597722 Si / 1000 Ang^3
#
#
#
# Elastic Constant Matrix: (Units=GPa)
#
#
# Indices 1 2 3 4 5 6 
#
# 1 64.5233 36.0357 27.7385 0.0000 0.0000 0.0000
# 2 36.0357 93.3420 4.4973 0.0000 0.0000 0.0000
# 3 27.7385 4.4973 47.7873 0.0000 0.0000 0.0000
# 4 0.0000 0.0000 0.0000 13.3147 0.0000 0.0000
# 5 0.0000 0.0000 0.0000 0.0000 18.8340 0.0000
# 6 0.0000 0.0000 0.0000 0.0000 0.0000 33.0566
#
#
#
# Elastic Compliance Matrix: (Units=1/GPa)
#
#
# Indices 1 2 3 4 5 6 
#
# 1 0.027474 -0.009883 -0.015017 0.000000 0.000000 0.000000
# 2 -0.009883 0.014317 0.004389 0.000000 0.000000 0.000000
# 3 -0.015017 0.004389 0.029230 0.000000 0.000000 0.000000
# 4 0.000000 0.000000 0.000000 0.075105 0.000000 0.000000
# 5 0.000000 0.000000 0.000000 0.000000 0.053095 0.000000
# 6 0.000000 0.000000 0.000000 0.000000 0.000000 0.030251
#
#
# Mechanical properties :
#
#
# Convention : Reuss Voigt Hill
#
# Bulk Modulus (GPa) = 33.33460 38.02174 35.67817
# Shear Modulus (GPa) = 17.82572 22.19981 20.01276
#
# Velocity S-wave (km/s) = 3.09931 3.45872 3.28394
# Velocity P-wave (km/s) = 5.54712 6.03647 5.79696
#
# Compressibility (1/GPa) = 0.02999886
#
# Stress axis : x y z
#
# Youngs Moduli (GPa) = 36.39844 69.84583 34.21166
#
# Poissons Ratio (x) = 0.69029 0.51376
# Poissons Ratio (y) = 0.35973 -0.15016
# Poissons Ratio (z) = 0.54660 -0.30657
#
# Static dielectric constant tensor:
#      x y z
#    x 1.616950 0.000000 0.000000 
#    y 0.000000 1.630470 0.000000 
#    z 0.000000 0.000000 1.629970 
# 
# From -- ./inp_files/26945.got.cif
#   From: 2010.05.17/outbox.cif.g08.bks.cpg/sg53_14_cif.got.tgz:26945.got - 2010.06.03 12:45:16.
