data_PCOD9418782
_publ_section_title
;
Structure prediction by ZEFSAII (Michael W. Deem and Ramdas Pophale) SiO2 
 PCOD9418782
Probable space group: P M N A
;
_chemical_formula_sum "Si O2"
_cell_formula_units_Z 48
_cell_length_a 8.616474
_cell_length_b 21.686098
_cell_length_c 14.473508
_cell_angle_alpha 90.000000
_cell_angle_beta 90.000000
_cell_angle_gamma 90.000000
_cell_volume 2704.486410
_symmetry_space_group_name_H-M "P M N A"
_symmetry_group_IT_number 53
_symmetry_cell_setting 'orthorhombic'
loop_
_space_group_symop_operation_xyz
x,y,z
1/2-x,-y,1/2+z
x,-y,-z
1/2-x,y,1/2-z
-x,-y,-z
1/2+x,y,1/2-z
-x,y,z
1/2+x,-y,1/2+z
loop_
_atom_site_type_symbol
_atom_site_label
_atom_site_fract_x
_atom_site_fract_y
_atom_site_fract_z
Si Si1 0.686137 0.830862 0.852681
Si Si2 0.814454 0.594854 0.003700
Si Si3 0.185964 0.502547 0.646430
Si Si4 0.187805 0.071466 0.505341
Si Si5 0.185202 0.831477 0.146821
Si Si6 0.686749 0.267553 0.995155
O O1 0.750000 0.830867 0.750000
O O2 0.500000 0.831016 0.848153
O O3 0.733028 0.890428 0.913398
O O4 0.732267 0.771175 0.913172
O O5 0.748149 0.560229 0.913348
O O6 0.000000 0.590018 0.004118
O O7 0.746828 0.557287 0.090985
O O8 0.760837 0.665268 0.005853
O O9 0.250000 0.503805 0.750000
O O10 0.000000 0.502879 0.646408
O O11 0.261969 0.107755 0.590809
O O12 0.000000 0.075436 0.514045
O O13 0.231366 0.000000 0.500000
O O14 0.250000 0.832794 0.250000
O O15 0.256391 0.773977 0.090319
O O16 0.000000 0.826963 0.147333
O O17 0.500000 0.272134 0.992699
#
# Coordination Sequence:
#
# PCOD9418782 Si02
#       6
#     8   8   8   8   8   8
#     4   9  19  34  54  78 107 141 178 222 270 321
#     4  11  22  38  59  86 115 146 184 229 280 334
#     4  11  22  39  60  84 114 150 188 230 276 326
#     4   9  19  37  57  79 110 146 183 227 277 327
#     4  11  22  37  57  82 111 145 185 230 279 332
#     4  10  21  39  58  80 110 146 186 229 277 328
#
# _framework density 17.748286
#
# number of rings (size 3 to 8) (size 9 to 14) (size 15 to 20)
#    0.000    1.833    0.000    7.000    0.000    5.667 
#    0.000    6.667    0.000    0.000    0.000    0.000 
#    0.000    0.000    0.000    0.000    0.000    0.000 
#
# Total GULP energy -268126.095617 kJ/mol
# GULP energy per Si atom -5585.960325 kJ/mol
# Density = 1.770789 g / cm^3
# Si number density = 17.748286 Si / 1000 Ang^3
#
#
#
# Elastic Constant Matrix: (Units=GPa)
#
#
# Indices 1 2 3 4 5 6 
#
# 1 123.5686 64.1544 63.7661 0.0000 0.0000 0.0000
# 2 64.1544 174.5403 91.5549 0.0000 0.0000 0.0000
# 3 63.7661 91.5549 191.2007 0.0000 0.0000 0.0000
# 4 0.0000 0.0000 0.0000 4.0162 0.0000 0.0000
# 5 0.0000 0.0000 0.0000 0.0000 36.5543 0.0000
# 6 0.0000 0.0000 0.0000 0.0000 0.0000 28.2715
#
#
#
# Elastic Compliance Matrix: (Units=1/GPa)
#
#
# Indices 1 2 3 4 5 6 
#
# 1 0.010678 -0.002747 -0.002246 0.000000 0.000000 0.000000
# 2 -0.002747 0.008358 -0.003086 0.000000 0.000000 0.000000
# 3 -0.002246 -0.003086 0.007457 0.000000 0.000000 0.000000
# 4 0.000000 0.000000 0.000000 0.248991 0.000000 0.000000
# 5 0.000000 0.000000 0.000000 0.000000 0.027357 0.000000
# 6 0.000000 0.000000 0.000000 0.000000 0.000000 0.035371
#
#
# Mechanical properties :
#
#
# Convention : Reuss Voigt Hill
#
# Bulk Modulus (GPa) = 96.75698 103.14006 99.94852
# Shear Modulus (GPa) = 13.97380 31.75736 22.86558
#
# Velocity S-wave (km/s) = 2.80899 4.23462 3.59322
# Velocity P-wave (km/s) = 8.07187 9.06357 8.58206
#
# Compressibility (1/GPa) = 0.01033517
#
# Stress axis : x y z
#
# Youngs Moduli (GPa) = 93.65402 119.65102 134.10606
#
# Poissons Ratio (x) = 0.32864 0.30118
# Poissons Ratio (y) = 0.25723 0.41385
# Poissons Ratio (z) = 0.21033 0.36924
#
# Static dielectric constant tensor:
#      x y z
#    x 1.596800 0.000000 0.000000 
#    y 0.000000 1.587180 0.000000 
#    z 0.000000 0.000000 1.578520 
# 
# From -- ./inp_files/20358.got.cif
#   From: 2010.05.17/outbox.cif.g08.bks.cpg/sg53_11_cif.got.tgz:20358.got - 2010.06.03 12:45:16.
