data_PCOD9418171
_publ_section_title
;
Structure prediction by ZEFSAII (Michael W. Deem and Ramdas Pophale) SiO2 
 PCOD9418171
Probable space group: P M N A
;
_chemical_formula_sum "Si O2"
_cell_formula_units_Z 30
_cell_length_a 21.392233
_cell_length_b 12.435280
_cell_length_c 5.223531
_cell_angle_alpha 90.000000
_cell_angle_beta 90.000000
_cell_angle_gamma 90.000000
_cell_volume 1389.555396
_symmetry_space_group_name_H-M "P M N A"
_symmetry_group_IT_number 53
_symmetry_cell_setting 'orthorhombic'
loop_
_space_group_symop_operation_xyz
x,y,z
1/2-x,-y,1/2+z
x,-y,-z
1/2-x,y,1/2-z
-x,-y,-z
1/2+x,y,1/2-z
-x,y,z
1/2+x,-y,1/2+z
loop_
_atom_site_type_symbol
_atom_site_label
_atom_site_fract_x
_atom_site_fract_y
_atom_site_fract_z
Si Si1 0.500000 0.000000 0.500000
Si Si2 0.500000 0.426288 0.249472
Si Si3 0.112814 0.111702 0.740425
Si Si4 0.250000 0.109469 0.750000
Si Si5 0.250000 0.258639 0.250000
Si Si6 0.614241 0.262656 0.258435
O O1 0.444574 0.965730 0.294890
O O2 0.500000 0.500000 0.500000
O O3 0.560102 0.349432 0.248596
O O4 0.500000 0.500000 0.000000
O O5 0.181605 0.055516 0.747336
O O6 0.107721 0.180496 0.479989
O O7 0.109763 0.196028 0.977681
O O8 0.250334 0.183515 0.499448
O O9 0.183191 0.316022 0.253878
#
# Coordination Sequence:
#
# PCOD9418171 Si02
#       6
#     2   4   8   4   4   8
#     4  12  24  36  56  94 120 152 200 244 284 342
#     4  12  24  37  56  85 116 145 182 229 290 356
#     4  10  21  36  59  82 115 152 194 238 286 342
#     4   8  16  34  53  79 106 148 190 230 282 335
#     4   8  16  32  61  79  98 142 196 226 268 343
#     4  10  20  40  59  80 111 152 188 233 290 343
#
# _framework density 21.589639999999999
#
# number of rings (size 3 to 8) (size 9 to 14) (size 15 to 20)
#    0.000    2.133    0.000    3.200    0.000    2.133 
#    0.000    9.333    0.000    0.000    0.000    0.000 
#    0.000    0.000    0.000    0.000    0.000    0.000 
#
# Total GULP energy -167119.177386 kJ/mol
# GULP energy per Si atom -5570.639246 kJ/mol
# Density = 2.154050 g / cm^3
# Si number density = 21.589640 Si / 1000 Ang^3
#
#
#
# Elastic Constant Matrix: (Units=GPa)
#
#
# Indices 1 2 3 4 5 6 
#
# 1 289.5006 72.0180 37.9846 0.0000 0.0000 0.0000
# 2 72.0180 64.3905 51.1459 0.0000 0.0000 0.0000
# 3 37.9846 51.1459 184.9320 0.0000 0.0000 0.0000
# 4 0.0000 0.0000 0.0000 39.0611 0.0000 0.0000
# 5 0.0000 0.0000 0.0000 0.0000 27.9908 0.0000
# 6 0.0000 0.0000 0.0000 0.0000 0.0000 -24.6338
#
#
#
# Elastic Compliance Matrix: (Units=1/GPa)
#
#
# Indices 1 2 3 4 5 6 
#
# 1 0.004845 -0.005932 0.000645 0.000000 0.000000 0.000000
# 2 -0.005932 0.027164 -0.006294 0.000000 0.000000 0.000000
# 3 0.000645 -0.006294 0.007016 0.000000 0.000000 0.000000
# 4 0.000000 0.000000 0.000000 0.025601 0.000000 0.000000
# 5 0.000000 0.000000 0.000000 0.000000 0.035726 0.000000
# 6 0.000000 0.000000 0.000000 0.000000 0.000000 -0.040595
#
#
# Mechanical properties :
#
#
# Convention : Reuss Voigt Hill
#
# Bulk Modulus (GPa) = 63.03739 95.68001 79.35870
# Shear Modulus (GPa) = 56.68509 33.66192 45.17350
#
# Velocity S-wave (km/s) = 5.12959 3.95292 4.57920
# Velocity P-wave (km/s) = 8.02153 8.07761 8.04962
#
# Compressibility (1/GPa) = 0.01586360
#
# Stress axis : x y z
#
# Youngs Moduli (GPa) = 206.39183 36.81319 142.53857
#
# Poissons Ratio (x) = 0.21836 -0.09198
# Poissons Ratio (y) = 1.22425 0.89719
# Poissons Ratio (z) = -0.13319 0.23171
#
# Static dielectric constant tensor:
#      x y z
#    x 1.831280 0.000000 0.000000 
#    y 0.000000 1.727150 0.000000 
#    z 0.000000 0.000000 1.794410 
# 
# From -- ./inp_files/2602.got.cif
#   From: 2010.05.17/outbox.cif.g08.bks.cpg/sg53_2_cif.got.tgz:2602.got - 2010.06.03 12:45:16.
