data_PCOD9418266
_publ_section_title
;
Structure prediction by ZEFSAII (Michael W. Deem and Ramdas Pophale) SiO2 
 PCOD9418266
Probable space group: P M N A
;
_chemical_formula_sum "Si O2"
_cell_formula_units_Z 48
_cell_length_a 14.455942
_cell_length_b 14.604609
_cell_length_c 8.374003
_cell_angle_alpha 90.000000
_cell_angle_beta 90.000000
_cell_angle_gamma 90.000000
_cell_volume 1767.947823
_symmetry_space_group_name_H-M "P M N A"
_symmetry_group_IT_number 53
_symmetry_cell_setting 'orthorhombic'
loop_
_space_group_symop_operation_xyz
x,y,z
1/2-x,-y,1/2+z
x,-y,-z
1/2-x,y,1/2-z
-x,-y,-z
1/2+x,y,1/2-z
-x,y,z
1/2+x,-y,1/2+z
loop_
_atom_site_type_symbol
_atom_site_label
_atom_site_fract_x
_atom_site_fract_y
_atom_site_fract_z
Si Si1 0.113033 0.222955 0.023685
Si Si2 0.610406 0.612500 0.340439
Si Si3 0.113767 0.114857 0.342195
Si Si4 0.838033 0.563873 0.660031
Si Si5 0.390430 0.944258 0.331943
Si Si6 0.606428 0.726248 0.043961
O O1 0.143410 0.326560 0.988889
O O2 0.000000 0.220826 0.027287
O O3 0.142663 0.156406 0.877792
O O4 0.140604 0.174814 0.187261
O O5 0.500000 0.618426 0.345922
O O6 0.626559 0.507803 0.294126
O O7 0.647703 0.670252 0.189615
O O8 0.146044 0.011599 0.306521
O O9 0.146626 0.176978 0.488719
O O10 0.000000 0.112322 0.349436
O O11 0.823718 0.500000 0.500000
O O12 0.750000 0.601317 0.750000
O O13 0.894534 0.651226 0.599231
O O14 0.500000 0.935120 0.297656
O O15 0.383768 0.000000 0.500000
O O16 0.500000 0.744732 0.087046
#
# Coordination Sequence:
#
# PCOD9418266 Si02
#       6
#     8   8   8   8   8   8
#     4   8  13  22  38  61  88 117 147 177 210 251
#     4   9  17  30  47  66  89 117 147 179 218 263
#     4   8  13  22  38  61  88 117 147 177 210 251
#     4  10  21  35  49  65  87 116 148 182 222 266
#     4   7  10  18  33  55  86 119 144 169 207 253
#     4   9  17  30  47  66  89 117 147 179 218 263
#
# _framework density 27.150123000000001
#
# number of rings (size 3 to 8) (size 9 to 14) (size 15 to 20)
#    0.000    3.500    0.000    2.500    0.000    3.333 
#    0.000    0.833    0.000   10.000    0.000    1.167 
#    0.000    0.000    0.000    0.000    0.000    0.000 
#
# Total GULP energy -268082.517337 kJ/mol
# GULP energy per Si atom -5585.052445 kJ/mol
# Density = 2.708833 g / cm^3
# Si number density = 27.150123 Si / 1000 Ang^3
#
#
#
# Elastic Constant Matrix: (Units=GPa)
#
#
# Indices 1 2 3 4 5 6 
#
# 1 59.7066 12.7501 23.5462 0.0000 0.0000 0.0000
# 2 12.7501 164.0021 49.4603 0.0000 0.0000 0.0000
# 3 23.5462 49.4603 43.6216 0.0000 0.0000 0.0000
# 4 0.0000 0.0000 0.0000 58.0882 0.0000 0.0000
# 5 0.0000 0.0000 0.0000 0.0000 -427.6237 0.0000
# 6 0.0000 0.0000 0.0000 0.0000 0.0000 -126.2837
#
#
#
# Elastic Compliance Matrix: (Units=1/GPa)
#
#
# Indices 1 2 3 4 5 6 
#
# 1 0.022127 0.002860 -0.015186 0.000000 0.000000 0.000000
# 2 0.002860 0.009636 -0.012469 0.000000 0.000000 0.000000
# 3 -0.015186 -0.012469 0.045259 0.000000 0.000000 0.000000
# 4 0.000000 0.000000 0.000000 0.017215 0.000000 0.000000
# 5 0.000000 0.000000 0.000000 0.000000 -0.002339 0.000000
# 6 0.000000 0.000000 0.000000 0.000000 0.000000 -0.007919
#
#
# Mechanical properties :
#
#
# Convention : Reuss Voigt Hill
#
# Bulk Modulus (GPa) = 36.45487 48.76040 42.60764
# Shear Modulus (GPa) = 35.03515 -87.05893 -26.01189
#
# Velocity S-wave (km/s) = 3.59614 -5.66881 -3.09864
# Velocity P-wave (km/s) = 5.54069 4.98484 1.71036
#
# Compressibility (1/GPa) = 0.02743118
#
# Stress axis : x y z
#
# Youngs Moduli (GPa) = 45.19421 103.78214 22.09489
#
# Poissons Ratio (x) = -0.29678 0.33553
# Poissons Ratio (y) = -0.12924 0.27550
# Poissons Ratio (z) = 0.68632 1.29404
#
# Static dielectric constant tensor:
#      x y z
#    x 2.124580 0.000000 0.000000 
#    y 0.000000 2.136500 0.000000 
#    z 0.000000 0.000000 1.805040 
# 
# From -- ./inp_files/10917.got.cif
#   From: 2010.05.17/outbox.cif.g08.bks.cpg/sg53_6_cif.got.tgz:10917.got - 2010.06.03 12:45:16.
