data_PCOD9418892
_publ_section_title
;
Structure prediction by ZEFSAII (Michael W. Deem and Ramdas Pophale) SiO2 
 PCOD9418892
Probable space group: P M N A
;
_chemical_formula_sum "Si O2"
_cell_formula_units_Z 52
_cell_length_a 20.668427
_cell_length_b 15.305763
_cell_length_c 7.990174
_cell_angle_alpha 90.000000
_cell_angle_beta 90.000000
_cell_angle_gamma 90.000000
_cell_volume 2527.659946
_symmetry_space_group_name_H-M "P M N A"
_symmetry_group_IT_number 53
_symmetry_cell_setting 'orthorhombic'
loop_
_space_group_symop_operation_xyz
x,y,z
1/2-x,-y,1/2+z
x,-y,-z
1/2-x,y,1/2-z
-x,-y,-z
1/2+x,y,1/2-z
-x,y,z
1/2+x,-y,1/2+z
loop_
_atom_site_type_symbol
_atom_site_label
_atom_site_fract_x
_atom_site_fract_y
_atom_site_fract_z
Si Si1 0.382273 0.902400 0.031112
Si Si2 0.139976 0.167632 0.889665
Si Si3 0.770258 0.797548 0.573047
Si Si4 0.679040 0.661461 0.202145
Si Si5 0.430932 0.519776 0.195953
Si Si6 0.500000 0.786352 0.439527
Si Si7 0.000000 0.357830 0.225731
Si Si8 0.000000 0.771552 0.461240
O O1 0.358960 0.891171 0.223235
O O2 0.437847 0.831181 0.004334
O O3 0.322860 0.874089 0.914907
O O4 0.404890 0.000000 0.000000
O O5 0.148635 0.267710 0.827445
O O6 0.067852 0.161570 0.965337
O O7 0.205545 0.159728 0.994504
O O8 0.750000 0.759554 0.750000
O O9 0.804450 0.721839 0.460796
O O10 0.750000 0.629083 0.250000
O O11 0.629674 0.581996 0.209700
O O12 0.500000 0.562720 0.245365
O O13 0.438433 0.424383 0.281491
O O14 0.433831 0.500000 0.000000
O O15 0.500000 0.709448 0.575122
O O16 0.500000 0.758908 0.241384
O O17 0.000000 0.308521 0.406894
#
# Coordination Sequence:
#
# PCOD9418892 Si02
#       8
#     8   8   8   8   8   4   4   4
#     4  10  21  39  67  96 126 166 212 265 328 396
#     4   9  21  38  62  92 126 169 211 260 323 389
#     4  10  22  37  62  93 127 173 217 260 326 402
#     4   9  19  40  61  81 125 170 210 262 325 382
#     4   9  21  34  61  87 120 159 216 271 323 375
#     4  10  22  37  69  95 124 164 218 269 314 386
#     4  10  23  40  65  94 125 167 223 269 321 389
#     4  10  23  41  72  92 133 175 208 265 340 396
#
# _framework density 20.572388
#
# number of rings (size 3 to 8) (size 9 to 14) (size 15 to 20)
#    0.462    2.000    0.000    1.615    9.692    1.231 
#    0.000    5.385    6.769    1.846    0.000    0.000 
#    0.000    0.000    0.000    0.000    0.000    0.000 
#
# Total GULP energy -289532.912604 kJ/mol
# GULP energy per Si atom -5567.940627 kJ/mol
# Density = 2.052556 g / cm^3
# Si number density = 20.572388 Si / 1000 Ang^3
#
#
#
# Elastic Constant Matrix: (Units=GPa)
#
#
# Indices 1 2 3 4 5 6 
#
# 1 134.3097 24.9366 13.2131 0.0000 0.0000 0.0000
# 2 24.9366 47.6145 -5.9490 0.0000 0.0000 0.0000
# 3 13.2131 -5.9490 18.7296 0.0000 0.0000 0.0000
# 4 0.0000 0.0000 0.0000 9.5104 0.0000 0.0000
# 5 0.0000 0.0000 0.0000 0.0000 -3.5300 0.0000
# 6 0.0000 0.0000 0.0000 0.0000 0.0000 13.3825
#
#
#
# Elastic Compliance Matrix: (Units=1/GPa)
#
#
# Indices 1 2 3 4 5 6 
#
# 1 0.009396 -0.005987 -0.008530 0.000000 0.000000 0.000000
# 2 -0.005987 0.025684 0.012381 0.000000 0.000000 0.000000
# 3 -0.008530 0.012381 0.063342 0.000000 0.000000 0.000000
# 4 0.000000 0.000000 0.000000 0.105148 0.000000 0.000000
# 5 0.000000 0.000000 0.000000 0.000000 -0.283288 0.000000
# 6 0.000000 0.000000 0.000000 0.000000 0.000000 0.074724
#
#
# Mechanical properties :
#
#
# Convention : Reuss Voigt Hill
#
# Bulk Modulus (GPa) = 10.62123 29.45059 20.03591
# Shear Modulus (GPa) = 163.06983 15.10278 89.08631
#
# Velocity S-wave (km/s) = 8.91282 2.71242 6.58770
# Velocity P-wave (km/s) = 10.54002 4.91491 8.22339
#
# Compressibility (1/GPa) = 0.09415106
#
# Stress axis : x y z
#
# Youngs Moduli (GPa) = 106.42613 38.93432 15.78738
#
# Poissons Ratio (x) = 0.23309 0.13467
# Poissons Ratio (y) = 0.63714 -0.19547
# Poissons Ratio (z) = 0.90784 -0.48206
#
# Static dielectric constant tensor:
#      x y z
#    x 1.823540 0.000000 0.000000 
#    y 0.000000 1.730650 0.000000 
#    z 0.000000 0.000000 1.784680 
# 
# From -- ./inp_files/11014.got.cif
#   From: 2010.05.17/outbox.cif.g08.bks.cpg/sg53_6_cif.got.tgz:11014.got - 2010.06.03 12:45:16.
