data_PCOD9418931
_publ_section_title
;
Structure prediction by ZEFSAII (Michael W. Deem and Ramdas Pophale) SiO2 
 PCOD9418931
Probable space group: P M N A
;
_chemical_formula_sum "Si O2"
_cell_formula_units_Z 28
_cell_length_a 26.178255
_cell_length_b 9.077030
_cell_length_c 5.629920
_cell_angle_alpha 90.000000
_cell_angle_beta 90.000000
_cell_angle_gamma 90.000000
_cell_volume 1337.786128
_symmetry_space_group_name_H-M "P M N A"
_symmetry_group_IT_number 53
_symmetry_cell_setting 'orthorhombic'
loop_
_space_group_symop_operation_xyz
x,y,z
1/2-x,-y,1/2+z
x,-y,-z
1/2-x,y,1/2-z
-x,-y,-z
1/2+x,y,1/2-z
-x,y,z
1/2+x,-y,1/2+z
loop_
_atom_site_type_symbol
_atom_site_label
_atom_site_fract_x
_atom_site_fract_y
_atom_site_fract_z
Si Si1 0.098249 0.000000 0.500000
Si Si2 0.250000 0.407503 0.750000
Si Si3 0.643508 0.744621 0.293419
Si Si4 0.445127 0.752314 0.672429
Si Si5 0.415779 0.500000 0.000000
O O1 0.133961 0.100322 0.665592
O O2 0.063198 0.111099 0.349689
O O3 0.240430 0.500000 0.500000
O O4 0.298350 0.305153 0.682147
O O5 0.606575 0.748201 0.520570
O O6 0.618950 0.616719 0.134514
O O7 0.500000 0.769693 0.543315
O O8 0.446216 0.599265 0.814815
#
# Coordination Sequence:
#
# PCOD9418931 Si02
#       5
#     4   4   8   8   4
#     4  10  25  44  62  98 140 182 233 288 352 426
#     4  12  26  48  80 106 138 186 238 308 364 424
#     4  11  24  44  68  99 138 177 238 285 358 422
#     4  11  23  41  67  99 141 187 231 289 353 426
#     4  10  21  40  64 100 136 170 231 288 348 418
#
# _framework density 20.930101000000001
#
# number of rings (size 3 to 8) (size 9 to 14) (size 15 to 20)
#    0.000    1.143    1.429    4.286    4.000    9.143 
#    5.143    0.000    0.000    0.000    0.000    0.000 
#    0.000    0.000    0.000    0.000    0.000    0.000 
#
# Total GULP energy -156268.121395 kJ/mol
# GULP energy per Si atom -5581.004336 kJ/mol
# Density = 2.088246 g / cm^3
# Si number density = 20.930101 Si / 1000 Ang^3
#
#
#
# Elastic Constant Matrix: (Units=GPa)
#
#
# Indices 1 2 3 4 5 6 
#
# 1 186.8256 36.8500 44.3143 0.0000 0.0000 0.0000
# 2 36.8500 111.9319 32.0979 0.0000 0.0000 0.0000
# 3 44.3143 32.0979 85.6397 0.0000 0.0000 0.0000
# 4 0.0000 0.0000 0.0000 4.6667 0.0000 0.0000
# 5 0.0000 0.0000 0.0000 0.0000 27.1607 0.0000
# 6 0.0000 0.0000 0.0000 0.0000 0.0000 -1.8093
#
#
#
# Elastic Compliance Matrix: (Units=1/GPa)
#
#
# Indices 1 2 3 4 5 6 
#
# 1 0.006258 -0.001268 -0.002763 0.000000 0.000000 0.000000
# 2 -0.001268 0.010267 -0.003192 0.000000 0.000000 0.000000
# 3 -0.002763 -0.003192 0.014303 0.000000 0.000000 0.000000
# 4 0.000000 0.000000 0.000000 0.214285 0.000000 0.000000
# 5 0.000000 0.000000 0.000000 0.000000 0.036818 0.000000
# 6 0.000000 0.000000 0.000000 0.000000 0.000000 -0.552693
#
#
# Mechanical properties :
#
#
# Convention : Reuss Voigt Hill
#
# Bulk Modulus (GPa) = 61.04266 67.88020 64.46143
# Shear Modulus (GPa) = -19.93174 24.07928 2.07377
#
# Velocity S-wave (km/s) = -3.08928 3.39553 0.99647
# Velocity P-wave (km/s) = 4.06244 6.91918 5.67356
#
# Compressibility (1/GPa) = 0.01638199
#
# Stress axis : x y z
#
# Youngs Moduli (GPa) = 159.79412 97.40182 69.91600
#
# Poissons Ratio (x) = 0.12350 0.19318
# Poissons Ratio (y) = 0.20261 0.22316
# Poissons Ratio (z) = 0.44151 0.31090
#
# Static dielectric constant tensor:
#      x y z
#    x 1.761950 0.000000 0.000000 
#    y 0.000000 1.737750 0.000000 
#    z 0.000000 0.000000 1.845110 
# 
# From -- ./inp_files/4162.got.cif
#   From: 2010.05.17/outbox.cif.g08.bks.cpg/sg53_3_cif.got.tgz:4162.got - 2010.06.03 12:45:16.
