data_PCOD9418524
_publ_section_title
;
Structure prediction by ZEFSAII (Michael W. Deem and Ramdas Pophale) SiO2 
 PCOD9418524
Probable space group: P M N A
;
_chemical_formula_sum "Si O2"
_cell_formula_units_Z 28
_cell_length_a 35.874810
_cell_length_b 6.989794
_cell_length_c 5.034793
_cell_angle_alpha 90.000000
_cell_angle_beta 90.000000
_cell_angle_gamma 90.000000
_cell_volume 1262.512265
_symmetry_space_group_name_H-M "P M N A"
_symmetry_group_IT_number 53
_symmetry_cell_setting 'orthorhombic'
loop_
_space_group_symop_operation_xyz
x,y,z
1/2-x,-y,1/2+z
x,-y,-z
1/2-x,y,1/2-z
-x,-y,-z
1/2+x,y,1/2-z
-x,y,z
1/2+x,-y,1/2+z
loop_
_atom_site_type_symbol
_atom_site_label
_atom_site_fract_x
_atom_site_fract_y
_atom_site_fract_z
Si Si1 0.386506 0.231892 0.012273
Si Si2 0.341905 0.229606 0.508487
Si Si3 0.275383 0.500000 0.500000
Si Si4 0.958748 0.138559 0.247777
O O1 0.354505 0.291222 0.215742
O O2 0.426016 0.278866 0.152346
O O3 0.374281 0.286787 0.717708
O O4 0.386660 0.000000 0.000000
O O5 0.303153 0.327645 0.577613
O O6 0.338814 0.000000 0.500000
O O7 0.250000 0.552011 0.750000
O O8 0.000000 0.220843 0.186583
O O9 0.963196 0.000000 0.500000
O O10 0.947735 0.000000 0.000000
#
# Coordination Sequence:
#
# PCOD9418524 Si02
#       4
#     8   8   4   8
#     4   9  16  30  51  77 108 144 183 219 260 314
#     4  10  21  37  58  81 107 141 178 218 266 322
#     4  12  26  42  60  84 109 134 173 222 276 338
#     4   9  15  23  40  72 112 147 182 227 268 303
#
# _framework density 22.178001999999999
#
# number of rings (size 3 to 8) (size 9 to 14) (size 15 to 20)
#    0.000    2.286    0.000    6.000    0.000    1.143 
#    0.000    0.000    0.000    0.000    0.000    6.000 
#    0.000    0.000    0.000    0.000    0.000    0.000 
#
# Total GULP energy -156111.170440 kJ/mol
# GULP energy per Si atom -5575.398944 kJ/mol
# Density = 2.212752 g / cm^3
# Si number density = 22.178002 Si / 1000 Ang^3
#
#
#
# Elastic Constant Matrix: (Units=GPa)
#
#
# Indices 1 2 3 4 5 6 
#
# 1 138.0466 15.3828 31.1833 0.0000 0.0000 0.0000
# 2 15.3828 78.6661 -0.1960 0.0000 0.0000 0.0000
# 3 31.1833 -0.1960 133.5417 0.0000 0.0000 0.0000
# 4 0.0000 0.0000 0.0000 4.1083 0.0000 0.0000
# 5 0.0000 0.0000 0.0000 0.0000 44.2768 0.0000
# 6 0.0000 0.0000 0.0000 0.0000 0.0000 -94.5292
#
#
#
# Elastic Compliance Matrix: (Units=1/GPa)
#
#
# Indices 1 2 3 4 5 6 
#
# 1 0.007828 -0.001535 -0.001830 0.000000 0.000000 0.000000
# 2 -0.001535 0.013013 0.000378 0.000000 0.000000 0.000000
# 3 -0.001830 0.000378 0.007916 0.000000 0.000000 0.000000
# 4 0.000000 0.000000 0.000000 0.243412 0.000000 0.000000
# 5 0.000000 0.000000 0.000000 0.000000 0.022585 0.000000
# 6 0.000000 0.000000 0.000000 0.000000 0.000000 -0.010579
#
#
# Mechanical properties :
#
#
# Convention : Reuss Voigt Hill
#
# Bulk Modulus (GPa) = 43.89474 49.22162 46.55818
# Shear Modulus (GPa) = 16.79281 11.03012 13.91147
#
# Velocity S-wave (km/s) = 2.75468 2.23254 2.50724
# Velocity P-wave (km/s) = 5.47290 5.37473 5.42404
#
# Compressibility (1/GPa) = 0.02278177
#
# Stress axis : x y z
#
# Youngs Moduli (GPa) = 127.73901 76.84547 126.32257
#
# Poissons Ratio (x) = 0.11799 0.23121
# Poissons Ratio (y) = 0.19613 -0.04770
# Poissons Ratio (z) = 0.23380 -0.02902
#
# Static dielectric constant tensor:
#      x y z
#    x 1.881170 0.000000 0.000000 
#    y 0.000000 1.856660 0.000000 
#    z 0.000000 0.000000 1.792860 
# 
# From -- ./inp_files/4874.got.cif
#   From: 2010.05.17/outbox.cif.g08.bks.cpg/sg53_3_cif.got.tgz:4874.got - 2010.06.03 12:45:16.
