data_PCOD9418527
_publ_section_title
;
Structure prediction by ZEFSAII (Michael W. Deem and Ramdas Pophale) SiO2 
 PCOD9418527
Probable space group: P M N A
;
_chemical_formula_sum "Si O2"
_cell_formula_units_Z 40
_cell_length_a 8.508908
_cell_length_b 15.695657
_cell_length_c 14.981670
_cell_angle_alpha 90.000000
_cell_angle_beta 90.000000
_cell_angle_gamma 90.000000
_cell_volume 2000.845497
_symmetry_space_group_name_H-M "P M N A"
_symmetry_group_IT_number 53
_symmetry_cell_setting 'orthorhombic'
loop_
_space_group_symop_operation_xyz
x,y,z
1/2-x,-y,1/2+z
x,-y,-z
1/2-x,y,1/2-z
-x,-y,-z
1/2+x,y,1/2-z
-x,y,z
1/2+x,-y,1/2+z
loop_
_atom_site_type_symbol
_atom_site_label
_atom_site_fract_x
_atom_site_fract_y
_atom_site_fract_z
Si Si1 0.187791 0.590026 0.147955
Si Si2 0.688617 0.222935 0.648920
Si Si3 0.189889 0.227652 0.350896
Si Si4 0.312119 0.585243 0.852090
Si Si5 0.310007 0.097547 0.999005
O O1 0.250000 0.590574 0.250000
O O2 0.237136 0.682906 0.112571
O O3 0.249945 0.502405 0.106134
O O4 0.000000 0.586009 0.149023
O O5 0.750000 0.215307 0.750000
O O6 0.500000 0.220049 0.649895
O O7 0.754921 0.148770 0.587543
O O8 0.250000 0.217838 0.250000
O O9 0.237833 0.321693 0.386899
O O10 0.244215 0.152425 0.415555
O O11 0.000000 0.226863 0.348362
O O12 0.250000 0.585936 0.750000
O O13 0.500000 0.581056 0.851529
O O14 0.500000 0.096807 0.000084
O O15 0.255056 0.000000 0.000000
#
# Coordination Sequence:
#
# PCOD9418527 Si02
#       5
#     8   8   8   8   8
#     4   9  16  27  46  74 106 139 175 213 257 310
#     4  10  21  37  58  83 111 145 182 222 270 323
#     4   9  19  35  55  80 109 142 179 220 269 323
#     4   9  15  25  45  73 104 138 174 211 256 311
#     4  10  22  40  59  80 108 141 181 231 280 325
#
# _framework density 19.991548999999999
#
# number of rings (size 3 to 8) (size 9 to 14) (size 15 to 20)
#    0.000    2.600    0.000    3.000    0.000    5.200 
#    0.000    3.000    0.000    6.000    0.000    0.000 
#    0.000    0.000    0.000    0.000    0.000    0.000 
#
# Total GULP energy -223079.569422 kJ/mol
# GULP energy per Si atom -5576.989236 kJ/mol
# Density = 1.994605 g / cm^3
# Si number density = 19.991549 Si / 1000 Ang^3
#
#
#
# Elastic Constant Matrix: (Units=GPa)
#
#
# Indices 1 2 3 4 5 6 
#
# 1 21.5045 40.5221 7.5545 0.0000 0.0000 0.0000
# 2 40.5221 250.9580 81.6774 0.0000 0.0000 0.0000
# 3 7.5545 81.6774 93.1064 0.0000 0.0000 0.0000
# 4 0.0000 0.0000 0.0000 39.4432 0.0000 0.0000
# 5 0.0000 0.0000 0.0000 0.0000 11.5954 0.0000
# 6 0.0000 0.0000 0.0000 0.0000 0.0000 24.7879
#
#
#
# Elastic Compliance Matrix: (Units=1/GPa)
#
#
# Indices 1 2 3 4 5 6 
#
# 1 0.069040 -0.013051 0.005847 0.000000 0.000000 0.000000
# 2 -0.013051 0.008044 -0.005998 0.000000 0.000000 0.000000
# 3 0.005847 -0.005998 0.015527 0.000000 0.000000 0.000000
# 4 0.000000 0.000000 0.000000 0.025353 0.000000 0.000000
# 5 0.000000 0.000000 0.000000 0.000000 0.086241 0.000000
# 6 0.000000 0.000000 0.000000 0.000000 0.000000 0.040342
#
#
# Mechanical properties :
#
#
# Convention : Reuss Voigt Hill
#
# Bulk Modulus (GPa) = 15.10372 69.45299 42.27836
# Shear Modulus (GPa) = 17.06363 30.88631 23.97497
#
# Velocity S-wave (km/s) = 2.92471 3.93487 3.46678
# Velocity P-wave (km/s) = 4.35623 7.44721 6.10072
#
# Compressibility (1/GPa) = 0.06620884
#
# Stress axis : x y z
#
# Youngs Moduli (GPa) = 14.48427 124.31469 64.40192
#
# Poissons Ratio (x) = 1.62242 -0.37656
# Poissons Ratio (y) = 0.18903 0.38627
# Poissons Ratio (z) = -0.08469 0.74561
#
# Static dielectric constant tensor:
#      x y z
#    x 1.676410 0.000000 0.000000 
#    y 0.000000 1.757200 0.000000 
#    z 0.000000 0.000000 1.712500 
# 
# From -- ./inp_files/19842.got.cif
#   From: 2010.05.17/outbox.cif.g08.bks.cpg/sg53_10_cif.got.tgz:19842.got - 2010.06.03 12:45:16.
