data_PCOD9418820
_publ_section_title
;
Structure prediction by ZEFSAII (Michael W. Deem and Ramdas Pophale) SiO2 
 PCOD9418820
Probable space group: P M N A
;
_chemical_formula_sum "Si O2"
_cell_formula_units_Z 48
_cell_length_a 15.096830
_cell_length_b 9.777685
_cell_length_c 16.733142
_cell_angle_alpha 90.000000
_cell_angle_beta 90.000000
_cell_angle_gamma 90.000000
_cell_volume 2470.013364
_symmetry_space_group_name_H-M "P M N A"
_symmetry_group_IT_number 53
_symmetry_cell_setting 'orthorhombic'
loop_
_space_group_symop_operation_xyz
x,y,z
1/2-x,-y,1/2+z
x,-y,-z
1/2-x,y,1/2-z
-x,-y,-z
1/2+x,y,1/2-z
-x,y,z
1/2+x,-y,1/2+z
loop_
_atom_site_type_symbol
_atom_site_label
_atom_site_fract_x
_atom_site_fract_y
_atom_site_fract_z
Si Si1 0.154188 0.250086 0.210875
Si Si2 0.731684 0.121835 0.446003
Si Si3 0.102961 0.724550 0.307300
Si Si4 0.900141 0.961657 0.656272
Si Si5 0.730171 0.382982 0.944676
Si Si6 0.400288 0.542567 0.347207
O O1 0.250000 0.282413 0.250000
O O2 0.171879 0.169751 0.128265
O O3 0.107207 0.151203 0.274090
O O4 0.107319 0.392826 0.192451
O O5 0.824410 0.070347 0.407935
O O6 0.750936 0.250621 0.502079
O O7 0.693572 0.000000 0.500000
O O8 0.167527 0.656699 0.371386
O O9 0.116235 0.655636 0.221357
O O10 0.000000 0.700852 0.329298
O O11 0.117452 0.887638 0.307809
O O12 0.000000 0.960460 0.622962
O O13 0.822560 0.441257 0.910878
O O14 0.688461 0.500000 0.000000
O O15 0.500000 0.561124 0.378933
#
# Coordination Sequence:
#
# PCOD9418820 Si02
#       6
#     8   8   8   8   8   8
#     4  10  21  39  62  89 120 159 207 249 302 363
#     4  11  23  39  61  92 120 163 202 244 308 366
#     4  10  23  41  64  93 123 161 204 249 303 365
#     4  10  22  40  63  91 122 158 201 250 302 364
#     4  12  24  41  63  90 126 163 201 253 306 363
#     4  11  24  42  64  88 120 164 210 252 299 359
#
# _framework density 19.433095000000002
#
# number of rings (size 3 to 8) (size 9 to 14) (size 15 to 20)
#    0.000    1.333    3.333    2.000    4.667    3.000 
#    0.000    0.000    0.000    2.500    0.000    0.000 
#    0.000    0.000    0.000    0.000    0.000    0.000 
#
# Total GULP energy -268287.394060 kJ/mol
# GULP energy per Si atom -5589.320710 kJ/mol
# Density = 1.938886 g / cm^3
# Si number density = 19.433095 Si / 1000 Ang^3
#
#
#
# Elastic Constant Matrix: (Units=GPa)
#
#
# Indices 1 2 3 4 5 6 
#
# 1 56.5512 14.7099 16.8504 0.0000 0.0000 0.0000
# 2 14.7099 101.4654 13.8895 0.0000 0.0000 0.0000
# 3 16.8504 13.8895 54.1002 0.0000 0.0000 0.0000
# 4 0.0000 0.0000 0.0000 45.5845 0.0000 0.0000
# 5 0.0000 0.0000 0.0000 0.0000 -6.3803 0.0000
# 6 0.0000 0.0000 0.0000 0.0000 0.0000 28.6419
#
#
#
# Elastic Compliance Matrix: (Units=1/GPa)
#
#
# Indices 1 2 3 4 5 6 
#
# 1 0.019920 -0.002113 -0.005662 0.000000 0.000000 0.000000
# 2 -0.002113 0.010439 -0.002022 0.000000 0.000000 0.000000
# 3 -0.005662 -0.002022 0.020767 0.000000 0.000000 0.000000
# 4 0.000000 0.000000 0.000000 0.021937 0.000000 0.000000
# 5 0.000000 0.000000 0.000000 0.000000 -0.156734 0.000000
# 6 0.000000 0.000000 0.000000 0.000000 0.000000 0.034914
#
#
# Mechanical properties :
#
#
# Convention : Reuss Voigt Hill
#
# Bulk Modulus (GPa) = 31.71384 33.66849 32.69116
# Shear Modulus (GPa) = -268.04934 24.68035 -121.68450
#
# Velocity S-wave (km/s) = -11.75729 3.56760 -7.92168
# Velocity P-wave (km/s) = 12.95982 5.85946 8.17385
#
# Compressibility (1/GPa) = 0.03153198
#
# Stress axis : x y z
#
# Youngs Moduli (GPa) = 50.20146 95.79778 48.15372
#
# Poissons Ratio (x) = 0.20240 0.27264
# Poissons Ratio (y) = 0.10607 0.09736
# Poissons Ratio (z) = 0.28424 0.19370
#
# Static dielectric constant tensor:
#      x y z
#    x 1.682500 0.000000 0.000000 
#    y 0.000000 1.670520 0.000000 
#    z 0.000000 0.000000 1.655730 
# 
# From -- ./inp_files/28235.got.cif
#   From: 2010.05.17/outbox.cif.g08.bks.cpg/sg53_15_cif.got.tgz:28235.got - 2010.06.03 12:45:16.
