data_PCOD9418120
_publ_section_title
;
Structure prediction by ZEFSAII (Michael W. Deem and Ramdas Pophale) SiO2 
 PCOD9418120
Probable space group: P M N A
;
_chemical_formula_sum "Si O2"
_cell_formula_units_Z 56
_cell_length_a 8.010242
_cell_length_b 14.839078
_cell_length_c 22.147417
_cell_angle_alpha 90.000000
_cell_angle_beta 90.000000
_cell_angle_gamma 90.000000
_cell_volume 2632.543992
_symmetry_space_group_name_H-M "P M N A"
_symmetry_group_IT_number 53
_symmetry_cell_setting 'orthorhombic'
loop_
_space_group_symop_operation_xyz
x,y,z
1/2-x,-y,1/2+z
x,-y,-z
1/2-x,y,1/2-z
-x,-y,-z
1/2+x,y,1/2-z
-x,y,z
1/2+x,-y,1/2+z
loop_
_atom_site_type_symbol
_atom_site_label
_atom_site_fract_x
_atom_site_fract_y
_atom_site_fract_z
Si Si1 0.690922 0.593652 0.965345
Si Si2 0.686888 0.563935 0.661192
Si Si3 0.800244 0.239903 0.182788
Si Si4 0.798022 0.046230 0.178928
Si Si5 0.799446 0.055242 0.940579
Si Si6 0.702352 0.737742 0.064205
Si Si7 0.303787 0.362271 0.816247
O O1 0.500000 0.614648 0.944393
O O2 0.811547 0.573709 0.910471
O O3 0.679049 0.500000 0.000000
O O4 0.750832 0.672666 0.008990
O O5 0.500000 0.561071 0.687038
O O6 0.771593 0.659532 0.676640
O O7 0.767495 0.469039 0.677515
O O8 0.750000 0.215973 0.250000
O O9 0.745844 0.145972 0.152845
O O10 0.000000 0.248503 0.173071
O O11 0.750000 0.028274 0.250000
O O12 0.000000 0.046716 0.180381
O O13 0.739884 0.978819 0.125891
O O14 0.758663 0.160640 0.945460
O O15 0.000000 0.044298 0.939903
O O16 0.738101 0.000000 0.000000
O O17 0.500000 0.735515 0.065614
O O18 0.767201 0.693187 0.126813
O O19 0.250000 0.331376 0.750000
O O20 0.500000 0.351525 0.819530
#
# Coordination Sequence:
#
# PCOD9418120 Si02
#       7
#     8   8   8   8   8   8   8
#     4  10  20  39  60  81 115 156 191 233 291 348
#     4  11  22  34  56  89 119 155 196 241 290 346
#     4   9  19  34  53  80 115 149 187 230 280 341
#     4   9  19  38  60  84 115 153 195 240 299 360
#     4  10  23  41  64  90 120 155 194 250 311 362
#     4  10  23  42  62  85 117 156 196 242 296 357
#     4  11  23  41  61  85 121 161 201 248 295 349
#
# _framework density 21.272199000000001
#
# number of rings (size 3 to 8) (size 9 to 14) (size 15 to 20)
#    0.000    2.000    1.429    1.286    2.000    5.714 
#    0.000    2.857    0.000    0.000    0.000    0.000 
#    0.000    0.000    0.000    0.000    0.000    0.000 
#
# Total GULP energy -311869.922664 kJ/mol
# GULP energy per Si atom -5569.105762 kJ/mol
# Density = 2.122378 g / cm^3
# Si number density = 21.272199 Si / 1000 Ang^3
#
#
#
# Elastic Constant Matrix: (Units=GPa)
#
#
# Indices 1 2 3 4 5 6 
#
# 1 16.7178 -3.4705 7.6572 0.0000 0.0000 0.0000
# 2 -3.4705 117.6889 38.9214 0.0000 0.0000 0.0000
# 3 7.6572 38.9214 96.1078 0.0000 0.0000 0.0000
# 4 0.0000 0.0000 0.0000 31.7847 0.0000 0.0000
# 5 0.0000 0.0000 0.0000 0.0000 39.1825 0.0000
# 6 0.0000 0.0000 0.0000 0.0000 0.0000 5.9335
#
#
#
# Elastic Compliance Matrix: (Units=1/GPa)
#
#
# Indices 1 2 3 4 5 6 
#
# 1 0.063759 0.004111 -0.006745 0.000000 0.000000 0.000000
# 2 0.004111 0.010076 -0.004408 0.000000 0.000000 0.000000
# 3 -0.006745 -0.004408 0.012728 0.000000 0.000000 0.000000
# 4 0.000000 0.000000 0.000000 0.031462 0.000000 0.000000
# 5 0.000000 0.000000 0.000000 0.000000 0.025522 0.000000
# 6 0.000000 0.000000 0.000000 0.000000 0.000000 0.168534
#
#
# Mechanical properties :
#
#
# Convention : Reuss Voigt Hill
#
# Bulk Modulus (GPa) = 13.79718 35.19230 24.49474
# Shear Modulus (GPa) = 14.27255 27.87392 21.07323
#
# Velocity S-wave (km/s) = 2.59308 3.62380 3.15087
# Velocity P-wave (km/s) = 3.93262 5.83857 4.97767
#
# Compressibility (1/GPa) = 0.07247858
#
# Stress axis : x y z
#
# Youngs Moduli (GPa) = 15.68406 99.24563 78.56990
#
# Poissons Ratio (x) = -0.40797 0.52993
# Poissons Ratio (y) = -0.06447 0.34634
# Poissons Ratio (z) = 0.10578 0.43748
#
# Static dielectric constant tensor:
#      x y z
#    x 1.819540 0.000000 0.000000 
#    y 0.000000 2.088190 0.000000 
#    z 0.000000 0.000000 2.932330 
# 
# From -- ./inp_files/30843.got.cif
#   From: 2010.05.17/outbox.cif.g08.bks.cpg/sg53_16_cif.got.tgz:30843.got - 2010.06.03 12:45:16.
