data_PCOD9418803
_publ_section_title
;
Structure prediction by ZEFSAII (Michael W. Deem and Ramdas Pophale) SiO2 
 PCOD9418803
Probable space group: P M N A
;
_chemical_formula_sum "Si O2"
_cell_formula_units_Z 48
_cell_length_a 8.704111
_cell_length_b 12.801826
_cell_length_c 24.053296
_cell_angle_alpha 90.000000
_cell_angle_beta 90.000000
_cell_angle_gamma 90.000000
_cell_volume 2680.223042
_symmetry_space_group_name_H-M "P M N A"
_symmetry_group_IT_number 53
_symmetry_cell_setting 'orthorhombic'
loop_
_space_group_symop_operation_xyz
x,y,z
1/2-x,-y,1/2+z
x,-y,-z
1/2-x,y,1/2-z
-x,-y,-z
1/2+x,y,1/2-z
-x,y,z
1/2+x,-y,1/2+z
loop_
_atom_site_type_symbol
_atom_site_label
_atom_site_fract_x
_atom_site_fract_y
_atom_site_fract_z
Si Si1 0.683968 0.495892 0.188408
Si Si2 0.683190 0.880987 0.310044
Si Si3 0.315058 0.377638 0.501072
Si Si4 0.315859 0.299403 0.378258
Si Si5 0.683537 0.888453 0.810340
Si Si6 0.817023 0.701005 0.384631
O O1 0.750000 0.508557 0.250000
O O2 0.500000 0.483758 0.190732
O O3 0.757046 0.395020 0.159326
O O4 0.719986 0.597688 0.151501
O O5 0.750000 0.847114 0.250000
O O6 0.500000 0.887684 0.306218
O O7 0.734231 0.798839 0.356322
O O8 0.751886 0.995706 0.321394
O O9 0.269806 0.500000 0.500000
O O10 0.500000 0.373997 0.507984
O O11 0.276217 0.325854 0.442045
O O12 0.237429 0.321020 0.552925
O O13 0.500000 0.291959 0.373814
O O14 0.240246 0.194031 0.355614
O O15 0.750000 0.856070 0.750000
O O16 0.500000 0.891355 0.807450
O O17 0.000000 0.716878 0.382723
#
# Coordination Sequence:
#
# PCOD9418803 Si02
#       6
#     8   8   8   8   8   8
#     4  11  23  36  54  83 117 152 190 237 292 347
#     4  11  22  39  63  89 120 155 196 241 294 352
#     4  10  21  39  61  85 115 158 200 241 294 350
#     4  11  22  38  60  85 117 153 196 241 291 349
#     4  11  22  39  62  88 120 154 195 240 294 351
#     4  11  23  38  59  87 119 155 197 243 293 348
#
# _framework density 17.908957000000001
#
# number of rings (size 3 to 8) (size 9 to 14) (size 15 to 20)
#    0.000    1.167    1.667    6.500    0.000    5.000 
#    0.000    0.833    0.000    5.000    0.000    0.000 
#    0.000    0.000    0.000    0.000    0.000    0.000 
#
# Total GULP energy -268452.411311 kJ/mol
# GULP energy per Si atom -5592.758569 kJ/mol
# Density = 1.786820 g / cm^3
# Si number density = 17.908957 Si / 1000 Ang^3
#
#
#
# Elastic Constant Matrix: (Units=GPa)
#
#
# Indices 1 2 3 4 5 6 
#
# 1 96.2691 51.2940 52.5061 0.0000 0.0000 0.0000
# 2 51.2940 89.2105 63.4273 0.0000 0.0000 0.0000
# 3 52.5061 63.4273 118.6207 0.0000 0.0000 0.0000
# 4 0.0000 0.0000 0.0000 17.9727 0.0000 0.0000
# 5 0.0000 0.0000 0.0000 0.0000 33.6021 0.0000
# 6 0.0000 0.0000 0.0000 0.0000 0.0000 -31.6427
#
#
#
# Elastic Compliance Matrix: (Units=1/GPa)
#
#
# Indices 1 2 3 4 5 6 
#
# 1 0.015803 -0.006636 -0.003447 0.000000 0.000000 0.000000
# 2 -0.006636 0.020871 -0.008223 0.000000 0.000000 0.000000
# 3 -0.003447 -0.008223 0.014353 0.000000 0.000000 0.000000
# 4 0.000000 0.000000 0.000000 0.055640 0.000000 0.000000
# 5 0.000000 0.000000 0.000000 0.000000 0.029760 0.000000
# 6 0.000000 0.000000 0.000000 0.000000 0.000000 -0.031603
#
#
# Mechanical properties :
#
#
# Convention : Reuss Voigt Hill
#
# Bulk Modulus (GPa) = 69.36614 70.95056 70.15835
# Shear Modulus (GPa) = 34.19040 13.11130 23.65085
#
# Velocity S-wave (km/s) = 4.37409 2.70869 3.63797
# Velocity P-wave (km/s) = 8.02041 7.03463 7.54364
#
# Compressibility (1/GPa) = 0.01441626
#
# Stress axis : x y z
#
# Youngs Moduli (GPa) = 63.27842 47.91335 69.67352
#
# Poissons Ratio (x) = 0.31794 0.24016
# Poissons Ratio (y) = 0.41990 0.57290
# Poissons Ratio (z) = 0.21812 0.39397
#
# Static dielectric constant tensor:
#      x y z
#    x 1.600710 0.000000 0.000000 
#    y 0.000000 1.588770 0.000000 
#    z 0.000000 0.000000 1.584030 
# 
# From -- ./inp_files/33881.got.cif
#   From: 2010.05.17/outbox.cif.g08.bks.cpg/sg53_17_cif.got.tgz:33881.got - 2010.06.03 12:45:16.
