data_PCOD9418434
_publ_section_title
;
Structure prediction by ZEFSAII (Michael W. Deem and Ramdas Pophale) SiO2 
 PCOD9418434
Probable space group: P M N A
;
_chemical_formula_sum "Si O2"
_cell_formula_units_Z 64
_cell_length_a 19.380188
_cell_length_b 12.359816
_cell_length_c 13.877650
_cell_angle_alpha 90.000000
_cell_angle_beta 90.000000
_cell_angle_gamma 90.000000
_cell_volume 3324.190633
_symmetry_space_group_name_H-M "P M N A"
_symmetry_group_IT_number 53
_symmetry_cell_setting 'orthorhombic'
loop_
_space_group_symop_operation_xyz
x,y,z
1/2-x,-y,1/2+z
x,-y,-z
1/2-x,y,1/2-z
-x,-y,-z
1/2+x,y,1/2-z
-x,y,z
1/2+x,-y,1/2+z
loop_
_atom_site_type_symbol
_atom_site_label
_atom_site_fract_x
_atom_site_fract_y
_atom_site_fract_z
Si Si1 0.168693 0.405527 0.271193
Si Si2 0.279012 0.771260 0.440415
Si Si3 0.676345 0.411604 0.916541
Si Si4 0.080568 0.218909 0.625258
Si Si5 0.686309 0.041263 0.896726
Si Si6 0.078187 0.734727 0.149688
Si Si7 0.079464 0.483663 0.107606
Si Si8 0.291959 0.805099 0.849130
O O1 0.250000 0.414427 0.250000
O O2 0.152905 0.515375 0.327525
O O3 0.125415 0.406547 0.173322
O O4 0.157954 0.298550 0.336465
O O5 0.247178 0.656231 0.406231
O O6 0.242824 0.865480 0.375425
O O7 0.360422 0.772757 0.420617
O O8 0.252636 0.785943 0.552111
O O9 0.620216 0.316657 0.927299
O O10 0.683775 0.500000 0.000000
O O11 0.115758 0.107109 0.594739
O O12 0.091993 0.228725 0.740633
O O13 0.000000 0.223287 0.606179
O O14 0.678684 0.927043 0.844089
O O15 0.710146 0.000000 0.000000
O O16 0.078121 0.604592 0.149520
O O17 0.000000 0.769257 0.122372
O O18 0.000000 0.444404 0.101162
O O19 0.107239 0.500000 0.000000
O O20 0.250000 0.799046 0.750000
#
# Coordination Sequence:
#
# PCOD9418434 Si02
#       8
#     8   8   8   8   8   8   8   8
#     4  11  22  35  58  89 122 158 199 251 302 357
#     4  10  21  37  61  89 120 157 200 252 302 366
#     4  11  21  35  58  89 123 155 197 241 304 361
#     4  10  22  39  61  88 120 156 204 254 297 359
#     4   9  21  40  62  85 115 154 210 250 307 360
#     4  10  21  36  59  90 120 155 199 245 300 357
#     4  10  22  39  60  86 126 169 199 237 299 376
#     4  10  22  37  57  88 117 153 198 256 307 350
#
# _framework density 19.252806
#
# number of rings (size 3 to 8) (size 9 to 14) (size 15 to 20)
#    0.000    1.875    2.500    0.750    5.250    2.500 
#    0.000    0.625    0.000    4.125    0.000    0.000 
#    0.000    0.000    0.000    0.000    0.000    0.000 
#
# Total GULP energy -356447.815580 kJ/mol
# GULP energy per Si atom -5569.497118 kJ/mol
# Density = 1.920899 g / cm^3
# Si number density = 19.252806 Si / 1000 Ang^3
#
#
#
# Elastic Constant Matrix: (Units=GPa)
#
#
# Indices 1 2 3 4 5 6 
#
# 1 101.5489 32.5291 23.3361 0.0000 0.0000 0.0000
# 2 32.5291 124.8245 26.6360 0.0000 0.0000 0.0000
# 3 23.3361 26.6360 51.8358 0.0000 0.0000 0.0000
# 4 0.0000 0.0000 0.0000 -41.4372 0.0000 0.0000
# 5 0.0000 0.0000 0.0000 0.0000 27.5938 0.0000
# 6 0.0000 0.0000 0.0000 0.0000 0.0000 40.4334
#
#
#
# Elastic Compliance Matrix: (Units=1/GPa)
#
#
# Indices 1 2 3 4 5 6 
#
# 1 0.011462 -0.002118 -0.004072 0.000000 0.000000 0.000000
# 2 -0.002118 0.009389 -0.003871 0.000000 0.000000 0.000000
# 3 -0.004072 -0.003871 0.023114 0.000000 0.000000 0.000000
# 4 0.000000 0.000000 0.000000 -0.024133 0.000000 0.000000
# 5 0.000000 0.000000 0.000000 0.000000 0.036240 0.000000
# 6 0.000000 0.000000 0.000000 0.000000 0.000000 0.024732
#
#
# Mechanical properties :
#
#
# Convention : Reuss Voigt Hill
#
# Bulk Modulus (GPa) = 41.94072 49.24574 45.59323
# Shear Modulus (GPa) = 45.92496 18.36519 32.14507
#
# Velocity S-wave (km/s) = 4.88932 3.09187 4.09054
# Velocity P-wave (km/s) = 7.32840 6.19518 6.78549
#
# Compressibility (1/GPa) = 0.02384318
#
# Stress axis : x y z
#
# Youngs Moduli (GPa) = 87.24782 106.50450 43.26401
#
# Poissons Ratio (x) = 0.22558 0.17615
# Poissons Ratio (y) = 0.18480 0.16748
# Poissons Ratio (z) = 0.35523 0.41230
#
# Static dielectric constant tensor:
#      x y z
#    x 1.739420 0.000000 0.000000 
#    y 0.000000 1.740350 0.000000 
#    z 0.000000 0.000000 1.671510 
# 
# From -- ./inp_files/23925.got.cif
#   From: 2010.05.17/outbox.cif.g08.bks.cpg/sg53_12_cif.got.tgz:23925.got - 2010.06.03 12:45:16.
