data_PCOD9418486
_publ_section_title
;
Structure prediction by ZEFSAII (Michael W. Deem and Ramdas Pophale) SiO2 
 PCOD9418486
Probable space group: P M N A
;
_chemical_formula_sum "Si O2"
_cell_formula_units_Z 58
_cell_length_a 8.675177
_cell_length_b 12.741024
_cell_length_c 29.545192
_cell_angle_alpha 90.000000
_cell_angle_beta 90.000000
_cell_angle_gamma 90.000000
_cell_volume 3265.648932
_symmetry_space_group_name_H-M "P M N A"
_symmetry_group_IT_number 53
_symmetry_cell_setting 'orthorhombic'
loop_
_space_group_symop_operation_xyz
x,y,z
1/2-x,-y,1/2+z
x,-y,-z
1/2-x,y,1/2-z
-x,-y,-z
1/2+x,y,1/2-z
-x,y,z
1/2+x,-y,1/2+z
loop_
_atom_site_type_symbol
_atom_site_label
_atom_site_fract_x
_atom_site_fract_y
_atom_site_fract_z
Si Si1 0.315860 0.047529 0.702119
Si Si2 0.314038 0.207926 0.556543
Si Si3 0.816187 0.821915 0.951836
Si Si4 0.670098 0.389052 0.079599
Si Si5 0.815286 0.403263 0.883793
Si Si6 0.684468 0.283932 0.797665
Si Si7 0.816886 0.007698 0.607888
Si Si8 0.000000 0.500000 0.500000
O O1 0.250000 0.006912 0.750000
O O2 0.500000 0.050249 0.703921
O O3 0.258933 0.989565 0.657027
O O4 0.251813 0.166404 0.697260
O O5 0.500000 0.198961 0.559419
O O6 0.268628 0.189400 0.504515
O O7 0.270600 0.322511 0.575665
O O8 0.240960 0.118849 0.588057
O O9 0.768729 0.714951 0.926886
O O10 0.735380 0.919014 0.927370
O O11 0.000000 0.837314 0.950646
O O12 0.500000 0.363525 0.099256
O O13 0.751646 0.481320 0.107114
O O14 0.631394 0.439510 0.030760
O O15 0.743204 0.353789 0.838839
O O16 0.000000 0.403972 0.880697
O O17 0.750000 0.324477 0.750000
O O18 0.500000 0.278448 0.796738
O O19 0.000000 0.009754 0.612588
#
# Coordination Sequence:
#
# PCOD9418486 Si02
#       8
#     8   8   8   8   8   8   8   2
#     4  11  21  37  59  85 116 149 189 238 291 350
#     4  10  22  37  56  82 116 155 198 244 290 345
#     4  11  23  40  59  80 115 159 203 246 290 345
#     4  10  21  37  56  83 111 151 191 242 286 340
#     4  11  21  36  59  86 117 154 195 244 292 351
#     4  11  21  35  56  86 118 152 187 238 299 356
#     4  12  24  38  57  86 117 156 196 240 295 351
#     4   8  20  36  58  80 114 148 190 252 284 330
#
# _framework density 17.760635000000001
#
# number of rings (size 3 to 8) (size 9 to 14) (size 15 to 20)
#    0.414    0.828    1.379    7.034    0.000    3.310 
#    0.000    2.759    0.000    0.828    0.000    5.793 
#    0.000    0.000    0.000    0.000    0.000    0.000 
#
# Total GULP energy -323413.061538 kJ/mol
# GULP energy per Si atom -5576.087268 kJ/mol
# Density = 1.772021 g / cm^3
# Si number density = 17.760635 Si / 1000 Ang^3
#
#
#
# Elastic Constant Matrix: (Units=GPa)
#
#
# Indices 1 2 3 4 5 6 
#
# 1 77.1086 6.5813 41.0957 0.0000 0.0000 0.0000
# 2 6.5813 36.7670 20.8595 0.0000 0.0000 0.0000
# 3 41.0957 20.8595 111.2035 0.0000 0.0000 0.0000
# 4 0.0000 0.0000 0.0000 13.1333 0.0000 0.0000
# 5 0.0000 0.0000 0.0000 0.0000 29.8684 0.0000
# 6 0.0000 0.0000 0.0000 0.0000 0.0000 92.0055
#
#
#
# Elastic Compliance Matrix: (Units=1/GPa)
#
#
# Indices 1 2 3 4 5 6 
#
# 1 0.016160 0.000555 -0.006076 0.000000 0.000000 0.000000
# 2 0.000555 0.030457 -0.005918 0.000000 0.000000 0.000000
# 3 -0.006076 -0.005918 0.012348 0.000000 0.000000 0.000000
# 4 0.000000 0.000000 0.000000 0.076142 0.000000 0.000000
# 5 0.000000 0.000000 0.000000 0.000000 0.033480 0.000000
# 6 0.000000 0.000000 0.000000 0.000000 0.000000 0.010869
#
#
# Mechanical properties :
#
#
# Convention : Reuss Voigt Hill
#
# Bulk Modulus (GPa) = 27.71192 40.23911 33.97552
# Shear Modulus (GPa) = 23.32494 37.43761 30.38127
#
# Velocity S-wave (km/s) = 3.62787 4.59617 4.14042
# Velocity P-wave (km/s) = 5.76068 7.13245 6.48295
#
# Compressibility (1/GPa) = 0.03608555
#
# Stress axis : x y z
#
# Youngs Moduli (GPa) = 61.88280 32.83361 80.98493
#
# Poissons Ratio (x) = -0.01821 0.49205
# Poissons Ratio (y) = -0.03432 0.47927
# Poissons Ratio (z) = 0.37599 0.19431
#
# Static dielectric constant tensor:
#      x y z
#    x 1.603060 0.000000 0.000000 
#    y 0.000000 1.576870 0.000000 
#    z 0.000000 0.000000 1.622650 
# 
# From -- ./inp_files/36316.got.cif
#   From: 2010.05.17/outbox.cif.g08.bks.cpg/sg53_19_cif.got.tgz:36316.got - 2010.06.03 12:45:16.
