data_PCOD9418955
_publ_section_title
;
Structure prediction by ZEFSAII (Michael W. Deem and Ramdas Pophale) SiO2 
 PCOD9418955
Probable space group: P M N A
;
_chemical_formula_sum "Si O2"
_cell_formula_units_Z 40
_cell_length_a 14.190663
_cell_length_b 16.454913
_cell_length_c 7.481560
_cell_angle_alpha 90.000000
_cell_angle_beta 90.000000
_cell_angle_gamma 90.000000
_cell_volume 1746.990085
_symmetry_space_group_name_H-M "P M N A"
_symmetry_group_IT_number 53
_symmetry_cell_setting 'orthorhombic'
loop_
_space_group_symop_operation_xyz
x,y,z
1/2-x,-y,1/2+z
x,-y,-z
1/2-x,y,1/2-z
-x,-y,-z
1/2+x,y,1/2-z
-x,y,z
1/2+x,-y,1/2+z
loop_
_atom_site_type_symbol
_atom_site_label
_atom_site_fract_x
_atom_site_fract_y
_atom_site_fract_z
Si Si1 0.388018 0.513463 0.700191
Si Si2 0.265695 0.223694 0.058386
Si Si3 0.892747 0.094967 0.947439
Si Si4 0.886958 0.632249 0.475836
Si Si5 0.605960 0.085591 0.977771
O O1 0.347211 0.500000 0.500000
O O2 0.500000 0.526819 0.676311
O O3 0.361428 0.585519 0.838301
O O4 0.376220 0.431841 0.815591
O O5 0.250000 0.262186 0.250000
O O6 0.317075 0.292496 0.942777
O O7 0.177365 0.168460 0.999366
O O8 0.344496 0.155157 0.084084
O O9 0.893544 0.100602 0.732515
O O10 0.000000 0.108986 0.012024
O O11 0.870275 0.000000 0.000000
O O12 0.000000 0.654619 0.483814
O O13 0.500000 0.078255 0.045133
O O14 0.656248 0.000000 0.000000
#
# Coordination Sequence:
#
# PCOD9418955 Si02
#       5
#     8   8   8   8   8
#     4   8  15  35  69 101 129 173 223 264 318 393
#     4  12  24  38  59  92 138 170 211 265 335 388
#     4  10  22  42  66  90 120 170 231 279 322 383
#     4   9  19  37  64  99 138 174 216 270 327 393
#     4  10  21  40  66  91 122 168 215 266 329 394
#
# _framework density 22.896522000000001
#
# number of rings (size 3 to 8) (size 9 to 14) (size 15 to 20)
#    0.000    2.200    0.000    4.200    0.000    3.200 
#    7.200    0.000    4.400    0.000    0.000    2.800 
#    0.000    0.800    0.000    0.000    0.000    0.000 
#
# Total GULP energy -223112.356076 kJ/mol
# GULP energy per Si atom -5577.808902 kJ/mol
# Density = 2.284441 g / cm^3
# Si number density = 22.896522 Si / 1000 Ang^3
#
#
#
# Elastic Constant Matrix: (Units=GPa)
#
#
# Indices 1 2 3 4 5 6 
#
# 1 131.5969 67.4766 22.2851 0.0000 0.0000 0.0000
# 2 67.4766 122.2720 21.1914 0.0000 0.0000 0.0000
# 3 22.2851 21.1914 107.7550 0.0000 0.0000 0.0000
# 4 0.0000 0.0000 0.0000 15.1600 0.0000 0.0000
# 5 0.0000 0.0000 0.0000 0.0000 23.4623 0.0000
# 6 0.0000 0.0000 0.0000 0.0000 0.0000 48.5434
#
#
#
# Elastic Compliance Matrix: (Units=1/GPa)
#
#
# Indices 1 2 3 4 5 6 
#
# 1 0.010720 -0.005727 -0.001091 0.000000 0.000000 0.000000
# 2 -0.005727 0.011527 -0.001082 0.000000 0.000000 0.000000
# 3 -0.001091 -0.001082 0.009719 0.000000 0.000000 0.000000
# 4 0.000000 0.000000 0.000000 0.065963 0.000000 0.000000
# 5 0.000000 0.000000 0.000000 0.000000 0.042622 0.000000
# 6 0.000000 0.000000 0.000000 0.000000 0.000000 0.020600
#
#
# Mechanical properties :
#
#
# Convention : Reuss Voigt Hill
#
# Bulk Modulus (GPa) = 61.86150 64.83667 63.34909
# Shear Modulus (GPa) = 27.42141 34.14451 30.78296
#
# Velocity S-wave (km/s) = 3.46442 3.86586 3.67064
# Velocity P-wave (km/s) = 6.56350 6.95020 6.75961
#
# Compressibility (1/GPa) = 0.01616514
#
# Stress axis : x y z
#
# Youngs Moduli (GPa) = 93.28190 86.75622 102.89361
#
# Poissons Ratio (x) = 0.49685 0.11224
# Poissons Ratio (y) = 0.53422 0.11138
# Poissons Ratio (z) = 0.10175 0.09391
#
# Static dielectric constant tensor:
#      x y z
#    x 1.901210 0.000000 0.000000 
#    y 0.000000 1.844100 0.000000 
#    z 0.000000 0.000000 1.882100 
# 
# From -- ./inp_files/8427.got.cif
#   From: 2010.05.17/outbox.cif.g08.bks.cpg/sg53_5_cif.got.tgz:8427.got - 2010.06.03 12:45:16.
