data_PCOD9418480
_publ_section_title
;
Structure prediction by ZEFSAII (Michael W. Deem and Ramdas Pophale) SiO2 
 PCOD9418480
Probable space group: P M N A
;
_chemical_formula_sum "Si O2"
_cell_formula_units_Z 64
_cell_length_a 7.822961
_cell_length_b 12.193614
_cell_length_c 32.755344
_cell_angle_alpha 90.000000
_cell_angle_beta 90.000000
_cell_angle_gamma 90.000000
_cell_volume 3124.537727
_symmetry_space_group_name_H-M "P M N A"
_symmetry_group_IT_number 53
_symmetry_cell_setting 'orthorhombic'
loop_
_space_group_symop_operation_xyz
x,y,z
1/2-x,-y,1/2+z
x,-y,-z
1/2-x,y,1/2-z
-x,-y,-z
1/2+x,y,1/2-z
-x,y,z
1/2+x,-y,1/2+z
loop_
_atom_site_type_symbol
_atom_site_label
_atom_site_fract_x
_atom_site_fract_y
_atom_site_fract_z
Si Si1 0.708863 0.881339 0.016751
Si Si2 0.793908 0.501547 0.795448
Si Si3 0.703071 0.628677 0.374573
Si Si4 0.296211 0.886741 0.627821
Si Si5 0.705202 0.247684 0.294790
Si Si6 0.704452 0.868129 0.109598
Si Si7 0.299716 0.270464 0.054850
Si Si8 0.697619 0.492104 0.546122
O O1 0.500000 0.881058 0.016037
O O2 0.767305 0.866639 0.062768
O O3 0.765283 0.784355 0.986976
O O4 0.763055 0.000000 0.000000
O O5 0.750000 0.459466 0.750000
O O6 0.729493 0.434402 0.834618
O O7 0.730260 0.627254 0.798185
O O8 0.000000 0.503338 0.797568
O O9 0.500000 0.606167 0.376353
O O10 0.729942 0.757937 0.369746
O O11 0.774044 0.585880 0.418457
O O12 0.500000 0.873363 0.625037
O O13 0.231635 0.827579 0.668622
O O14 0.220127 0.822383 0.589192
O O15 0.256193 0.015116 0.627700
O O16 0.750000 0.205403 0.250000
O O17 0.500000 0.252111 0.297757
O O18 0.500000 0.863493 0.108993
O O19 0.500000 0.296351 0.050652
O O20 0.206600 0.384232 0.063729
O O21 0.773529 0.500000 0.500000
O O22 0.500000 0.458143 0.540430
#
# Coordination Sequence:
#
# PCOD9418480 Si02
#       8
#     8   8   8   8   8   8   8   8
#     4   9  17  33  52  73 107 145 181 226 277 317
#     4   9  18  35  59  84 110 140 177 224 276 331
#     4  10  21  38  57  79 113 152 185 225 284 339
#     4  11  22  37  56  81 113 145 180 222 276 334
#     4   9  19  36  59  85 112 141 173 218 275 332
#     4  11  22  37  57  80 109 146 191 236 274 322
#     4  11  21  34  56  82 109 144 187 233 277 323
#     4  10  21  37  56  80 114 151 187 230 281 342
#
# _framework density 20.483029999999999
#
# number of rings (size 3 to 8) (size 9 to 14) (size 15 to 20)
#    0.000    2.000    1.250    2.625    0.000    4.250 
#    0.000    5.625    0.000    0.000    0.000    0.000 
#    0.000    0.000    0.000    0.000    0.000    0.000 
#
# Total GULP energy -357415.560707 kJ/mol
# GULP energy per Si atom -5584.618136 kJ/mol
# Density = 2.043641 g / cm^3
# Si number density = 20.483030 Si / 1000 Ang^3
#
#
#
# Elastic Constant Matrix: (Units=GPa)
#
#
# Indices 1 2 3 4 5 6 
#
# 1 31.8724 -7.2187 8.4334 0.0000 0.0000 0.0000
# 2 -7.2187 97.0499 52.2546 0.0000 0.0000 0.0000
# 3 8.4334 52.2546 136.8042 0.0000 0.0000 0.0000
# 4 0.0000 0.0000 0.0000 37.8123 0.0000 0.0000
# 5 0.0000 0.0000 0.0000 0.0000 17.1818 0.0000
# 6 0.0000 0.0000 0.0000 0.0000 0.0000 19.7838
#
#
#
# Elastic Compliance Matrix: (Units=1/GPa)
#
#
# Indices 1 2 3 4 5 6 
#
# 1 0.033402 0.004523 -0.003787 0.000000 0.000000 0.000000
# 2 0.004523 0.013584 -0.005468 0.000000 0.000000 0.000000
# 3 -0.003787 -0.005468 0.009632 0.000000 0.000000 0.000000
# 4 0.000000 0.000000 0.000000 0.026446 0.000000 0.000000
# 5 0.000000 0.000000 0.000000 0.000000 0.058201 0.000000
# 6 0.000000 0.000000 0.000000 0.000000 0.000000 0.050546
#
#
# Mechanical properties :
#
#
# Convention : Reuss Voigt Hill
#
# Bulk Modulus (GPa) = 21.20648 41.40725 31.30686
# Shear Modulus (GPa) = 23.04232 29.10607 26.07419
#
# Velocity S-wave (km/s) = 3.35766 3.77368 3.57173
# Velocity P-wave (km/s) = 5.04059 6.26473 5.68570
#
# Compressibility (1/GPa) = 0.04715540
#
# Stress axis : x y z
#
# Youngs Moduli (GPa) = 29.93871 73.61405 103.82485
#
# Poissons Ratio (x) = -0.33298 0.39317
# Poissons Ratio (y) = -0.13542 0.56767
# Poissons Ratio (z) = 0.11337 0.40249
#
# Static dielectric constant tensor:
#      x y z
#    x 1.760940 0.000000 0.000000 
#    y 0.000000 1.718220 0.000000 
#    z 0.000000 0.000000 1.736850 
# 
# From -- ./inp_files/38288.got.cif
#   From: 2010.05.17/outbox.cif.g08.bks.cpg/sg53_20_cif.got.tgz:38288.got - 2010.06.03 12:45:16.
