data_PCOD9418978
_publ_section_title
;
Structure prediction by ZEFSAII (Michael W. Deem and Ramdas Pophale) SiO2 
 PCOD9418978
Probable space group: P M N A
;
_chemical_formula_sum "Si O2"
_cell_formula_units_Z 20
_cell_length_a 28.593810
_cell_length_b 5.369050
_cell_length_c 5.190079
_cell_angle_alpha 90.000000
_cell_angle_beta 90.000000
_cell_angle_gamma 90.000000
_cell_volume 796.789209
_symmetry_space_group_name_H-M "P M N A"
_symmetry_group_IT_number 53
_symmetry_cell_setting 'orthorhombic'
loop_
_space_group_symop_operation_xyz
x,y,z
1/2-x,-y,1/2+z
x,-y,-z
1/2-x,y,1/2-z
-x,-y,-z
1/2+x,y,1/2-z
-x,y,z
1/2+x,-y,1/2+z
loop_
_atom_site_type_symbol
_atom_site_label
_atom_site_fract_x
_atom_site_fract_y
_atom_site_fract_z
Si Si1 0.282132 0.500000 0.000000
Si Si2 0.050368 0.751012 0.671348
Si Si3 0.845618 0.756785 0.851264
O O1 0.250000 0.551548 0.250000
O O2 0.317423 0.280476 0.086287
O O3 0.052978 0.500000 0.500000
O O4 0.098449 0.767663 0.823372
O O5 0.000000 0.742807 0.813045
O O6 0.049800 0.000000 0.500000
O O7 0.837240 0.500000 0.000000
O O8 0.829127 0.000000 0.000000
#
# Coordination Sequence:
#
# PCOD9418978 Si02
#       3
#     4   8   8
#     4  12  28  58  81 120 157 212 274 346 412 484
#     4  10  21  40  71 110 156 206 256 315 390 477
#     4  12  27  49  79 115 156 208 264 329 402 479
#
# _framework density 25.100742
#
# number of rings (size 3 to 8) (size 9 to 14) (size 15 to 20)
#    0.000    0.800    4.000    2.400    0.000    1.600 
#    7.200    0.000    0.000    0.000    0.000    0.000 
#    0.000    0.000    0.000    0.000    0.000    0.000 
#
# Total GULP energy -111946.525001 kJ/mol
# GULP energy per Si atom -5597.326250 kJ/mol
# Density = 2.504361 g / cm^3
# Si number density = 25.100742 Si / 1000 Ang^3
#
#
#
# Elastic Constant Matrix: (Units=GPa)
#
#
# Indices 1 2 3 4 5 6 
#
# 1 195.5727 30.5871 62.9008 0.0000 0.0000 0.0000
# 2 30.5871 218.9219 68.4815 0.0000 0.0000 0.0000
# 3 62.9008 68.4815 110.5148 0.0000 0.0000 0.0000
# 4 0.0000 0.0000 0.0000 62.4328 0.0000 0.0000
# 5 0.0000 0.0000 0.0000 0.0000 50.7031 0.0000
# 6 0.0000 0.0000 0.0000 0.0000 0.0000 -650.4906
#
#
#
# Elastic Compliance Matrix: (Units=1/GPa)
#
#
# Indices 1 2 3 4 5 6 
#
# 1 0.006275 0.000298 -0.003756 0.000000 0.000000 0.000000
# 2 0.000298 0.005680 -0.003690 0.000000 0.000000 0.000000
# 3 -0.003756 -0.003690 0.013473 0.000000 0.000000 0.000000
# 4 0.000000 0.000000 0.000000 0.016017 0.000000 0.000000
# 5 0.000000 0.000000 0.000000 0.000000 0.019723 0.000000
# 6 0.000000 0.000000 0.000000 0.000000 0.000000 -0.001537
#
#
# Mechanical properties :
#
#
# Convention : Reuss Voigt Hill
#
# Bulk Modulus (GPa) = 89.82526 94.32761 92.07643
# Shear Modulus (GPa) = 64.40312 -83.26827 -9.43257
#
# Velocity S-wave (km/s) = 5.07085 -5.76590 -1.94063
# Velocity P-wave (km/s) = 8.37546 2.58192 5.63391
#
# Compressibility (1/GPa) = 0.01113273
#
# Stress axis : x y z
#
# Youngs Moduli (GPa) = 159.37308 176.04613 74.22412
#
# Poissons Ratio (x) = -0.05251 0.27879
# Poissons Ratio (y) = -0.04754 0.27386
# Poissons Ratio (z) = 0.59862 0.64955
#
# Static dielectric constant tensor:
#      x y z
#    x 2.035900 0.000000 0.000000 
#    y 0.000000 1.904100 0.000000 
#    z 0.000000 0.000000 2.045720 
# 
# From -- ./inp_files/3954.got.cif
#   From: 2010.05.17/outbox.cif.g08.bks.cpg/sg53_2_cif.got.tgz:3954.got - 2010.06.03 12:45:16.
