data_PCOD9418737
_publ_section_title
;
Structure prediction by ZEFSAII (Michael W. Deem and Ramdas Pophale) SiO2 
 PCOD9418737
Probable space group: P M N A
;
_chemical_formula_sum "Si O2"
_cell_formula_units_Z 64
_cell_length_a 15.411532
_cell_length_b 24.634791
_cell_length_c 9.076260
_cell_angle_alpha 90.000000
_cell_angle_beta 90.000000
_cell_angle_gamma 90.000000
_cell_volume 3445.891690
_symmetry_space_group_name_H-M "P M N A"
_symmetry_group_IT_number 53
_symmetry_cell_setting 'orthorhombic'
loop_
_space_group_symop_operation_xyz
x,y,z
1/2-x,-y,1/2+z
x,-y,-z
1/2-x,y,1/2-z
-x,-y,-z
1/2+x,y,1/2-z
-x,y,z
1/2+x,-y,1/2+z
loop_
_atom_site_type_symbol
_atom_site_label
_atom_site_fract_x
_atom_site_fract_y
_atom_site_fract_z
Si Si1 0.398093 0.441371 0.925480
Si Si2 0.145110 0.054865 0.578446
Si Si3 0.601907 0.441371 0.574520
Si Si4 0.750000 0.629260 0.926606
Si Si5 0.750000 0.242586 0.074740
Si Si6 0.098961 0.825181 0.073914
Si Si7 0.098961 0.174819 0.573914
Si Si8 0.854890 0.054865 0.921554
O O1 0.500000 0.427782 0.946911
O O2 0.381731 0.444450 0.750000
O O3 0.382968 0.500000 0.000000
O O4 0.334042 0.398909 0.001526
O O5 0.109949 0.112355 0.522398
O O6 0.250000 0.057594 0.566769
O O7 0.121939 0.050814 0.750000
O O8 0.115632 0.000000 0.500000
O O9 0.617032 0.500000 0.500000
O O10 0.500000 0.427782 0.553089
O O11 0.665958 0.398909 0.498474
O O12 0.750000 0.621000 0.750000
O O13 0.750000 0.693398 0.957183
O O14 0.750000 0.235363 0.250000
O O15 0.833449 0.213302 0.005933
O O16 0.666551 0.213302 0.005933
O O17 0.117199 0.825109 0.250000
O O18 0.109949 0.887645 0.022398
O O19 0.000000 0.807952 0.051336
O O20 0.000000 0.192048 0.551336
O O21 0.884368 0.000000 0.000000
#
# Coordination Sequence:
#
# PCOD9418737 Si02
#       8
#     8   8   8   8   8   8   8   8
#     4  10  21  38  62  92 124 157 193 235 283 336
#     4   9  17  31  52  80 112 144 179 225 282 343
#     4  10  21  38  62  92 124 157 193 235 283 336
#     4  11  24  40  59  84 117 158 197 239 288 339
#     4  11  25  42  59  82 115 152 194 243 292 339
#     4  10  21  39  62  84 110 148 192 237 288 346
#     4  10  21  39  62  84 110 148 192 237 288 346
#     4   9  17  31  52  80 112 144 179 225 282 343
#
# _framework density 18.572839999999999
#
# number of rings (size 3 to 8) (size 9 to 14) (size 15 to 20)
#    0.000    2.000    1.250    1.875    0.000    6.500 
#    0.000    5.000    0.000    0.000    0.000    0.000 
#    0.000    0.000    0.000    0.000    0.000    0.000 
#
# Total GULP energy -357494.756154 kJ/mol
# GULP energy per Si atom -5585.855565 kJ/mol
# Density = 1.853057 g / cm^3
# Si number density = 18.572840 Si / 1000 Ang^3
#
#
#
# Elastic Constant Matrix: (Units=GPa)
#
#
# Indices 1 2 3 4 5 6 
#
# 1 106.1523 107.7699 77.0135 0.0000 0.0000 0.0000
# 2 107.7699 167.4118 93.8724 0.0000 0.0000 0.0000
# 3 77.0135 93.8724 89.5953 0.0000 0.0000 0.0000
# 4 0.0000 0.0000 0.0000 37.0745 0.0000 0.0000
# 5 0.0000 0.0000 0.0000 0.0000 21.1271 0.0000
# 6 0.0000 0.0000 0.0000 0.0000 0.0000 3.8123
#
#
#
# Elastic Compliance Matrix: (Units=1/GPa)
#
#
# Indices 1 2 3 4 5 6 
#
# 1 0.034089 -0.013367 -0.015296 0.000000 0.000000 0.000000
# 2 -0.013367 0.019722 -0.009174 0.000000 0.000000 0.000000
# 3 -0.015296 -0.009174 0.033921 0.000000 0.000000 0.000000
# 4 0.000000 0.000000 0.000000 0.026973 0.000000 0.000000
# 5 0.000000 0.000000 0.000000 0.000000 0.047333 0.000000
# 6 0.000000 0.000000 0.000000 0.000000 0.000000 0.262309
#
#
# Mechanical properties :
#
#
# Convention : Reuss Voigt Hill
#
# Bulk Modulus (GPa) = 82.93442 102.27453 92.60448
# Shear Modulus (GPa) = 9.91983 18.03635 13.97809
#
# Velocity S-wave (km/s) = 2.31358 3.11965 2.74635
# Velocity P-wave (km/s) = 7.20329 8.25606 7.74758
#
# Compressibility (1/GPa) = 0.01205772
#
# Stress axis : x y z
#
# Youngs Moduli (GPa) = 29.33491 50.70389 29.48019
#
# Poissons Ratio (x) = 0.67778 0.45094
# Poissons Ratio (y) = 0.39213 0.27044
# Poissons Ratio (z) = 0.44872 0.46514
#
# Static dielectric constant tensor:
#      x y z
#    x 1.644610 0.000000 0.000000 
#    y 0.000000 1.614510 0.000000 
#    z 0.000000 0.000000 1.623110 
# 
# From -- ./inp_files/8960.got.cif
#   From: 2010.05.17/outbox.cif.g08.bks.cpg/sg53_5_cif.got.tgz:8960.got - 2010.06.03 12:45:16.
