data_PCOD9418709
_publ_section_title
;
Structure prediction by ZEFSAII (Michael W. Deem and Ramdas Pophale) SiO2 
 PCOD9418709
Probable space group: P M N A
;
_chemical_formula_sum "Si O2"
_cell_formula_units_Z 64
_cell_length_a 14.789427
_cell_length_b 24.327902
_cell_length_c 9.371466
_cell_angle_alpha 90.000000
_cell_angle_beta 90.000000
_cell_angle_gamma 90.000000
_cell_volume 3371.813457
_symmetry_space_group_name_H-M "P M N A"
_symmetry_group_IT_number 53
_symmetry_cell_setting 'orthorhombic'
loop_
_space_group_symop_operation_xyz
x,y,z
1/2-x,-y,1/2+z
x,-y,-z
1/2-x,y,1/2-z
-x,-y,-z
1/2+x,y,1/2-z
-x,y,z
1/2+x,-y,1/2+z
loop_
_atom_site_type_symbol
_atom_site_label
_atom_site_fract_x
_atom_site_fract_y
_atom_site_fract_z
Si Si1 0.392485 0.556745 0.583249
Si Si2 0.251934 0.748015 0.512344
Si Si3 0.252363 0.129100 0.586705
Si Si4 0.605558 0.230373 0.242208
Si Si5 0.108123 0.057652 0.069963
Si Si6 0.604326 0.104206 0.138526
Si Si7 0.392405 0.442355 0.080041
Si Si8 0.748324 0.627319 0.414721
O O1 0.372625 0.500000 0.500000
O O2 0.500000 0.566367 0.573797
O O3 0.368993 0.553929 0.751558
O O4 0.336373 0.602844 0.501298
O O5 0.246340 0.805059 0.427664
O O6 0.338537 0.754072 0.616957
O O7 0.162849 0.744060 0.612481
O O8 0.256746 0.692958 0.422453
O O9 0.250000 0.112515 0.750000
O O10 0.342168 0.106259 0.512657
O O11 0.170160 0.104318 0.494935
O O12 0.500000 0.245749 0.246927
O O13 0.611106 0.164678 0.212317
O O14 0.131060 0.062062 0.237248
O O15 0.000000 0.064069 0.059727
O O16 0.134250 0.000000 0.000000
O O17 0.500000 0.095776 0.097733
O O18 0.500000 0.432163 0.069695
O O19 0.373402 0.500000 0.000000
O O20 0.334914 0.396275 0.999230
O O21 0.750000 0.609015 0.250000
#
# Coordination Sequence:
#
# PCOD9418709 Si02
#       8
#     8   8   8   8   8   8   8   8
#     4  10  22  41  64  88 115 149 195 246 295 353
#     4  10  22  37  56  87 120 154 201 244 291 360
#     4  11  22  37  59  87 123 162 200 245 297 355
#     4   9  18  35  61  85 111 151 195 246 296 345
#     4  10  21  38  61  88 117 154 203 253 301 355
#     4   9  18  37  62  86 114 154 200 244 295 351
#     4  10  22  41  65  89 116 154 199 246 298 355
#     4  12  25  39  57  85 124 161 193 241 299 354
#
# _framework density 18.980884
#
# number of rings (size 3 to 8) (size 9 to 14) (size 15 to 20)
#    0.000    1.875    1.250    2.250    3.500    4.000 
#    0.000    0.000    0.000    7.125    0.000    0.000 
#    0.000    0.000    0.000    0.000    0.000    0.000 
#
# Total GULP energy -357427.953666 kJ/mol
# GULP energy per Si atom -5584.811776 kJ/mol
# Density = 1.893768 g / cm^3
# Si number density = 18.980884 Si / 1000 Ang^3
#
#
#
# Elastic Constant Matrix: (Units=GPa)
#
#
# Indices 1 2 3 4 5 6 
#
# 1 89.5777 31.8007 58.6513 0.0000 0.0000 0.0000
# 2 31.8007 68.8737 49.7298 0.0000 0.0000 0.0000
# 3 58.6513 49.7298 165.9019 0.0000 0.0000 0.0000
# 4 0.0000 0.0000 0.0000 28.7437 0.0000 0.0000
# 5 0.0000 0.0000 0.0000 0.0000 28.0906 0.0000
# 6 0.0000 0.0000 0.0000 0.0000 0.0000 30.9117
#
#
#
# Elastic Compliance Matrix: (Units=1/GPa)
#
#
# Indices 1 2 3 4 5 6 
#
# 1 0.015362 -0.004048 -0.004218 0.000000 0.000000 0.000000
# 2 -0.004048 0.019596 -0.004443 0.000000 0.000000 0.000000
# 3 -0.004218 -0.004443 0.008851 0.000000 0.000000 0.000000
# 4 0.000000 0.000000 0.000000 0.034790 0.000000 0.000000
# 5 0.000000 0.000000 0.000000 0.000000 0.035599 0.000000
# 6 0.000000 0.000000 0.000000 0.000000 0.000000 0.032350
#
#
# Mechanical properties :
#
#
# Convention : Reuss Voigt Hill
#
# Bulk Modulus (GPa) = 54.37133 67.19076 60.78105
# Shear Modulus (GPa) = 28.07475 29.82728 28.95101
#
# Velocity S-wave (km/s) = 3.85009 3.96844 3.90971
# Velocity P-wave (km/s) = 6.96216 7.51492 7.24382
#
# Compressibility (1/GPa) = 0.01839205
#
# Stress axis : x y z
#
# Youngs Moduli (GPa) = 65.09591 51.02982 112.98737
#
# Poissons Ratio (x) = 0.20655 0.47653
# Poissons Ratio (y) = 0.26349 0.50202
# Poissons Ratio (z) = 0.27455 0.22673
#
# Static dielectric constant tensor:
#      x y z
#    x 1.653340 0.000000 0.000000 
#    y 0.000000 1.659180 0.000000 
#    z 0.000000 0.000000 1.642260 
# 
# From -- ./inp_files/8941.got.cif
#   From: 2010.05.17/outbox.cif.g08.bks.cpg/sg53_5_cif.got.tgz:8941.got - 2010.06.03 12:45:16.
