data_PCOD9418963
_publ_section_title
;
Structure prediction by ZEFSAII (Michael W. Deem and Ramdas Pophale) SiO2 
 PCOD9418963
Probable space group: P M N A
;
_chemical_formula_sum "Si O2"
_cell_formula_units_Z 52
_cell_length_a 19.682668
_cell_length_b 21.438563
_cell_length_c 5.957950
_cell_angle_alpha 90.000000
_cell_angle_beta 90.000000
_cell_angle_gamma 90.000000
_cell_volume 2514.064948
_symmetry_space_group_name_H-M "P M N A"
_symmetry_group_IT_number 53
_symmetry_cell_setting 'orthorhombic'
loop_
_space_group_symop_operation_xyz
x,y,z
1/2-x,-y,1/2+z
x,-y,-z
1/2-x,y,1/2-z
-x,-y,-z
1/2+x,y,1/2-z
-x,y,z
1/2+x,-y,1/2+z
loop_
_atom_site_type_symbol
_atom_site_label
_atom_site_fract_x
_atom_site_fract_y
_atom_site_fract_z
Si Si1 0.797717 0.931978 0.554948
Si Si2 0.000000 0.533129 0.248949
Si Si3 0.924859 0.757199 0.524439
Si Si4 0.575747 0.651928 0.335635
Si Si5 0.077260 0.936316 0.858016
Si Si6 0.182491 0.728780 0.890657
Si Si7 0.149564 0.840526 0.186386
O O1 0.750000 0.903932 0.750000
O O2 0.872182 0.944212 0.652551
O O3 0.809740 0.886390 0.349585
O O4 0.766697 0.000000 0.500000
O O5 0.000000 0.500000 0.500000
O O6 0.934907 0.579926 0.231375
O O7 0.000000 0.500000 0.000000
O O8 0.919672 0.691821 0.391754
O O9 0.868805 0.758764 0.712848
O O10 0.907548 0.807951 0.338422
O O11 0.000000 0.765208 0.615754
O O12 0.500000 0.668094 0.437885
O O13 0.638669 0.673302 0.490290
O O14 0.000000 0.922011 0.794297
O O15 0.111073 0.882228 0.005099
O O16 0.077793 0.000000 0.000000
O O17 0.250000 0.711607 0.750000
O O18 0.191614 0.783769 0.073544
#
# Coordination Sequence:
#
# PCOD9418963 Si02
#       7
#     8   4   8   8   8   8   8
#     4  12  27  46  66  87 115 164 214 280 355 432
#     4  10  22  38  74 128 158 196 254 308 352 398
#     4  10  21  40  67  92 132 175 224 281 349 405
#     4   8  20  38  66 105 147 187 237 298 339 409
#     4  11  24  43  66  91 120 157 206 277 362 449
#     4  11  24  41  64  98 136 187 228 288 357 425
#     4  11  25  43  60  93 124 161 224 286 349 434
#
# _framework density 20.683634000000001
#
# number of rings (size 3 to 8) (size 9 to 14) (size 15 to 20)
#    0.462    1.077    1.538    2.308    2.154   10.769 
#    0.000    0.000    0.000    0.000    4.000    0.000 
#    0.000    0.000    0.000    0.000    0.000    0.000 
#
# Total GULP energy -290325.321842 kJ/mol
# GULP energy per Si atom -5583.179266 kJ/mol
# Density = 2.063656 g / cm^3
# Si number density = 20.683634 Si / 1000 Ang^3
#
#
#
# Elastic Constant Matrix: (Units=GPa)
#
#
# Indices 1 2 3 4 5 6 
#
# 1 139.3305 29.4786 63.8378 0.0000 0.0000 0.0000
# 2 29.4786 107.9857 40.4068 0.0000 0.0000 0.0000
# 3 63.8378 40.4068 83.9097 0.0000 0.0000 0.0000
# 4 0.0000 0.0000 0.0000 24.3680 0.0000 0.0000
# 5 0.0000 0.0000 0.0000 0.0000 39.7694 0.0000
# 6 0.0000 0.0000 0.0000 0.0000 0.0000 2.8744
#
#
#
# Elastic Compliance Matrix: (Units=1/GPa)
#
#
# Indices 1 2 3 4 5 6 
#
# 1 0.011020 0.000157 -0.008459 0.000000 0.000000 0.000000
# 2 0.000157 0.011298 -0.005560 0.000000 0.000000 0.000000
# 3 -0.008459 -0.005560 0.021031 0.000000 0.000000 0.000000
# 4 0.000000 0.000000 0.000000 0.041037 0.000000 0.000000
# 5 0.000000 0.000000 0.000000 0.000000 0.025145 0.000000
# 6 0.000000 0.000000 0.000000 0.000000 0.000000 0.347896
#
#
# Mechanical properties :
#
#
# Convention : Reuss Voigt Hill
#
# Bulk Modulus (GPa) = 64.00434 66.51912 65.26173
# Shear Modulus (GPa) = 10.19658 26.56923 18.38290
#
# Velocity S-wave (km/s) = 2.22272 3.58795 2.98445
# Velocity P-wave (km/s) = 6.13180 7.02813 6.59521
#
# Compressibility (1/GPa) = 0.01562394
#
# Stress axis : x y z
#
# Youngs Moduli (GPa) = 90.74524 88.51027 47.54885
#
# Poissons Ratio (x) = -0.01391 0.40224
# Poissons Ratio (y) = -0.01426 0.26438
# Poissons Ratio (z) = 0.76766 0.49213
#
# Static dielectric constant tensor:
#      x y z
#    x 1.755250 0.000000 0.000000 
#    y 0.000000 1.756960 0.000000 
#    z 0.000000 0.000000 1.771150 
# 
# From -- ./inp_files/2985.got.cif
#   From: 2010.05.17/outbox.cif.g08.bks.cpg/sg53_2_cif.got.tgz:2985.got - 2010.06.03 12:45:16.
