data_PCOD9418146
_publ_section_title
;
Structure prediction by ZEFSAII (Michael W. Deem and Ramdas Pophale) SiO2 
 PCOD9418146
Probable space group: P M N A
;
_chemical_formula_sum "Si O2"
_cell_formula_units_Z 64
_cell_length_a 16.913792
_cell_length_b 19.419276
_cell_length_c 9.046222
_cell_angle_alpha 90.000000
_cell_angle_beta 90.000000
_cell_angle_gamma 90.000000
_cell_volume 2971.264138
_symmetry_space_group_name_H-M "P M N A"
_symmetry_group_IT_number 53
_symmetry_cell_setting 'orthorhombic'
loop_
_space_group_symop_operation_xyz
x,y,z
1/2-x,-y,1/2+z
x,-y,-z
1/2-x,y,1/2-z
-x,-y,-z
1/2+x,y,1/2-z
-x,y,z
1/2+x,-y,1/2+z
loop_
_atom_site_type_symbol
_atom_site_label
_atom_site_fract_x
_atom_site_fract_y
_atom_site_fract_z
Si Si1 0.902501 0.791867 0.145373
Si Si2 0.667275 0.363000 0.331244
Si Si3 0.405685 0.431756 0.080089
Si Si4 0.183387 0.562139 0.120102
Si Si5 0.092730 0.345209 0.681386
Si Si6 0.595079 0.079538 0.165079
Si Si7 0.404213 0.071116 0.824575
Si Si8 0.837659 0.786916 0.820979
O O1 0.878998 0.725589 0.244885
O O2 0.884162 0.862807 0.229111
O O3 0.000000 0.788466 0.118335
O O4 0.851941 0.793539 0.995857
O O5 0.750000 0.366022 0.250000
O O6 0.618071 0.422301 0.249152
O O7 0.686057 0.374837 0.502235
O O8 0.627429 0.289793 0.296000
O O9 0.500000 0.433937 0.072040
O O10 0.373826 0.500000 0.000000
O O11 0.376311 0.367743 0.979697
O O12 0.250000 0.556277 0.250000
O O13 0.108180 0.588016 0.215221
O O14 0.183211 0.500000 0.000000
O O15 0.000000 0.335129 0.665197
O O16 0.500000 0.079488 0.166775
O O17 0.622271 0.147227 0.248089
O O18 0.622080 0.005007 0.227239
O O19 0.621359 0.081451 0.994117
O O20 0.500000 0.068877 0.827269
O O21 0.750000 0.785018 0.750000
#
# Coordination Sequence:
#
# PCOD9418146 Si02
#       8
#     8   8   8   8   8   8   8   8
#     4  10  20  39  64  94 127 166 214 259 315 382
#     4  11  24  41  60  88 124 167 213 263 309 377
#     4  10  22  41  66  96 129 161 204 263 325 382
#     4  12  25  43  68  93 124 167 218 265 320 381
#     4  10  22  40  63  96 133 165 206 264 321 380
#     4   9  18  37  64  93 124 164 209 262 316 373
#     4   8  17  35  63  96 126 158 210 263 312 376
#     4  11  24  40  56  87 131 168 214 265 311 373
#
# _framework density 21.539653999999999
#
# number of rings (size 3 to 8) (size 9 to 14) (size 15 to 20)
#    0.000    1.875    1.250    3.000    1.750    3.250 
#    0.000    5.000    0.000    0.000    0.000    0.000 
#    0.000    0.000    0.000    0.000    0.000    0.000 
#
# Total GULP energy -356595.616489 kJ/mol
# GULP energy per Si atom -5571.806508 kJ/mol
# Density = 2.149063 g / cm^3
# Si number density = 21.539654 Si / 1000 Ang^3
#
#
#
# Elastic Constant Matrix: (Units=GPa)
#
#
# Indices 1 2 3 4 5 6 
#
# 1 16.5424 19.7567 22.9333 0.0000 0.0000 0.0000
# 2 19.7567 158.3895 63.1167 0.0000 0.0000 0.0000
# 3 22.9333 63.1167 128.4248 0.0000 0.0000 0.0000
# 4 0.0000 0.0000 0.0000 37.4533 0.0000 0.0000
# 5 0.0000 0.0000 0.0000 0.0000 30.4083 0.0000
# 6 0.0000 0.0000 0.0000 0.0000 0.0000 8.0108
#
#
#
# Elastic Compliance Matrix: (Units=1/GPa)
#
#
# Indices 1 2 3 4 5 6 
#
# 1 0.084162 -0.005607 -0.012274 0.000000 0.000000 0.000000
# 2 -0.005607 0.008225 -0.003041 0.000000 0.000000 0.000000
# 3 -0.012274 -0.003041 0.011473 0.000000 0.000000 0.000000
# 4 0.000000 0.000000 0.000000 0.026700 0.000000 0.000000
# 5 0.000000 0.000000 0.000000 0.000000 0.032886 0.000000
# 6 0.000000 0.000000 0.000000 0.000000 0.000000 0.124832
#
#
# Mechanical properties :
#
#
# Convention : Reuss Voigt Hill
#
# Bulk Modulus (GPa) = 16.12460 57.21890 36.67175
# Shear Modulus (GPa) = 14.25342 28.34447 21.29895
#
# Velocity S-wave (km/s) = 2.57520 3.63150 3.14797
# Velocity P-wave (km/s) = 4.04283 6.64874 5.50229
#
# Compressibility (1/GPa) = 0.06201704
#
# Stress axis : x y z
#
# Youngs Moduli (GPa) = 11.88178 121.58469 87.16197
#
# Poissons Ratio (x) = 0.68174 1.06978
# Poissons Ratio (y) = 0.06662 0.26505
# Poissons Ratio (z) = 0.14583 0.36973
#
# Static dielectric constant tensor:
#      x y z
#    x 1.781770 0.000000 0.000000 
#    y 0.000000 1.856000 0.000000 
#    z 0.000000 0.000000 1.811950 
# 
# From -- ./inp_files/11217.got.cif
#   From: 2010.05.17/outbox.cif.g08.bks.cpg/sg53_6_cif.got.tgz:11217.got - 2010.06.03 12:45:16.
