data_PCOD9418367
_publ_section_title
;
Structure prediction by ZEFSAII (Michael W. Deem and Ramdas Pophale) SiO2 
 PCOD9418367
Probable space group: P M N A
;
_chemical_formula_sum "Si O2"
_cell_formula_units_Z 48
_cell_length_a 16.191751
_cell_length_b 27.430213
_cell_length_c 5.066589
_cell_angle_alpha 90.000000
_cell_angle_beta 90.000000
_cell_angle_gamma 90.000000
_cell_volume 2250.290944
_symmetry_space_group_name_H-M "P M N A"
_symmetry_group_IT_number 53
_symmetry_cell_setting 'orthorhombic'
loop_
_space_group_symop_operation_xyz
x,y,z
1/2-x,-y,1/2+z
x,-y,-z
1/2-x,y,1/2-z
-x,-y,-z
1/2+x,y,1/2-z
-x,y,z
1/2+x,-y,1/2+z
loop_
_atom_site_type_symbol
_atom_site_label
_atom_site_fract_x
_atom_site_fract_y
_atom_site_fract_z
Si Si1 0.650796 0.470799 0.747666
Si Si2 0.096802 0.296043 0.276372
Si Si3 0.903717 0.639884 0.204846
Si Si4 0.595673 0.952245 0.649169
Si Si5 0.345759 0.897983 0.163091
Si Si6 0.305881 0.796889 0.992905
O O1 0.617114 0.500000 0.500000
O O2 0.750000 0.475243 0.750000
O O3 0.632791 0.413807 0.723441
O O4 0.618658 0.500000 0.000000
O O5 0.101393 0.334862 0.512164
O O6 0.145879 0.249005 0.375139
O O7 0.000000 0.283137 0.232694
O O8 0.131203 0.322935 0.015384
O O9 0.000000 0.633986 0.132812
O O10 0.500000 0.962288 0.714890
O O11 0.602496 0.912028 0.420180
O O12 0.631094 0.000000 0.500000
O O13 0.638125 0.933827 0.916456
O O14 0.250000 0.900264 0.250000
O O15 0.362201 0.842455 0.076246
O O16 0.250000 0.815506 0.750000
O O17 0.250000 0.784338 0.250000
#
# Coordination Sequence:
#
# PCOD9418367 Si02
#       6
#     8   8   8   8   8   8
#     4  10  21  36  54  79 111 147 188 234 284 342
#     4  10  22  39  59  86 117 150 192 241 292 350
#     4  10  21  37  57  83 114 147 189 238 286 344
#     4  11  24  42  65  94 128 165 209 259 312 374
#     4  11  23  42  64  92 128 165 208 260 312 371
#     4  11  23  41  62  88 121 157 201 250 300 360
#
# _framework density 21.330573999999999
#
# number of rings (size 3 to 8) (size 9 to 14) (size 15 to 20)
#    0.000    1.500    0.000    5.500    0.000    6.667 
#    0.000    2.500    0.000    0.000    0.000    0.000 
#    0.000    0.000    0.000    0.000    0.000    0.000 
#
# Total GULP energy -268263.009087 kJ/mol
# GULP energy per Si atom -5588.812689 kJ/mol
# Density = 2.128202 g / cm^3
# Si number density = 21.330574 Si / 1000 Ang^3
#
#
#
# Elastic Constant Matrix: (Units=GPa)
#
#
# Indices 1 2 3 4 5 6 
#
# 1 16.0912 10.1088 12.8353 0.0000 0.0000 0.0000
# 2 10.1088 84.9479 15.6917 0.0000 0.0000 0.0000
# 3 12.8353 15.6917 122.4178 0.0000 0.0000 0.0000
# 4 0.0000 0.0000 0.0000 30.1824 0.0000 0.0000
# 5 0.0000 0.0000 0.0000 0.0000 5.7182 0.0000
# 6 0.0000 0.0000 0.0000 0.0000 0.0000 33.6860
#
#
#
# Elastic Compliance Matrix: (Units=1/GPa)
#
#
# Indices 1 2 3 4 5 6 
#
# 1 0.072037 -0.007351 -0.006611 0.000000 0.000000 0.000000
# 2 -0.007351 0.012808 -0.000871 0.000000 0.000000 0.000000
# 3 -0.006611 -0.000871 0.008973 0.000000 0.000000 0.000000
# 4 0.000000 0.000000 0.000000 0.033132 0.000000 0.000000
# 5 0.000000 0.000000 0.000000 0.000000 0.174881 0.000000
# 6 0.000000 0.000000 0.000000 0.000000 0.000000 0.029686
#
#
# Mechanical properties :
#
#
# Convention : Reuss Voigt Hill
#
# Bulk Modulus (GPa) = 15.58790 33.41427 24.50109
# Shear Modulus (GPa) = 13.06963 26.23872 19.65417
#
# Velocity S-wave (km/s) = 2.47800 3.51108 3.03876
# Velocity P-wave (km/s) = 3.93839 5.66885 4.88092
#
# Compressibility (1/GPa) = 0.06415232
#
# Stress axis : x y z
#
# Youngs Moduli (GPa) = 13.88178 78.07860 111.43928
#
# Poissons Ratio (x) = 0.57398 0.73668
# Poissons Ratio (y) = 0.10205 0.09706
# Poissons Ratio (z) = 0.09177 0.06800
#
# Static dielectric constant tensor:
#      x y z
#    x 1.789980 0.000000 0.000000 
#    y 0.000000 1.673440 0.000000 
#    z 0.000000 0.000000 1.763370 
# 
# From -- ./inp_files/1435.got.cif
#   From: 2010.05.17/outbox.cif.g08.bks.cpg/sg53_1_cif.got.tgz:1435.got - 2010.06.03 12:45:16.
