data_PCOD9418682
_publ_section_title
;
Structure prediction by ZEFSAII (Michael W. Deem and Ramdas Pophale) SiO2 
 PCOD9418682
Probable space group: P M N A
;
_chemical_formula_sum "Si O2"
_cell_formula_units_Z 64
_cell_length_a 7.937125
_cell_length_b 14.927622
_cell_length_c 25.700794
_cell_angle_alpha 90.000000
_cell_angle_beta 90.000000
_cell_angle_gamma 90.000000
_cell_volume 3045.091800
_symmetry_space_group_name_H-M "P M N A"
_symmetry_group_IT_number 53
_symmetry_cell_setting 'orthorhombic'
loop_
_space_group_symop_operation_xyz
x,y,z
1/2-x,-y,1/2+z
x,-y,-z
1/2-x,y,1/2-z
-x,-y,-z
1/2+x,y,1/2-z
-x,y,z
1/2+x,-y,1/2+z
loop_
_atom_site_type_symbol
_atom_site_label
_atom_site_fract_x
_atom_site_fract_y
_atom_site_fract_z
Si Si1 0.298046 0.788066 0.308838
Si Si2 0.702938 0.528845 0.941744
Si Si3 0.201261 0.271161 0.088615
Si Si4 0.805404 0.988263 0.168646
Si Si5 0.806849 0.973065 0.443395
Si Si6 0.703611 0.819142 0.694296
Si Si7 0.699388 0.656007 0.098808
Si Si8 0.195721 0.204869 0.980329
O O1 0.250000 0.764116 0.250000
O O2 0.500000 0.791335 0.314760
O O3 0.231382 0.890025 0.319129
O O4 0.235768 0.714733 0.350158
O O5 0.500000 0.535568 0.943890
O O6 0.765951 0.624935 0.922966
O O7 0.748938 0.448272 0.902358
O O8 0.759267 0.500000 0.000000
O O9 0.265193 0.235126 0.143821
O O10 0.000000 0.258460 0.088088
O O11 0.264651 0.215314 0.038586
O O12 0.795316 0.002789 0.106551
O O13 0.000000 0.984150 0.185296
O O14 0.728250 0.078474 0.192104
O O15 0.797888 0.865880 0.446436
O O16 0.000000 0.003407 0.438778
O O17 0.739316 0.000000 0.500000
O O18 0.750000 0.779061 0.750000
O O19 0.500000 0.823439 0.690938
O O20 0.500000 0.659498 0.088552
O O21 0.789982 0.702322 0.050002
O O22 0.000000 0.177114 0.980974
#
# Coordination Sequence:
#
# PCOD9418682 Si02
#       8
#     8   8   8   8   8   8   8   8
#     4  11  23  39  61  89 119 159 204 245 295 350
#     4  10  21  38  61  90 121 154 192 240 300 356
#     4  10  22  38  60  89 120 155 198 245 295 357
#     4  10  21  38  60  85 117 155 200 246 292 351
#     4  11  23  35  51  81 119 159 201 243 292 350
#     4  10  22  41  61  86 118 156 201 248 295 344
#     4  11  22  38  60  87 122 156 192 244 296 351
#     4  11  21  35  57  85 118 156 193 237 297 356
#
# _framework density 21.017430000000001
#
# number of rings (size 3 to 8) (size 9 to 14) (size 15 to 20)
#    0.000    1.500    2.500    2.625    0.000    5.250 
#    0.000    0.625    0.000    1.500    0.000    0.000 
#    0.000    0.000    0.000    0.000    0.000    0.000 
#
# Total GULP energy -357485.190056 kJ/mol
# GULP energy per Si atom -5585.706095 kJ/mol
# Density = 2.096959 g / cm^3
# Si number density = 21.017430 Si / 1000 Ang^3
#
#
#
# Elastic Constant Matrix: (Units=GPa)
#
#
# Indices 1 2 3 4 5 6 
#
# 1 36.3454 3.9368 -0.1256 0.0000 0.0000 0.0000
# 2 3.9368 77.7423 40.2623 0.0000 0.0000 0.0000
# 3 -0.1256 40.2623 141.8442 0.0000 0.0000 0.0000
# 4 0.0000 0.0000 0.0000 16.3592 0.0000 0.0000
# 5 0.0000 0.0000 0.0000 0.0000 22.0392 0.0000
# 6 0.0000 0.0000 0.0000 0.0000 0.0000 33.6243
#
#
#
# Elastic Compliance Matrix: (Units=1/GPa)
#
#
# Indices 1 2 3 4 5 6 
#
# 1 0.027695 -0.001659 0.000495 0.000000 0.000000 0.000000
# 2 -0.001659 0.015179 -0.004310 0.000000 0.000000 0.000000
# 3 0.000495 -0.004310 0.008274 0.000000 0.000000 0.000000
# 4 0.000000 0.000000 0.000000 0.061128 0.000000 0.000000
# 5 0.000000 0.000000 0.000000 0.000000 0.045374 0.000000
# 6 0.000000 0.000000 0.000000 0.000000 0.000000 0.029740
#
#
# Mechanical properties :
#
#
# Convention : Reuss Voigt Hill
#
# Bulk Modulus (GPa) = 24.87508 38.23101 31.55304
# Shear Modulus (GPa) = 23.61415 28.52844 26.07129
#
# Velocity S-wave (km/s) = 3.35558 3.68825 3.52584
# Velocity P-wave (km/s) = 5.18405 6.03052 5.62323
#
# Compressibility (1/GPa) = 0.04020088
#
# Stress axis : x y z
#
# Youngs Moduli (GPa) = 36.10732 65.87969 120.86292
#
# Poissons Ratio (x) = 0.10930 -0.05988
# Poissons Ratio (y) = 0.05990 0.52093
# Poissons Ratio (z) = -0.01789 0.28395
#
# Static dielectric constant tensor:
#      x y z
#    x 1.761390 0.000000 0.000000 
#    y 0.000000 1.806980 0.000000 
#    z 0.000000 0.000000 1.757260 
# 
# From -- ./inp_files/34234.got.cif
#   From: 2010.05.17/outbox.cif.g08.bks.cpg/sg53_18_cif.got.tgz:34234.got - 2010.06.03 12:45:16.
