data_PCOD9418091
_publ_section_title
;
Structure prediction by ZEFSAII (Michael W. Deem and Ramdas Pophale) SiO2 
 PCOD9418091
Probable space group: P M N A
;
_chemical_formula_sum "Si O2"
_cell_formula_units_Z 44
_cell_length_a 7.448864
_cell_length_b 8.051674
_cell_length_c 29.594041
_cell_angle_alpha 90.000000
_cell_angle_beta 90.000000
_cell_angle_gamma 90.000000
_cell_volume 1774.927012
_symmetry_space_group_name_H-M "P M N A"
_symmetry_group_IT_number 53
_symmetry_cell_setting 'orthorhombic'
loop_
_space_group_symop_operation_xyz
x,y,z
1/2-x,-y,1/2+z
x,-y,-z
1/2-x,y,1/2-z
-x,-y,-z
1/2+x,y,1/2-z
-x,y,z
1/2+x,-y,1/2+z
loop_
_atom_site_type_symbol
_atom_site_label
_atom_site_fract_x
_atom_site_fract_y
_atom_site_fract_z
Si Si1 0.790812 0.815883 0.935144
Si Si2 0.500000 0.256574 0.125774
Si Si3 0.786981 0.293559 0.198838
Si Si4 0.285980 0.318777 0.699539
Si Si5 0.713989 0.334358 0.975266
Si Si6 0.792821 0.850249 0.111053
O O1 0.658118 0.688129 0.910922
O O2 0.768031 0.806864 0.988728
O O3 0.000000 0.791721 0.924861
O O4 0.715190 0.989222 0.914437
O O5 0.659279 0.209540 0.162709
O O6 0.750000 0.237115 0.250000
O O7 0.726765 0.488755 0.196935
O O8 0.000000 0.279532 0.189611
O O9 0.250000 0.255505 0.750000
O O10 0.500000 0.325453 0.694184
O O11 0.211993 0.212046 0.658056
O O12 0.500000 0.338665 0.971977
O O13 0.780921 0.500000 0.000000
O O14 0.787516 0.294744 0.926023
O O15 0.000000 0.893553 0.119996
#
# Coordination Sequence:
#
# PCOD9418091 Si02
#       6
#     8   4   8   8   8   8
#     4  11  25  45  66  95 139 178 221 272 333 406
#     4  12  24  40  66  94 133 179 224 271 340 396
#     4  10  20  38  65  96 131 171 222 282 340 394
#     4   9  20  38  64  97 130 168 221 275 324 392
#     4  11  25  42  67 103 135 168 224 280 331 402
#     4  10  23  43  67  94 130 181 221 269 340 399
#
# _framework density 24.789750999999999
#
# number of rings (size 3 to 8) (size 9 to 14) (size 15 to 20)
#    0.000    1.636    1.818    1.636    5.091    4.364 
#    0.000    0.909    4.000    0.000    0.000    0.000 
#    0.000    0.000    0.000    0.000    0.000    0.000 
#
# Total GULP energy -245137.777811 kJ/mol
# GULP energy per Si atom -5571.313132 kJ/mol
# Density = 2.473333 g / cm^3
# Si number density = 24.789751 Si / 1000 Ang^3
#
#
#
# Elastic Constant Matrix: (Units=GPa)
#
#
# Indices 1 2 3 4 5 6 
#
# 1 152.5593 -13.3513 5.7816 0.0000 0.0000 0.0000
# 2 -13.3513 70.0187 29.3237 0.0000 0.0000 0.0000
# 3 5.7816 29.3237 169.3698 0.0000 0.0000 0.0000
# 4 0.0000 0.0000 0.0000 29.0230 0.0000 0.0000
# 5 0.0000 0.0000 0.0000 0.0000 36.9805 0.0000
# 6 0.0000 0.0000 0.0000 0.0000 0.0000 -1.8153
#
#
#
# Elastic Compliance Matrix: (Units=1/GPa)
#
#
# Indices 1 2 3 4 5 6 
#
# 1 0.006703 0.001481 -0.000485 0.000000 0.000000 0.000000
# 2 0.001481 0.015726 -0.002773 0.000000 0.000000 0.000000
# 3 -0.000485 -0.002773 0.006401 0.000000 0.000000 0.000000
# 4 0.000000 0.000000 0.000000 0.034455 0.000000 0.000000
# 5 0.000000 0.000000 0.000000 0.000000 0.027041 0.000000
# 6 0.000000 0.000000 0.000000 0.000000 0.000000 -0.550864
#
#
# Mechanical properties :
#
#
# Convention : Reuss Voigt Hill
#
# Bulk Modulus (GPa) = 39.56437 48.38395 43.97416
# Shear Modulus (GPa) = -11.14681 37.51723 13.18521
#
# Velocity S-wave (km/s) = -2.12281 3.89449 2.30876
# Velocity P-wave (km/s) = 3.16010 6.30736 4.98844
#
# Compressibility (1/GPa) = 0.02527527
#
# Stress axis : x y z
#
# Youngs Moduli (GPa) = 149.19005 63.58980 156.22686
#
# Poissons Ratio (x) = -0.09420 0.07581
# Poissons Ratio (y) = -0.22100 0.43325
# Poissons Ratio (z) = 0.07240 0.17635
#
# Static dielectric constant tensor:
#      x y z
#    x 2.026160 0.000000 0.000000 
#    y 0.000000 2.156310 0.000000 
#    z 0.000000 0.000000 2.018420 
# 
# From -- ./inp_files/37619.got.cif
#   From: 2010.05.17/outbox.cif.g08.bks.cpg/sg53_19_cif.got.tgz:37619.got - 2010.06.03 12:45:16.
