data_PCOD9418949
_publ_section_title
;
Structure prediction by ZEFSAII (Michael W. Deem and Ramdas Pophale) SiO2 
 PCOD9418949
Probable space group: P M N A
;
_chemical_formula_sum "Si O2"
_cell_formula_units_Z 44
_cell_length_a 9.257018
_cell_length_b 13.019155
_cell_length_c 18.310066
_cell_angle_alpha 90.000000
_cell_angle_beta 90.000000
_cell_angle_gamma 90.000000
_cell_volume 2206.702645
_symmetry_space_group_name_H-M "P M N A"
_symmetry_group_IT_number 53
_symmetry_cell_setting 'orthorhombic'
loop_
_space_group_symop_operation_xyz
x,y,z
1/2-x,-y,1/2+z
x,-y,-z
1/2-x,y,1/2-z
-x,-y,-z
1/2+x,y,1/2-z
-x,y,z
1/2+x,-y,1/2+z
loop_
_atom_site_type_symbol
_atom_site_label
_atom_site_fract_x
_atom_site_fract_y
_atom_site_fract_z
Si Si1 0.825841 0.419350 0.439878
Si Si2 0.673019 0.583269 0.172909
Si Si3 0.750000 0.096799 0.750000
Si Si4 0.825107 0.815250 0.528553
Si Si5 0.659982 0.895384 0.817536
Si Si6 0.666724 0.775904 0.388340
O O1 0.769866 0.500000 0.500000
O O2 0.793506 0.473181 0.363111
O O3 0.782640 0.302425 0.451535
O O4 0.000000 0.418120 0.446885
O O5 0.750000 0.592691 0.250000
O O6 0.500000 0.595624 0.178118
O O7 0.737342 0.673721 0.122656
O O8 0.826616 0.165433 0.810741
O O9 0.655739 0.015626 0.796338
O O10 0.783857 0.879802 0.600579
O O11 0.741003 0.839089 0.454044
O O12 0.000000 0.822875 0.517483
O O13 0.750000 0.849036 0.750000
O O14 0.500000 0.850212 0.817040
O O15 0.500000 0.752622 0.405202
#
# Coordination Sequence:
#
# PCOD9418949 Si02
#       6
#     8   8   4   8   8   8
#     4   9  17  34  59  85 116 156 189 228 283 344
#     4  11  22  37  59  88 123 158 199 242 294 357
#     4  10  24  42  62  82 118 160 198 254 304 364
#     4  10  21  40  65  91 121 159 204 244 296 363
#     4   9  21  41  64  87 116 155 197 247 301 359
#     4  12  24  38  61  91 122 158 201 252 307 355
#
# _framework density 19.939252
#
# number of rings (size 3 to 8) (size 9 to 14) (size 15 to 20)
#    0.545    1.273    2.727    1.636    0.000    4.364 
#    0.000    5.455    0.000    0.000    0.000    0.000 
#    0.000    0.000    0.000    0.000    0.000    0.000 
#
# Total GULP energy -245162.173546 kJ/mol
# GULP energy per Si atom -5571.867581 kJ/mol
# Density = 1.989387 g / cm^3
# Si number density = 19.939252 Si / 1000 Ang^3
#
#
#
# Elastic Constant Matrix: (Units=GPa)
#
#
# Indices 1 2 3 4 5 6 
#
# 1 79.9030 5.5486 45.6304 0.0000 0.0000 0.0000
# 2 5.5486 56.0869 27.7981 0.0000 0.0000 0.0000
# 3 45.6304 27.7981 132.7451 0.0000 0.0000 0.0000
# 4 0.0000 0.0000 0.0000 36.8304 0.0000 0.0000
# 5 0.0000 0.0000 0.0000 0.0000 25.6092 0.0000
# 6 0.0000 0.0000 0.0000 0.0000 0.0000 22.2164
#
#
#
# Elastic Compliance Matrix: (Units=1/GPa)
#
#
# Indices 1 2 3 4 5 6 
#
# 1 0.015650 0.001248 -0.005641 0.000000 0.000000 0.000000
# 2 0.001248 0.019994 -0.004616 0.000000 0.000000 0.000000
# 3 -0.005641 -0.004616 0.010439 0.000000 0.000000 0.000000
# 4 0.000000 0.000000 0.000000 0.027151 0.000000 0.000000
# 5 0.000000 0.000000 0.000000 0.000000 0.039048 0.000000
# 6 0.000000 0.000000 0.000000 0.000000 0.000000 0.045012
#
#
# Mechanical properties :
#
#
# Convention : Reuss Voigt Hill
#
# Bulk Modulus (GPa) = 35.63233 47.40991 41.52112
# Shear Modulus (GPa) = 27.07579 29.58174 28.32876
#
# Velocity S-wave (km/s) = 3.68899 3.85592 3.77338
# Velocity P-wave (km/s) = 6.00450 6.60704 6.31296
#
# Compressibility (1/GPa) = 0.02806440
#
# Stress axis : x y z
#
# Youngs Moduli (GPa) = 63.89840 50.01565 95.79644
#
# Poissons Ratio (x) = -0.06239 0.54037
# Poissons Ratio (y) = -0.07971 0.44217
# Poissons Ratio (z) = 0.36044 0.23086
#
# Static dielectric constant tensor:
#      x y z
#    x 1.691920 0.000000 0.000000 
#    y 0.000000 1.721440 0.000000 
#    z 0.000000 0.000000 1.737890 
# 
# From -- ./inp_files/26069.got.cif
#   From: 2010.05.17/outbox.cif.g08.bks.cpg/sg53_14_cif.got.tgz:26069.got - 2010.06.03 12:45:16.
