data_PCOD9418832
_publ_section_title
;
Structure prediction by ZEFSAII (Michael W. Deem and Ramdas Pophale) SiO2 
 PCOD9418832
Probable space group: P M N A
;
_chemical_formula_sum "Si O2"
_cell_formula_units_Z 56
_cell_length_a 8.839366
_cell_length_b 20.130210
_cell_length_c 15.569438
_cell_angle_alpha 90.000000
_cell_angle_beta 90.000000
_cell_angle_gamma 90.000000
_cell_volume 2770.399234
_symmetry_space_group_name_H-M "P M N A"
_symmetry_group_IT_number 53
_symmetry_cell_setting 'orthorhombic'
loop_
_space_group_symop_operation_xyz
x,y,z
1/2-x,-y,1/2+z
x,-y,-z
1/2-x,y,1/2-z
-x,-y,-z
1/2+x,y,1/2-z
-x,y,z
1/2+x,-y,1/2+z
loop_
_atom_site_type_symbol
_atom_site_label
_atom_site_fract_x
_atom_site_fract_y
_atom_site_fract_z
Si Si1 0.319977 0.690401 0.346088
Si Si2 0.318382 0.836171 0.344825
Si Si3 0.180947 0.832238 0.655648
Si Si4 0.172152 0.551880 0.919717
Si Si5 0.682673 0.323588 0.154023
Si Si6 0.326212 0.435939 0.841646
Si Si7 0.683124 0.077314 0.494914
O O1 0.250000 0.694344 0.250000
O O2 0.500000 0.683294 0.340854
O O3 0.281306 0.762670 0.382070
O O4 0.255530 0.624580 0.391015
O O5 0.250000 0.844788 0.250000
O O6 0.500000 0.838587 0.335427
O O7 0.270002 0.889075 0.415175
O O8 0.250000 0.845806 0.750000
O O9 0.214060 0.754337 0.635219
O O10 0.247522 0.881596 0.584119
O O11 0.000000 0.839325 0.659507
O O12 0.233120 0.626799 0.912110
O O13 0.297609 0.510554 0.868615
O O14 0.000000 0.551486 0.884578
O O15 0.163327 0.500000 0.000000
O O16 0.750000 0.337056 0.250000
O O17 0.500000 0.333101 0.153338
O O18 0.250000 0.433280 0.750000
O O19 0.500000 0.419704 0.839242
O O20 0.500000 0.081681 0.488300
O O21 0.725083 0.000000 0.500000
#
# Coordination Sequence:
#
# PCOD9418832 Si02
#       7
#     8   8   8   8   8   8   8
#     4   9  16  29  49  74 103 136 179 223 268 324
#     4   9  19  35  56  82 114 154 195 239 290 347
#     4  10  22  41  66  94 123 159 204 256 312 369
#     4  11  24  39  54  76 109 148 189 235 290 347
#     4  10  21  39  63  89 116 150 197 250 304 360
#     4  11  21  34  53  75 103 138 177 221 269 322
#     4  10  22  40  61  89 125 161 198 242 296 359
#
# _framework density 20.213692999999999
#
# number of rings (size 3 to 8) (size 9 to 14) (size 15 to 20)
#    0.000    2.000    0.000    4.286    0.000    6.000 
#    0.000    5.714    0.000    0.000    0.000    0.000 
#    0.000    0.000    0.000    0.000    0.000    0.000 
#
# Total GULP energy -312016.946092 kJ/mol
# GULP energy per Si atom -5571.731180 kJ/mol
# Density = 2.016769 g / cm^3
# Si number density = 20.213693 Si / 1000 Ang^3
#
#
#
# Elastic Constant Matrix: (Units=GPa)
#
#
# Indices 1 2 3 4 5 6 
#
# 1 81.7829 48.0343 27.3484 0.0000 0.0000 0.0000
# 2 48.0343 149.9487 64.9299 0.0000 0.0000 0.0000
# 3 27.3484 64.9299 89.6709 0.0000 0.0000 0.0000
# 4 0.0000 0.0000 0.0000 23.3063 0.0000 0.0000
# 5 0.0000 0.0000 0.0000 0.0000 18.3544 0.0000
# 6 0.0000 0.0000 0.0000 0.0000 0.0000 27.5070
#
#
#
# Elastic Compliance Matrix: (Units=1/GPa)
#
#
# Indices 1 2 3 4 5 6 
#
# 1 0.015221 -0.004175 -0.001619 0.000000 0.000000 0.000000
# 2 -0.004175 0.010860 -0.006590 0.000000 0.000000 0.000000
# 3 -0.001619 -0.006590 0.016418 0.000000 0.000000 0.000000
# 4 0.000000 0.000000 0.000000 0.042907 0.000000 0.000000
# 5 0.000000 0.000000 0.000000 0.000000 0.054483 0.000000
# 6 0.000000 0.000000 0.000000 0.000000 0.000000 0.036354
#
#
# Mechanical properties :
#
#
# Convention : Reuss Voigt Hill
#
# Bulk Modulus (GPa) = 56.40181 66.89198 61.64690
# Shear Modulus (GPa) = 24.16375 25.90621 25.03498
#
# Velocity S-wave (km/s) = 3.46123 3.58385 3.52307
# Velocity P-wave (km/s) = 6.62849 7.09151 6.86391
#
# Compressibility (1/GPa) = 0.01772993
#
# Stress axis : x y z
#
# Youngs Moduli (GPa) = 65.69895 92.08123 60.90942
#
# Poissons Ratio (x) = 0.38441 0.09863
# Poissons Ratio (y) = 0.27427 0.40142
# Poissons Ratio (z) = 0.10639 0.60685
#
# Static dielectric constant tensor:
#      x y z
#    x 1.697410 0.000000 0.000000 
#    y 0.000000 1.851760 0.000000 
#    z 0.000000 0.000000 1.777380 
# 
# From -- ./inp_files/20556.got.cif
#   From: 2010.05.17/outbox.cif.g08.bks.cpg/sg53_11_cif.got.tgz:20556.got - 2010.06.03 12:45:16.
