data_PCOD9418781
_publ_section_title
;
Structure prediction by ZEFSAII (Michael W. Deem and Ramdas Pophale) SiO2 
 PCOD9418781
Probable space group: P M N A
;
_chemical_formula_sum "Si O2"
_cell_formula_units_Z 56
_cell_length_a 8.073834
_cell_length_b 22.476045
_cell_length_c 15.431650
_cell_angle_alpha 90.000000
_cell_angle_beta 90.000000
_cell_angle_gamma 90.000000
_cell_volume 2800.348445
_symmetry_space_group_name_H-M "P M N A"
_symmetry_group_IT_number 53
_symmetry_cell_setting 'orthorhombic'
loop_
_space_group_symop_operation_xyz
x,y,z
1/2-x,-y,1/2+z
x,-y,-z
1/2-x,y,1/2-z
-x,-y,-z
1/2+x,y,1/2-z
-x,y,z
1/2+x,-y,1/2+z
loop_
_atom_site_type_symbol
_atom_site_label
_atom_site_fract_x
_atom_site_fract_y
_atom_site_fract_z
Si Si1 0.699483 0.501129 0.648498
Si Si2 0.696121 0.191811 0.657264
Si Si3 0.198487 0.273481 0.996264
Si Si4 0.301237 0.063047 0.897065
Si Si5 0.802120 0.194587 0.343816
Si Si6 0.798738 0.065908 0.398797
Si Si7 0.297480 0.591197 0.498811
O O1 0.750000 0.501361 0.750000
O O2 0.500000 0.409397 0.500626
O O3 0.752422 0.444839 0.588273
O O4 0.753438 0.556747 0.587158
O O5 0.750000 0.214952 0.750000
O O6 0.500000 0.193959 0.651261
O O7 0.767762 0.232342 0.580821
O O8 0.744012 0.122807 0.648041
O O9 0.000000 0.277608 0.985618
O O10 0.233891 0.237916 0.083483
O O11 0.261494 0.340935 0.997168
O O12 0.500000 0.061873 0.892146
O O13 0.239001 0.998448 0.865126
O O14 0.257453 0.068240 0.998972
O O15 0.750000 0.216025 0.250000
O O16 0.737668 0.126722 0.356448
O O17 0.000000 0.192863 0.351534
O O18 0.000000 0.065625 0.392738
O O19 0.500000 0.501266 0.649041
#
# Coordination Sequence:
#
# PCOD9418781 Si02
#       7
#     8   8   8   8   8   8   8
#     4   9  17  33  58  85 112 143 177 216 261 309
#     4  11  23  36  53  78 107 141 181 225 274 326
#     4  10  21  39  58  78 108 145 186 227 263 313
#     4   9  16  33  57  78 102 134 175 222 276 331
#     4  11  22  37  56  80 108 142 181 224 274 327
#     4   8  16  31  55  79 102 135 172 219 278 329
#     4   8  17  35  57  79 109 148 180 211 263 317
#
# _framework density 19.997512
#
# number of rings (size 3 to 8) (size 9 to 14) (size 15 to 20)
#    0.000    2.571    1.429    2.571    0.000    2.286 
#    0.000    8.571    0.000    0.000    0.000    0.000 
#    0.000    0.000    0.000    0.000    0.000    0.000 
#
# Total GULP energy -312292.748519 kJ/mol
# GULP energy per Si atom -5576.656224 kJ/mol
# Density = 1.995200 g / cm^3
# Si number density = 19.997512 Si / 1000 Ang^3
#
#
#
# Elastic Constant Matrix: (Units=GPa)
#
#
# Indices 1 2 3 4 5 6 
#
# 1 6.5512 10.4719 -0.6996 0.0000 0.0000 0.0000
# 2 10.4719 170.9175 89.9985 0.0000 0.0000 0.0000
# 3 -0.6996 89.9985 163.4135 0.0000 0.0000 0.0000
# 4 0.0000 0.0000 0.0000 -19.3393 0.0000 0.0000
# 5 0.0000 0.0000 0.0000 0.0000 24.6170 0.0000
# 6 0.0000 0.0000 0.0000 0.0000 0.0000 17.1021
#
#
#
# Elastic Compliance Matrix: (Units=1/GPa)
#
#
# Indices 1 2 3 4 5 6 
#
# 1 0.179314 -0.016043 0.009603 0.000000 0.000000 0.000000
# 2 -0.016043 0.009676 -0.005398 0.000000 0.000000 0.000000
# 3 0.009603 -0.005398 0.009133 0.000000 0.000000 0.000000
# 4 0.000000 0.000000 0.000000 -0.051708 0.000000 0.000000
# 5 0.000000 0.000000 0.000000 0.000000 0.040622 0.000000
# 6 0.000000 0.000000 0.000000 0.000000 0.000000 0.058472
#
#
# Mechanical properties :
#
#
# Convention : Reuss Voigt Hill
#
# Bulk Modulus (GPa) = 5.73236 60.04711 32.88973
# Shear Modulus (GPa) = 15.27494 20.55007 17.91250
#
# Velocity S-wave (km/s) = 2.76677 3.20915 2.99613
# Velocity P-wave (km/s) = 3.61655 6.61997 5.33401
#
# Compressibility (1/GPa) = 0.17444820
#
# Stress axis : x y z
#
# Youngs Moduli (GPa) = 5.57681 103.34986 109.49037
#
# Poissons Ratio (x) = 1.65805 -1.05146
# Poissons Ratio (y) = 0.08947 0.59098
# Poissons Ratio (z) = -0.05356 0.55784
#
# Static dielectric constant tensor:
#      x y z
#    x 1.717820 0.000000 0.000000 
#    y 0.000000 1.725720 0.000000 
#    z 0.000000 0.000000 1.695300 
# 
# From -- ./inp_files/20559.got.cif
#   From: 2010.05.17/outbox.cif.g08.bks.cpg/sg53_11_cif.got.tgz:20559.got - 2010.06.03 12:45:16.
