data_PCOD9418056
_publ_section_title
;
Structure prediction by ZEFSAII (Michael W. Deem and Ramdas Pophale) SiO2 
 PCOD9418056
Probable space group: P M N A
;
_chemical_formula_sum "Si O2"
_cell_formula_units_Z 40
_cell_length_a 17.869246
_cell_length_b 8.878863
_cell_length_c 12.621281
_cell_angle_alpha 90.000000
_cell_angle_beta 90.000000
_cell_angle_gamma 90.000000
_cell_volume 2002.474611
_symmetry_space_group_name_H-M "P M N A"
_symmetry_group_IT_number 53
_symmetry_cell_setting 'orthorhombic'
loop_
_space_group_symop_operation_xyz
x,y,z
1/2-x,-y,1/2+z
x,-y,-z
1/2-x,y,1/2-z
-x,-y,-z
1/2+x,y,1/2-z
-x,y,z
1/2+x,-y,1/2+z
loop_
_atom_site_type_symbol
_atom_site_label
_atom_site_fract_x
_atom_site_fract_y
_atom_site_fract_z
Si Si1 0.662774 0.148301 0.727543
Si Si2 0.409280 0.628948 0.852673
Si Si3 0.088028 0.843732 0.837976
Si Si4 0.089975 0.706966 0.416344
Si Si5 0.912387 0.659173 0.051322
O O1 0.750000 0.154579 0.750000
O O2 0.621556 0.167490 0.839824
O O3 0.635236 0.280564 0.648990
O O4 0.636481 0.991984 0.676774
O O5 0.500000 0.624331 0.851156
O O6 0.387181 0.716240 0.746794
O O7 0.385540 0.455897 0.869117
O O8 0.386461 0.713534 0.960918
O O9 0.000000 0.878980 0.817084
O O10 0.092083 0.778088 0.955733
O O11 0.000000 0.710601 0.414284
O O12 0.000000 0.644616 0.084845
O O13 0.889834 0.500000 0.000000
#
# Coordination Sequence:
#
# PCOD9418056 Si02
#       5
#     8   8   8   8   8
#     4  12  25  39  52  87 127 164 195 234 303 366
#     4   8  16  33  61  92 111 140 193 248 295 336
#     4  10  20  38  63  89 117 153 201 251 297 348
#     4   9  17  35  61  86 116 150 196 247 287 344
#     4  10  21  42  72  94 112 149 210 269 304 346
#
# _framework density 19.975283999999998
#
# number of rings (size 3 to 8) (size 9 to 14) (size 15 to 20)
#    0.000    2.200    0.000    4.800    0.000    5.600 
#   10.800    5.000    0.000    0.000    0.000    0.000 
#    0.000    0.000    0.000    0.000    0.000    0.000 
#
# Total GULP energy -223388.118539 kJ/mol
# GULP energy per Si atom -5584.702963 kJ/mol
# Density = 1.992982 g / cm^3
# Si number density = 19.975284 Si / 1000 Ang^3
#
#
#
# Elastic Constant Matrix: (Units=GPa)
#
#
# Indices 1 2 3 4 5 6 
#
# 1 50.0922 16.8681 28.9892 0.0000 0.0000 0.0000
# 2 16.8681 28.8156 -1.5485 0.0000 0.0000 0.0000
# 3 28.9892 -1.5485 75.5151 0.0000 0.0000 0.0000
# 4 0.0000 0.0000 0.0000 31.3131 0.0000 0.0000
# 5 0.0000 0.0000 0.0000 0.0000 146.7101 0.0000
# 6 0.0000 0.0000 0.0000 0.0000 0.0000 7.7098
#
#
#
# Elastic Compliance Matrix: (Units=1/GPa)
#
#
# Indices 1 2 3 4 5 6 
#
# 1 0.035249 -0.021385 -0.013970 0.000000 0.000000 0.000000
# 2 -0.021385 0.047715 0.009188 0.000000 0.000000 0.000000
# 3 -0.013970 0.009188 0.018794 0.000000 0.000000 0.000000
# 4 0.000000 0.000000 0.000000 0.031936 0.000000 0.000000
# 5 0.000000 0.000000 0.000000 0.000000 0.006816 0.000000
# 6 0.000000 0.000000 0.000000 0.000000 0.000000 0.129704
#
#
# Mechanical properties :
#
#
# Convention : Reuss Voigt Hill
#
# Bulk Modulus (GPa) = 20.23312 27.00448 23.61880
# Shear Modulus (GPa) = 14.74826 44.48755 29.61791
#
# Velocity S-wave (km/s) = 2.72016 4.72437 3.85480
# Velocity P-wave (km/s) = 4.47401 6.58087 5.62693
#
# Compressibility (1/GPa) = 0.04942391
#
# Stress axis : x y z
#
# Youngs Moduli (GPa) = 28.36960 20.95757 53.20929
#
# Poissons Ratio (x) = 0.44817 0.74334
# Poissons Ratio (y) = 0.60668 -0.48888
# Poissons Ratio (z) = 0.39633 -0.19255
#
# Static dielectric constant tensor:
#      x y z
#    x 1.675660 0.000000 0.000000 
#    y 0.000000 1.716930 0.000000 
#    z 0.000000 0.000000 1.701770 
# 
# From -- ./inp_files/16677.got.cif
#   From: 2010.05.17/outbox.cif.g08.bks.cpg/sg53_9_cif.got.tgz:16677.got - 2010.06.03 12:45:16.
