data_PCOD9418451
_publ_section_title
;
Structure prediction by ZEFSAII (Michael W. Deem and Ramdas Pophale) SiO2 
 PCOD9418451
Probable space group: P M N A
;
_chemical_formula_sum "Si O2"
_cell_formula_units_Z 28
_cell_length_a 27.580690
_cell_length_b 9.355440
_cell_length_c 5.258231
_cell_angle_alpha 90.000000
_cell_angle_beta 90.000000
_cell_angle_gamma 90.000000
_cell_volume 1356.778666
_symmetry_space_group_name_H-M "P M N A"
_symmetry_group_IT_number 53
_symmetry_cell_setting 'orthorhombic'
loop_
_space_group_symop_operation_xyz
x,y,z
1/2-x,-y,1/2+z
x,-y,-z
1/2-x,y,1/2-z
-x,-y,-z
1/2+x,y,1/2-z
-x,y,z
1/2+x,-y,1/2+z
loop_
_atom_site_type_symbol
_atom_site_label
_atom_site_fract_x
_atom_site_fract_y
_atom_site_fract_z
Si Si1 0.000000 0.399263 0.750208
Si Si2 0.104581 0.400663 0.752231
Si Si3 0.306931 0.072233 0.248393
Si Si4 0.704501 0.665670 0.074020
O O1 0.000000 0.500000 0.500000
O O2 0.947680 0.322222 0.753080
O O3 0.000000 0.500000 0.000000
O O4 0.104655 0.500000 0.500000
O O5 0.154973 0.318035 0.733466
O O6 0.106528 0.500000 0.000000
O O7 0.250000 0.032245 0.250000
O O8 0.327925 0.000000 0.500000
O O9 0.304628 0.240145 0.178849
O O10 0.329693 0.000000 0.000000
O O11 0.750000 0.710491 0.250000
O O12 0.711902 0.500000 0.000000
#
# Coordination Sequence:
#
# PCOD9418451 Si02
#       4
#     4   8   8   8
#     4   8  14  28  46  66 100 144 185 222 268 334
#     4   9  18  30  47  74 108 145 183 227 281 338
#     4  10  21  37  53  70 101 149 192 221 260 330
#     4  11  21  33  55  86 119 148 183 238 296 343
#
# _framework density 20.637115999999999
#
# number of rings (size 3 to 8) (size 9 to 14) (size 15 to 20)
#    0.000    2.286    0.000    4.286    0.000    6.857 
#    0.000    0.000    0.000    0.000    0.000    2.000 
#    0.000    0.000    0.000   22.714    0.000   12.286 
#
# Total GULP energy -155932.610492 kJ/mol
# GULP energy per Si atom -5569.021803 kJ/mol
# Density = 2.059014 g / cm^3
# Si number density = 20.637116 Si / 1000 Ang^3
#
#
#
# Elastic Constant Matrix: (Units=GPa)
#
#
# Indices 1 2 3 4 5 6 
#
# 1 186.6088 -0.9671 20.1160 0.0000 0.0000 0.0000
# 2 -0.9671 117.9375 47.9618 0.0000 0.0000 0.0000
# 3 20.1160 47.9618 175.5183 0.0000 0.0000 0.0000
# 4 0.0000 0.0000 0.0000 29.6563 0.0000 0.0000
# 5 0.0000 0.0000 0.0000 0.0000 26.8280 0.0000
# 6 0.0000 0.0000 0.0000 0.0000 0.0000 -2.3031
#
#
#
# Elastic Compliance Matrix: (Units=1/GPa)
#
#
# Indices 1 2 3 4 5 6 
#
# 1 0.005438 0.000335 -0.000715 0.000000 0.000000 0.000000
# 2 0.000335 0.009560 -0.002651 0.000000 0.000000 0.000000
# 3 -0.000715 -0.002651 0.006504 0.000000 0.000000 0.000000
# 4 0.000000 0.000000 0.000000 0.033720 0.000000 0.000000
# 5 0.000000 0.000000 0.000000 0.000000 0.037274 0.000000
# 6 0.000000 0.000000 0.000000 0.000000 0.000000 -0.434206
#
#
# Mechanical properties :
#
#
# Convention : Reuss Voigt Hill
#
# Bulk Modulus (GPa) = 64.76452 68.25400 66.50926
# Shear Modulus (GPa) = -15.12845 38.36650 11.61903
#
# Velocity S-wave (km/s) = -2.71046 4.31641 2.37537
# Velocity P-wave (km/s) = 4.65351 7.61492 6.31040
#
# Compressibility (1/GPa) = 0.01544055
#
# Stress axis : x y z
#
# Youngs Moduli (GPa) = 183.90469 104.60485 153.75945
#
# Poissons Ratio (x) = -0.03507 0.10991
# Poissons Ratio (y) = -0.06166 0.40757
# Poissons Ratio (z) = 0.13146 0.27728
#
# Static dielectric constant tensor:
#      x y z
#    x 1.809450 0.000000 0.000000 
#    y 0.000000 1.770420 0.000000 
#    z 0.000000 0.000000 1.817520 
# 
# From -- ./inp_files/4873.got.cif
#   From: 2010.05.17/outbox.cif.g08.bks.cpg/sg53_3_cif.got.tgz:4873.got - 2010.06.03 12:45:16.
