data_PCOD9418539
_publ_section_title
;
Structure prediction by ZEFSAII (Michael W. Deem and Ramdas Pophale) SiO2 
 PCOD9418539
Probable space group: P M N A
;
_chemical_formula_sum "Si O2"
_cell_formula_units_Z 64
_cell_length_a 16.729537
_cell_length_b 20.929947
_cell_length_c 8.166068
_cell_angle_alpha 90.000000
_cell_angle_beta 90.000000
_cell_angle_gamma 90.000000
_cell_volume 2859.335014
_symmetry_space_group_name_H-M "P M N A"
_symmetry_group_IT_number 53
_symmetry_cell_setting 'orthorhombic'
loop_
_space_group_symop_operation_xyz
x,y,z
1/2-x,-y,1/2+z
x,-y,-z
1/2-x,y,1/2-z
-x,-y,-z
1/2+x,y,1/2-z
-x,y,z
1/2+x,-y,1/2+z
loop_
_atom_site_type_symbol
_atom_site_label
_atom_site_fract_x
_atom_site_fract_y
_atom_site_fract_z
Si Si1 0.839195 0.914450 0.667948
Si Si2 0.162712 0.837929 0.176018
Si Si3 0.094904 0.652912 0.931099
Si Si4 0.160949 0.218144 0.189825
Si Si5 0.592624 0.047629 0.818768
Si Si6 0.655751 0.708788 0.228624
Si Si7 0.406775 0.471421 0.263184
Si Si8 0.592859 0.406839 0.907813
O O1 0.750000 0.915969 0.750000
O O2 0.870437 0.843062 0.707417
O O3 0.852082 0.929426 0.473728
O O4 0.885090 0.976361 0.736875
O O5 0.250000 0.851419 0.250000
O O6 0.111466 0.901346 0.179731
O O7 0.124054 0.780650 0.283138
O O8 0.167800 0.808879 0.995275
O O9 0.116500 0.714059 0.818148
O O10 0.128949 0.583145 0.880158
O O11 0.000000 0.645760 0.925148
O O12 0.121041 0.674301 0.111158
O O13 0.250000 0.231869 0.250000
O O14 0.500000 0.050667 0.867818
O O15 0.750000 0.715466 0.250000
O O16 0.637240 0.660070 0.085924
O O17 0.500000 0.482230 0.309516
O O18 0.372930 0.541760 0.223594
O O19 0.406607 0.438356 0.085356
O O20 0.500000 0.394961 0.865475
#
# Coordination Sequence:
#
# PCOD9418539 Si02
#       8
#     8   8   8   8   8   8   8   8
#     4  10  21  39  63  88 120 162 199 233 292 365
#     4  10  21  39  60  82 114 157 198 235 290 364
#     4  10  21  37  58  85 117 152 194 241 289 344
#     4  10  22  38  59  87 117 153 196 241 290 349
#     4  11  24  41  62  92 124 152 198 258 297 334
#     4  10  22  37  54  81 115 149 190 239 289 344
#     4   8  17  33  54  81 109 145 190 234 285 348
#     4   9  17  34  57  78 108 148 192 237 284 344
#
# _framework density 22.382828
#
# number of rings (size 3 to 8) (size 9 to 14) (size 15 to 20)
#    0.000    2.250    0.000    3.750    0.000   10.500 
#    0.000    6.875    0.000    0.000    0.000    0.000 
#    0.000    0.000    0.000    0.000    0.000    0.000 
#
# Total GULP energy -356925.874975 kJ/mol
# GULP energy per Si atom -5576.966796 kJ/mol
# Density = 2.233188 g / cm^3
# Si number density = 22.382828 Si / 1000 Ang^3
#
#
#
# Elastic Constant Matrix: (Units=GPa)
#
#
# Indices 1 2 3 4 5 6 
#
# 1 37.8095 2.9623 8.4037 0.0000 0.0000 0.0000
# 2 2.9623 53.3826 1.2741 0.0000 0.0000 0.0000
# 3 8.4037 1.2741 43.1526 0.0000 0.0000 0.0000
# 4 0.0000 0.0000 0.0000 46.5600 0.0000 0.0000
# 5 0.0000 0.0000 0.0000 0.0000 18.6907 0.0000
# 6 0.0000 0.0000 0.0000 0.0000 0.0000 96.0910
#
#
#
# Elastic Compliance Matrix: (Units=1/GPa)
#
#
# Indices 1 2 3 4 5 6 
#
# 1 0.027751 -0.001412 -0.005363 0.000000 0.000000 0.000000
# 2 -0.001412 0.018818 -0.000281 0.000000 0.000000 0.000000
# 3 -0.005363 -0.000281 0.024226 0.000000 0.000000 0.000000
# 4 0.000000 0.000000 0.000000 0.021478 0.000000 0.000000
# 5 0.000000 0.000000 0.000000 0.000000 0.053503 0.000000
# 6 0.000000 0.000000 0.000000 0.000000 0.000000 0.010407
#
#
# Mechanical properties :
#
#
# Convention : Reuss Voigt Hill
#
# Bulk Modulus (GPa) = 17.64151 17.73608 17.68880
# Shear Modulus (GPa) = 26.42886 40.38199 33.40543
#
# Velocity S-wave (km/s) = 3.43995 4.25214 3.86743
# Velocity P-wave (km/s) = 4.86585 5.66116 5.27851
#
# Compressibility (1/GPa) = 0.05668449
#
# Stress axis : x y z
#
# Youngs Moduli (GPa) = 36.03481 53.14137 41.27762
#
# Poissons Ratio (x) = 0.07503 0.22136
# Poissons Ratio (y) = 0.05088 0.01158
# Poissons Ratio (z) = 0.19324 0.01491
#
# Static dielectric constant tensor:
#      x y z
#    x 1.797880 0.000000 0.000000 
#    y 0.000000 1.886230 0.000000 
#    z 0.000000 0.000000 1.901650 
# 
# From -- ./inp_files/8947.got.cif
#   From: 2010.05.17/outbox.cif.g08.bks.cpg/sg53_5_cif.got.tgz:8947.got - 2010.06.03 12:45:16.
