data_PCOD9418634
_publ_section_title
;
Structure prediction by ZEFSAII (Michael W. Deem and Ramdas Pophale) SiO2 
 PCOD9418634
Probable space group: P M N A
;
_chemical_formula_sum "Si O2"
_cell_formula_units_Z 40
_cell_length_a 23.278904
_cell_length_b 5.084416
_cell_length_c 17.240021
_cell_angle_alpha 90.000000
_cell_angle_beta 90.000000
_cell_angle_gamma 90.000000
_cell_volume 2040.522541
_symmetry_space_group_name_H-M "P M N A"
_symmetry_group_IT_number 53
_symmetry_cell_setting 'orthorhombic'
loop_
_space_group_symop_operation_xyz
x,y,z
1/2-x,-y,1/2+z
x,-y,-z
1/2-x,y,1/2-z
-x,-y,-z
1/2+x,y,1/2-z
-x,y,z
1/2+x,-y,1/2+z
loop_
_atom_site_type_symbol
_atom_site_label
_atom_site_fract_x
_atom_site_fract_y
_atom_site_fract_z
Si Si1 0.384743 0.910338 0.910826
Si Si2 0.376751 0.761909 0.244519
Si Si3 0.500000 0.858312 0.245152
Si Si4 0.809242 0.738809 0.794559
Si Si5 0.500000 0.355123 0.144771
Si Si6 0.240451 0.747979 0.554659
O O1 0.440553 0.727363 0.896629
O O2 0.321753 0.780302 0.904001
O O3 0.383839 0.140651 0.845283
O O4 0.388657 0.000000 0.000000
O O5 0.439194 0.798523 0.283272
O O6 0.354528 0.470755 0.261102
O O7 0.332165 0.968856 0.279869
O O8 0.500000 0.655760 0.171408
O O9 0.500000 0.160879 0.219094
O O10 0.750000 0.694426 0.750000
O O11 0.791232 0.710869 0.883898
O O12 0.235925 0.500000 0.500000
O O13 0.249287 0.000000 0.500000
#
# Coordination Sequence:
#
# PCOD9418634 Si02
#       6
#     8   8   4   8   4   8
#     4  10  22  37  57  83 123 169 208 247 285 345
#     4  11  23  40  60  90 119 163 202 252 301 355
#     4  10  22  38  61  84 122 153 208 250 296 357
#     4  12  24  39  64  89 123 157 205 248 308 361
#     4  10  21  38  52  82 118 171 212 242 278 335
#     4  11  25  41  60  89 122 162 204 252 306 363
#
# _framework density 19.602823000000001
#
# number of rings (size 3 to 8) (size 9 to 14) (size 15 to 20)
#    0.000    1.200    2.000    4.500    5.600    3.200 
#    0.000    4.500    0.000    0.000    0.000   14.000 
#    0.000    0.000    0.000    0.000    0.000    0.000 
#
# Total GULP energy -223416.002043 kJ/mol
# GULP energy per Si atom -5585.400051 kJ/mol
# Density = 1.955821 g / cm^3
# Si number density = 19.602823 Si / 1000 Ang^3
#
#
#
# Elastic Constant Matrix: (Units=GPa)
#
#
# Indices 1 2 3 4 5 6 
#
# 1 64.4435 -9.8278 25.3927 0.0000 0.0000 0.0000
# 2 -9.8278 68.5380 22.3406 0.0000 0.0000 0.0000
# 3 25.3927 22.3406 60.4852 0.0000 0.0000 0.0000
# 4 0.0000 0.0000 0.0000 31.0756 0.0000 0.0000
# 5 0.0000 0.0000 0.0000 0.0000 20.4577 0.0000
# 6 0.0000 0.0000 0.0000 0.0000 0.0000 39.1881
#
#
#
# Elastic Compliance Matrix: (Units=1/GPa)
#
#
# Indices 1 2 3 4 5 6 
#
# 1 0.020980 0.006684 -0.011277 0.000000 0.000000 0.000000
# 2 0.006684 0.018717 -0.009719 0.000000 0.000000 0.000000
# 3 -0.011277 -0.009719 0.024857 0.000000 0.000000 0.000000
# 4 0.000000 0.000000 0.000000 0.032180 0.000000 0.000000
# 5 0.000000 0.000000 0.000000 0.000000 0.048881 0.000000
# 6 0.000000 0.000000 0.000000 0.000000 0.000000 0.025518
#
#
# Mechanical properties :
#
#
# Convention : Reuss Voigt Hill
#
# Bulk Modulus (GPa) = 27.83158 29.91975 28.87566
# Shear Modulus (GPa) = 23.61455 28.51501 26.06478
#
# Velocity S-wave (km/s) = 3.47457 3.81811 3.65038
# Velocity P-wave (km/s) = 5.50685 5.89350 5.70346
#
# Compressibility (1/GPa) = 0.03593041
#
# Stress axis : x y z
#
# Youngs Moduli (GPa) = 47.66401 53.42728 40.23003
#
# Poissons Ratio (x) = -0.35712 0.45366
# Poissons Ratio (y) = -0.31859 0.39101
# Poissons Ratio (z) = 0.53749 0.51928
#
# Static dielectric constant tensor:
#      x y z
#    x 1.718560 0.000000 0.000000 
#    y 0.000000 1.673820 0.000000 
#    z 0.000000 0.000000 1.690390 
# 
# From -- ./inp_files/29219.got.cif
#   From: 2010.05.17/outbox.cif.g08.bks.cpg/sg53_15_cif.got.tgz:29219.got - 2010.06.03 12:45:16.
