data_PCOD9418348
_publ_section_title
;
Structure prediction by ZEFSAII (Michael W. Deem and Ramdas Pophale) SiO2 
 PCOD9418348
Probable space group: P M N A
;
_chemical_formula_sum "Si O2"
_cell_formula_units_Z 48
_cell_length_a 8.605422
_cell_length_b 32.148609
_cell_length_c 9.222319
_cell_angle_alpha 90.000000
_cell_angle_beta 90.000000
_cell_angle_gamma 90.000000
_cell_volume 2551.376198
_symmetry_space_group_name_H-M "P M N A"
_symmetry_group_IT_number 53
_symmetry_cell_setting 'orthorhombic'
loop_
_space_group_symop_operation_xyz
x,y,z
1/2-x,-y,1/2+z
x,-y,-z
1/2-x,y,1/2-z
-x,-y,-z
1/2+x,y,1/2-z
-x,y,z
1/2+x,-y,1/2+z
loop_
_atom_site_type_symbol
_atom_site_label
_atom_site_fract_x
_atom_site_fract_y
_atom_site_fract_z
Si Si1 0.185649 0.378936 0.412780
Si Si2 0.313587 0.542074 0.412901
Si Si3 0.312571 0.122014 0.913516
Si Si4 0.185462 0.699959 0.085223
Si Si5 0.313376 0.213360 0.914738
Si Si6 0.187871 0.040937 0.411851
O O1 0.250000 0.381830 0.250000
O O2 0.242410 0.418585 0.504341
O O3 0.249527 0.337641 0.490477
O O4 0.000000 0.377834 0.409901
O O5 0.274590 0.500000 0.500000
O O6 0.250000 0.539837 0.250000
O O7 0.500000 0.546303 0.409352
O O8 0.250000 0.118253 0.750000
O O9 0.500000 0.120945 0.905942
O O10 0.270372 0.167792 0.975211
O O11 0.259065 0.083109 0.008470
O O12 0.250000 0.696346 0.250000
O O13 0.240462 0.744623 0.022771
O O14 0.000000 0.698616 0.090925
O O15 0.250000 0.212073 0.750000
O O16 0.500000 0.217373 0.913508
O O17 0.250000 0.039168 0.250000
O O18 0.000000 0.041288 0.409081
O O19 0.237611 0.000000 0.500000
#
# Coordination Sequence:
#
# PCOD9418348 Si02
#       6
#     8   8   8   8   8   8
#     4  12  25  42  62  86 118 154 194 239 288 340
#     4  11  24  42  65  93 124 158 196 238 285 336
#     4   9  18  32  52  78 107 139 177 223 271 324
#     4  11  21  36  58  85 115 149 191 235 282 333
#     4   9  16  29  50  77 108 141 180 226 275 325
#     4  10  21  36  53  76 105 137 176 220 267 321
#
# _framework density 18.813376000000002
#
# number of rings (size 3 to 8) (size 9 to 14) (size 15 to 20)
#    0.000    1.667    0.000    6.500    0.000    4.333 
#    0.000    0.833    0.000    2.000    0.000    0.000 
#    0.000    0.000    0.000    0.000    0.000    0.000 
#
# Total GULP energy -268117.615596 kJ/mol
# GULP energy per Si atom -5585.783658 kJ/mol
# Density = 1.877056 g / cm^3
# Si number density = 18.813376 Si / 1000 Ang^3
#
#
#
# Elastic Constant Matrix: (Units=GPa)
#
#
# Indices 1 2 3 4 5 6 
#
# 1 96.2060 79.0633 48.0858 0.0000 0.0000 0.0000
# 2 79.0633 229.0184 104.5018 0.0000 0.0000 0.0000
# 3 48.0858 104.5018 130.8055 0.0000 0.0000 0.0000
# 4 0.0000 0.0000 0.0000 31.4460 0.0000 0.0000
# 5 0.0000 0.0000 0.0000 0.0000 29.4643 0.0000
# 6 0.0000 0.0000 0.0000 0.0000 0.0000 43.9414
#
#
#
# Elastic Compliance Matrix: (Units=1/GPa)
#
#
# Indices 1 2 3 4 5 6 
#
# 1 0.014886 -0.004158 -0.002151 0.000000 0.000000 0.000000
# 2 -0.004158 0.008033 -0.004889 0.000000 0.000000 0.000000
# 3 -0.002151 -0.004889 0.012341 0.000000 0.000000 0.000000
# 4 0.000000 0.000000 0.000000 0.031801 0.000000 0.000000
# 5 0.000000 0.000000 0.000000 0.000000 0.033939 0.000000
# 6 0.000000 0.000000 0.000000 0.000000 0.000000 0.022758
#
#
# Mechanical properties :
#
#
# Convention : Reuss Voigt Hill
#
# Bulk Modulus (GPa) = 77.72721 102.14797 89.93759
# Shear Modulus (GPa) = 33.23560 35.92893 34.58226
#
# Velocity S-wave (km/s) = 4.20765 4.37481 4.29204
# Velocity P-wave (km/s) = 8.06290 8.94047 8.51300
#
# Compressibility (1/GPa) = 0.01286551
#
# Stress axis : x y z
#
# Youngs Moduli (GPa) = 67.17617 124.49164 81.02824
#
# Poissons Ratio (x) = 0.51761 0.17427
# Poissons Ratio (y) = 0.27930 0.39614
# Poissons Ratio (z) = 0.14448 0.60863
#
# Static dielectric constant tensor:
#      x y z
#    x 1.632530 0.000000 0.000000 
#    y 0.000000 1.680000 0.000000 
#    z 0.000000 0.000000 1.597590 
# 
# From -- ./inp_files/6602.got.cif
#   From: 2010.05.17/outbox.cif.g08.bks.cpg/sg53_4_cif.got.tgz:6602.got - 2010.06.03 12:45:16.
