data_PCOD9418210
_publ_section_title
;
Structure prediction by ZEFSAII (Michael W. Deem and Ramdas Pophale) SiO2 
 PCOD9418210
Probable space group: P M N A
;
_chemical_formula_sum "Si O2"
_cell_formula_units_Z 48
_cell_length_a 17.806759
_cell_length_b 14.113400
_cell_length_c 8.758250
_cell_angle_alpha 90.000000
_cell_angle_beta 90.000000
_cell_angle_gamma 90.000000
_cell_volume 2201.070074
_symmetry_space_group_name_H-M "P M N A"
_symmetry_group_IT_number 53
_symmetry_cell_setting 'orthorhombic'
loop_
_space_group_symop_operation_xyz
x,y,z
1/2-x,-y,1/2+z
x,-y,-z
1/2-x,y,1/2-z
-x,-y,-z
1/2+x,y,1/2-z
-x,y,z
1/2+x,-y,1/2+z
loop_
_atom_site_type_symbol
_atom_site_label
_atom_site_fract_x
_atom_site_fract_y
_atom_site_fract_z
Si Si1 0.810900 0.569855 0.127187
Si Si2 0.411756 0.742707 0.484731
Si Si3 0.414003 0.556156 0.842735
Si Si4 0.690051 0.934994 0.870271
Si Si5 0.912141 0.768511 0.654133
Si Si6 0.586578 0.940682 0.342767
O O1 0.750000 0.604056 0.250000
O O2 0.857518 0.655254 0.051739
O O3 0.867736 0.501809 0.219504
O O4 0.775353 0.500000 0.000000
O O5 0.500000 0.717965 0.458107
O O6 0.406841 0.776243 0.661177
O O7 0.391925 0.832995 0.380976
O O8 0.500000 0.568261 0.786381
O O9 0.385575 0.661805 0.877061
O O10 0.415548 0.500000 0.000000
O O11 0.750000 0.897118 0.750000
O O12 0.639151 0.847566 0.922905
O O13 0.636633 0.007183 0.780092
O O14 0.726811 0.000000 0.000000
O O15 0.000000 0.779072 0.611458
O O16 0.500000 0.941307 0.291700
O O17 0.589574 0.000000 0.500000
#
# Coordination Sequence:
#
# PCOD9418210 Si02
#       6
#     8   8   8   8   8   8
#     4  12  25  42  63  95 134 176 221 266 322 391
#     4  10  21  40  71 101 127 168 220 271 323 387
#     4  10  22  42  68  97 133 168 212 273 326 381
#     4  12  27  44  64  94 134 176 218 267 328 396
#     4  10  21  42  72 100 125 169 220 269 330 385
#     4  10  20  40  69  97 128 163 210 268 323 382
#
# _framework density 21.807573000000001
#
# number of rings (size 3 to 8) (size 9 to 14) (size 15 to 20)
#    0.000    1.333    3.333    2.000    0.000    4.667 
#    3.000    3.333    0.000    0.000    0.000    0.000 
#    0.000    0.000    0.000    0.000    0.000    0.000 
#
# Total GULP energy -268516.155658 kJ/mol
# GULP energy per Si atom -5594.086576 kJ/mol
# Density = 2.175794 g / cm^3
# Si number density = 21.807573 Si / 1000 Ang^3
#
#
#
# Elastic Constant Matrix: (Units=GPa)
#
#
# Indices 1 2 3 4 5 6 
#
# 1 39.7160 24.5108 -8.9452 0.0000 0.0000 0.0000
# 2 24.5108 98.6843 -5.9261 0.0000 0.0000 0.0000
# 3 -8.9452 -5.9261 16.4657 0.0000 0.0000 0.0000
# 4 0.0000 0.0000 0.0000 32.6087 0.0000 0.0000
# 5 0.0000 0.0000 0.0000 0.0000 -63.6716 0.0000
# 6 0.0000 0.0000 0.0000 0.0000 0.0000 20.6891
#
#
#
# Elastic Compliance Matrix: (Units=1/GPa)
#
#
# Indices 1 2 3 4 5 6 
#
# 1 0.033155 -0.007311 0.015381 0.000000 0.000000 0.000000
# 2 -0.007311 0.011969 0.000336 0.000000 0.000000 0.000000
# 3 0.015381 0.000336 0.069209 0.000000 0.000000 0.000000
# 4 0.000000 0.000000 0.000000 0.030667 0.000000 0.000000
# 5 0.000000 0.000000 0.000000 0.000000 -0.015706 0.000000
# 6 0.000000 0.000000 0.000000 0.000000 0.000000 0.048335
#
#
# Mechanical properties :
#
#
# Convention : Reuss Voigt Hill
#
# Bulk Modulus (GPa) = 7.62521 19.34945 13.48733
# Shear Modulus (GPa) = 24.44587 7.60702 16.02644
#
# Velocity S-wave (km/s) = 3.35174 1.86971 2.71385
# Velocity P-wave (km/s) = 4.29919 3.68146 4.00226
#
# Compressibility (1/GPa) = 0.13114396
#
# Stress axis : x y z
#
# Youngs Moduli (GPa) = 30.16126 83.54603 14.44899
#
# Poissons Ratio (x) = 0.61083 -0.22223
# Poissons Ratio (y) = 0.22052 -0.00485
# Poissons Ratio (z) = -0.46390 -0.02806
#
# Static dielectric constant tensor:
#      x y z
#    x 1.804870 0.000000 0.000000 
#    y 0.000000 1.760410 0.000000 
#    z 0.000000 0.000000 1.803180 
# 
# From -- ./inp_files/10005.got.cif
#   From: 2010.05.17/outbox.cif.g08.bks.cpg/sg53_6_cif.got.tgz:10005.got - 2010.06.03 12:45:16.
