data_PCOD9418491
_publ_section_title
;
Structure prediction by ZEFSAII (Michael W. Deem and Ramdas Pophale) SiO2 
 PCOD9418491
Probable space group: P M N A
;
_chemical_formula_sum "Si O2"
_cell_formula_units_Z 64
_cell_length_a 9.240172
_cell_length_b 15.243417
_cell_length_c 24.280379
_cell_angle_alpha 90.000000
_cell_angle_beta 90.000000
_cell_angle_gamma 90.000000
_cell_volume 3419.934964
_symmetry_space_group_name_H-M "P M N A"
_symmetry_group_IT_number 53
_symmetry_cell_setting 'orthorhombic'
loop_
_space_group_symop_operation_xyz
x,y,z
1/2-x,-y,1/2+z
x,-y,-z
1/2-x,y,1/2-z
-x,-y,-z
1/2+x,y,1/2-z
-x,y,z
1/2+x,-y,1/2+z
loop_
_atom_site_type_symbol
_atom_site_label
_atom_site_fract_x
_atom_site_fract_y
_atom_site_fract_z
Si Si1 0.172861 0.851910 0.105832
Si Si2 0.829905 0.894761 0.505650
Si Si3 0.826296 0.448654 0.876493
Si Si4 0.672038 0.705093 0.305098
Si Si5 0.826688 0.165051 0.117248
Si Si6 0.326592 0.006046 0.307891
Si Si7 0.827126 0.356417 0.092502
Si Si8 0.336431 0.396925 0.983755
O O1 0.257422 0.853545 0.048637
O O2 0.205673 0.768484 0.143906
O O3 0.000000 0.853872 0.094758
O O4 0.208891 0.935723 0.144305
O O5 0.751711 0.864535 0.561364
O O6 0.000000 0.874010 0.508089
O O7 0.813705 0.000000 0.500000
O O8 0.786563 0.393763 0.822535
O O9 0.785670 0.551278 0.879089
O O10 0.753730 0.399310 0.927887
O O11 0.000000 0.443340 0.882730
O O12 0.750000 0.733907 0.250000
O O13 0.500000 0.709267 0.296562
O O14 0.785881 0.100930 0.167130
O O15 0.796095 0.268012 0.125926
O O16 0.000000 0.155112 0.109266
O O17 0.250000 0.988153 0.250000
O O18 0.500000 0.002192 0.299806
O O19 0.000000 0.360140 0.082261
O O20 0.745739 0.351324 0.034076
O O21 0.500000 0.364124 0.976856
O O22 0.343867 0.500000 0.000000
#
# Coordination Sequence:
#
# PCOD9418491 Si02
#       8
#     8   8   8   8   8   8   8   8
#     4  10  21  38  59  82 110 147 186 224 274 336
#     4  11  23  37  56  86 119 149 181 226 283 334
#     4   9  18  34  53  75 104 139 183 227 267 318
#     4  10  22  38  57  81 109 144 188 234 280 333
#     4  10  21  37  57  81 112 152 191 225 271 333
#     4  10  21  37  58  80 105 140 183 229 274 324
#     4   9  18  33  54  76 104 144 185 223 264 318
#     4   9  17  29  47  74 106 137 171 216 269 321
#
# _framework density 18.713806000000002
#
# number of rings (size 3 to 8) (size 9 to 14) (size 15 to 20)
#    0.000    2.250    1.250    1.125    1.750    4.500 
#    0.000    0.625    0.000    0.000    0.000    0.000 
#    0.000    0.000    0.000    0.000    0.000    0.000 
#
# Total GULP energy -357163.781969 kJ/mol
# GULP energy per Si atom -5580.684093 kJ/mol
# Density = 1.867121 g / cm^3
# Si number density = 18.713806 Si / 1000 Ang^3
#
#
#
# Elastic Constant Matrix: (Units=GPa)
#
#
# Indices 1 2 3 4 5 6 
#
# 1 17.9064 18.0597 20.7096 0.0000 0.0000 0.0000
# 2 18.0597 72.7782 5.2688 0.0000 0.0000 0.0000
# 3 20.7096 5.2688 64.4663 0.0000 0.0000 0.0000
# 4 0.0000 0.0000 0.0000 15.4924 0.0000 0.0000
# 5 0.0000 0.0000 0.0000 0.0000 21.3254 0.0000
# 6 0.0000 0.0000 0.0000 0.0000 0.0000 15.1747
#
#
#
# Elastic Compliance Matrix: (Units=1/GPa)
#
#
# Indices 1 2 3 4 5 6 
#
# 1 0.132437 -0.029961 -0.040096 0.000000 0.000000 0.000000
# 2 -0.029961 0.020600 0.007941 0.000000 0.000000 0.000000
# 3 -0.040096 0.007941 0.027744 0.000000 0.000000 0.000000
# 4 0.000000 0.000000 0.000000 0.064548 0.000000 0.000000
# 5 0.000000 0.000000 0.000000 0.000000 0.046892 0.000000
# 6 0.000000 0.000000 0.000000 0.000000 0.000000 0.065899
#
#
# Mechanical properties :
#
#
# Convention : Reuss Voigt Hill
#
# Bulk Modulus (GPa) = 17.68383 27.02522 22.35452
# Shear Modulus (GPa) = 9.97600 17.80601 13.89101
#
# Velocity S-wave (km/s) = 2.31136 3.08797 2.72745
# Velocity P-wave (km/s) = 4.07349 5.21409 4.67868
#
# Compressibility (1/GPa) = 0.05654885
#
# Stress axis : x y z
#
# Youngs Moduli (GPa) = 7.55074 48.54312 36.04409
#
# Poissons Ratio (x) = 1.45441 1.44524
# Poissons Ratio (y) = 0.22623 -0.28624
# Poissons Ratio (z) = 0.30276 -0.38549
#
# Static dielectric constant tensor:
#      x y z
#    x 1.629430 0.000000 0.000000 
#    y 0.000000 1.698230 0.000000 
#    z 0.000000 0.000000 1.594270 
# 
# From -- ./inp_files/34211.got.cif
#   From: 2010.05.17/outbox.cif.g08.bks.cpg/sg53_18_cif.got.tgz:34211.got - 2010.06.03 12:45:16.
