data_PCOD9418529
_publ_section_title
;
Structure prediction by ZEFSAII (Michael W. Deem and Ramdas Pophale) SiO2 
 PCOD9418529
Probable space group: P M N A
;
_chemical_formula_sum "Si O2"
_cell_formula_units_Z 40
_cell_length_a 8.575961
_cell_length_b 26.142596
_cell_length_c 9.811263
_cell_angle_alpha 90.000000
_cell_angle_beta 90.000000
_cell_angle_gamma 90.000000
_cell_volume 2199.664401
_symmetry_space_group_name_H-M "P M N A"
_symmetry_group_IT_number 53
_symmetry_cell_setting 'orthorhombic'
loop_
_space_group_symop_operation_xyz
x,y,z
1/2-x,-y,1/2+z
x,-y,-z
1/2-x,y,1/2-z
-x,-y,-z
1/2+x,y,1/2-z
-x,y,z
1/2+x,-y,1/2+z
loop_
_atom_site_type_symbol
_atom_site_label
_atom_site_fract_x
_atom_site_fract_y
_atom_site_fract_z
Si Si1 0.312907 0.953591 0.900572
Si Si2 0.686133 0.158128 0.403005
Si Si3 0.188120 0.339238 0.401993
Si Si4 0.687515 0.246924 0.903677
Si Si5 0.688352 0.455084 0.098911
O O1 0.250000 0.964938 0.750000
O O2 0.500000 0.948296 0.896620
O O3 0.240652 0.899078 0.941400
O O4 0.271805 0.000000 0.000000
O O5 0.750000 0.168369 0.250000
O O6 0.500000 0.160530 0.399190
O O7 0.752045 0.198752 0.509811
O O8 0.250000 0.327787 0.250000
O O9 0.238521 0.297442 0.512224
O O10 0.236890 0.397199 0.439467
O O11 0.000000 0.338128 0.395725
O O12 0.750000 0.246833 0.750000
O O13 0.500000 0.245853 0.900425
O O14 0.750000 0.464484 0.250000
O O15 0.500000 0.455836 0.100178
O O16 0.743555 0.500000 0.000000
#
# Coordination Sequence:
#
# PCOD9418529 Si02
#       5
#     8   8   8   8   8
#     4  10  21  37  58  84 113 145 183 224 267 318
#     4  11  22  38  60  83 110 145 184 224 269 322
#     4   9  19  35  55  77 103 139 179 219 264 319
#     4  11  23  38  55  79 110 141 179 225 275 325
#     4   9  18  33  52  76 106 138 175 218 264 316
#
# _framework density 18.184593
#
# number of rings (size 3 to 8) (size 9 to 14) (size 15 to 20)
#    0.000    2.000    0.000    4.800    0.000    6.800 
#    0.000    2.000    0.000    0.000    0.000    0.000 
#    0.000    0.000    0.000    0.000    0.000    0.000 
#
# Total GULP energy -223364.671782 kJ/mol
# GULP energy per Si atom -5584.116795 kJ/mol
# Density = 1.814320 g / cm^3
# Si number density = 18.184593 Si / 1000 Ang^3
#
#
#
# Elastic Constant Matrix: (Units=GPa)
#
#
# Indices 1 2 3 4 5 6 
#
# 1 60.9035 55.6959 46.3091 0.0000 0.0000 0.0000
# 2 55.6959 184.0051 144.5213 0.0000 0.0000 0.0000
# 3 46.3091 144.5213 144.0568 0.0000 0.0000 0.0000
# 4 0.0000 0.0000 0.0000 48.5507 0.0000 0.0000
# 5 0.0000 0.0000 0.0000 0.0000 33.0088 0.0000
# 6 0.0000 0.0000 0.0000 0.0000 0.0000 64.4953
#
#
#
# Elastic Compliance Matrix: (Units=1/GPa)
#
#
# Indices 1 2 3 4 5 6 
#
# 1 0.022816 -0.005402 -0.001915 0.000000 0.000000 0.000000
# 2 -0.005402 0.026908 -0.025258 0.000000 0.000000 0.000000
# 3 -0.001915 -0.025258 0.032897 0.000000 0.000000 0.000000
# 4 0.000000 0.000000 0.000000 0.020597 0.000000 0.000000
# 5 0.000000 0.000000 0.000000 0.000000 0.030295 0.000000
# 6 0.000000 0.000000 0.000000 0.000000 0.000000 0.015505
#
#
# Mechanical properties :
#
#
# Convention : Reuss Voigt Hill
#
# Bulk Modulus (GPa) = 57.24053 98.00200 77.62127
# Shear Modulus (GPa) = 22.72807 38.70690 30.71748
#
# Velocity S-wave (km/s) = 3.53916 4.61863 4.11445
# Velocity P-wave (km/s) = 6.94599 9.08032 8.08390
#
# Compressibility (1/GPa) = 0.01747014
#
# Stress axis : x y z
#
# Youngs Moduli (GPa) = 43.82979 37.16347 30.39758
#
# Poissons Ratio (x) = 0.20074 0.05822
# Poissons Ratio (y) = 0.23675 0.76780
# Poissons Ratio (z) = 0.08395 0.93869
#
# Static dielectric constant tensor:
#      x y z
#    x 1.613660 0.000000 0.000000 
#    y 0.000000 1.633080 0.000000 
#    z 0.000000 0.000000 1.581260 
# 
# From -- ./inp_files/6309.got.cif
#   From: 2010.05.17/outbox.cif.g08.bks.cpg/sg53_4_cif.got.tgz:6309.got - 2010.06.03 12:45:16.
