data_PCOD9418168
_publ_section_title
;
Structure prediction by ZEFSAII (Michael W. Deem and Ramdas Pophale) SiO2 
 PCOD9418168
Probable space group: P M N A
;
_chemical_formula_sum "Si O2"
_cell_formula_units_Z 34
_cell_length_a 21.971864
_cell_length_b 8.535486
_cell_length_c 8.995148
_cell_angle_alpha 90.000000
_cell_angle_beta 90.000000
_cell_angle_gamma 90.000000
_cell_volume 1686.954891
_symmetry_space_group_name_H-M "P M N A"
_symmetry_group_IT_number 53
_symmetry_cell_setting 'orthorhombic'
loop_
_space_group_symop_operation_xyz
x,y,z
1/2-x,-y,1/2+z
x,-y,-z
1/2-x,y,1/2-z
-x,-y,-z
1/2+x,y,1/2-z
-x,y,z
1/2+x,-y,1/2+z
loop_
_atom_site_type_symbol
_atom_site_label
_atom_site_fract_x
_atom_site_fract_y
_atom_site_fract_z
Si Si1 0.500000 0.342428 0.904571
Si Si2 0.500000 0.916624 0.663848
Si Si3 0.000000 0.000000 0.500000
Si Si4 0.121287 0.263533 0.112819
Si Si5 0.291817 0.000000 0.500000
Si Si6 0.750000 0.222594 0.750000
Si Si7 0.624167 0.602917 0.279449
O O1 0.563469 0.352161 0.810971
O O2 0.500000 0.190636 0.010706
O O3 0.500000 0.500000 0.000000
O O4 0.500000 0.019732 0.813199
O O5 0.440767 0.810600 0.665740
O O6 0.500000 0.000000 0.500000
O O7 0.135005 0.415986 0.211155
O O8 0.114436 0.329360 0.945489
O O9 0.168008 0.118864 0.100183
O O10 0.254900 0.112007 0.607278
O O11 0.811825 0.321127 0.731159
#
# Coordination Sequence:
#
# PCOD9418168 Si02
#       7
#     4   4   2   8   4   4   8
#     4  12  26  47  62 106 148 186 234 305 367 439
#     4  12  22  41  70 105 142 184 228 301 362 432
#     4  12  28  38  72 108 146 190 250 288 370 446
#     4  10  20  39  70  97 130 182 234 292 357 437
#     4  10  22  42  66  97 132 173 248 284 358 441
#     4  10  24  44  64  98 130 184 232 300 350 438
#     4  10  22  43  67  96 140 181 240 292 365 437
#
# _framework density 20.154657
#
# number of rings (size 3 to 8) (size 9 to 14) (size 15 to 20)
#    0.000    1.412    1.176    4.235    3.294    3.765 
#   12.706    0.000    0.000    0.000    0.000    0.000 
#    0.000    0.000    0.000    0.000    0.000    0.000 
#
# Total GULP energy -189289.282637 kJ/mol
# GULP energy per Si atom -5567.331842 kJ/mol
# Density = 2.010878 g / cm^3
# Si number density = 20.154657 Si / 1000 Ang^3
#
#
#
# Elastic Constant Matrix: (Units=GPa)
#
#
# Indices 1 2 3 4 5 6 
#
# 1 154.5801 71.8538 67.4599 0.0000 0.0000 0.0000
# 2 71.8538 160.2684 53.5380 0.0000 0.0000 0.0000
# 3 67.4599 53.5380 75.0831 0.0000 0.0000 0.0000
# 4 0.0000 0.0000 0.0000 29.0217 0.0000 0.0000
# 5 0.0000 0.0000 0.0000 0.0000 71.0104 0.0000
# 6 0.0000 0.0000 0.0000 0.0000 0.0000-2127.0321
#
#
#
# Elastic Compliance Matrix: (Units=1/GPa)
#
#
# Indices 1 2 3 4 5 6 
#
# 1 0.011192 -0.002177 -0.008503 0.000000 0.000000 0.000000
# 2 -0.002177 0.008614 -0.004186 0.000000 0.000000 0.000000
# 3 -0.008503 -0.004186 0.023943 0.000000 0.000000 0.000000
# 4 0.000000 0.000000 0.000000 0.034457 0.000000 0.000000
# 5 0.000000 0.000000 0.000000 0.000000 0.014082 0.000000
# 6 0.000000 0.000000 0.000000 0.000000 0.000000 -0.000470
#
#
# Mechanical properties :
#
#
# Convention : Reuss Voigt Hill
#
# Bulk Modulus (GPa) = 71.34517 86.18166 78.76342
# Shear Modulus (GPa) = 39.61215 -392.26135 -176.32460
#
# Velocity S-wave (km/s) = 4.43810 -13.96596 -9.36353
# Velocity P-wave (km/s) = 7.85736 14.73809 8.81684
#
# Compressibility (1/GPa) = 0.01401636
#
# Stress axis : x y z
#
# Youngs Moduli (GPa) = 89.34896 116.08970 41.76529
#
# Poissons Ratio (x) = 0.25276 0.35514
# Poissons Ratio (y) = 0.19454 0.17483
# Poissons Ratio (z) = 0.75976 0.48595
#
# Static dielectric constant tensor:
#      x y z
#    x 1.671160 0.000000 0.000000 
#    y 0.000000 1.727250 0.000000 
#    z 0.000000 0.000000 1.743370 
# 
# From -- ./inp_files/10644.got.cif
#   From: 2010.05.17/outbox.cif.g08.bks.cpg/sg53_6_cif.got.tgz:10644.got - 2010.06.03 12:45:16.
