data_PCOD9418277
_publ_section_title
;
Structure prediction by ZEFSAII (Michael W. Deem and Ramdas Pophale) SiO2 
 PCOD9418277
Probable space group: P M N A
;
_chemical_formula_sum "Si O2"
_cell_formula_units_Z 56
_cell_length_a 24.700948
_cell_length_b 8.089993
_cell_length_c 15.875176
_cell_angle_alpha 90.000000
_cell_angle_beta 90.000000
_cell_angle_gamma 90.000000
_cell_volume 3172.344301
_symmetry_space_group_name_H-M "P M N A"
_symmetry_group_IT_number 53
_symmetry_cell_setting 'orthorhombic'
loop_
_space_group_symop_operation_xyz
x,y,z
1/2-x,-y,1/2+z
x,-y,-z
1/2-x,y,1/2-z
-x,-y,-z
1/2+x,y,1/2-z
-x,y,z
1/2+x,-y,1/2+z
loop_
_atom_site_type_symbol
_atom_site_label
_atom_site_fract_x
_atom_site_fract_y
_atom_site_fract_z
Si Si1 0.939578 0.252735 0.442082
Si Si2 0.306004 0.711190 0.699284
Si Si3 0.264342 0.180164 0.461542
Si Si4 0.562040 0.621997 0.131595
Si Si5 0.339597 0.862323 0.857796
Si Si6 0.720383 0.350929 0.634187
Si Si7 0.169751 0.769490 0.292946
O O1 0.934012 0.288283 0.540963
O O2 0.932157 0.428432 0.393527
O O3 0.894332 0.131502 0.409484
O O4 0.000000 0.192379 0.425353
O O5 0.250000 0.741927 0.750000
O O6 0.306082 0.821324 0.615897
O O7 0.347711 0.756889 0.772074
O O8 0.303053 0.527794 0.661585
O O9 0.206387 0.218322 0.417695
O O10 0.280399 0.303282 0.536527
O O11 0.259091 0.000000 0.500000
O O12 0.500000 0.645672 0.163459
O O13 0.611020 0.691378 0.188302
O O14 0.324093 0.047321 0.830720
O O15 0.783286 0.339961 0.662639
O O16 0.686993 0.227684 0.694950
#
# Coordination Sequence:
#
# PCOD9418277 Si02
#       7
#     8   8   8   8   8   8   8
#     4   9  19  34  52  73 102 135 179 218 254 307
#     4  10  21  35  51  70  99 139 173 213 249 315
#     4  11  21  33  50  74 107 135 170 214 260 311
#     4   9  19  35  52  74 101 138 179 219 256 305
#     4  11  22  34  51  75 106 142 174 212 269 306
#     4  11  21  35  50  76 103 139 179 212 258 318
#     4  11  21  33  51  73 106 138 171 218 259 308
#
# _framework density 17.652560999999999
#
# number of rings (size 3 to 8) (size 9 to 14) (size 15 to 20)
#    0.000    1.714    2.857    3.857    6.000    0.571 
#    0.000    1.429    0.000    0.000    0.000    1.000 
#    0.000    8.000    0.000    0.000    0.000    0.000 
#
# Total GULP energy -312379.148596 kJ/mol
# GULP energy per Si atom -5578.199082 kJ/mol
# Density = 1.761238 g / cm^3
# Si number density = 17.652561 Si / 1000 Ang^3
#
#
#
# Elastic Constant Matrix: (Units=GPa)
#
#
# Indices 1 2 3 4 5 6 
#
# 1 79.7064 11.7241 29.7972 0.0000 0.0000 0.0000
# 2 11.7241 48.0043 24.0625 0.0000 0.0000 0.0000
# 3 29.7972 24.0625 100.5496 0.0000 0.0000 0.0000
# 4 0.0000 0.0000 0.0000 30.6903 0.0000 0.0000
# 5 0.0000 0.0000 0.0000 0.0000 25.0596 0.0000
# 6 0.0000 0.0000 0.0000 0.0000 0.0000 17.5440
#
#
#
# Elastic Compliance Matrix: (Units=1/GPa)
#
#
# Indices 1 2 3 4 5 6 
#
# 1 0.014209 -0.001545 -0.003841 0.000000 0.000000 0.000000
# 2 -0.001545 0.023839 -0.005247 0.000000 0.000000 0.000000
# 3 -0.003841 -0.005247 0.012339 0.000000 0.000000 0.000000
# 4 0.000000 0.000000 0.000000 0.032584 0.000000 0.000000
# 5 0.000000 0.000000 0.000000 0.000000 0.039905 0.000000
# 6 0.000000 0.000000 0.000000 0.000000 0.000000 0.056999
#
#
# Mechanical properties :
#
#
# Convention : Reuss Voigt Hill
#
# Bulk Modulus (GPa) = 34.33920 39.93645 37.13782
# Shear Modulus (GPa) = 23.71369 25.50387 24.60878
#
# Velocity S-wave (km/s) = 3.66916 3.80513 3.73777
# Velocity P-wave (km/s) = 6.11926 6.47905 6.30172
#
# Compressibility (1/GPa) = 0.02912124
#
# Stress axis : x y z
#
# Youngs Moduli (GPa) = 70.37673 41.94826 81.04190
#
# Poissons Ratio (x) = 0.06481 0.31129
# Poissons Ratio (y) = 0.10873 0.42523
# Poissons Ratio (z) = 0.27032 0.22010
#
# Static dielectric constant tensor:
#      x y z
#    x 1.604920 0.000000 0.000000 
#    y 0.000000 1.677120 0.000000 
#    z 0.000000 0.000000 1.635660 
# 
# From -- ./inp_files/24333.got.cif
#   From: 2010.05.17/outbox.cif.g08.bks.cpg/sg53_13_cif.got.tgz:24333.got - 2010.06.03 12:45:16.
