data_PCOD9418339
_publ_section_title
;
Structure prediction by ZEFSAII (Michael W. Deem and Ramdas Pophale) SiO2 
 PCOD9418339
Probable space group: P M N A
;
_chemical_formula_sum "Si O2"
_cell_formula_units_Z 32
_cell_length_a 27.224642
_cell_length_b 8.283742
_cell_length_c 6.956714
_cell_angle_alpha 90.000000
_cell_angle_beta 90.000000
_cell_angle_gamma 90.000000
_cell_volume 1568.891431
_symmetry_space_group_name_H-M "P M N A"
_symmetry_group_IT_number 53
_symmetry_cell_setting 'orthorhombic'
loop_
_space_group_symop_operation_xyz
x,y,z
1/2-x,-y,1/2+z
x,-y,-z
1/2-x,y,1/2-z
-x,-y,-z
1/2+x,y,1/2-z
-x,y,z
1/2+x,-y,1/2+z
loop_
_atom_site_type_symbol
_atom_site_label
_atom_site_fract_x
_atom_site_fract_y
_atom_site_fract_z
Si Si1 0.617953 0.836721 0.913824
Si Si2 0.195073 0.720084 0.824566
Si Si3 0.349971 0.627867 0.276318
Si Si4 0.555420 0.448453 0.224375
O O1 0.642571 0.738275 0.090854
O O2 0.662504 0.861476 0.766714
O O3 0.579471 0.728229 0.795409
O O4 0.596764 0.000000 0.000000
O O5 0.250000 0.738529 0.750000
O O6 0.176334 0.545213 0.742997
O O7 0.180761 0.705978 0.049503
O O8 0.406374 0.573209 0.321253
O O9 0.500000 0.448426 0.296901
O O10 0.553837 0.500000 0.000000
#
# Coordination Sequence:
#
# PCOD9418339 Si02
#       4
#     8   8   8   8
#     4  10  21  36  51  81 120 148 178 228 280 339
#     4  10  21  36  56  79 101 144 195 233 280 327
#     4   9  20  35  58  83 108 141 186 240 273 324
#     4   8  15  33  60  85 111 147 189 231 279 329
#
# _framework density 20.396567999999998
#
# number of rings (size 3 to 8) (size 9 to 14) (size 15 to 20)
#    0.000    2.750    0.000    2.250    7.000    1.500 
#    4.500   10.000    0.000    0.000    0.000   22.750 
#    0.000    0.000    0.000    0.000    0.000    0.000 
#
# Total GULP energy -178140.779682 kJ/mol
# GULP energy per Si atom -5566.899365 kJ/mol
# Density = 2.035014 g / cm^3
# Si number density = 20.396568 Si / 1000 Ang^3
#
#
#
# Elastic Constant Matrix: (Units=GPa)
#
#
# Indices 1 2 3 4 5 6 
#
# 1 153.3297 -7.4086 16.5991 0.0000 0.0000 0.0000
# 2 -7.4086 19.0954 2.5671 0.0000 0.0000 0.0000
# 3 16.5991 2.5671 97.8925 0.0000 0.0000 0.0000
# 4 0.0000 0.0000 0.0000 22.6699 0.0000 0.0000
# 5 0.0000 0.0000 0.0000 0.0000 108.9863 0.0000
# 6 0.0000 0.0000 0.0000 0.0000 0.0000 7.8625
#
#
#
# Elastic Compliance Matrix: (Units=1/GPa)
#
#
# Indices 1 2 3 4 5 6 
#
# 1 0.006790 0.002799 -0.001225 0.000000 0.000000 0.000000
# 2 0.002799 0.053708 -0.001883 0.000000 0.000000 0.000000
# 3 -0.001225 -0.001883 0.010472 0.000000 0.000000 0.000000
# 4 0.000000 0.000000 0.000000 0.044111 0.000000 0.000000
# 5 0.000000 0.000000 0.000000 0.000000 0.009175 0.000000
# 6 0.000000 0.000000 0.000000 0.000000 0.000000 0.127187
#
#
# Mechanical properties :
#
#
# Convention : Reuss Voigt Hill
#
# Bulk Modulus (GPa) = 14.21422 32.64808 23.43115
# Shear Modulus (GPa) = 18.14808 45.14108 31.64458
#
# Velocity S-wave (km/s) = 2.98612 4.70954 3.94314
# Velocity P-wave (km/s) = 4.34434 6.75384 5.67837
#
# Compressibility (1/GPa) = 0.07035207
#
# Stress axis : x y z
#
# Youngs Moduli (GPa) = 147.28163 18.61934 95.48969
#
# Poissons Ratio (x) = -0.05211 0.11695
# Poissons Ratio (y) = -0.41223 0.17981
# Poissons Ratio (z) = 0.18037 0.03506
#
# Static dielectric constant tensor:
#      x y z
#    x 1.755180 0.000000 0.000000 
#    y 0.000000 1.749870 0.000000 
#    z 0.000000 0.000000 1.834070 
# 
# From -- ./inp_files/11450.got.cif
#   From: 2010.05.17/outbox.cif.g08.bks.cpg/sg53_6_cif.got.tgz:11450.got - 2010.06.03 12:45:16.
