data_PCOD9418629
_publ_section_title
;
Structure prediction by ZEFSAII (Michael W. Deem and Ramdas Pophale) SiO2 
 PCOD9418629
Probable space group: P M N A
;
_chemical_formula_sum "Si O2"
_cell_formula_units_Z 48
_cell_length_a 13.867316
_cell_length_b 10.026907
_cell_length_c 17.218219
_cell_angle_alpha 90.000000
_cell_angle_beta 90.000000
_cell_angle_gamma 90.000000
_cell_volume 2394.129436
_symmetry_space_group_name_H-M "P M N A"
_symmetry_group_IT_number 53
_symmetry_cell_setting 'orthorhombic'
loop_
_space_group_symop_operation_xyz
x,y,z
1/2-x,-y,1/2+z
x,-y,-z
1/2-x,y,1/2-z
-x,-y,-z
1/2+x,y,1/2-z
-x,y,z
1/2+x,-y,1/2+z
loop_
_atom_site_type_symbol
_atom_site_label
_atom_site_fract_x
_atom_site_fract_y
_atom_site_fract_z
Si Si1 0.727813 0.308251 0.159109
Si Si2 0.887715 0.538714 0.914421
Si Si3 0.110288 0.451492 0.588227
Si Si4 0.316790 0.803958 0.149694
Si Si5 0.612149 0.733805 0.317543
Si Si6 0.112909 0.934545 0.582498
O O1 0.750000 0.285986 0.250000
O O2 0.829078 0.338239 0.118285
O O3 0.667738 0.444408 0.142136
O O4 0.672136 0.189046 0.116280
O O5 0.878334 0.411104 0.857580
O O6 0.000000 0.570809 0.921409
O O7 0.851047 0.500000 0.000000
O O8 0.110909 0.500000 0.500000
O O9 0.155316 0.304454 0.586017
O O10 0.000000 0.443633 0.615398
O O11 0.201036 0.821240 0.148923
O O12 0.357378 0.733485 0.227526
O O13 0.370857 0.942406 0.140832
O O14 0.500000 0.775543 0.326926
O O15 0.000000 0.898319 0.575768
O O16 0.143705 0.000000 0.500000
#
# Coordination Sequence:
#
# PCOD9418629 Si02
#       6
#     8   8   8   8   8   8
#     4  12  25  40  62  98 134 172 206 265 338 394
#     4  10  22  41  65  95 129 168 211 260 316 378
#     4  11  22  38  65  96 125 163 220 277 324 384
#     4  11  22  39  65  93 122 165 213 263 321 376
#     4  10  21  37  64  94 123 159 209 263 310 372
#     4  11  26  46  66  91 128 172 218 272 331 387
#
# _framework density 20.049040999999999
#
# number of rings (size 3 to 8) (size 9 to 14) (size 15 to 20)
#    0.000    1.167    1.667    4.500    4.667    5.333 
#    0.000    0.833    0.000    1.000    0.000    0.000 
#    0.000    0.000    0.000    0.000    0.000    0.000 
#
# Total GULP energy -268024.748154 kJ/mol
# GULP energy per Si atom -5583.848920 kJ/mol
# Density = 2.000341 g / cm^3
# Si number density = 20.049041 Si / 1000 Ang^3
#
#
#
# Elastic Constant Matrix: (Units=GPa)
#
#
# Indices 1 2 3 4 5 6 
#
# 1 106.0723 15.5736 36.7428 0.0000 0.0000 0.0000
# 2 15.5736 77.4487 35.0362 0.0000 0.0000 0.0000
# 3 36.7428 35.0362 96.0141 0.0000 0.0000 0.0000
# 4 0.0000 0.0000 0.0000 16.3850 0.0000 0.0000
# 5 0.0000 0.0000 0.0000 0.0000 18.8437 0.0000
# 6 0.0000 0.0000 0.0000 0.0000 0.0000 20.9658
#
#
#
# Elastic Compliance Matrix: (Units=1/GPa)
#
#
# Indices 1 2 3 4 5 6 
#
# 1 0.010877 -0.000364 -0.004029 0.000000 0.000000 0.000000
# 2 -0.000364 0.015477 -0.005508 0.000000 0.000000 0.000000
# 3 -0.004029 -0.005508 0.013967 0.000000 0.000000 0.000000
# 4 0.000000 0.000000 0.000000 0.061031 0.000000 0.000000
# 5 0.000000 0.000000 0.000000 0.000000 0.053068 0.000000
# 6 0.000000 0.000000 0.000000 0.000000 0.000000 0.047697
#
#
# Mechanical properties :
#
#
# Convention : Reuss Voigt Hill
#
# Bulk Modulus (GPa) = 48.74033 50.47116 49.60574
# Shear Modulus (GPa) = 21.85701 24.05107 22.95404
#
# Velocity S-wave (km/s) = 3.30537 3.46730 3.38730
# Velocity P-wave (km/s) = 6.23944 6.42324 6.33201
#
# Compressibility (1/GPa) = 0.02051689
#
# Stress axis : x y z
#
# Youngs Moduli (GPa) = 91.93898 64.61276 71.59693
#
# Poissons Ratio (x) = 0.02354 0.28849
# Poissons Ratio (y) = 0.03349 0.39437
# Poissons Ratio (z) = 0.37046 0.35590
#
# Static dielectric constant tensor:
#      x y z
#    x 1.743650 0.000000 0.000000 
#    y 0.000000 1.682430 0.000000 
#    z 0.000000 0.000000 1.778650 
# 
# From -- ./inp_files/28305.got.cif
#   From: 2010.05.17/outbox.cif.g08.bks.cpg/sg53_15_cif.got.tgz:28305.got - 2010.06.03 12:45:16.
