data_PCOD9418890
_publ_section_title
;
Structure prediction by ZEFSAII (Michael W. Deem and Ramdas Pophale) SiO2 
 PCOD9418890
Probable space group: P M N A
;
_chemical_formula_sum "Si O2"
_cell_formula_units_Z 56
_cell_length_a 14.235917
_cell_length_b 8.286672
_cell_length_c 20.291610
_cell_angle_alpha 90.000000
_cell_angle_beta 90.000000
_cell_angle_gamma 90.000000
_cell_volume 2393.768254
_symmetry_space_group_name_H-M "P M N A"
_symmetry_group_IT_number 53
_symmetry_cell_setting 'orthorhombic'
loop_
_space_group_symop_operation_xyz
x,y,z
1/2-x,-y,1/2+z
x,-y,-z
1/2-x,y,1/2-z
-x,-y,-z
1/2+x,y,1/2-z
-x,y,z
1/2+x,-y,1/2+z
loop_
_atom_site_type_symbol
_atom_site_label
_atom_site_fract_x
_atom_site_fract_y
_atom_site_fract_z
Si Si1 0.139671 0.329942 0.266396
Si Si2 0.395796 0.198644 0.087588
Si Si3 0.687249 0.816129 0.393654
Si Si4 0.601272 0.173910 0.872789
Si Si5 0.605098 0.848707 0.636800
Si Si6 0.293948 0.319352 0.473522
Si Si7 0.137984 0.691295 0.239103
O O1 0.250000 0.333367 0.250000
O O2 0.119823 0.274499 0.340141
O O3 0.101743 0.207512 0.211988
O O4 0.105046 0.512388 0.256496
O O5 0.500000 0.242954 0.063289
O O6 0.310823 0.256674 0.042280
O O7 0.394782 0.005887 0.098201
O O8 0.796151 0.754552 0.390095
O O9 0.660010 0.787279 0.468656
O O10 0.625855 0.729317 0.337633
O O11 0.676400 0.003306 0.374412
O O12 0.500000 0.246251 0.893874
O O13 0.600465 0.182640 0.792896
O O14 0.500000 0.895056 0.615886
O O15 0.645773 0.703589 0.592609
O O16 0.291980 0.500000 0.500000
O O17 0.250000 0.697393 0.250000
#
# Coordination Sequence:
#
# PCOD9418890 Si02
#       7
#     8   8   8   8   8   8   8
#     4  11  20  41  70 101 139 179 218 278 342 398
#     4  11  24  42  67 102 139 179 224 275 337 405
#     4  11  23  44  66  95 132 179 224 274 332 401
#     4  10  21  39  66  99 134 171 217 272 331 396
#     4  12  26  45  71 100 130 174 228 285 341 401
#     4  12  27  46  68  93 135 184 226 279 335 403
#     4   9  21  37  65 100 135 175 219 272 331 388
#
# _framework density 23.394078
#
# number of rings (size 3 to 8) (size 9 to 14) (size 15 to 20)
#    0.000    1.143    2.857    2.571    4.000    6.286 
#    0.000    2.857    0.000    0.000    0.000    0.000 
#    0.000    0.000    0.000    0.000    0.000    0.000 
#
# Total GULP energy -313085.465657 kJ/mol
# GULP energy per Si atom -5590.811887 kJ/mol
# Density = 2.334083 g / cm^3
# Si number density = 23.394078 Si / 1000 Ang^3
#
#
#
# Elastic Constant Matrix: (Units=GPa)
#
#
# Indices 1 2 3 4 5 6 
#
# 1 102.3883 -24.3277 -9.4775 0.0000 0.0000 0.0000
# 2 -24.3277 50.4547 16.8651 0.0000 0.0000 0.0000
# 3 -9.4775 16.8651 119.4555 0.0000 0.0000 0.0000
# 4 0.0000 0.0000 0.0000 33.3046 0.0000 0.0000
# 5 0.0000 0.0000 0.0000 0.0000 -37.8600 0.0000
# 6 0.0000 0.0000 0.0000 0.0000 0.0000 -18.5535
#
#
#
# Elastic Compliance Matrix: (Units=1/GPa)
#
#
# Indices 1 2 3 4 5 6 
#
# 1 0.011032 0.005276 0.000130 0.000000 0.000000 0.000000
# 2 0.005276 0.023324 -0.002874 0.000000 0.000000 0.000000
# 3 0.000130 -0.002874 0.008787 0.000000 0.000000 0.000000
# 4 0.000000 0.000000 0.000000 0.030026 0.000000 0.000000
# 5 0.000000 0.000000 0.000000 0.000000 -0.026413 0.000000
# 6 0.000000 0.000000 0.000000 0.000000 0.000000 -0.053898
#
#
# Mechanical properties :
#
#
# Convention : Reuss Voigt Hill
#
# Bulk Modulus (GPa) = 20.74342 26.49091 23.61716
# Shear Modulus (GPa) = 1293.87247 14.66080 654.26664
#
# Velocity S-wave (km/s) = 23.54310 2.50609 16.74154
# Velocity P-wave (km/s) = 27.34818 4.44098 19.59139
#
# Compressibility (1/GPa) = 0.04820806
#
# Stress axis : x y z
#
# Youngs Moduli (GPa) = 90.64229 42.87350 113.79819
#
# Poissons Ratio (x) = -0.22620 -0.01484
# Poissons Ratio (y) = -0.47822 0.32710
# Poissons Ratio (z) = -0.01182 0.12324
#
# Static dielectric constant tensor:
#      x y z
#    x 1.937420 0.000000 0.000000 
#    y 0.000000 1.855960 0.000000 
#    z 0.000000 0.000000 1.862120 
# 
# From -- ./inp_files/32440.got.cif
#   From: 2010.05.17/outbox.cif.g08.bks.cpg/sg53_17_cif.got.tgz:32440.got - 2010.06.03 12:45:16.
