data_PCOD9418561
_publ_section_title
;
Structure prediction by ZEFSAII (Michael W. Deem and Ramdas Pophale) SiO2 
 PCOD9418561
Probable space group: P M N A
;
_chemical_formula_sum "Si O2"
_cell_formula_units_Z 56
_cell_length_a 15.299671
_cell_length_b 22.019228
_cell_length_c 8.901126
_cell_angle_alpha 90.000000
_cell_angle_beta 90.000000
_cell_angle_gamma 90.000000
_cell_volume 2998.673137
_symmetry_space_group_name_H-M "P M N A"
_symmetry_group_IT_number 53
_symmetry_cell_setting 'orthorhombic'
loop_
_space_group_symop_operation_xyz
x,y,z
1/2-x,-y,1/2+z
x,-y,-z
1/2-x,y,1/2-z
-x,-y,-z
1/2+x,y,1/2-z
-x,y,z
1/2+x,-y,1/2+z
loop_
_atom_site_type_symbol
_atom_site_label
_atom_site_fract_x
_atom_site_fract_y
_atom_site_fract_z
Si Si1 0.261580 0.934465 0.077632
Si Si2 0.601313 0.742774 0.891299
Si Si3 0.897649 0.431914 0.438531
Si Si4 0.766471 0.335515 0.572539
Si Si5 0.101481 0.638014 0.857587
Si Si6 0.903547 0.068045 0.069236
Si Si7 0.100569 0.118458 0.383593
O O1 0.250000 0.944060 0.250000
O O2 0.175093 0.901257 0.017069
O O3 0.343940 0.896752 0.027976
O O4 0.269237 0.000000 0.000000
O O5 0.500000 0.739531 0.951034
O O6 0.605006 0.696625 0.751815
O O7 0.615413 0.811848 0.839192
O O8 0.678185 0.721300 0.003684
O O9 0.888474 0.500000 0.500000
O O10 0.833103 0.390302 0.534650
O O11 0.879420 0.417316 0.261162
O O12 0.000000 0.414295 0.458422
O O13 0.750000 0.329119 0.750000
O O14 0.676284 0.351087 0.482400
O O15 0.000000 0.631612 0.911503
O O16 0.000000 0.095181 0.052968
O O17 0.879790 0.073466 0.244564
O O18 0.907883 0.000000 0.000000
O O19 0.000000 0.109874 0.419319
#
# Coordination Sequence:
#
# PCOD9418561 Si02
#       7
#     8   8   8   8   8   8   8
#     4  11  22  35  53  77 106 139 172 210 259 317
#     4   9  19  38  59  78 103 139 185 229 272 327
#     4   9  18  35  58  82 111 150 194 238 283 331
#     4  11  22  33  54  84 115 151 186 230 285 332
#     4   9  19  36  57  80 109 147 189 231 275 329
#     4   9  18  34  54  76 103 133 168 212 261 315
#     4  10  21  37  59  82 104 137 178 222 273 329
#
# _framework density 18.674927
#
# number of rings (size 3 to 8) (size 9 to 14) (size 15 to 20)
#    0.000    2.286    0.000    5.143    0.000    6.000 
#    0.000    0.000    0.000    6.429    0.000    0.000 
#    0.000    0.000    0.000    0.000    0.000    0.000 
#
# Total GULP energy -311841.878029 kJ/mol
# GULP energy per Si atom -5568.604965 kJ/mol
# Density = 1.863242 g / cm^3
# Si number density = 18.674927 Si / 1000 Ang^3
#
#
#
# Elastic Constant Matrix: (Units=GPa)
#
#
# Indices 1 2 3 4 5 6 
#
# 1 108.1597 28.1591 75.5705 0.0000 0.0000 0.0000
# 2 28.1591 60.5204 34.1446 0.0000 0.0000 0.0000
# 3 75.5705 34.1446 126.5721 0.0000 0.0000 0.0000
# 4 0.0000 0.0000 0.0000 6.5963 0.0000 0.0000
# 5 0.0000 0.0000 0.0000 0.0000 2.1551 0.0000
# 6 0.0000 0.0000 0.0000 0.0000 0.0000 31.6022
#
#
#
# Elastic Compliance Matrix: (Units=1/GPa)
#
#
# Indices 1 2 3 4 5 6 
#
# 1 0.016165 -0.002449 -0.008991 0.000000 0.000000 0.000000
# 2 -0.002449 0.019861 -0.003896 0.000000 0.000000 0.000000
# 3 -0.008991 -0.003896 0.014319 0.000000 0.000000 0.000000
# 4 0.000000 0.000000 0.000000 0.151601 0.000000 0.000000
# 5 0.000000 0.000000 0.000000 0.000000 0.464006 0.000000
# 6 0.000000 0.000000 0.000000 0.000000 0.000000 0.031643
#
#
# Mechanical properties :
#
#
# Convention : Reuss Voigt Hill
#
# Bulk Modulus (GPa) = 50.82675 63.44451 57.13563
# Shear Modulus (GPa) = 6.80436 18.56259 12.68347
#
# Velocity S-wave (km/s) = 1.91089 3.15617 2.60892
# Velocity P-wave (km/s) = 5.66960 6.87959 6.30369
#
# Compressibility (1/GPa) = 0.01967468
#
# Stress axis : x y z
#
# Youngs Moduli (GPa) = 61.86246 50.35101 69.83489
#
# Poissons Ratio (x) = 0.12330 0.62787
# Poissons Ratio (y) = 0.15149 0.27205
# Poissons Ratio (z) = 0.55619 0.19615
#
# Static dielectric constant tensor:
#      x y z
#    x 1.706760 0.000000 0.000000 
#    y 0.000000 1.674510 0.000000 
#    z 0.000000 0.000000 1.527590 
# 
# From -- ./inp_files/8841.got.cif
#   From: 2010.05.17/outbox.cif.g08.bks.cpg/sg53_5_cif.got.tgz:8841.got - 2010.06.03 12:45:16.
