data_PCOD9418165
_publ_section_title
;
Structure prediction by ZEFSAII (Michael W. Deem and Ramdas Pophale) SiO2 
 PCOD9418165
Probable space group: P M N A
;
_chemical_formula_sum "Si O2"
_cell_formula_units_Z 36
_cell_length_a 15.174180
_cell_length_b 10.617262
_cell_length_c 10.998170
_cell_angle_alpha 90.000000
_cell_angle_beta 90.000000
_cell_angle_gamma 90.000000
_cell_volume 1771.895864
_symmetry_space_group_name_H-M "P M N A"
_symmetry_group_IT_number 53
_symmetry_cell_setting 'orthorhombic'
loop_
_space_group_symop_operation_xyz
x,y,z
1/2-x,-y,1/2+z
x,-y,-z
1/2-x,y,1/2-z
-x,-y,-z
1/2+x,y,1/2-z
-x,y,z
1/2+x,-y,1/2+z
loop_
_atom_site_type_symbol
_atom_site_label
_atom_site_fract_x
_atom_site_fract_y
_atom_site_fract_z
Si Si1 0.183654 0.185047 0.395093
Si Si2 0.801020 0.429088 0.128238
Si Si3 0.500000 0.754571 0.204577
Si Si4 0.000000 0.512818 0.795786
Si Si5 0.500000 0.317238 0.079683
Si Si6 0.172671 0.902839 0.328633
O O1 0.262340 0.286027 0.378525
O O2 0.090370 0.253374 0.376602
O O3 0.185998 0.140329 0.534017
O O4 0.176607 0.054030 0.323149
O O5 0.750000 0.481900 0.250000
O O6 0.906974 0.439176 0.148070
O O7 0.779028 0.500000 0.000000
O O8 0.500000 0.638217 0.296051
O O9 0.416912 0.844116 0.217515
O O10 0.500000 0.700685 0.065651
O O11 0.000000 0.552947 0.653137
O O12 0.250000 0.846902 0.250000
#
# Coordination Sequence:
#
# PCOD9418165 Si02
#       6
#     8   8   4   4   4   8
#     4  10  22  42  67  98 133 176 229 283 347 412
#     4  12  28  45  71 102 142 184 229 287 350 413
#     4  10  24  39  66 101 135 174 232 284 345 407
#     4  12  26  42  66 101 139 188 219 289 346 411
#     4  10  20  39  68  98 132 170 233 282 340 411
#     4  10  22  40  67  96 131 176 228 289 339 407
#
# _framework density 20.317219999999999
#
# number of rings (size 3 to 8) (size 9 to 14) (size 15 to 20)
#    0.000    1.333    2.222    2.000    9.333    2.667 
#    0.000    0.000    0.000    2.667    0.000    0.000 
#    0.000    0.000    0.000    0.000    0.000    0.000 
#
# Total GULP energy -200707.424553 kJ/mol
# GULP energy per Si atom -5575.206238 kJ/mol
# Density = 2.027098 g / cm^3
# Si number density = 20.317220 Si / 1000 Ang^3
#
#
#
# Elastic Constant Matrix: (Units=GPa)
#
#
# Indices 1 2 3 4 5 6 
#
# 1 201.4005 87.4790 47.6309 0.0000 0.0000 0.0000
# 2 87.4790 152.0510 38.3732 0.0000 0.0000 0.0000
# 3 47.6309 38.3732 38.3387 0.0000 0.0000 0.0000
# 4 0.0000 0.0000 0.0000 10.0924 0.0000 0.0000
# 5 0.0000 0.0000 0.0000 0.0000 6.9679 0.0000
# 6 0.0000 0.0000 0.0000 0.0000 0.0000 26.9747
#
#
#
# Elastic Compliance Matrix: (Units=1/GPa)
#
#
# Indices 1 2 3 4 5 6 
#
# 1 0.007795 -0.002730 -0.006952 0.000000 0.000000 0.000000
# 2 -0.002730 0.009756 -0.006372 0.000000 0.000000 0.000000
# 3 -0.006952 -0.006372 0.041098 0.000000 0.000000 0.000000
# 4 0.000000 0.000000 0.000000 0.099085 0.000000 0.000000
# 5 0.000000 0.000000 0.000000 0.000000 0.143515 0.000000
# 6 0.000000 0.000000 0.000000 0.000000 0.000000 0.037072
#
#
# Mechanical properties :
#
#
# Convention : Reuss Voigt Hill
#
# Bulk Modulus (GPa) = 37.67893 82.08404 59.88148
# Shear Modulus (GPa) = 13.18298 23.36080 18.27189
#
# Velocity S-wave (km/s) = 2.55003 3.39455 3.00214
# Velocity P-wave (km/s) = 5.22071 7.47348 6.44627
#
# Compressibility (1/GPa) = 0.02654003
#
# Stress axis : x y z
#
# Youngs Moduli (GPa) = 128.28291 102.50285 24.33204
#
# Poissons Ratio (x) = 0.27988 0.16915
# Poissons Ratio (y) = 0.35027 0.15505
# Poissons Ratio (z) = 0.89179 0.65319
#
# Static dielectric constant tensor:
#      x y z
#    x 1.689060 0.000000 0.000000 
#    y 0.000000 1.718700 0.000000 
#    z 0.000000 0.000000 1.764000 
# 
# From -- ./inp_files/14703.got.cif
#   From: 2010.05.17/outbox.cif.g08.bks.cpg/sg53_8_cif.got.tgz:14703.got - 2010.06.03 12:45:16.
