data_PCOD9418238
_publ_section_title
;
Structure prediction by ZEFSAII (Michael W. Deem and Ramdas Pophale) SiO2 
 PCOD9418238
Probable space group: P M N A
;
_chemical_formula_sum "Si O2"
_cell_formula_units_Z 48
_cell_length_a 17.106312
_cell_length_b 17.359273
_cell_length_c 8.054279
_cell_angle_alpha 90.000000
_cell_angle_beta 90.000000
_cell_angle_gamma 90.000000
_cell_volume 2391.743440
_symmetry_space_group_name_H-M "P M N A"
_symmetry_group_IT_number 53
_symmetry_cell_setting 'orthorhombic'
loop_
_space_group_symop_operation_xyz
x,y,z
1/2-x,-y,1/2+z
x,-y,-z
1/2-x,y,1/2-z
-x,-y,-z
1/2+x,y,1/2-z
-x,y,z
1/2+x,-y,1/2+z
loop_
_atom_site_type_symbol
_atom_site_label
_atom_site_fract_x
_atom_site_fract_y
_atom_site_fract_z
Si Si1 0.593348 0.515079 0.179206
Si Si2 0.156003 0.805571 0.743805
Si Si3 0.594500 0.087006 0.947216
Si Si4 0.908930 0.329744 0.854198
Si Si5 0.662295 0.362137 0.309849
Si Si6 0.408834 0.155613 0.609154
O O1 0.500000 0.508881 0.173163
O O2 0.609564 0.602619 0.227687
O O3 0.620944 0.444201 0.290068
O O4 0.628924 0.500000 0.000000
O O5 0.250000 0.803623 0.750000
O O6 0.127635 0.855905 0.588272
O O7 0.128208 0.715889 0.724660
O O8 0.127932 0.837864 0.924616
O O9 0.500000 0.096464 0.945138
O O10 0.622725 0.102047 0.757433
O O11 0.612650 0.000000 0.000000
O O12 0.904988 0.240778 0.807326
O O13 0.000000 0.342114 0.911543
O O14 0.847001 0.340732 0.999311
O O15 0.750000 0.371367 0.250000
O O16 0.500000 0.136382 0.580789
#
# Coordination Sequence:
#
# PCOD9418238 Si02
#       6
#     8   8   8   8   8   8
#     4  10  21  33  51  82 112 143 190 240 283 335
#     4  10  22  40  59  87 122 159 199 240 294 360
#     4  10  22  40  64  93 120 152 197 248 301 355
#     4   9  18  35  57  81 110 149 192 236 287 339
#     4  10  21  36  54  77 110 150 194 235 283 342
#     4   9  19  37  63  91 119 155 198 246 298 351
#
# _framework density 20.069040999999999
#
# number of rings (size 3 to 8) (size 9 to 14) (size 15 to 20)
#    0.000    2.333    0.000    1.500    2.333    6.000 
#    3.000    2.500    0.000    0.000    0.000    0.000 
#    0.000    0.000    0.000    0.000    0.000    0.000 
#
# Total GULP energy -267361.721046 kJ/mol
# GULP energy per Si atom -5570.035855 kJ/mol
# Density = 2.002336 g / cm^3
# Si number density = 20.069041 Si / 1000 Ang^3
#
#
#
# Elastic Constant Matrix: (Units=GPa)
#
#
# Indices 1 2 3 4 5 6 
#
# 1 17.3108 8.3768 16.7030 0.0000 0.0000 0.0000
# 2 8.3768 22.0408 9.2604 0.0000 0.0000 0.0000
# 3 16.7030 9.2604 63.5964 0.0000 0.0000 0.0000
# 4 0.0000 0.0000 0.0000 26.4334 0.0000 0.0000
# 5 0.0000 0.0000 0.0000 0.0000 -1.3348 0.0000
# 6 0.0000 0.0000 0.0000 0.0000 0.0000 91.5376
#
#
#
# Elastic Compliance Matrix: (Units=1/GPa)
#
#
# Indices 1 2 3 4 5 6 
#
# 1 0.089157 -0.025613 -0.019687 0.000000 0.000000 0.000000
# 2 -0.025613 0.055685 -0.001381 0.000000 0.000000 0.000000
# 3 -0.019687 -0.001381 0.021096 0.000000 0.000000 0.000000
# 4 0.000000 0.000000 0.000000 0.037831 0.000000 0.000000
# 5 0.000000 0.000000 0.000000 0.000000 -0.749154 0.000000
# 6 0.000000 0.000000 0.000000 0.000000 0.000000 0.010924
#
#
# Mechanical properties :
#
#
# Convention : Reuss Voigt Hill
#
# Bulk Modulus (GPa) = 13.77877 19.06981 16.42429
# Shear Modulus (GPa) = -11.99312 27.90109 7.95398
#
# Velocity S-wave (km/s) = -2.44722 3.73266 1.99297
# Velocity P-wave (km/s) = 1.05100 5.30092 3.67390
#
# Compressibility (1/GPa) = 0.07257539
#
# Stress axis : x y z
#
# Youngs Moduli (GPa) = 11.21615 17.95805 47.40281
#
# Poissons Ratio (x) = 0.45997 0.93320
# Poissons Ratio (y) = 0.28728 0.06548
# Poissons Ratio (z) = 0.22081 0.02481
#
# Static dielectric constant tensor:
#      x y z
#    x 1.702930 0.000000 0.000000 
#    y 0.000000 2.115170 0.000000 
#    z 0.000000 0.000000 1.863040 
# 
# From -- ./inp_files/9978.got.cif
#   From: 2010.05.17/outbox.cif.g08.bks.cpg/sg53_5_cif.got.tgz:9978.got - 2010.06.03 12:45:16.
