data_PCOD9418427
_publ_section_title
;
Structure prediction by ZEFSAII (Michael W. Deem and Ramdas Pophale) SiO2 
 PCOD9418427
Probable space group: P M N A
;
_chemical_formula_sum "Si O2"
_cell_formula_units_Z 58
_cell_length_a 7.854404
_cell_length_b 12.318887
_cell_length_c 29.361439
_cell_angle_alpha 90.000000
_cell_angle_beta 90.000000
_cell_angle_gamma 90.000000
_cell_volume 2840.939884
_symmetry_space_group_name_H-M "P M N A"
_symmetry_group_IT_number 53
_symmetry_cell_setting 'orthorhombic'
loop_
_space_group_symop_operation_xyz
x,y,z
1/2-x,-y,1/2+z
x,-y,-z
1/2-x,y,1/2-z
-x,-y,-z
1/2+x,y,1/2-z
-x,y,z
1/2+x,-y,1/2+z
loop_
_atom_site_type_symbol
_atom_site_label
_atom_site_fract_x
_atom_site_fract_y
_atom_site_fract_z
Si Si1 0.190769 0.169290 0.987515
Si Si2 0.302722 0.882693 0.196970
Si Si3 0.799261 0.758038 0.389580
Si Si4 0.296200 0.604436 0.970462
Si Si5 0.795025 0.357155 0.197108
Si Si6 0.796507 0.879300 0.803474
Si Si7 0.296453 0.511607 0.379933
Si Si8 0.000000 0.000000 0.500000
O O1 0.209129 0.190893 0.933300
O O2 0.000000 0.128607 0.997699
O O3 0.213155 0.286106 0.011532
O O4 0.347474 0.093536 0.001862
O O5 0.250000 0.874550 0.250000
O O6 0.500000 0.857189 0.198217
O O7 0.227782 0.804154 0.158338
O O8 0.277474 0.006773 0.179978
O O9 0.782861 0.628287 0.390051
O O10 0.000000 0.786483 0.393604
O O11 0.500000 0.614945 0.974995
O O12 0.247936 0.573615 0.919270
O O13 0.241380 0.500000 0.000000
O O14 0.750000 0.368070 0.250000
O O15 0.735442 0.238250 0.179313
O O16 0.734396 0.457102 0.166924
O O17 0.000000 0.354473 0.193924
O O18 0.750000 0.876911 0.750000
O O19 0.000000 0.886057 0.808233
O O20 0.500000 0.526459 0.378192
#
# Coordination Sequence:
#
# PCOD9418427 Si02
#       8
#     8   8   8   8   8   8   8   2
#     4  12  25  46  75 101 136 185 221 278 344 402
#     4  10  21  36  58  85 121 164 216 273 323 386
#     4  11  23  42  62  90 128 170 217 273 336 401
#     4  11  22  41  69  98 131 169 217 276 332 398
#     4   9  20  37  56  84 124 162 205 261 317 386
#     4   9  16  31  54  77 109 150 199 253 309 370
#     4  11  23  38  61  95 126 161 218 268 326 410
#     4  12  26  52  70 102 144 172 230 274 332 418
#
# _framework density 20.415776999999999
#
# number of rings (size 3 to 8) (size 9 to 14) (size 15 to 20)
#    0.000    1.517    2.759    3.103    0.000    4.966 
#    2.483    2.759    0.000    0.000    0.000    0.000 
#    0.000    0.000    0.000    0.000    0.000    0.000 
#
# Total GULP energy -323192.805404 kJ/mol
# GULP energy per Si atom -5572.289748 kJ/mol
# Density = 2.036931 g / cm^3
# Si number density = 20.415777 Si / 1000 Ang^3
#
#
#
# Elastic Constant Matrix: (Units=GPa)
#
#
# Indices 1 2 3 4 5 6 
#
# 1 72.1878 7.0479 -14.2652 0.0000 0.0000 0.0000
# 2 7.0479 56.4017 -23.6029 0.0000 0.0000 0.0000
# 3 -14.2652 -23.6029 2.6627 0.0000 0.0000 0.0000
# 4 0.0000 0.0000 0.0000 5400.3258 0.0000 0.0000
# 5 0.0000 0.0000 0.0000 0.0000 34.3925 0.0000
# 6 0.0000 0.0000 0.0000 0.0000 0.0000 18.2462
#
#
#
# Elastic Compliance Matrix: (Units=1/GPa)
#
#
# Indices 1 2 3 4 5 6 
#
# 1 0.011229 -0.008773 -0.017612 0.000000 0.000000 0.000000
# 2 -0.008773 0.000311 -0.044243 0.000000 0.000000 0.000000
# 3 -0.017612 -0.044243 -0.110983 0.000000 0.000000 0.000000
# 4 0.000000 0.000000 0.000000 0.000185 0.000000 0.000000
# 5 0.000000 0.000000 0.000000 0.000000 0.029076 0.000000
# 6 0.000000 0.000000 0.000000 0.000000 0.000000 0.054806
#
#
# Mechanical properties :
#
#
# Convention : Reuss Voigt Hill
#
# Bulk Modulus (GPa) = -4.15454 7.73463 1.79004
# Shear Modulus (GPa) = 109.53223 1101.39772 605.46498
#
# Velocity S-wave (km/s) = 7.33262 23.25198 17.23981
# Velocity P-wave (km/s) = 8.34567 26.91969 19.92887
#
# Compressibility (1/GPa) = -0.24070035
#
# Stress axis : x y z
#
# Youngs Moduli (GPa) = 89.05534 3211.44575 -9.01038
#
# Poissons Ratio (x) = 28.17546 -0.15869
# Poissons Ratio (y) = 0.78132 -0.39865
# Poissons Ratio (z) = 1.56845 142.08500
#
# Static dielectric constant tensor:
#      x y z
#    x 1.741550 0.000000 0.000000 
#    y 0.000000 1.731740 0.000000 
#    z 0.000000 0.000000 1.750190 
# 
# From -- ./inp_files/36364.got.cif
#   From: 2010.05.17/outbox.cif.g08.bks.cpg/sg53_19_cif.got.tgz:36364.got - 2010.06.03 12:45:16.
