data_PCOD9418098
_publ_section_title
;
Structure prediction by ZEFSAII (Michael W. Deem and Ramdas Pophale) SiO2 
 PCOD9418098
Probable space group: P M N A
;
_chemical_formula_sum "Si O2"
_cell_formula_units_Z 44
_cell_length_a 13.891995
_cell_length_b 18.222789
_cell_length_c 7.635642
_cell_angle_alpha 90.000000
_cell_angle_beta 90.000000
_cell_angle_gamma 90.000000
_cell_volume 1932.969596
_symmetry_space_group_name_H-M "P M N A"
_symmetry_group_IT_number 53
_symmetry_cell_setting 'orthorhombic'
loop_
_space_group_symop_operation_xyz
x,y,z
1/2-x,-y,1/2+z
x,-y,-z
1/2-x,y,1/2-z
-x,-y,-z
1/2+x,y,1/2-z
-x,y,z
1/2+x,-y,1/2+z
loop_
_atom_site_type_symbol
_atom_site_label
_atom_site_fract_x
_atom_site_fract_y
_atom_site_fract_z
Si Si1 0.500000 0.806616 0.655018
Si Si2 0.637047 0.071078 0.223065
Si Si3 0.387940 0.584583 0.435427
Si Si4 0.500000 0.218741 0.726922
Si Si5 0.324756 0.587357 0.028000
Si Si6 0.860084 0.910005 0.308015
Si Si7 0.500000 0.319891 0.060941
O O1 0.588036 0.863508 0.672892
O O2 0.500000 0.762875 0.475785
O O3 0.500000 0.748665 0.810055
O O4 0.750000 0.073300 0.250000
O O5 0.605283 0.988263 0.269074
O O6 0.622109 0.083075 0.015983
O O7 0.387003 0.500000 0.500000
O O8 0.500000 0.607457 0.467668
O O9 0.362649 0.593306 0.228935
O O10 0.284710 0.615231 0.509260
O O11 0.589134 0.164140 0.753564
O O12 0.500000 0.282561 0.868236
O O13 0.405194 0.630227 0.917883
O O14 0.325772 0.500000 0.000000
O O15 0.750000 0.905204 0.250000
#
# Coordination Sequence:
#
# PCOD9418098 Si02
#       7
#     4   8   8   4   8   8   4
#     4  12  25  44  66  94 135 179 230 285 343 419
#     4  10  20  38  67  98 133 174 230 286 341 407
#     4   9  18  37  68 103 128 157 215 285 344 406
#     4  12  25  44  64  95 136 181 228 279 354 407
#     4  10  21  41  68  95 133 178 221 284 351 406
#     4  10  20  38  66  99 132 177 226 286 345 405
#     4  12  25  46  64  96 140 188 230 284 352 426
#
# _framework density 22.762903999999999
#
# number of rings (size 3 to 8) (size 9 to 14) (size 15 to 20)
#    0.000    1.636    2.727    1.909    0.000    4.364 
#    6.545    0.000    4.000    0.000    0.000    0.000 
#    0.000    0.000    0.000    0.000    0.000    0.000 
#
# Total GULP energy -245639.397329 kJ/mol
# GULP energy per Si atom -5582.713576 kJ/mol
# Density = 2.271109 g / cm^3
# Si number density = 22.762904 Si / 1000 Ang^3
#
#
#
# Elastic Constant Matrix: (Units=GPa)
#
#
# Indices 1 2 3 4 5 6 
#
# 1 217.1477 58.3921 4.8274 0.0000 0.0000 0.0000
# 2 58.3921 107.6302 18.2957 0.0000 0.0000 0.0000
# 3 4.8274 18.2957 60.9673 0.0000 0.0000 0.0000
# 4 0.0000 0.0000 0.0000 18.7329 0.0000 0.0000
# 5 0.0000 0.0000 0.0000 0.0000 21.9484 0.0000
# 6 0.0000 0.0000 0.0000 0.0000 0.0000 -282.2722
#
#
#
# Elastic Compliance Matrix: (Units=1/GPa)
#
#
# Indices 1 2 3 4 5 6 
#
# 1 0.005405 -0.003013 0.000476 0.000000 0.000000 0.000000
# 2 -0.003013 0.011470 -0.003204 0.000000 0.000000 0.000000
# 3 0.000476 -0.003204 0.017326 0.000000 0.000000 0.000000
# 4 0.000000 0.000000 0.000000 0.053382 0.000000 0.000000
# 5 0.000000 0.000000 0.000000 0.000000 0.045561 0.000000
# 6 0.000000 0.000000 0.000000 0.000000 0.000000 -0.003543
#
#
# Mechanical properties :
#
#
# Convention : Reuss Voigt Hill
#
# Bulk Modulus (GPa) = 44.01391 60.97507 52.49449
# Shear Modulus (GPa) = 33.63466 -28.03619 2.79924
#
# Velocity S-wave (km/s) = 3.84814 -3.51331 1.11014
# Velocity P-wave (km/s) = 6.25476 3.22295 4.97541
#
# Compressibility (1/GPa) = 0.02272009
#
# Stress axis : x y z
#
# Youngs Moduli (GPa) = 185.01917 87.18098 57.71716
#
# Poissons Ratio (x) = 0.26270 -0.02749
# Poissons Ratio (y) = 0.55751 0.18490
# Poissons Ratio (z) = -0.08812 0.27929
#
# Static dielectric constant tensor:
#      x y z
#    x 1.880350 0.000000 0.000000 
#    y 0.000000 1.784300 0.000000 
#    z 0.000000 0.000000 1.905010 
# 
# From -- ./inp_files/8576.got.cif
#   From: 2010.05.17/outbox.cif.g08.bks.cpg/sg53_5_cif.got.tgz:8576.got - 2010.06.03 12:45:16.
