data_PCOD9418262
_publ_section_title
;
Structure prediction by ZEFSAII (Michael W. Deem and Ramdas Pophale) SiO2 
 PCOD9418262
Probable space group: P M N A
;
_chemical_formula_sum "Si O2"
_cell_formula_units_Z 28
_cell_length_a 20.030662
_cell_length_b 12.810086
_cell_length_c 5.300497
_cell_angle_alpha 90.000000
_cell_angle_beta 90.000000
_cell_angle_gamma 90.000000
_cell_volume 1360.078393
_symmetry_space_group_name_H-M "P M N A"
_symmetry_group_IT_number 53
_symmetry_cell_setting 'orthorhombic'
loop_
_space_group_symop_operation_xyz
x,y,z
1/2-x,-y,1/2+z
x,-y,-z
1/2-x,y,1/2-z
-x,-y,-z
1/2+x,y,1/2-z
-x,y,z
1/2+x,-y,1/2+z
loop_
_atom_site_type_symbol
_atom_site_label
_atom_site_fract_x
_atom_site_fract_y
_atom_site_fract_z
Si Si1 0.925610 0.389164 0.249970
Si Si2 0.397052 0.745196 0.243554
Si Si3 0.684648 0.500000 0.500000
Si Si4 0.750000 0.314093 0.750000
Si Si5 0.000000 0.930042 0.250272
O O1 0.919888 0.320813 0.500683
O O2 0.000000 0.434804 0.240182
O O3 0.914776 0.315551 0.003286
O O4 0.867396 0.474773 0.223830
O O5 0.316890 0.751555 0.215126
O O6 0.435978 0.853671 0.247787
O O7 0.729553 0.398354 0.536367
O O8 0.000000 0.000000 0.500000
O O9 0.000000 0.000000 0.000000
#
# Coordination Sequence:
#
# PCOD9418262 Si02
#       5
#     8   8   4   4   4
#     4  11  20  37  60  92 133 167 218 250 299 352
#     4  11  23  41  65  90 126 165 201 265 320 370
#     4  10  21  34  60  93 132 184 216 246 278 369
#     4  10  22  40  60  92 134 172 208 240 306 364
#     4  12  24  44  70  95 114 151 212 268 330 390
#
# _framework density 20.587046999999998
#
# number of rings (size 3 to 8) (size 9 to 14) (size 15 to 20)
#    0.000    1.143    2.857    3.857    0.000    6.857 
#    0.000    8.571    0.000    0.000    0.000    0.000 
#    0.000    0.000    0.000    0.000    0.000    0.000 
#
# Total GULP energy -156515.665110 kJ/mol
# GULP energy per Si atom -5589.845183 kJ/mol
# Density = 2.054019 g / cm^3
# Si number density = 20.587047 Si / 1000 Ang^3
#
#
#
# Elastic Constant Matrix: (Units=GPa)
#
#
# Indices 1 2 3 4 5 6 
#
# 1 210.2677 62.3240 35.2645 0.0000 0.0000 0.0000
# 2 62.3240 123.5870 63.8593 0.0000 0.0000 0.0000
# 3 35.2645 63.8593 173.9423 0.0000 0.0000 0.0000
# 4 0.0000 0.0000 0.0000 43.1770 0.0000 0.0000
# 5 0.0000 0.0000 0.0000 0.0000 20.3432 0.0000
# 6 0.0000 0.0000 0.0000 0.0000 0.0000 56.6128
#
#
#
# Elastic Compliance Matrix: (Units=1/GPa)
#
#
# Indices 1 2 3 4 5 6 
#
# 1 0.005594 -0.002758 -0.000121 0.000000 0.000000 0.000000
# 2 -0.002758 0.011346 -0.003606 0.000000 0.000000 0.000000
# 3 -0.000121 -0.003606 0.007098 0.000000 0.000000 0.000000
# 4 0.000000 0.000000 0.000000 0.023160 0.000000 0.000000
# 5 0.000000 0.000000 0.000000 0.000000 0.049156 0.000000
# 6 0.000000 0.000000 0.000000 0.000000 0.000000 0.017664
#
#
# Mechanical properties :
#
#
# Convention : Reuss Voigt Hill
#
# Bulk Modulus (GPa) = 90.37074 92.29920 91.33497
# Shear Modulus (GPa) = 38.26204 47.11654 42.68929
#
# Velocity S-wave (km/s) = 4.31577 4.78917 4.55862
# Velocity P-wave (km/s) = 8.29618 8.68979 8.49527
#
# Compressibility (1/GPa) = 0.01106553
#
# Stress axis : x y z
#
# Youngs Moduli (GPa) = 178.77167 88.13886 140.89275
#
# Poissons Ratio (x) = 0.24310 0.01711
# Poissons Ratio (y) = 0.49307 0.50808
# Poissons Ratio (z) = 0.02172 0.31784
#
# Static dielectric constant tensor:
#      x y z
#    x 1.786730 0.000000 0.000000 
#    y 0.000000 1.706850 0.000000 
#    z 0.000000 0.000000 1.827740 
# 
# From -- ./inp_files/2587.got.cif
#   From: 2010.05.17/outbox.cif.g08.bks.cpg/sg53_2_cif.got.tgz:2587.got - 2010.06.03 12:45:16.
