data_PCOD9418090
_publ_section_title
;
Structure prediction by ZEFSAII (Michael W. Deem and Ramdas Pophale) SiO2 
 PCOD9418090
Probable space group: P M N A
;
_chemical_formula_sum "Si O2"
_cell_formula_units_Z 28
_cell_length_a 32.607779
_cell_length_b 8.090149
_cell_length_c 5.044072
_cell_angle_alpha 90.000000
_cell_angle_beta 90.000000
_cell_angle_gamma 90.000000
_cell_volume 1330.635226
_symmetry_space_group_name_H-M "P M N A"
_symmetry_group_IT_number 53
_symmetry_cell_setting 'orthorhombic'
loop_
_space_group_symop_operation_xyz
x,y,z
1/2-x,-y,1/2+z
x,-y,-z
1/2-x,y,1/2-z
-x,-y,-z
1/2+x,y,1/2-z
-x,y,z
1/2+x,-y,1/2+z
loop_
_atom_site_type_symbol
_atom_site_label
_atom_site_fract_x
_atom_site_fract_y
_atom_site_fract_z
Si Si1 0.000000 0.876074 0.244176
Si Si2 0.721213 0.196608 0.003426
Si Si3 0.131218 0.680356 0.605129
Si Si4 0.911304 0.183371 0.879101
O O1 0.041825 0.773559 0.202663
O O2 0.000000 0.000000 0.500000
O O3 0.000000 0.000000 0.000000
O O4 0.750000 0.234294 0.750000
O O5 0.750000 0.226422 0.250000
O O6 0.679728 0.295441 0.062126
O O7 0.710825 0.000000 0.000000
O O8 0.119346 0.500000 0.500000
O O9 0.112096 0.808565 0.397316
O O10 0.112777 0.710724 0.897701
O O11 0.911483 0.000000 0.000000
#
# Coordination Sequence:
#
# PCOD9418090 Si02
#       4
#     4   8   8   8
#     4  10  20  38  65  96 119 154 215 268 305 358
#     4  10  21  38  61  87 116 157 208 255 301 360
#     4  12  25  40  60  93 131 163 200 252 317 375
#     4  11  22  41  66  90 120 163 211 257 304 366
#
# _framework density 21.042580000000001
#
# number of rings (size 3 to 8) (size 9 to 14) (size 15 to 20)
#    0.000    1.143    0.000    8.571    0.000    3.429 
#    0.000    4.286    0.000    0.000    0.000    0.000 
#    0.000    0.000    0.000    0.000    0.000    0.000 
#
# Total GULP energy -156237.126784 kJ/mol
# GULP energy per Si atom -5579.897385 kJ/mol
# Density = 2.099469 g / cm^3
# Si number density = 21.042580 Si / 1000 Ang^3
#
#
#
# Elastic Constant Matrix: (Units=GPa)
#
#
# Indices 1 2 3 4 5 6 
#
# 1 135.9941 21.8946 40.0263 0.0000 0.0000 0.0000
# 2 21.8946 44.6978 7.8989 0.0000 0.0000 0.0000
# 3 40.0263 7.8989 154.3498 0.0000 0.0000 0.0000
# 4 0.0000 0.0000 0.0000 20.8263 0.0000 0.0000
# 5 0.0000 0.0000 0.0000 0.0000 51.6731 0.0000
# 6 0.0000 0.0000 0.0000 0.0000 0.0000 17.0965
#
#
#
# Elastic Compliance Matrix: (Units=1/GPa)
#
#
# Indices 1 2 3 4 5 6 
#
# 1 0.008567 -0.003839 -0.002025 0.000000 0.000000 0.000000
# 2 -0.003839 0.024297 -0.000248 0.000000 0.000000 0.000000
# 3 -0.002025 -0.000248 0.007017 0.000000 0.000000 0.000000
# 4 0.000000 0.000000 0.000000 0.048016 0.000000 0.000000
# 5 0.000000 0.000000 0.000000 0.000000 0.019352 0.000000
# 6 0.000000 0.000000 0.000000 0.000000 0.000000 0.058492
#
#
# Mechanical properties :
#
#
# Convention : Reuss Voigt Hill
#
# Bulk Modulus (GPa) = 36.15738 52.74236 44.44987
# Shear Modulus (GPa) = 26.71174 35.60063 31.15618
#
# Velocity S-wave (km/s) = 3.56675 4.11766 3.85206
# Velocity P-wave (km/s) = 5.84658 6.90839 6.39954
#
# Compressibility (1/GPa) = 0.02765687
#
# Stress axis : x y z
#
# Youngs Moduli (GPa) = 116.72215 41.15803 142.51772
#
# Poissons Ratio (x) = 0.15799 0.28863
# Poissons Ratio (y) = 0.44806 0.03533
# Poissons Ratio (z) = 0.23639 0.01020
#
# Static dielectric constant tensor:
#      x y z
#    x 1.751150 0.000000 0.000000 
#    y 0.000000 1.714610 0.000000 
#    z 0.000000 0.000000 1.731370 
# 
# From -- ./inp_files/4140.got.cif
#   From: 2010.05.17/outbox.cif.g08.bks.cpg/sg53_3_cif.got.tgz:4140.got - 2010.06.03 12:45:16.
