data_PCOD9418446
_publ_section_title
;
Structure prediction by ZEFSAII (Michael W. Deem and Ramdas Pophale) SiO2 
 PCOD9418446
Probable space group: P M N A
;
_chemical_formula_sum "Si O2"
_cell_formula_units_Z 44
_cell_length_a 34.221680
_cell_length_b 6.814055
_cell_length_c 7.645987
_cell_angle_alpha 90.000000
_cell_angle_beta 90.000000
_cell_angle_gamma 90.000000
_cell_volume 1782.955549
_symmetry_space_group_name_H-M "P M N A"
_symmetry_group_IT_number 53
_symmetry_cell_setting 'orthorhombic'
loop_
_space_group_symop_operation_xyz
x,y,z
1/2-x,-y,1/2+z
x,-y,-z
1/2-x,y,1/2-z
-x,-y,-z
1/2+x,y,1/2-z
-x,y,z
1/2+x,-y,1/2+z
loop_
_atom_site_type_symbol
_atom_site_label
_atom_site_fract_x
_atom_site_fract_y
_atom_site_fract_z
Si Si1 0.429827 0.000000 0.000000
Si Si2 0.790214 0.375254 0.862897
Si Si3 0.789436 0.125609 0.142411
Si Si4 0.042317 0.367895 0.674664
Si Si5 0.879002 0.691932 0.137492
Si Si6 0.872968 0.853344 0.760357
O O1 0.455611 0.137772 0.877941
O O2 0.401533 0.841580 0.903069
O O3 0.750000 0.364153 0.750000
O O4 0.787150 0.625020 0.911009
O O5 0.836154 0.378860 0.796174
O O6 0.792824 0.124070 0.914363
O O7 0.750000 0.111560 0.250000
O O8 0.826878 0.143997 0.270941
O O9 0.043345 0.500000 0.500000
O O10 0.081494 0.398230 0.785810
O O11 0.000000 0.407804 0.760571
O O12 0.878231 0.291854 0.074523
O O13 0.881447 0.923000 0.182965
#
# Coordination Sequence:
#
# PCOD9418446 Si02
#       6
#     4   8   8   8   8   8
#     4  10  21  36  64  86 122 156 198 258 308 374
#     4  11  23  38  54  81 120 156 198 246 296 366
#     4  11  21  33  55  80 113 154 200 251 292 348
#     4  10  22  40  62  91 121 156 203 255 313 379
#     4   9  19  38  59  79 121 155 196 250 304 361
#     4   9  18  36  56  87 112 154 203 247 302 365
#
# _framework density 24.678125999999999
#
# number of rings (size 3 to 8) (size 9 to 14) (size 15 to 20)
#    0.000    2.000    3.636    1.364    1.273    5.091 
#    0.000    8.182    0.000    2.727    0.000    0.000 
#    0.000    0.000    0.000    0.000    0.000    0.000 
#
# Total GULP energy -245220.869778 kJ/mol
# GULP energy per Si atom -5573.201586 kJ/mol
# Density = 2.462196 g / cm^3
# Si number density = 24.678126 Si / 1000 Ang^3
#
#
#
# Elastic Constant Matrix: (Units=GPa)
#
#
# Indices 1 2 3 4 5 6 
#
# 1 264.1872 41.8537 68.9593 0.0000 0.0000 0.0000
# 2 41.8537 137.2555 6.4505 0.0000 0.0000 0.0000
# 3 68.9593 6.4505 37.9898 0.0000 0.0000 0.0000
# 4 0.0000 0.0000 0.0000 60.5599 0.0000 0.0000
# 5 0.0000 0.0000 0.0000 0.0000 24.8152 0.0000
# 6 0.0000 0.0000 0.0000 0.0000 0.0000 -60.8995
#
#
#
# Elastic Compliance Matrix: (Units=1/GPa)
#
#
# Indices 1 2 3 4 5 6 
#
# 1 0.007556 -0.001673 -0.013432 0.000000 0.000000 0.000000
# 2 -0.001673 0.007715 0.001727 0.000000 0.000000 0.000000
# 3 -0.013432 0.001727 0.050412 0.000000 0.000000 0.000000
# 4 0.000000 0.000000 0.000000 0.016513 0.000000 0.000000
# 5 0.000000 0.000000 0.000000 0.000000 0.040298 0.000000
# 6 0.000000 0.000000 0.000000 0.000000 0.000000 -0.016420
#
#
# Mechanical properties :
#
#
# Convention : Reuss Voigt Hill
#
# Bulk Modulus (GPa) = 25.68961 74.88440 50.28700
# Shear Modulus (GPa) = 34.29221 26.37306 30.33264
#
# Velocity S-wave (km/s) = 3.73175 3.27262 3.50970
# Velocity P-wave (km/s) = 5.38520 6.68508 6.07004
#
# Compressibility (1/GPa) = 0.03892624
#
# Stress axis : x y z
#
# Youngs Moduli (GPa) = 132.33799 129.62336 19.83645
#
# Poissons Ratio (x) = 0.21685 0.26645
# Poissons Ratio (y) = 0.22139 -0.03425
# Poissons Ratio (z) = 1.77762 -0.22383
#
# Static dielectric constant tensor:
#      x y z
#    x 1.818880 0.000000 0.000000 
#    y 0.000000 2.189980 0.000000 
#    z 0.000000 0.000000 1.982860 
# 
# From -- ./inp_files/24847.got.cif
#   From: 2010.05.17/outbox.cif.g08.bks.cpg/sg53_13_cif.got.tgz:24847.got - 2010.06.03 12:45:16.
