data_PCOD9418122
_publ_section_title
;
Structure prediction by ZEFSAII (Michael W. Deem and Ramdas Pophale) SiO2 
 PCOD9418122
Probable space group: P M N A
;
_chemical_formula_sum "Si O2"
_cell_formula_units_Z 64
_cell_length_a 32.475349
_cell_length_b 17.643711
_cell_length_c 5.283838
_cell_angle_alpha 90.000000
_cell_angle_beta 90.000000
_cell_angle_gamma 90.000000
_cell_volume 3027.563469
_symmetry_space_group_name_H-M "P M N A"
_symmetry_group_IT_number 53
_symmetry_cell_setting 'orthorhombic'
loop_
_space_group_symop_operation_xyz
x,y,z
1/2-x,-y,1/2+z
x,-y,-z
1/2-x,y,1/2-z
-x,-y,-z
1/2+x,y,1/2-z
-x,y,z
1/2+x,-y,1/2+z
loop_
_atom_site_type_symbol
_atom_site_label
_atom_site_fract_x
_atom_site_fract_y
_atom_site_fract_z
Si Si1 0.954539 0.580282 0.143225
Si Si2 0.047455 0.158350 0.461130
Si Si3 0.203699 0.432009 0.836709
Si Si4 0.415103 0.089382 0.543517
Si Si5 0.861138 0.214395 0.859059
Si Si6 0.370947 0.633070 0.066202
Si Si7 0.276524 0.732170 0.505060
Si Si8 0.423322 0.699287 0.704092
O O1 0.955663 0.648270 0.939516
O O2 0.000000 0.579567 0.276387
O O3 0.950461 0.500000 0.000000
O O4 0.912199 0.598952 0.297241
O O5 0.054047 0.120092 0.735557
O O6 0.059643 0.247867 0.430697
O O7 0.000000 0.152445 0.392779
O O8 0.072952 0.117715 0.238798
O O9 0.250000 0.451944 0.750000
O O10 0.170327 0.412477 0.622442
O O11 0.209645 0.355655 0.998489
O O12 0.186747 0.500000 0.000000
O O13 0.373467 0.126880 0.661903
O O14 0.413440 0.000000 0.500000
O O15 0.859467 0.279091 0.641998
O O16 0.818055 0.220331 0.998656
O O17 0.900106 0.245400 0.014485
O O18 0.387186 0.641374 0.784692
O O19 0.250000 0.743750 0.250000
O O20 0.250000 0.747528 0.750000
#
# Coordination Sequence:
#
# PCOD9418122 Si02
#       8
#     8   8   8   8   8   8   8   8
#     4  10  22  39  55  80 116 155 208 269 322 370
#     4  11  23  39  62  92 127 165 207 255 307 368
#     4  10  21  37  56  87 122 155 198 251 325 383
#     4  11  23  40  62  92 127 166 203 248 313 376
#     4   9  21  38  60  84 119 153 203 249 303 372
#     4  10  20  39  60  84 112 159 207 257 309 377
#     4  10  22  36  61  88 117 157 203 253 307 367
#     4  10  21  38  61  84 114 158 211 260 309 372
#
# _framework density 21.139112000000001
#
# number of rings (size 3 to 8) (size 9 to 14) (size 15 to 20)
#    0.000    1.875    1.250    1.875    5.250    3.000 
#    4.500    1.250    0.000    0.750    0.000    0.000 
#    0.000    0.000    0.000    0.000    0.000    0.000 
#
# Total GULP energy -356675.342626 kJ/mol
# GULP energy per Si atom -5573.052229 kJ/mol
# Density = 2.109100 g / cm^3
# Si number density = 21.139112 Si / 1000 Ang^3
#
#
#
# Elastic Constant Matrix: (Units=GPa)
#
#
# Indices 1 2 3 4 5 6 
#
# 1 77.7943 26.5238 6.6281 0.0000 0.0000 0.0000
# 2 26.5238 80.8897 11.4310 0.0000 0.0000 0.0000
# 3 6.6281 11.4310 55.2645 0.0000 0.0000 0.0000
# 4 0.0000 0.0000 0.0000 19.0553 0.0000 0.0000
# 5 0.0000 0.0000 0.0000 0.0000 66.5270 0.0000
# 6 0.0000 0.0000 0.0000 0.0000 0.0000 11.5045
#
#
#
# Elastic Compliance Matrix: (Units=1/GPa)
#
#
# Indices 1 2 3 4 5 6 
#
# 1 0.014505 -0.004646 -0.000779 0.000000 0.000000 0.000000
# 2 -0.004646 0.014223 -0.002385 0.000000 0.000000 0.000000
# 3 -0.000779 -0.002385 0.018681 0.000000 0.000000 0.000000
# 4 0.000000 0.000000 0.000000 0.052479 0.000000 0.000000
# 5 0.000000 0.000000 0.000000 0.000000 0.015031 0.000000
# 6 0.000000 0.000000 0.000000 0.000000 0.000000 0.086923
#
#
# Mechanical properties :
#
#
# Convention : Reuss Voigt Hill
#
# Bulk Modulus (GPa) = 31.45602 33.67937 32.56769
# Shear Modulus (GPa) = 21.92425 30.70839 26.31632
#
# Velocity S-wave (km/s) = 3.22396 3.81554 3.53216
# Velocity P-wave (km/s) = 5.36389 5.94794 5.66345
#
# Compressibility (1/GPa) = 0.03179042
#
# Stress axis : x y z
#
# Youngs Moduli (GPa) = 68.94247 70.30879 53.52909
#
# Poissons Ratio (x) = 0.32666 0.04168
# Poissons Ratio (y) = 0.32032 0.12765
# Poissons Ratio (z) = 0.05368 0.16766
#
# Static dielectric constant tensor:
#      x y z
#    x 1.800260 0.000000 0.000000 
#    y 0.000000 1.843270 0.000000 
#    z 0.000000 0.000000 1.858740 
# 
# From -- ./inp_files/5471.got.cif
#   From: 2010.05.17/outbox.cif.g08.bks.cpg/sg53_3_cif.got.tgz:5471.got - 2010.06.03 12:45:16.
