data_PCOD9418908
_publ_section_title
;
Structure prediction by ZEFSAII (Michael W. Deem and Ramdas Pophale) SiO2 
 PCOD9418908
Probable space group: P M N A
;
_chemical_formula_sum "Si O2"
_cell_formula_units_Z 56
_cell_length_a 13.958453
_cell_length_b 21.937027
_cell_length_c 9.201129
_cell_angle_alpha 90.000000
_cell_angle_beta 90.000000
_cell_angle_gamma 90.000000
_cell_volume 2817.449743
_symmetry_space_group_name_H-M "P M N A"
_symmetry_group_IT_number 53
_symmetry_cell_setting 'orthorhombic'
loop_
_space_group_symop_operation_xyz
x,y,z
1/2-x,-y,1/2+z
x,-y,-z
1/2-x,y,1/2-z
-x,-y,-z
1/2+x,y,1/2-z
-x,y,z
1/2+x,-y,1/2+z
loop_
_atom_site_type_symbol
_atom_site_label
_atom_site_fract_x
_atom_site_fract_y
_atom_site_fract_z
Si Si1 0.232641 0.635473 0.098307
Si Si2 0.110750 0.154256 0.942259
Si Si3 0.109334 0.564572 0.583231
Si Si4 0.607076 0.518512 0.334196
Si Si5 0.726574 0.938027 0.081835
Si Si6 0.386637 0.183236 0.894545
Si Si7 0.225104 0.253428 0.081715
O O1 0.250000 0.670197 0.250000
O O2 0.170089 0.578808 0.157184
O O3 0.322459 0.608453 0.008028
O O4 0.188798 0.683395 0.987192
O O5 0.177052 0.096018 0.969947
O O6 0.131081 0.182785 0.780804
O O7 0.000000 0.139003 0.946787
O O8 0.142645 0.204007 0.058466
O O9 0.110997 0.500000 0.500000
O O10 0.140674 0.540256 0.742260
O O11 0.000000 0.587571 0.590919
O O12 0.601174 0.500000 0.500000
O O13 0.500000 0.533119 0.278476
O O14 0.750000 0.950989 0.250000
O O15 0.644982 0.886122 0.066127
O O16 0.704792 0.000000 0.000000
O O17 0.500000 0.194454 0.919008
O O18 0.316885 0.227950 0.987236
O O19 0.250000 0.260596 0.250000
#
# Coordination Sequence:
#
# PCOD9418908 Si02
#       7
#     8   8   8   8   8   8   8
#     4  12  24  37  62  88 113 155 199 238 292 358
#     4   9  19  40  65  83 113 162 207 248 294 348
#     4  10  21  40  61  85 114 147 187 233 285 350
#     4  10  23  40  60  86 117 148 183 230 290 355
#     4   9  18  32  54  90 128 159 198 243 290 348
#     4   9  19  40  65  83 113 162 208 248 295 349
#     4  11  25  40  56  88 121 149 195 254 307 358
#
# _framework density 19.87613
#
# number of rings (size 3 to 8) (size 9 to 14) (size 15 to 20)
#    0.000    2.000    1.429    2.571    2.000    4.571 
#    0.000    0.000    0.000    0.000    0.000    0.000 
#    0.000    0.000    0.000    0.000    0.000    0.000 
#
# Total GULP energy -312183.029191 kJ/mol
# GULP energy per Si atom -5574.696950 kJ/mol
# Density = 1.983089 g / cm^3
# Si number density = 19.876130 Si / 1000 Ang^3
#
#
#
# Elastic Constant Matrix: (Units=GPa)
#
#
# Indices 1 2 3 4 5 6 
#
# 1 66.8391 0.6770 -2.5320 0.0000 0.0000 0.0000
# 2 0.6770 59.8629 20.2749 0.0000 0.0000 0.0000
# 3 -2.5320 20.2749 94.6858 0.0000 0.0000 0.0000
# 4 0.0000 0.0000 0.0000 33.7418 0.0000 0.0000
# 5 0.0000 0.0000 0.0000 0.0000 12.9828 0.0000
# 6 0.0000 0.0000 0.0000 0.0000 0.0000 16.0479
#
#
#
# Elastic Compliance Matrix: (Units=1/GPa)
#
#
# Indices 1 2 3 4 5 6 
#
# 1 0.014982 -0.000329 0.000471 0.000000 0.000000 0.000000
# 2 -0.000329 0.018018 -0.003867 0.000000 0.000000 0.000000
# 3 0.000471 -0.003867 0.011402 0.000000 0.000000 0.000000
# 4 0.000000 0.000000 0.000000 0.029637 0.000000 0.000000
# 5 0.000000 0.000000 0.000000 0.000000 0.077025 0.000000
# 6 0.000000 0.000000 0.000000 0.000000 0.000000 0.062313
#
#
# Mechanical properties :
#
#
# Convention : Reuss Voigt Hill
#
# Bulk Modulus (GPa) = 27.06157 28.69197 27.87677
# Shear Modulus (GPa) = 21.44586 26.08570 23.76578
#
# Velocity S-wave (km/s) = 3.28834 3.62665 3.46163
# Velocity P-wave (km/s) = 5.29738 5.65717 5.48023
#
# Compressibility (1/GPa) = 0.03695278
#
# Stress axis : x y z
#
# Youngs Moduli (GPa) = 66.74461 55.49925 87.70485
#
# Poissons Ratio (x) = 0.01826 -0.04132
# Poissons Ratio (y) = 0.02196 0.33916
# Poissons Ratio (z) = -0.03144 0.21462
#
# Static dielectric constant tensor:
#      x y z
#    x 1.773600 0.000000 0.000000 
#    y 0.000000 1.718520 0.000000 
#    z 0.000000 0.000000 2.040850 
# 
# From -- ./inp_files/8834.got.cif
#   From: 2010.05.17/outbox.cif.g08.bks.cpg/sg53_5_cif.got.tgz:8834.got - 2010.06.03 12:45:16.
