data_PCOD9418937
_publ_section_title
;
Structure prediction by ZEFSAII (Michael W. Deem and Ramdas Pophale) SiO2 
 PCOD9418937
Probable space group: P M N A
;
_chemical_formula_sum "Si O2"
_cell_formula_units_Z 40
_cell_length_a 8.865771
_cell_length_b 12.486307
_cell_length_c 18.228493
_cell_angle_alpha 90.000000
_cell_angle_beta 90.000000
_cell_angle_gamma 90.000000
_cell_volume 2017.907637
_symmetry_space_group_name_H-M "P M N A"
_symmetry_group_IT_number 53
_symmetry_cell_setting 'orthorhombic'
loop_
_space_group_symop_operation_xyz
x,y,z
1/2-x,-y,1/2+z
x,-y,-z
1/2-x,y,1/2-z
-x,-y,-z
1/2+x,y,1/2-z
-x,y,z
1/2+x,-y,1/2+z
loop_
_atom_site_type_symbol
_atom_site_label
_atom_site_fract_x
_atom_site_fract_y
_atom_site_fract_z
Si Si1 0.679216 0.841622 0.329935
Si Si2 0.179787 0.344530 0.572612
Si Si3 0.179147 0.947722 0.921867
Si Si4 0.179068 0.524287 0.827648
Si Si5 0.821169 0.283013 0.405145
O O1 0.750000 0.829530 0.250000
O O2 0.500000 0.820190 0.328218
O O3 0.757688 0.759052 0.385123
O O4 0.701930 0.961220 0.360908
O O5 0.258513 0.446274 0.609276
O O6 0.210297 0.329603 0.486535
O O7 0.000000 0.353634 0.582343
O O8 0.267850 0.839539 0.905504
O O9 0.000000 0.923213 0.926618
O O10 0.223775 0.000000 0.000000
O O11 0.250000 0.490700 0.750000
O O12 0.233481 0.643510 0.847610
O O13 0.000000 0.517935 0.823805
O O14 0.000000 0.290326 0.391835
#
# Coordination Sequence:
#
# PCOD9418937 Si02
#       5
#     8   8   8   8   8
#     4  11  23  39  62  92 127 165 209 260 315 374
#     4  11  23  41  65  94 128 164 208 259 313 373
#     4  10  21  40  64  90 124 166 212 259 307 367
#     4  12  26  44  66  91 126 167 210 260 316 376
#     4  11  24  41  66  96 128 165 209 260 314 376
#
# _framework density 19.822512
#
# number of rings (size 3 to 8) (size 9 to 14) (size 15 to 20)
#    0.000    1.000    2.000    4.800    0.000    7.600 
#    0.000    2.000    0.000    0.000    0.000    0.000 
#    0.000    0.000    0.000    0.000    0.000    0.000 
#
# Total GULP energy -223881.586716 kJ/mol
# GULP energy per Si atom -5597.039668 kJ/mol
# Density = 1.977740 g / cm^3
# Si number density = 19.822512 Si / 1000 Ang^3
#
#
#
# Elastic Constant Matrix: (Units=GPa)
#
#
# Indices 1 2 3 4 5 6 
#
# 1 83.3327 32.5099 35.1120 0.0000 0.0000 0.0000
# 2 32.5099 78.4982 -1.3275 0.0000 0.0000 0.0000
# 3 35.1120 -1.3275 44.9448 0.0000 0.0000 0.0000
# 4 0.0000 0.0000 0.0000 -115.7770 0.0000 0.0000
# 5 0.0000 0.0000 0.0000 0.0000 21.2236 0.0000
# 6 0.0000 0.0000 0.0000 0.0000 0.0000 37.2803
#
#
#
# Elastic Compliance Matrix: (Units=1/GPa)
#
#
# Indices 1 2 3 4 5 6 
#
# 1 0.024062 -0.010288 -0.019102 0.000000 0.000000 0.000000
# 2 -0.010288 0.017145 0.008544 0.000000 0.000000 0.000000
# 3 -0.019102 0.008544 0.037425 0.000000 0.000000 0.000000
# 4 0.000000 0.000000 0.000000 -0.008637 0.000000 0.000000
# 5 0.000000 0.000000 0.000000 0.000000 0.047117 0.000000
# 6 0.000000 0.000000 0.000000 0.000000 0.000000 0.026824
#
#
# Mechanical properties :
#
#
# Convention : Reuss Voigt Hill
#
# Bulk Modulus (GPa) = 27.07178 37.70717 32.38947
# Shear Modulus (GPa) = 25.25994 -2.08920 11.58537
#
# Velocity S-wave (km/s) = 3.57361 -1.02773 2.42017
# Velocity P-wave (km/s) = 5.54205 4.20183 4.91781
#
# Compressibility (1/GPa) = 0.03693884
#
# Stress axis : x y z
#
# Youngs Moduli (GPa) = 41.55850 58.32745 26.72019
#
# Poissons Ratio (x) = 0.60010 0.51041
# Poissons Ratio (y) = 0.42757 -0.22830
# Poissons Ratio (z) = 0.79385 -0.49835
#
# Static dielectric constant tensor:
#      x y z
#    x 1.657210 0.000000 0.000000 
#    y 0.000000 1.683520 0.000000 
#    z 0.000000 0.000000 1.680700 
# 
# From -- ./inp_files/25827.got.cif
#   From: 2010.05.17/outbox.cif.g08.bks.cpg/sg53_13_cif.got.tgz:25827.got - 2010.06.03 12:45:16.
