data_PCOD9418880
_publ_section_title
;
Structure prediction by ZEFSAII (Michael W. Deem and Ramdas Pophale) SiO2 
 PCOD9418880
Probable space group: P M N A
;
_chemical_formula_sum "Si O2"
_cell_formula_units_Z 52
_cell_length_a 23.166123
_cell_length_b 20.447818
_cell_length_c 5.561130
_cell_angle_alpha 90.000000
_cell_angle_beta 90.000000
_cell_angle_gamma 90.000000
_cell_volume 2634.288745
_symmetry_space_group_name_H-M "P M N A"
_symmetry_group_IT_number 53
_symmetry_cell_setting 'orthorhombic'
loop_
_space_group_symop_operation_xyz
x,y,z
1/2-x,-y,1/2+z
x,-y,-z
1/2-x,y,1/2-z
-x,-y,-z
1/2+x,y,1/2-z
-x,y,z
1/2+x,-y,1/2+z
loop_
_atom_site_type_symbol
_atom_site_label
_atom_site_fract_x
_atom_site_fract_y
_atom_site_fract_z
Si Si1 0.250000 0.383695 0.750000
Si Si2 0.382020 0.828321 0.258124
Si Si3 0.333238 0.334286 0.126300
Si Si4 0.068021 0.685722 0.256549
Si Si5 0.682754 0.193061 0.258683
Si Si6 0.862073 0.572012 0.003866
Si Si7 0.931565 0.030273 0.748691
O O1 0.220796 0.337128 0.552459
O O2 0.304758 0.425780 0.667781
O O3 0.417280 0.761084 0.304337
O O4 0.344188 0.837392 0.500114
O O5 0.421142 0.892372 0.239916
O O6 0.347319 0.821412 0.002428
O O7 0.324448 0.271542 0.291895
O O8 0.336916 0.403811 0.252343
O O9 0.394052 0.325349 0.994401
O O10 0.000000 0.677452 0.284212
O O11 0.094331 0.629721 0.082541
O O12 0.750000 0.176508 0.250000
O O13 0.887704 0.500000 0.000000
O O14 0.000000 0.016566 0.748694
O O15 0.907279 0.000000 0.500000
O O16 0.908462 0.000000 0.000000
#
# Coordination Sequence:
#
# PCOD9418880 Si02
#       7
#     4   8   8   8   8   8   8
#     4  10  22  34  60  82 120 152 202 270 320 378
#     4  11  22  40  64  97 126 166 208 260 314 373
#     4  10  22  39  58  88 117 164 208 267 323 372
#     4  10  23  41  59  86 121 162 209 255 309 379
#     4  11  22  37  64  92 130 164 211 262 314 375
#     4  11  23  38  58  87 120 158 206 259 323 375
#     4  10  21  39  65  96 129 164 205 258 316 373
#
# _framework density 19.739674000000001
#
# number of rings (size 3 to 8) (size 9 to 14) (size 15 to 20)
#    0.000    1.538    1.538    3.231    6.462    2.769 
#    0.000    2.308    0.000    9.231    0.000    0.000 
#    0.000    0.000    0.000    0.000    0.000    0.000 
#
# Total GULP energy -289869.877573 kJ/mol
# GULP energy per Si atom -5574.420723 kJ/mol
# Density = 1.969475 g / cm^3
# Si number density = 19.739674 Si / 1000 Ang^3
#
#
#
# Elastic Constant Matrix: (Units=GPa)
#
#
# Indices 1 2 3 4 5 6 
#
# 1 46.8034 -4.5337 29.6260 0.0000 0.0000 0.0000
# 2 -4.5337 95.9776 29.1728 0.0000 0.0000 0.0000
# 3 29.6260 29.1728 108.5946 0.0000 0.0000 0.0000
# 4 0.0000 0.0000 0.0000 13.8065 0.0000 0.0000
# 5 0.0000 0.0000 0.0000 0.0000 4.9906 0.0000
# 6 0.0000 0.0000 0.0000 0.0000 0.0000 22.7743
#
#
#
# Elastic Compliance Matrix: (Units=1/GPa)
#
#
# Indices 1 2 3 4 5 6 
#
# 1 0.027063 0.003836 -0.008414 0.000000 0.000000 0.000000
# 2 0.003836 0.011889 -0.004240 0.000000 0.000000 0.000000
# 3 -0.008414 -0.004240 0.012643 0.000000 0.000000 0.000000
# 4 0.000000 0.000000 0.000000 0.072430 0.000000 0.000000
# 5 0.000000 0.000000 0.000000 0.000000 0.200376 0.000000
# 6 0.000000 0.000000 0.000000 0.000000 0.000000 0.043909
#
#
# Mechanical properties :
#
#
# Convention : Reuss Voigt Hill
#
# Bulk Modulus (GPa) = 29.44726 39.98952 34.71839
# Shear Modulus (GPa) = 12.58602 21.45498 17.02050
#
# Velocity S-wave (km/s) = 2.52781 3.30039 2.93959
# Velocity P-wave (km/s) = 4.84458 5.90134 5.39888
#
# Compressibility (1/GPa) = 0.03395901
#
# Stress axis : x y z
#
# Youngs Moduli (GPa) = 36.95046 84.11025 79.09503
#
# Poissons Ratio (x) = -0.32263 0.66548
# Poissons Ratio (y) = -0.14173 0.33539
# Poissons Ratio (z) = 0.31089 0.35666
#
# Static dielectric constant tensor:
#      x y z
#    x 1.666370 0.000000 0.000000 
#    y 0.000000 1.687940 0.000000 
#    z 0.000000 0.000000 1.804410 
# 
# From -- ./inp_files/2988.got.cif
#   From: 2010.05.17/outbox.cif.g08.bks.cpg/sg53_2_cif.got.tgz:2988.got - 2010.06.03 12:45:16.
