data_PCOD9418233
_publ_section_title
;
Structure prediction by ZEFSAII (Michael W. Deem and Ramdas Pophale) SiO2 
 PCOD9418233
Probable space group: P M N A
;
_chemical_formula_sum "Si O2"
_cell_formula_units_Z 56
_cell_length_a 7.726891
_cell_length_b 15.707991
_cell_length_c 27.307716
_cell_angle_alpha 90.000000
_cell_angle_beta 90.000000
_cell_angle_gamma 90.000000
_cell_volume 3314.444927
_symmetry_space_group_name_H-M "P M N A"
_symmetry_group_IT_number 53
_symmetry_cell_setting 'orthorhombic'
loop_
_space_group_symop_operation_xyz
x,y,z
1/2-x,-y,1/2+z
x,-y,-z
1/2-x,y,1/2-z
-x,-y,-z
1/2+x,y,1/2-z
-x,y,z
1/2+x,-y,1/2+z
loop_
_atom_site_type_symbol
_atom_site_label
_atom_site_fract_x
_atom_site_fract_y
_atom_site_fract_z
Si Si1 0.207699 0.326516 0.807599
Si Si2 0.500000 0.111262 0.052786
Si Si3 0.706733 0.487407 0.307611
Si Si4 0.698998 0.845932 0.622025
Si Si5 0.500000 0.093975 0.937488
Si Si6 0.301711 0.299720 0.192389
Si Si7 0.794579 0.992626 0.805645
Si Si8 0.289076 0.842610 0.364459
O O1 0.250000 0.313485 0.750000
O O2 0.270525 0.419954 0.825030
O O3 0.261487 0.248431 0.841681
O O4 0.000000 0.329321 0.809810
O O5 0.669241 0.154141 0.076988
O O6 0.500000 0.009411 0.064466
O O7 0.500000 0.118826 0.994372
O O8 0.750000 0.489612 0.250000
O O9 0.500000 0.482193 0.313857
O O10 0.782774 0.397764 0.324642
O O11 0.500000 0.863222 0.607127
O O12 0.701304 0.762499 0.656171
O O13 0.769268 0.921213 0.657235
O O14 0.329206 0.130762 0.910300
O O15 0.250000 0.294388 0.250000
O O16 0.500000 0.273421 0.189614
O O17 0.750000 0.975230 0.750000
O O18 0.744529 0.086120 0.823605
O O19 0.000000 0.988393 0.809215
O O20 0.500000 0.844727 0.373131
#
# Coordination Sequence:
#
# PCOD9418233 Si02
#       8
#     8   4   8   8   4   8   8   8
#     4   9  18  30  48  75 111 150 185 221 263 320
#     4  11  24  42  60  83 103 139 191 234 282 329
#     4   9  16  28  44  69 106 148 189 221 257 309
#     4  11  22  38  55  79 110 140 179 227 274 328
#     4  11  24  40  64  79 103 145 183 238 284 319
#     4  11  20  31  49  77 113 151 187 222 262 323
#     4  10  21  31  49  75 108 147 175 207 259 316
#     4  10  21  37  52  80 111 139 183 224 270 330
#
# _framework density 16.895738999999999
#
# number of rings (size 3 to 8) (size 9 to 14) (size 15 to 20)
#    0.000    1.857    2.143    3.429    3.000    2.286 
#    0.000    1.429    0.000    0.000    0.000    2.000 
#    0.000    4.571    0.000    0.000    0.000    0.000 
#
# Total GULP energy -312147.509984 kJ/mol
# GULP energy per Si atom -5574.062678 kJ/mol
# Density = 1.685728 g / cm^3
# Si number density = 16.895739 Si / 1000 Ang^3
#
#
#
# Elastic Constant Matrix: (Units=GPa)
#
#
# Indices 1 2 3 4 5 6 
#
# 1 68.8482 1.8281 22.5923 0.0000 0.0000 0.0000
# 2 1.8281 69.5134 8.3945 0.0000 0.0000 0.0000
# 3 22.5923 8.3945 69.9291 0.0000 0.0000 0.0000
# 4 0.0000 0.0000 0.0000 10.5858 0.0000 0.0000
# 5 0.0000 0.0000 0.0000 0.0000 22.0321 0.0000
# 6 0.0000 0.0000 0.0000 0.0000 0.0000 77.0730
#
#
#
# Elastic Compliance Matrix: (Units=1/GPa)
#
#
# Indices 1 2 3 4 5 6 
#
# 1 0.016250 0.000210 -0.005275 0.000000 0.000000 0.000000
# 2 0.000210 0.014600 -0.001820 0.000000 0.000000 0.000000
# 3 -0.005275 -0.001820 0.016223 0.000000 0.000000 0.000000
# 4 0.000000 0.000000 0.000000 0.094466 0.000000 0.000000
# 5 0.000000 0.000000 0.000000 0.000000 0.045388 0.000000
# 6 0.000000 0.000000 0.000000 0.000000 0.000000 0.012975
#
#
# Mechanical properties :
#
#
# Convention : Reuss Voigt Hill
#
# Bulk Modulus (GPa) = 30.02873 30.43562 30.23218
# Shear Modulus (GPa) = 22.24454 33.63657 27.94055
#
# Velocity S-wave (km/s) = 3.63240 4.46671 4.07099
# Velocity P-wave (km/s) = 5.95013 6.68243 6.32689
#
# Compressibility (1/GPa) = 0.03330144
#
# Stress axis : x y z
#
# Youngs Moduli (GPa) = 61.53781 68.49297 61.64087
#
# Poissons Ratio (x) = -0.01436 0.32517
# Poissons Ratio (y) = -0.01290 0.11221
# Poissons Ratio (z) = 0.32462 0.12468
#
# Static dielectric constant tensor:
#      x y z
#    x 1.570120 0.000000 0.000000 
#    y 0.000000 1.622260 0.000000 
#    z 0.000000 0.000000 1.561200 
# 
# From -- ./inp_files/30916.got.cif
#   From: 2010.05.17/outbox.cif.g08.bks.cpg/sg53_16_cif.got.tgz:30916.got - 2010.06.03 12:45:16.
