data_PCOD9418364
_publ_section_title
;
Structure prediction by ZEFSAII (Michael W. Deem and Ramdas Pophale) SiO2 
 PCOD9418364
Probable space group: P M N A
;
_chemical_formula_sum "Si O2"
_cell_formula_units_Z 48
_cell_length_a 10.132168
_cell_length_b 30.649247
_cell_length_c 8.698961
_cell_angle_alpha 90.000000
_cell_angle_beta 90.000000
_cell_angle_gamma 90.000000
_cell_volume 2701.404227
_symmetry_space_group_name_H-M "P M N A"
_symmetry_group_IT_number 53
_symmetry_cell_setting 'orthorhombic'
loop_
_space_group_symop_operation_xyz
x,y,z
1/2-x,-y,1/2+z
x,-y,-z
1/2-x,y,1/2-z
-x,-y,-z
1/2+x,y,1/2-z
-x,y,z
1/2+x,-y,1/2+z
loop_
_atom_site_type_symbol
_atom_site_label
_atom_site_fract_x
_atom_site_fract_y
_atom_site_fract_z
Si Si1 0.500000 0.450154 0.063065
Si Si2 0.654281 0.873296 0.606233
Si Si3 0.842296 0.307474 0.901128
Si Si4 0.753840 0.399861 0.936685
Si Si5 0.153980 0.789745 0.103745
Si Si6 0.000000 0.451950 0.068125
Si Si7 0.346458 0.957802 0.393660
O O1 0.500000 0.452323 0.247565
O O2 0.500000 0.500000 0.000000
O O3 0.624467 0.422779 0.002087
O O4 0.750000 0.877080 0.750000
O O5 0.500000 0.873601 0.653325
O O6 0.679856 0.828525 0.514517
O O7 0.674264 0.914132 0.492771
O O8 0.750000 0.304739 0.750000
O O9 0.782532 0.349684 0.985274
O O10 0.831604 0.258756 0.968872
O O11 0.000000 0.315403 0.869851
O O12 0.750000 0.400864 0.750000
O O13 0.873972 0.427477 0.001543
O O14 0.250000 0.793631 0.250000
O O15 0.000000 0.793159 0.153617
O O16 0.000000 0.500000 0.000000
O O17 0.250000 0.958560 0.250000
O O18 0.500000 0.958544 0.344065
O O19 0.324147 0.000000 0.500000
#
# Coordination Sequence:
#
# PCOD9418364 Si02
#       7
#     4   8   8   8   8   4   8
#     4  12  26  42  60  88 118 150 190 232 279 338
#     4  10  21  36  54  78 113 152 192 237 286 339
#     4   9  18  33  58  86 114 145 185 231 276 330
#     4  11  22  39  63  88 115 149 188 232 281 336
#     4   9  18  34  56  83 111 143 187 233 276 330
#     4  12  24  42  62  84 116 150 186 230 283 334
#     4  10  21  36  55  82 113 147 191 240 290 345
#
# _framework density 17.768537999999999
#
# number of rings (size 3 to 8) (size 9 to 14) (size 15 to 20)
#    0.000    1.833    0.833    3.500    3.500    1.667 
#    0.000    1.667    0.000    0.000    0.000    0.000 
#    0.000    0.000    0.000    0.000    0.000    0.000 
#
# Total GULP energy -267730.382925 kJ/mol
# GULP energy per Si atom -5577.716311 kJ/mol
# Density = 1.772810 g / cm^3
# Si number density = 17.768538 Si / 1000 Ang^3
#
#
#
# Elastic Constant Matrix: (Units=GPa)
#
#
# Indices 1 2 3 4 5 6 
#
# 1 146.3973 85.8331 80.0090 0.0000 0.0000 0.0000
# 2 85.8331 183.7575 66.3807 0.0000 0.0000 0.0000
# 3 80.0090 66.3807 113.7694 0.0000 0.0000 0.0000
# 4 0.0000 0.0000 0.0000 18.0720 0.0000 0.0000
# 5 0.0000 0.0000 0.0000 0.0000 39.9599 0.0000
# 6 0.0000 0.0000 0.0000 0.0000 0.0000 31.2751
#
#
#
# Elastic Compliance Matrix: (Units=1/GPa)
#
#
# Indices 1 2 3 4 5 6 
#
# 1 0.012569 -0.003393 -0.006859 0.000000 0.000000 0.000000
# 2 -0.003393 0.007811 -0.002171 0.000000 0.000000 0.000000
# 3 -0.006859 -0.002171 0.014881 0.000000 0.000000 0.000000
# 4 0.000000 0.000000 0.000000 0.055334 0.000000 0.000000
# 5 0.000000 0.000000 0.000000 0.000000 0.025025 0.000000
# 6 0.000000 0.000000 0.000000 0.000000 0.000000 0.031974
#
#
# Mechanical properties :
#
#
# Convention : Reuss Voigt Hill
#
# Bulk Modulus (GPa) = 96.03417 100.92996 98.48207
# Shear Modulus (GPa) = 28.42310 31.97482 30.19896
#
# Velocity S-wave (km/s) = 4.00388 4.24668 4.12706
# Velocity P-wave (km/s) = 8.69134 8.99842 8.84621
#
# Compressibility (1/GPa) = 0.01041296
#
# Stress axis : x y z
#
# Youngs Moduli (GPa) = 79.56165 128.02061 67.20153
#
# Poissons Ratio (x) = 0.43438 0.46096
# Poissons Ratio (y) = 0.26995 0.14592
# Poissons Ratio (z) = 0.54575 0.27799
#
# Static dielectric constant tensor:
#      x y z
#    x 1.582280 0.000000 0.000000 
#    y 0.000000 1.632340 0.000000 
#    z 0.000000 0.000000 1.577590 
# 
# From -- ./inp_files/6774.got.cif
#   From: 2010.05.17/outbox.cif.g08.bks.cpg/sg53_4_cif.got.tgz:6774.got - 2010.06.03 12:45:16.
