data_PCOD9418834
_publ_section_title
;
Structure prediction by ZEFSAII (Michael W. Deem and Ramdas Pophale) SiO2 
 PCOD9418834
Probable space group: P M N A
;
_chemical_formula_sum "Si O2"
_cell_formula_units_Z 64
_cell_length_a 29.072327
_cell_length_b 8.954695
_cell_length_c 11.478905
_cell_angle_alpha 90.000000
_cell_angle_beta 90.000000
_cell_angle_gamma 90.000000
_cell_volume 2988.347202
_symmetry_space_group_name_H-M "P M N A"
_symmetry_group_IT_number 53
_symmetry_cell_setting 'orthorhombic'
loop_
_space_group_symop_operation_xyz
x,y,z
1/2-x,-y,1/2+z
x,-y,-z
1/2-x,y,1/2-z
-x,-y,-z
1/2+x,y,1/2-z
-x,y,z
1/2+x,-y,1/2+z
loop_
_atom_site_type_symbol
_atom_site_label
_atom_site_fract_x
_atom_site_fract_y
_atom_site_fract_z
Si Si1 0.396927 0.253180 0.549266
Si Si2 0.445872 0.444927 0.727641
Si Si3 0.701946 0.177616 0.989947
Si Si4 0.300728 0.165087 0.250825
Si Si5 0.552957 0.238711 0.146182
Si Si6 0.397752 0.946525 0.678665
Si Si7 0.205912 0.328446 0.009146
Si Si8 0.616021 0.658712 0.061247
O O1 0.426299 0.388667 0.603581
O O2 0.405181 0.179986 0.421741
O O3 0.343377 0.299621 0.548790
O O4 0.405885 0.109560 0.629620
O O5 0.500000 0.408452 0.735225
O O6 0.441396 0.618453 0.766715
O O7 0.414775 0.365428 0.825368
O O8 0.693020 0.233650 0.122992
O O9 0.753346 0.226560 0.958477
O O10 0.662361 0.250806 0.913651
O O11 0.698293 0.000000 0.000000
O O12 0.250000 0.089960 0.250000
O O13 0.344658 0.065779 0.280843
O O14 0.298705 0.284372 0.354754
O O15 0.500000 0.234927 0.110919
O O16 0.569062 0.094923 0.216473
O O17 0.585298 0.258662 0.035320
O O18 0.219049 0.500000 0.000000
O O19 0.627326 0.500000 0.000000
#
# Coordination Sequence:
#
# PCOD9418834 Si02
#       8
#     8   8   8   8   8   8   8   8
#     4  10  24  38  62  89 124 160 205 262 306 367
#     4  10  23  41  61  90 123 160 210 266 322 373
#     4  11  23  38  63  95 128 167 212 255 312 377
#     4   9  20  37  64  82 123 166 205 253 311 364
#     4  10  21  39  66  91 118 164 212 258 320 381
#     4  10  21  40  60  88 121 161 207 250 315 372
#     4  10  23  41  65  92 127 167 215 253 314 376
#     4  10  21  39  63  89 128 162 207 262 314 373
#
# _framework density 21.416520999999999
#
# number of rings (size 3 to 8) (size 9 to 14) (size 15 to 20)
#    0.000    2.000    1.250    0.750   10.500    2.500 
#    0.000    3.125    0.000    2.250    0.000    0.000 
#    0.000    0.000    0.000    0.000    0.000    0.000 
#
# Total GULP energy -357457.469787 kJ/mol
# GULP energy per Si atom -5585.272965 kJ/mol
# Density = 2.136778 g / cm^3
# Si number density = 21.416521 Si / 1000 Ang^3
#
#
#
# Elastic Constant Matrix: (Units=GPa)
#
#
# Indices 1 2 3 4 5 6 
#
# 1 86.1742 26.3433 22.1090 0.0000 0.0000 0.0000
# 2 26.3433 30.5970 19.1782 0.0000 0.0000 0.0000
# 3 22.1090 19.1782 38.2829 0.0000 0.0000 0.0000
# 4 0.0000 0.0000 0.0000 28.6554 0.0000 0.0000
# 5 0.0000 0.0000 0.0000 0.0000 31.4084 0.0000
# 6 0.0000 0.0000 0.0000 0.0000 0.0000 4.8567
#
#
#
# Elastic Compliance Matrix: (Units=1/GPa)
#
#
# Indices 1 2 3 4 5 6 
#
# 1 0.016051 -0.011676 -0.003421 0.000000 0.000000 0.000000
# 2 -0.011676 0.056136 -0.021379 0.000000 0.000000 0.000000
# 3 -0.003421 -0.021379 0.038807 0.000000 0.000000 0.000000
# 4 0.000000 0.000000 0.000000 0.034897 0.000000 0.000000
# 5 0.000000 0.000000 0.000000 0.000000 0.031839 0.000000
# 6 0.000000 0.000000 0.000000 0.000000 0.000000 0.205901
#
#
# Mechanical properties :
#
#
# Convention : Reuss Voigt Hill
#
# Bulk Modulus (GPa) = 26.28593 32.25722 29.27158
# Shear Modulus (GPa) = 10.65501 18.81233 14.73367
#
# Velocity S-wave (km/s) = 2.23292 2.96700 2.62574
# Velocity P-wave (km/s) = 4.35296 5.17996 4.78436
#
# Compressibility (1/GPa) = 0.03804316
#
# Stress axis : x y z
#
# Youngs Moduli (GPa) = 62.30045 17.81395 25.76857
#
# Poissons Ratio (x) = 0.20799 0.08815
# Poissons Ratio (y) = 0.72739 0.55091
# Poissons Ratio (z) = 0.21312 0.38084
#
# Static dielectric constant tensor:
#      x y z
#    x 1.757180 0.000000 0.000000 
#    y 0.000000 1.763310 0.000000 
#    z 0.000000 0.000000 1.792600 
# 
# From -- ./inp_files/19040.got.cif
#   From: 2010.05.17/outbox.cif.g08.bks.cpg/sg53_10_cif.got.tgz:19040.got - 2010.06.03 12:45:16.
