data_PCOD9418961
_publ_section_title
;
Structure prediction by ZEFSAII (Michael W. Deem and Ramdas Pophale) SiO2 
 PCOD9418961
Probable space group: P M N A
;
_chemical_formula_sum "Si O2"
_cell_formula_units_Z 38
_cell_length_a 11.075286
_cell_length_b 5.034524
_cell_length_c 27.396101
_cell_angle_alpha 90.000000
_cell_angle_beta 90.000000
_cell_angle_gamma 90.000000
_cell_volume 1527.573529
_symmetry_space_group_name_H-M "P M N A"
_symmetry_group_IT_number 53
_symmetry_cell_setting 'orthorhombic'
loop_
_space_group_symop_operation_xyz
x,y,z
1/2-x,-y,1/2+z
x,-y,-z
1/2-x,y,1/2-z
-x,-y,-z
1/2+x,y,1/2-z
-x,y,z
1/2+x,-y,1/2+z
loop_
_atom_site_type_symbol
_atom_site_label
_atom_site_fract_x
_atom_site_fract_y
_atom_site_fract_z
Si Si1 0.776439 0.574020 0.147986
Si Si2 0.500000 0.871261 0.781120
Si Si3 0.332170 0.083652 0.406249
Si Si4 0.367711 0.735462 0.968523
Si Si5 0.750000 0.867517 0.250000
Si Si6 0.500000 0.367468 0.844614
Si Si7 0.500000 0.000000 0.500000
O O1 0.848220 0.303169 0.136152
O O2 0.773462 0.681276 0.203073
O O3 0.633261 0.582769 0.133558
O O4 0.842765 0.793685 0.115164
O O5 0.627930 0.956293 0.756857
O O6 0.500000 0.059214 0.829117
O O7 0.500000 0.565129 0.797213
O O8 0.198417 0.159862 0.421545
O O9 0.398807 0.088748 0.458471
O O10 0.500000 0.631217 0.956116
O O11 0.306054 0.500000 0.000000
O O12 0.377478 0.000000 0.000000
#
# Coordination Sequence:
#
# PCOD9418961 Si02
#       7
#     8   4   8   8   4   4   2
#     4  11  26  44  75 110 144 196 254 313 398 462
#     4  10  22  40  74 102 148 203 239 305 393 445
#     4  12  27  46  71 104 140 205 249 305 384 452
#     4  10  21  40  67 101 135 169 227 303 364 432
#     4  10  24  48  72 112 160 196 258 330 388 478
#     4  10  22  44  69 109 145 180 240 317 371 453
#     4  12  32  54  72 102 164 202 272 324 368 464
#
# _framework density 24.876054
#
# number of rings (size 3 to 8) (size 9 to 14) (size 15 to 20)
#    0.000    1.263    1.053    3.789    2.947   10.947 
#    0.000    0.000    0.000    1.263    0.000    0.000 
#    0.000    0.000    0.000    0.000    0.000    0.000 
#
# Total GULP energy -211599.769711 kJ/mol
# GULP energy per Si atom -5568.414992 kJ/mol
# Density = 2.481943 g / cm^3
# Si number density = 24.876054 Si / 1000 Ang^3
#
#
#
# Elastic Constant Matrix: (Units=GPa)
#
#
# Indices 1 2 3 4 5 6 
#
# 1 104.7814 25.0743 18.4533 0.0000 0.0000 0.0000
# 2 25.0743 68.4951 33.0378 0.0000 0.0000 0.0000
# 3 18.4533 33.0378 84.7997 0.0000 0.0000 0.0000
# 4 0.0000 0.0000 0.0000 38.5544 0.0000 0.0000
# 5 0.0000 0.0000 0.0000 0.0000 -202.3121 0.0000
# 6 0.0000 0.0000 0.0000 0.0000 0.0000 -26.7919
#
#
#
# Elastic Compliance Matrix: (Units=1/GPa)
#
#
# Indices 1 2 3 4 5 6 
#
# 1 0.010525 -0.003384 -0.000972 0.000000 0.000000 0.000000
# 2 -0.003384 0.019066 -0.006692 0.000000 0.000000 0.000000
# 3 -0.000972 -0.006692 0.014611 0.000000 0.000000 0.000000
# 4 0.000000 0.000000 0.000000 0.025937 0.000000 0.000000
# 5 0.000000 0.000000 0.000000 0.000000 -0.004943 0.000000
# 6 0.000000 0.000000 0.000000 0.000000 0.000000 -0.037325
#
#
# Mechanical properties :
#
#
# Convention : Reuss Voigt Hill
#
# Bulk Modulus (GPa) = 45.23541 45.68965 45.46253
# Shear Modulus (GPa) = 87.20596 -26.00919 30.59839
#
# Velocity S-wave (km/s) = 5.92725 -3.23701 3.51099
# Velocity P-wave (km/s) = 8.06640 2.10614 5.89503
#
# Compressibility (1/GPa) = 0.02210657
#
# Stress axis : x y z
#
# Youngs Moduli (GPa) = 95.01509 52.44925 68.44137
#
# Poissons Ratio (x) = 0.17749 0.06651
# Poissons Ratio (y) = 0.32154 0.45799
# Poissons Ratio (z) = 0.09234 0.35097
#
# Static dielectric constant tensor:
#      x y z
#    x 2.077570 0.000000 0.000000 
#    y 0.000000 1.926790 0.000000 
#    z 0.000000 0.000000 2.006340 
# 
# From -- ./inp_files/36653.got.cif
#   From: 2010.05.17/outbox.cif.g08.bks.cpg/sg53_19_cif.got.tgz:36653.got - 2010.06.03 12:45:16.
