data_PCOD9418713
_publ_section_title
;
Structure prediction by ZEFSAII (Michael W. Deem and Ramdas Pophale) SiO2 
 PCOD9418713
Probable space group: P M N A
;
_chemical_formula_sum "Si O2"
_cell_formula_units_Z 64
_cell_length_a 7.935218
_cell_length_b 25.225467
_cell_length_c 14.421981
_cell_angle_alpha 90.000000
_cell_angle_beta 90.000000
_cell_angle_gamma 90.000000
_cell_volume 2886.841877
_symmetry_space_group_name_H-M "P M N A"
_symmetry_group_IT_number 53
_symmetry_cell_setting 'orthorhombic'
loop_
_space_group_symop_operation_xyz
x,y,z
1/2-x,-y,1/2+z
x,-y,-z
1/2-x,y,1/2-z
-x,-y,-z
1/2+x,y,1/2-z
-x,y,z
1/2+x,-y,1/2+z
loop_
_atom_site_type_symbol
_atom_site_label
_atom_site_fract_x
_atom_site_fract_y
_atom_site_fract_z
Si Si1 0.798356 0.748953 0.535191
Si Si2 0.202925 0.470252 0.143082
Si Si3 0.796265 0.032629 0.359783
Si Si4 0.202948 0.198219 0.643698
Si Si5 0.804692 0.589413 0.356631
Si Si6 0.703247 0.081450 0.859229
Si Si7 0.296300 0.147653 0.141923
Si Si8 0.306972 0.366938 0.458844
O O1 0.737456 0.758568 0.429860
O O2 0.732477 0.798935 0.593749
O O3 0.760409 0.690219 0.569094
O O4 0.000000 0.753427 0.534907
O O5 0.250000 0.461795 0.250000
O O6 0.275347 0.527691 0.117457
O O7 0.000000 0.474863 0.132527
O O8 0.270145 0.419764 0.086777
O O9 0.750000 0.032907 0.250000
O O10 0.737415 0.090008 0.396186
O O11 0.000000 0.032210 0.368145
O O12 0.735608 0.975441 0.397287
O O13 0.250000 0.207224 0.750000
O O14 0.262627 0.139623 0.610334
O O15 0.000000 0.196900 0.641460
O O16 0.750000 0.595680 0.250000
O O17 0.708747 0.624820 0.431033
O O18 0.000000 0.602576 0.364360
O O19 0.750000 0.080840 0.750000
O O20 0.500000 0.081352 0.869562
O O21 0.250000 0.149638 0.250000
O O22 0.500000 0.147201 0.133560
O O23 0.500000 0.367572 0.430351
#
# Coordination Sequence:
#
# PCOD9418713 Si02
#       8
#     8   8   8   8   8   8   8   8
#     4  10  22  38  53  73 104 141 182 225 269 319
#     4  10  21  38  61  89 120 150 182 223 269 320
#     4   8  13  23  42  68  95 124 160 205 259 319
#     4   9  18  33  52  73  99 133 171 215 267 320
#     4  11  22  38  63  92 121 151 182 219 266 320
#     4   8  13  23  42  68  95 123 159 204 258 319
#     4   9  18  33  52  73 100 135 174 218 269 323
#     4  11  24  40  58  82 113 149 189 231 272 316
#
# _framework density 22.169553000000001
#
# number of rings (size 3 to 8) (size 9 to 14) (size 15 to 20)
#    0.000    2.500    0.000    3.000    0.000    5.500 
#    0.000    4.375    0.000    3.750    0.000    0.000 
#    0.000   21.000    0.000    0.000    0.000    0.000 
#
# Total GULP energy -357053.046724 kJ/mol
# GULP energy per Si atom -5578.953855 kJ/mol
# Density = 2.211909 g / cm^3
# Si number density = 22.169553 Si / 1000 Ang^3
#
#
#
# Elastic Constant Matrix: (Units=GPa)
#
#
# Indices 1 2 3 4 5 6 
#
# 1 17.6881 -8.2603 -7.6937 0.0000 0.0000 0.0000
# 2 -8.2603 79.5628 20.1265 0.0000 0.0000 0.0000
# 3 -7.6937 20.1265 34.1872 0.0000 0.0000 0.0000
# 4 0.0000 0.0000 0.0000 13.1733 0.0000 0.0000
# 5 0.0000 0.0000 0.0000 0.0000 -17.1063 0.0000
# 6 0.0000 0.0000 0.0000 0.0000 0.0000 19.3757
#
#
#
# Elastic Compliance Matrix: (Units=1/GPa)
#
#
# Indices 1 2 3 4 5 6 
#
# 1 0.063488 0.003498 0.012228 0.000000 0.000000 0.000000
# 2 0.003498 0.014961 -0.008020 0.000000 0.000000 0.000000
# 3 0.012228 -0.008020 0.036724 0.000000 0.000000 0.000000
# 4 0.000000 0.000000 0.000000 0.075911 0.000000 0.000000
# 5 0.000000 0.000000 0.000000 0.000000 -0.058458 0.000000
# 6 0.000000 0.000000 0.000000 0.000000 0.000000 0.051611
#
#
# Mechanical properties :
#
#
# Convention : Reuss Voigt Hill
#
# Bulk Modulus (GPa) = 7.65786 15.53144 11.59465
# Shear Modulus (GPa) = 23.54568 11.57291 17.55929
#
# Velocity S-wave (km/s) = 3.26248 2.28725 2.81738
# Velocity P-wave (km/s) = 4.20160 3.74116 3.97805
#
# Compressibility (1/GPa) = 0.13058477
#
# Stress axis : x y z
#
# Youngs Moduli (GPa) = 15.75111 66.84167 27.22985
#
# Poissons Ratio (x) = -0.23382 -0.33298
# Poissons Ratio (y) = -0.05510 0.21839
# Poissons Ratio (z) = -0.19261 0.53610
#
# Static dielectric constant tensor:
#      x y z
#    x 1.820110 0.000000 0.000000 
#    y 0.000000 1.856400 0.000000 
#    z 0.000000 0.000000 1.440900 
# 
# From -- ./inp_files/20850.got.cif
#   From: 2010.05.17/outbox.cif.g08.bks.cpg/sg53_11_cif.got.tgz:20850.got - 2010.06.03 12:45:16.
