data_PCOD9418357
_publ_section_title
;
Structure prediction by ZEFSAII (Michael W. Deem and Ramdas Pophale) SiO2 
 PCOD9418357
Probable space group: P M N A
;
_chemical_formula_sum "Si O2"
_cell_formula_units_Z 64
_cell_length_a 9.646077
_cell_length_b 11.512305
_cell_length_c 31.374272
_cell_angle_alpha 90.000000
_cell_angle_beta 90.000000
_cell_angle_gamma 90.000000
_cell_volume 3484.068369
_symmetry_space_group_name_H-M "P M N A"
_symmetry_group_IT_number 53
_symmetry_cell_setting 'orthorhombic'
loop_
_space_group_symop_operation_xyz
x,y,z
1/2-x,-y,1/2+z
x,-y,-z
1/2-x,y,1/2-z
-x,-y,-z
1/2+x,y,1/2-z
-x,y,z
1/2+x,-y,1/2+z
loop_
_atom_site_type_symbol
_atom_site_label
_atom_site_fract_x
_atom_site_fract_y
_atom_site_fract_z
Si Si1 0.161342 0.229798 0.791572
Si Si2 0.656325 0.592558 0.893991
Si Si3 0.148724 0.385059 0.029204
Si Si4 0.845153 0.139168 0.392988
Si Si5 0.836018 0.046956 0.859099
Si Si6 0.664524 0.610811 0.374534
Si Si7 0.241819 0.131645 0.009589
Si Si8 0.159167 0.210413 0.578623
O O1 0.250000 0.251565 0.750000
O O2 0.187289 0.104132 0.813078
O O3 0.186475 0.316888 0.831117
O O4 0.000000 0.237972 0.780493
O O5 0.500000 0.545276 0.892315
O O6 0.717364 0.599899 0.941599
O O7 0.652606 0.726178 0.880750
O O8 0.766147 0.514049 0.869348
O O9 0.154152 0.253013 0.010777
O O10 0.000000 0.389858 0.053109
O O11 0.148229 0.500000 0.000000
O O12 0.810058 0.126303 0.443456
O O13 0.000000 0.089835 0.385882
O O14 0.725761 0.079140 0.365708
O O15 0.745748 0.119811 0.892965
O O16 0.000000 0.056191 0.868641
O O17 0.500000 0.611679 0.383647
O O18 0.752422 0.672545 0.412438
O O19 0.338659 0.162136 0.969389
O O20 0.183728 0.000000 0.000000
O O21 0.000000 0.224781 0.592417
#
# Coordination Sequence:
#
# PCOD9418357 Si02
#       8
#     8   8   8   8   8   8   8   8
#     4   9  20  37  59  88 116 140 170 214 270 332
#     4  10  21  36  55  79 105 141 188 230 272 329
#     4  10  22  38  53  71 102 148 194 241 296 347
#     4  10  21  37  54  76 108 150 197 240 281 330
#     4  10  21  36  53  79 113 144 179 223 275 335
#     4  10  21  38  58  84 116 145 179 227 280 338
#     4  11  22  34  50  81 111 146 199 261 295 335
#     4  11  21  34  54  77 107 148 190 235 287 333
#
# _framework density 18.369329
#
# number of rings (size 3 to 8) (size 9 to 14) (size 15 to 20)
#    0.000    1.875    1.250    3.375    0.000    9.000 
#    0.000    0.000    0.000    0.750    0.000    0.000 
#    0.000    0.000    0.000    0.000    0.000    0.000 
#
# Total GULP energy -356351.280988 kJ/mol
# GULP energy per Si atom -5567.988765 kJ/mol
# Density = 1.832752 g / cm^3
# Si number density = 18.369329 Si / 1000 Ang^3
#
#
#
# Elastic Constant Matrix: (Units=GPa)
#
#
# Indices 1 2 3 4 5 6 
#
# 1 117.8782 51.4082 35.4878 0.0000 0.0000 0.0000
# 2 51.4082 104.3962 34.2167 0.0000 0.0000 0.0000
# 3 35.4878 34.2167 56.0454 0.0000 0.0000 0.0000
# 4 0.0000 0.0000 0.0000 8.9634 0.0000 0.0000
# 5 0.0000 0.0000 0.0000 0.0000 72.5978 0.0000
# 6 0.0000 0.0000 0.0000 0.0000 0.0000 30.2918
#
#
#
# Elastic Compliance Matrix: (Units=1/GPa)
#
#
# Indices 1 2 3 4 5 6 
#
# 1 0.011790 -0.004199 -0.004902 0.000000 0.000000 0.000000
# 2 -0.004199 0.013471 -0.005565 0.000000 0.000000 0.000000
# 3 -0.004902 -0.005565 0.024344 0.000000 0.000000 0.000000
# 4 0.000000 0.000000 0.000000 0.111565 0.000000 0.000000
# 5 0.000000 0.000000 0.000000 0.000000 0.013775 0.000000
# 6 0.000000 0.000000 0.000000 0.000000 0.000000 0.033012
#
#
# Mechanical properties :
#
#
# Convention : Reuss Voigt Hill
#
# Bulk Modulus (GPa) = 49.32763 57.83838 53.58301
# Shear Modulus (GPa) = 20.48781 32.85107 26.66944
#
# Velocity S-wave (km/s) = 3.34327 4.23349 3.81444
# Velocity P-wave (km/s) = 6.46644 7.44657 6.97375
#
# Compressibility (1/GPa) = 0.02027261
#
# Stress axis : x y z
#
# Youngs Moduli (GPa) = 84.81413 74.23445 41.07758
#
# Poissons Ratio (x) = 0.31174 0.20136
# Poissons Ratio (y) = 0.35617 0.22860
# Poissons Ratio (z) = 0.41575 0.41313
#
# Static dielectric constant tensor:
#      x y z
#    x 1.641790 0.000000 0.000000 
#    y 0.000000 1.740680 0.000000 
#    z 0.000000 0.000000 1.612280 
# 
# From -- ./inp_files/38313.got.cif
#   From: 2010.05.17/outbox.cif.g08.bks.cpg/sg53_20_cif.got.tgz:38313.got - 2010.06.03 12:45:16.
