data_PCOD9418337
_publ_section_title
;
Structure prediction by ZEFSAII (Michael W. Deem and Ramdas Pophale) SiO2 
 PCOD9418337
Probable space group: P M N A
;
_chemical_formula_sum "Si O2"
_cell_formula_units_Z 64
_cell_length_a 15.742718
_cell_length_b 21.570376
_cell_length_c 9.518686
_cell_angle_alpha 90.000000
_cell_angle_beta 90.000000
_cell_angle_gamma 90.000000
_cell_volume 3232.320616
_symmetry_space_group_name_H-M "P M N A"
_symmetry_group_IT_number 53
_symmetry_cell_setting 'orthorhombic'
loop_
_space_group_symop_operation_xyz
x,y,z
1/2-x,-y,1/2+z
x,-y,-z
1/2-x,y,1/2-z
-x,-y,-z
1/2+x,y,1/2-z
-x,y,z
1/2+x,-y,1/2+z
loop_
_atom_site_type_symbol
_atom_site_label
_atom_site_fract_x
_atom_site_fract_y
_atom_site_fract_z
Si Si1 0.840256 0.873810 0.174049
Si Si2 0.749126 0.564980 0.079836
Si Si3 0.401605 0.348477 0.483349
Si Si4 0.648751 0.259985 0.715985
Si Si5 0.647668 0.728463 0.765624
Si Si6 0.099786 0.006516 0.156334
Si Si7 0.096160 0.659695 0.467176
Si Si8 0.337898 0.139420 0.332682
O O1 0.750000 0.874976 0.250000
O O2 0.882708 0.810328 0.226421
O O3 0.881936 0.938862 0.217811
O O4 0.833285 0.865296 0.003539
O O5 0.750000 0.559346 0.250000
O O6 0.743329 0.500000 0.000000
O O7 0.835892 0.598975 0.031166
O O8 0.668751 0.607283 0.034271
O O9 0.500000 0.361985 0.514829
O O10 0.368806 0.286732 0.562742
O O11 0.391148 0.328454 0.322401
O O12 0.750000 0.262265 0.750000
O O13 0.601979 0.307358 0.816980
O O14 0.750000 0.725154 0.750000
O O15 0.622139 0.713618 0.924026
O O16 0.617034 0.796127 0.711701
O O17 0.000000 0.012725 0.142521
O O18 0.128414 0.072171 0.217174
O O19 0.139252 0.000000 0.000000
O O20 0.000000 0.637731 0.493629
O O21 0.250000 0.144844 0.250000
#
# Coordination Sequence:
#
# PCOD9418337 Si02
#       8
#     8   8   8   8   8   8   8   8
#     4  10  21  35  62  90 117 163 219 265 317 384
#     4  12  28  49  72  99 135 174 212 259 313 381
#     4  12  23  42  70  99 131 169 216 267 314 374
#     4  11  20  40  66  95 129 169 214 271 325 376
#     4  11  22  40  66  97 134 170 215 272 325 382
#     4   9  19  36  54  80 123 165 210 266 320 379
#     4  12  25  44  70  99 135 173 213 267 325 379
#     4  10  21  36  61  88 120 167 212 263 321 384
#
# _framework density 19.800014999999998
#
# number of rings (size 3 to 8) (size 9 to 14) (size 15 to 20)
#    0.000    1.125    5.000    1.125    7.000    2.500 
#    0.000    0.000    0.000    0.750    0.000    0.000 
#    0.000    0.000    0.000    0.000    0.000    0.000 
#
# Total GULP energy -356766.274045 kJ/mol
# GULP energy per Si atom -5574.473032 kJ/mol
# Density = 1.975495 g / cm^3
# Si number density = 19.800015 Si / 1000 Ang^3
#
#
#
# Elastic Constant Matrix: (Units=GPa)
#
#
# Indices 1 2 3 4 5 6 
#
# 1 107.1766 47.4795 3.6173 0.0000 0.0000 0.0000
# 2 47.4795 157.6080 16.1965 0.0000 0.0000 0.0000
# 3 3.6173 16.1965 24.2502 0.0000 0.0000 0.0000
# 4 0.0000 0.0000 0.0000 36.5789 0.0000 0.0000
# 5 0.0000 0.0000 0.0000 0.0000 21.6719 0.0000
# 6 0.0000 0.0000 0.0000 0.0000 0.0000 -7.8864
#
#
#
# Elastic Compliance Matrix: (Units=1/GPa)
#
#
# Indices 1 2 3 4 5 6 
#
# 1 0.010776 -0.003308 0.000602 0.000000 0.000000 0.000000
# 2 -0.003308 0.007828 -0.004735 0.000000 0.000000 0.000000
# 3 0.000602 -0.004735 0.044309 0.000000 0.000000 0.000000
# 4 0.000000 0.000000 0.000000 0.027338 0.000000 0.000000
# 5 0.000000 0.000000 0.000000 0.000000 0.046143 0.000000
# 6 0.000000 0.000000 0.000000 0.000000 0.000000 -0.126800
#
#
# Mechanical properties :
#
#
# Convention : Reuss Voigt Hill
#
# Bulk Modulus (GPa) = 20.81975 47.06904 33.94439
# Shear Modulus (GPa) = 123.50205 24.85565 74.17885
#
# Velocity S-wave (km/s) = 7.90634 3.54691 6.12743
# Velocity P-wave (km/s) = 9.68941 6.37165 8.20008
#
# Compressibility (1/GPa) = 0.04803131
#
# Stress axis : x y z
#
# Youngs Moduli (GPa) = 92.80288 127.74726 22.56862
#
# Poissons Ratio (x) = 0.42259 -0.01359
# Poissons Ratio (y) = 0.30699 0.10686
# Poissons Ratio (z) = -0.05587 0.60485
#
# Static dielectric constant tensor:
#      x y z
#    x 1.707580 0.000000 0.000000 
#    y 0.000000 1.737550 0.000000 
#    z 0.000000 0.000000 1.706710 
# 
# From -- ./inp_files/8967.got.cif
#   From: 2010.05.17/outbox.cif.g08.bks.cpg/sg53_5_cif.got.tgz:8967.got - 2010.06.03 12:45:16.
