data_PCOD9418497
_publ_section_title
;
Structure prediction by ZEFSAII (Michael W. Deem and Ramdas Pophale) SiO2 
 PCOD9418497
Probable space group: P M N A
;
_chemical_formula_sum "Si O2"
_cell_formula_units_Z 64
_cell_length_a 8.823715
_cell_length_b 21.177585
_cell_length_c 19.133591
_cell_angle_alpha 90.000000
_cell_angle_beta 90.000000
_cell_angle_gamma 90.000000
_cell_volume 3575.397993
_symmetry_space_group_name_H-M "P M N A"
_symmetry_group_IT_number 53
_symmetry_cell_setting 'orthorhombic'
loop_
_space_group_symop_operation_xyz
x,y,z
1/2-x,-y,1/2+z
x,-y,-z
1/2-x,y,1/2-z
-x,-y,-z
1/2+x,y,1/2-z
-x,y,z
1/2+x,-y,1/2+z
loop_
_atom_site_type_symbol
_atom_site_label
_atom_site_fract_x
_atom_site_fract_y
_atom_site_fract_z
Si Si1 0.180957 0.874428 0.324977
Si Si2 0.819164 0.193931 0.033195
Si Si3 0.682403 0.504610 0.580269
Si Si4 0.179591 0.391818 0.323755
Si Si5 0.182547 0.257267 0.600714
Si Si6 0.180993 0.242493 0.324568
Si Si7 0.182822 0.931744 0.469172
Si Si8 0.817363 0.618060 0.172148
O O1 0.250000 0.888152 0.250000
O O2 0.222958 0.804138 0.352144
O O3 0.223504 0.922034 0.387590
O O4 0.000000 0.875550 0.318634
O O5 0.757026 0.208723 0.109927
O O6 0.000000 0.198739 0.030792
O O7 0.746801 0.241777 0.976190
O O8 0.764089 0.124576 0.010109
O O9 0.731990 0.500000 0.500000
O O10 0.500000 0.508883 0.581320
O O11 0.750275 0.566394 0.615691
O O12 0.724495 0.443178 0.625887
O O13 0.250000 0.412543 0.250000
O O14 0.211975 0.317545 0.332429
O O15 0.000000 0.400238 0.321292
O O16 0.252766 0.319589 0.634546
O O17 0.000000 0.261762 0.597752
O O18 0.250000 0.222760 0.250000
O O19 0.000000 0.233243 0.324773
O O20 0.000000 0.922605 0.474764
O O21 0.220102 0.000000 0.500000
O O22 0.750000 0.613077 0.250000
O O23 0.000000 0.621874 0.176021
#
# Coordination Sequence:
#
# PCOD9418497 Si02
#       8
#     8   8   8   8   8   8   8   8
#     4   9  18  32  53  81 110 143 182 226 275 326
#     4  11  22  36  58  87 118 151 186 232 285 337
#     4  10  23  40  56  78 110 147 186 233 283 337
#     4  10  21  37  59  83 106 141 184 232 284 340
#     4  10  21  37  57  82 113 148 187 232 281 339
#     4  10  21  38  59  86 115 147 189 237 288 340
#     4   9  19  38  60  81 112 156 198 234 278 331
#     4  11  23  38  56  81 111 148 187 230 286 341
#
# _framework density 17.900106000000001
#
# number of rings (size 3 to 8) (size 9 to 14) (size 15 to 20)
#    0.000    2.000    0.000    4.125    1.750    7.500 
#    0.000    0.625    0.000    1.500    0.000    0.000 
#    0.000    0.000    0.000    0.000    0.000    0.000 
#
# Total GULP energy -357459.346241 kJ/mol
# GULP energy per Si atom -5585.302285 kJ/mol
# Density = 1.785936 g / cm^3
# Si number density = 17.900106 Si / 1000 Ang^3
#
#
#
# Elastic Constant Matrix: (Units=GPa)
#
#
# Indices 1 2 3 4 5 6 
#
# 1 50.9669 45.2719 61.3456 0.0000 0.0000 0.0000
# 2 45.2719 66.9745 72.5769 0.0000 0.0000 0.0000
# 3 61.3456 72.5769 189.4231 0.0000 0.0000 0.0000
# 4 0.0000 0.0000 0.0000 25.1541 0.0000 0.0000
# 5 0.0000 0.0000 0.0000 0.0000 35.2833 0.0000
# 6 0.0000 0.0000 0.0000 0.0000 0.0000 14.9699
#
#
#
# Elastic Compliance Matrix: (Units=1/GPa)
#
#
# Indices 1 2 3 4 5 6 
#
# 1 0.052625 -0.029247 -0.005837 0.000000 0.000000 0.000000
# 2 -0.029247 0.041786 -0.006538 0.000000 0.000000 0.000000
# 3 -0.005837 -0.006538 0.009675 0.000000 0.000000 0.000000
# 4 0.000000 0.000000 0.000000 0.039755 0.000000 0.000000
# 5 0.000000 0.000000 0.000000 0.000000 0.028342 0.000000
# 6 0.000000 0.000000 0.000000 0.000000 0.000000 0.066801
#
#
# Mechanical properties :
#
#
# Convention : Reuss Voigt Hill
#
# Bulk Modulus (GPa) = 47.98226 73.97261 60.97743
# Shear Modulus (GPa) = 15.18943 23.62613 19.40778
#
# Velocity S-wave (km/s) = 2.91618 3.63697 3.29633
# Velocity P-wave (km/s) = 6.18082 7.68451 6.97331
#
# Compressibility (1/GPa) = 0.02084104
#
# Stress axis : x y z
#
# Youngs Moduli (GPa) = 19.00227 23.93133 103.36232
#
# Poissons Ratio (x) = 0.69992 0.60333
# Poissons Ratio (y) = 0.55576 0.67583
# Poissons Ratio (z) = 0.11092 0.15647
#
# Static dielectric constant tensor:
#      x y z
#    x 1.598530 0.000000 0.000000 
#    y 0.000000 1.591630 0.000000 
#    z 0.000000 0.000000 1.591450 
# 
# From -- ./inp_files/26841.got.cif
#   From: 2010.05.17/outbox.cif.g08.bks.cpg/sg53_14_cif.got.tgz:26841.got - 2010.06.03 12:45:16.
