data_PCOD9418938
_publ_section_title
;
Structure prediction by ZEFSAII (Michael W. Deem and Ramdas Pophale) SiO2 
 PCOD9418938
Probable space group: P M N A
;
_chemical_formula_sum "Si O2"
_cell_formula_units_Z 56
_cell_length_a 18.350163
_cell_length_b 15.930861
_cell_length_c 9.574186
_cell_angle_alpha 90.000000
_cell_angle_beta 90.000000
_cell_angle_gamma 90.000000
_cell_volume 2798.859095
_symmetry_space_group_name_H-M "P M N A"
_symmetry_group_IT_number 53
_symmetry_cell_setting 'orthorhombic'
loop_
_space_group_symop_operation_xyz
x,y,z
1/2-x,-y,1/2+z
x,-y,-z
1/2-x,y,1/2-z
-x,-y,-z
1/2+x,y,1/2-z
-x,y,z
1/2+x,-y,1/2+z
loop_
_atom_site_type_symbol
_atom_site_label
_atom_site_fract_x
_atom_site_fract_y
_atom_site_fract_z
Si Si1 0.146607 0.267471 0.967367
Si Si2 0.915787 0.212192 0.243408
Si Si3 0.314271 0.555292 0.135259
Si Si4 0.085616 0.559255 0.133122
Si Si5 0.335655 0.867502 0.229652
Si Si6 0.087568 0.977142 0.841009
Si Si7 0.682682 0.734684 0.993979
O O1 0.091979 0.257916 0.095290
O O2 0.229672 0.263036 0.022852
O O3 0.129664 0.355077 0.893539
O O4 0.138838 0.192729 0.856157
O O5 0.892293 0.116209 0.209008
O O6 0.862549 0.256290 0.352947
O O7 0.000000 0.212392 0.290524
O O8 0.250000 0.554992 0.250000
O O9 0.383290 0.521830 0.222992
O O10 0.295985 0.500000 0.000000
O O11 0.330293 0.648402 0.077498
O O12 0.000000 0.576400 0.143862
O O13 0.098020 0.500000 0.000000
O O14 0.250000 0.885156 0.250000
O O15 0.379784 0.952993 0.239184
O O16 0.341390 0.812872 0.090148
O O17 0.000000 0.981314 0.841103
O O18 0.112046 0.000000 0.000000
#
# Coordination Sequence:
#
# PCOD9418938 Si02
#       7
#     8   8   8   8   8   8   8
#     4  11  21  43  68  92 129 175 223 266 324 402
#     4  11  25  41  62  98 133 171 221 273 332 396
#     4  12  25  45  71  99 135 176 226 278 336 401
#     4  11  25  44  68 100 137 177 224 274 334 407
#     4  10  21  40  65  91 127 167 214 275 330 390
#     4  10  21  40  64  91 125 171 226 271 323 399
#     4  11  24  42  64  98 133 166 219 273 332 397
#
# _framework density 20.008151000000002
#
# number of rings (size 3 to 8) (size 9 to 14) (size 15 to 20)
#    0.000    1.143    4.286    1.714    2.000    3.714 
#    0.000    1.429    0.000    0.000    0.000    0.000 
#    0.000    0.000    0.000    0.000    0.000    0.000 
#
# Total GULP energy -312919.975713 kJ/mol
# GULP energy per Si atom -5587.856709 kJ/mol
# Density = 1.996261 g / cm^3
# Si number density = 20.008151 Si / 1000 Ang^3
#
#
#
# Elastic Constant Matrix: (Units=GPa)
#
#
# Indices 1 2 3 4 5 6 
#
# 1 50.0786 21.3066 40.8201 0.0000 0.0000 0.0000
# 2 21.3066 65.5364 35.2613 0.0000 0.0000 0.0000
# 3 40.8201 35.2613 95.2688 0.0000 0.0000 0.0000
# 4 0.0000 0.0000 0.0000 25.2876 0.0000 0.0000
# 5 0.0000 0.0000 0.0000 0.0000 26.7471 0.0000
# 6 0.0000 0.0000 0.0000 0.0000 0.0000 17.2172
#
#
#
# Elastic Compliance Matrix: (Units=1/GPa)
#
#
# Indices 1 2 3 4 5 6 
#
# 1 0.031391 -0.003707 -0.012078 0.000000 0.000000 0.000000
# 2 -0.003707 0.019491 -0.005626 0.000000 0.000000 0.000000
# 3 -0.012078 -0.005626 0.017754 0.000000 0.000000 0.000000
# 4 0.000000 0.000000 0.000000 0.039545 0.000000 0.000000
# 5 0.000000 0.000000 0.000000 0.000000 0.037387 0.000000
# 6 0.000000 0.000000 0.000000 0.000000 0.000000 0.058081
#
#
# Mechanical properties :
#
#
# Convention : Reuss Voigt Hill
#
# Bulk Modulus (GPa) = 38.73858 45.07333 41.90595
# Shear Modulus (GPa) = 19.60205 21.41677 20.50941
#
# Velocity S-wave (km/s) = 3.13342 3.27525 3.20512
# Velocity P-wave (km/s) = 5.70039 6.07284 5.88956
#
# Compressibility (1/GPa) = 0.02581406
#
# Stress axis : x y z
#
# Youngs Moduli (GPa) = 31.85638 51.30645 56.32555
#
# Poissons Ratio (x) = 0.19019 0.68030
# Poissons Ratio (y) = 0.11809 0.31687
# Poissons Ratio (z) = 0.38476 0.28863
#
# Static dielectric constant tensor:
#      x y z
#    x 1.710990 0.000000 0.000000 
#    y 0.000000 1.694270 0.000000 
#    z 0.000000 0.000000 1.710140 
# 
# From -- ./inp_files/11074.got.cif
#   From: 2010.05.17/outbox.cif.g08.bks.cpg/sg53_6_cif.got.tgz:11074.got - 2010.06.03 12:45:16.
