data_PCOD9418465
_publ_section_title
;
Structure prediction by ZEFSAII (Michael W. Deem and Ramdas Pophale) SiO2 
 PCOD9418465
Probable space group: P M N A
;
_chemical_formula_sum "Si O2"
_cell_formula_units_Z 48
_cell_length_a 14.124063
_cell_length_b 8.732516
_cell_length_c 20.470030
_cell_angle_alpha 90.000000
_cell_angle_beta 90.000000
_cell_angle_gamma 90.000000
_cell_volume 2524.744968
_symmetry_space_group_name_H-M "P M N A"
_symmetry_group_IT_number 53
_symmetry_cell_setting 'orthorhombic'
loop_
_space_group_symop_operation_xyz
x,y,z
1/2-x,-y,1/2+z
x,-y,-z
1/2-x,y,1/2-z
-x,-y,-z
1/2+x,y,1/2-z
-x,y,z
1/2+x,-y,1/2+z
loop_
_atom_site_type_symbol
_atom_site_label
_atom_site_fract_x
_atom_site_fract_y
_atom_site_fract_z
Si Si1 0.243205 0.136930 0.954287
Si Si2 0.111750 0.338105 0.464767
Si Si3 0.611036 0.316559 0.180294
Si Si4 0.892160 0.421147 0.929383
Si Si5 0.763557 0.039942 0.322076
Si Si6 0.614317 0.682173 0.675848
O O1 0.171861 0.272562 0.936363
O O2 0.271664 0.066157 0.884675
O O3 0.327758 0.212044 0.996797
O O4 0.203192 0.000000 0.000000
O O5 0.121093 0.500000 0.500000
O O6 0.147482 0.365177 0.390642
O O7 0.000000 0.295649 0.463707
O O8 0.500000 0.340546 0.177333
O O9 0.641214 0.139749 0.183417
O O10 0.639606 0.378551 0.251241
O O11 0.865207 0.550797 0.876757
O O12 0.000000 0.375141 0.913793
O O13 0.890543 0.500000 0.000000
O O14 0.750000 0.967889 0.250000
O O15 0.678798 0.165835 0.333425
O O16 0.500000 0.715134 0.673350
#
# Coordination Sequence:
#
# PCOD9418465 Si02
#       6
#     8   8   8   8   8   8
#     4  12  23  36  59  85 121 156 187 234 293 350
#     4  10  22  39  60  86 114 149 196 242 285 341
#     4   9  18  36  62  85 110 147 192 235 285 343
#     4  10  22  39  59  84 113 150 199 246 288 336
#     4  10  21  37  55  87 117 154 190 229 289 352
#     4   9  19  38  63  84 110 152 199 243 285 339
#
# _framework density 19.011821999999999
#
# number of rings (size 3 to 8) (size 9 to 14) (size 15 to 20)
#    0.000    2.000    1.667    1.500    2.333    2.000 
#    3.000    0.000    0.000    0.000    0.000    0.000 
#    0.000    0.000    0.000    0.000    0.000    0.000 
#
# Total GULP energy -267450.474012 kJ/mol
# GULP energy per Si atom -5571.884875 kJ/mol
# Density = 1.896855 g / cm^3
# Si number density = 19.011822 Si / 1000 Ang^3
#
#
#
# Elastic Constant Matrix: (Units=GPa)
#
#
# Indices 1 2 3 4 5 6 
#
# 1 72.3923 28.0491 31.3361 0.0000 0.0000 0.0000
# 2 28.0491 62.3110 48.0925 0.0000 0.0000 0.0000
# 3 31.3361 48.0925 174.7998 0.0000 0.0000 0.0000
# 4 0.0000 0.0000 0.0000 38.1838 0.0000 0.0000
# 5 0.0000 0.0000 0.0000 0.0000 16.6150 0.0000
# 6 0.0000 0.0000 0.0000 0.0000 0.0000 0.5904
#
#
#
# Elastic Compliance Matrix: (Units=1/GPa)
#
#
# Indices 1 2 3 4 5 6 
#
# 1 0.016925 -0.006700 -0.001191 0.000000 0.000000 0.000000
# 2 -0.006700 0.023027 -0.005134 0.000000 0.000000 0.000000
# 3 -0.001191 -0.005134 0.007347 0.000000 0.000000 0.000000
# 4 0.000000 0.000000 0.000000 0.026189 0.000000 0.000000
# 5 0.000000 0.000000 0.000000 0.000000 0.060187 0.000000
# 6 0.000000 0.000000 0.000000 0.000000 0.000000 1.693898
#
#
# Mechanical properties :
#
#
# Convention : Reuss Voigt Hill
#
# Bulk Modulus (GPa) = 47.06037 58.27317 52.66677
# Shear Modulus (GPa) = 2.68715 24.54617 13.61666
#
# Velocity S-wave (km/s) = 1.19016 3.59709 2.67913
# Velocity P-wave (km/s) = 5.16678 6.92601 6.11004
#
# Compressibility (1/GPa) = 0.02124930
#
# Stress axis : x y z
#
# Youngs Moduli (GPa) = 59.08442 43.42702 136.11108
#
# Poissons Ratio (x) = 0.29094 0.16209
# Poissons Ratio (y) = 0.39584 0.69885
# Poissons Ratio (z) = 0.07036 0.22297
#
# Static dielectric constant tensor:
#      x y z
#    x 1.713540 0.000000 0.000000 
#    y 0.000000 1.628800 0.000000 
#    z 0.000000 0.000000 1.713760 
# 
# From -- ./inp_files/28266.got.cif
#   From: 2010.05.17/outbox.cif.g08.bks.cpg/sg53_15_cif.got.tgz:28266.got - 2010.06.03 12:45:16.
