data_PCOD9418227
_publ_section_title
;
Structure prediction by ZEFSAII (Michael W. Deem and Ramdas Pophale) SiO2 
 PCOD9418227
Probable space group: P M N A
;
_chemical_formula_sum "Si O2"
_cell_formula_units_Z 60
_cell_length_a 21.274963
_cell_length_b 12.664736
_cell_length_c 9.442760
_cell_angle_alpha 90.000000
_cell_angle_beta 90.000000
_cell_angle_gamma 90.000000
_cell_volume 2544.274155
_symmetry_space_group_name_H-M "P M N A"
_symmetry_group_IT_number 53
_symmetry_cell_setting 'orthorhombic'
loop_
_space_group_symop_operation_xyz
x,y,z
1/2-x,-y,1/2+z
x,-y,-z
1/2-x,y,1/2-z
-x,-y,-z
1/2+x,y,1/2-z
-x,y,z
1/2+x,-y,1/2+z
loop_
_atom_site_type_symbol
_atom_site_label
_atom_site_fract_x
_atom_site_fract_y
_atom_site_fract_z
Si Si1 0.220814 0.617412 0.008964
Si Si2 0.429542 0.625488 0.000109
Si Si3 0.260193 0.836098 0.078919
Si Si4 0.321509 0.917593 0.811118
Si Si5 0.000000 0.357229 0.028773
Si Si6 0.877159 0.698751 0.783508
Si Si7 0.625500 0.083615 0.608548
Si Si8 0.603943 0.677108 0.316324
O O1 0.266255 0.715184 0.032246
O O2 0.171446 0.633238 0.138046
O O3 0.246647 0.500000 0.000000
O O4 0.178234 0.642828 0.871585
O O5 0.500000 0.668991 0.975467
O O6 0.407319 0.666008 0.151634
O O7 0.433736 0.500000 0.000000
O O8 0.385617 0.652515 0.870689
O O9 0.250000 0.837867 0.250000
O O10 0.192200 0.884113 0.037520
O O11 0.310589 0.893951 0.978330
O O12 0.250000 0.923667 0.750000
O O13 0.357700 0.819438 0.741609
O O14 0.358258 0.020205 0.752399
O O15 0.053761 0.387525 0.907579
O O16 0.057083 0.318872 0.134951
O O17 0.595587 0.198440 0.639537
O O18 0.594100 0.000000 0.500000
#
# Coordination Sequence:
#
# PCOD9418227 Si02
#       8
#     8   8   8   8   4   8   8   8
#     4  10  21  42  64  93 132 179 228 274 342 414
#     4  11  23  43  68 100 136 178 221 277 344 407
#     4  11  25  42  62  95 135 176 229 286 335 407
#     4  12  23  45  68  96 131 179 230 284 344 401
#     4  10  20  42  68  94 136 182 215 279 337 402
#     4  11  23  42  67  97 137 172 228 289 336 401
#     4  11  22  41  70 100 129 174 234 283 344 405
#     4  10  22  41  68 100 139 174 224 287 338 403
#
# _framework density 23.582364999999999
#
# number of rings (size 3 to 8) (size 9 to 14) (size 15 to 20)
#    0.000    1.200    4.000    2.800    3.733    0.000 
#    2.400    5.000    0.000    0.800    0.000    0.000 
#    0.000    0.000    0.000    0.000    0.000    0.000 
#
# Total GULP energy -334389.548110 kJ/mol
# GULP energy per Si atom -5573.159135 kJ/mol
# Density = 2.352869 g / cm^3
# Si number density = 23.582365 Si / 1000 Ang^3
#
#
#
# Elastic Constant Matrix: (Units=GPa)
#
#
# Indices 1 2 3 4 5 6 
#
# 1 37.0047 -8.7842 18.1182 0.0000 0.0000 0.0000
# 2 -8.7842 132.8248 27.7878 0.0000 0.0000 0.0000
# 3 18.1182 27.7878 196.6558 0.0000 0.0000 0.0000
# 4 0.0000 0.0000 0.0000 28.2973 0.0000 0.0000
# 5 0.0000 0.0000 0.0000 0.0000 15.5377 0.0000
# 6 0.0000 0.0000 0.0000 0.0000 0.0000 10.4265
#
#
#
# Elastic Compliance Matrix: (Units=1/GPa)
#
#
# Indices 1 2 3 4 5 6 
#
# 1 0.029123 0.002563 -0.003045 0.000000 0.000000 0.000000
# 2 0.002563 0.007984 -0.001364 0.000000 0.000000 0.000000
# 3 -0.003045 -0.001364 0.005558 0.000000 0.000000 0.000000
# 4 0.000000 0.000000 0.000000 0.035339 0.000000 0.000000
# 5 0.000000 0.000000 0.000000 0.000000 0.064360 0.000000
# 6 0.000000 0.000000 0.000000 0.000000 0.000000 0.095909
#
#
# Mechanical properties :
#
#
# Convention : Reuss Voigt Hill
#
# Bulk Modulus (GPa) = 25.65935 48.96989 37.31462
# Shear Modulus (GPa) = 19.61117 32.80987 26.21052
#
# Velocity S-wave (km/s) = 2.88688 3.73404 3.33745
# Velocity P-wave (km/s) = 4.69217 6.27705 5.54156
#
# Compressibility (1/GPa) = 0.03897215
#
# Stress axis : x y z
#
# Youngs Moduli (GPa) = 34.33703 125.25631 179.90889
#
# Poissons Ratio (x) = -0.32105 0.54788
# Poissons Ratio (y) = -0.08801 0.24544
# Poissons Ratio (z) = 0.10457 0.17088
#
# Static dielectric constant tensor:
#      x y z
#    x 1.686830 0.000000 0.000000 
#    y 0.000000 1.985270 0.000000 
#    z 0.000000 0.000000 1.956390 
# 
# From -- ./inp_files/12563.got.cif
#   From: 2010.05.17/outbox.cif.g08.bks.cpg/sg53_7_cif.got.tgz:12563.got - 2010.06.03 12:45:16.
