data_PCOD9418817
_publ_section_title
;
Structure prediction by ZEFSAII (Michael W. Deem and Ramdas Pophale) SiO2 
 PCOD9418817
Probable space group: P M N A
;
_chemical_formula_sum "Si O2"
_cell_formula_units_Z 58
_cell_length_a 26.784001
_cell_length_b 8.316932
_cell_length_c 12.261887
_cell_angle_alpha 90.000000
_cell_angle_beta 90.000000
_cell_angle_gamma 90.000000
_cell_volume 2731.466715
_symmetry_space_group_name_H-M "P M N A"
_symmetry_group_IT_number 53
_symmetry_cell_setting 'orthorhombic'
loop_
_space_group_symop_operation_xyz
x,y,z
1/2-x,-y,1/2+z
x,-y,-z
1/2-x,y,1/2-z
-x,-y,-z
1/2+x,y,1/2-z
-x,y,z
1/2+x,-y,1/2+z
loop_
_atom_site_type_symbol
_atom_site_label
_atom_site_fract_x
_atom_site_fract_y
_atom_site_fract_z
Si Si1 0.306271 0.621300 0.263139
Si Si2 0.873888 0.608477 0.899197
Si Si3 0.559671 0.066232 0.835362
Si Si4 0.306795 0.677894 0.016728
Si Si5 0.940014 0.919710 0.883221
Si Si6 0.414471 0.739396 0.960650
Si Si7 0.206185 0.820389 0.020685
Si Si8 0.000000 0.500000 0.500000
O O1 0.250000 0.546137 0.250000
O O2 0.349939 0.503270 0.305370
O O3 0.318199 0.691740 0.144931
O O4 0.299578 0.757987 0.355499
O O5 0.912639 0.748675 0.867929
O O6 0.894269 0.500000 0.000000
O O7 0.826466 0.700621 0.949298
O O8 0.500000 0.083683 0.838200
O O9 0.578807 0.207208 0.912657
O O10 0.575854 0.046010 0.710753
O O11 0.574111 0.898358 0.891951
O O12 0.357336 0.688513 0.948275
O O13 0.264089 0.803005 0.987810
O O14 0.284796 0.500000 0.000000
O O15 0.000000 0.896567 0.874009
O O16 0.929790 0.000000 0.000000
O O17 0.455771 0.606137 0.939436
O O18 0.189049 0.000000 0.000000
#
# Coordination Sequence:
#
# PCOD9418817 Si02
#       8
#     8   8   8   8   8   8   8   2
#     4   9  20  41  60  87 123 161 200 250 307 363
#     4  10  21  39  66  88 123 164 205 256 314 369
#     4  10  21  41  61  83 126 161 203 253 314 369
#     4  11  23  37  58  90 129 156 201 257 303 366
#     4  10  23  42  66  92 122 162 211 263 314 374
#     4  11  22  37  62  90 123 164 204 254 307 378
#     4  10  21  39  62  87 121 163 207 252 307 371
#     4  12  20  38  60  92 122 166 214 244 316 376
#
# _framework density 21.234013000000001
#
# number of rings (size 3 to 8) (size 9 to 14) (size 15 to 20)
#    0.000    1.793    2.069    2.897    3.862    3.586 
#    0.000    6.207    0.000    0.000    0.000    0.000 
#    0.000    0.000    0.000    0.000    0.000    0.000 
#
# Total GULP energy -323363.894473 kJ/mol
# GULP energy per Si atom -5575.239560 kJ/mol
# Density = 2.118568 g / cm^3
# Si number density = 21.234013 Si / 1000 Ang^3
#
#
#
# Elastic Constant Matrix: (Units=GPa)
#
#
# Indices 1 2 3 4 5 6 
#
# 1 75.9330 0.6100 4.7711 0.0000 0.0000 0.0000
# 2 0.6100 47.5547 -4.6156 0.0000 0.0000 0.0000
# 3 4.7711 -4.6156 73.3266 0.0000 0.0000 0.0000
# 4 0.0000 0.0000 0.0000 18.4371 0.0000 0.0000
# 5 0.0000 0.0000 0.0000 0.0000 4.8837 0.0000
# 6 0.0000 0.0000 0.0000 0.0000 0.0000 34.8733
#
#
#
# Elastic Compliance Matrix: (Units=1/GPa)
#
#
# Indices 1 2 3 4 5 6 
#
# 1 0.013227 -0.000255 -0.000877 0.000000 0.000000 0.000000
# 2 -0.000255 0.021163 0.001349 0.000000 0.000000 0.000000
# 3 -0.000877 0.001349 0.013780 0.000000 0.000000 0.000000
# 4 0.000000 0.000000 0.000000 0.054238 0.000000 0.000000
# 5 0.000000 0.000000 0.000000 0.000000 0.204765 0.000000
# 6 0.000000 0.000000 0.000000 0.000000 0.000000 0.028675
#
#
# Mechanical properties :
#
#
# Convention : Reuss Voigt Hill
#
# Bulk Modulus (GPa) = 20.57473 22.03837 21.30655
# Shear Modulus (GPa) = 14.22016 24.70873 19.46445
#
# Velocity S-wave (km/s) = 2.59064 3.41492 3.03093
# Velocity P-wave (km/s) = 4.31962 5.09414 4.72278
#
# Compressibility (1/GPa) = 0.04860331
#
# Stress axis : x y z
#
# Youngs Moduli (GPa) = 75.60498 47.25321 72.57131
#
# Poissons Ratio (x) = 0.01204 0.06362
# Poissons Ratio (y) = 0.01926 -0.09788
# Poissons Ratio (z) = 0.06628 -0.06373
#
# Static dielectric constant tensor:
#      x y z
#    x 1.747170 0.000000 0.000000 
#    y 0.000000 1.738260 0.000000 
#    z 0.000000 0.000000 1.790190 
# 
# From -- ./inp_files/18782.got.cif
#   From: 2010.05.17/outbox.cif.g08.bks.cpg/sg53_10_cif.got.tgz:18782.got - 2010.06.03 12:45:16.
