data_PCOD9418161
_publ_section_title
;
Structure prediction by ZEFSAII (Michael W. Deem and Ramdas Pophale) SiO2 
 PCOD9418161
Probable space group: P M N A
;
_chemical_formula_sum "Si O2"
_cell_formula_units_Z 40
_cell_length_a 18.157083
_cell_length_b 10.629991
_cell_length_c 10.863078
_cell_angle_alpha 90.000000
_cell_angle_beta 90.000000
_cell_angle_gamma 90.000000
_cell_volume 2096.678653
_symmetry_space_group_name_H-M "P M N A"
_symmetry_group_IT_number 53
_symmetry_cell_setting 'orthorhombic'
loop_
_space_group_symop_operation_xyz
x,y,z
1/2-x,-y,1/2+z
x,-y,-z
1/2-x,y,1/2-z
-x,-y,-z
1/2+x,y,1/2-z
-x,y,z
1/2+x,-y,1/2+z
loop_
_atom_site_type_symbol
_atom_site_label
_atom_site_fract_x
_atom_site_fract_y
_atom_site_fract_z
Si Si1 0.912668 0.726065 0.227893
Si Si2 0.810908 0.504250 0.140657
Si Si3 0.413777 0.648702 0.991189
Si Si4 0.911765 0.002408 0.143863
Si Si5 0.337205 0.248019 0.246544
O O1 0.865907 0.621073 0.157021
O O2 0.903133 0.703089 0.373104
O O3 0.888831 0.867629 0.197710
O O4 0.000000 0.713170 0.199302
O O5 0.750000 0.515397 0.250000
O O6 0.851137 0.371664 0.169468
O O7 0.782064 0.500000 0.000000
O O8 0.500000 0.664156 0.956264
O O9 0.364105 0.713998 0.889137
O O10 0.399185 0.500000 0.000000
O O11 0.000000 0.011572 0.156778
O O12 0.876740 0.123285 0.207248
O O13 0.893325 0.000000 0.000000
O O14 0.250000 0.227073 0.250000
#
# Coordination Sequence:
#
# PCOD9418161 Si02
#       5
#     8   8   8   8   8
#     4  10  22  40  67  96 123 164 217 264 321 380
#     4  11  25  40  64  93 130 170 212 263 320 385
#     4  10  20  39  66  96 129 165 209 268 323 376
#     4  10  22  43  63  85 123 166 212 264 316 373
#     4  11  24  38  61  92 129 165 212 257 319 386
#
# _framework density 19.077791999999999
#
# number of rings (size 3 to 8) (size 9 to 14) (size 15 to 20)
#    0.000    1.600    2.000    1.800    5.600    2.800 
#    3.600    3.000    0.000    0.000    0.000    0.000 
#    0.000    0.000    0.000    0.000    0.000    0.000 
#
# Total GULP energy -223514.704840 kJ/mol
# GULP energy per Si atom -5587.867621 kJ/mol
# Density = 1.903437 g / cm^3
# Si number density = 19.077792 Si / 1000 Ang^3
#
#
#
# Elastic Constant Matrix: (Units=GPa)
#
#
# Indices 1 2 3 4 5 6 
#
# 1 66.3407 54.6401 72.0447 0.0000 0.0000 0.0000
# 2 54.6401 187.4190 84.2732 0.0000 0.0000 0.0000
# 3 72.0447 84.2732 113.1932 0.0000 0.0000 0.0000
# 4 0.0000 0.0000 0.0000 30.1978 0.0000 0.0000
# 5 0.0000 0.0000 0.0000 0.0000 5.5768 0.0000
# 6 0.0000 0.0000 0.0000 0.0000 0.0000 -523.9850
#
#
#
# Elastic Compliance Matrix: (Units=1/GPa)
#
#
# Indices 1 2 3 4 5 6 
#
# 1 0.048833 -0.000393 -0.030789 0.000000 0.000000 0.000000
# 2 -0.000393 0.008024 -0.005724 0.000000 0.000000 0.000000
# 3 -0.030789 -0.005724 0.032692 0.000000 0.000000 0.000000
# 4 0.000000 0.000000 0.000000 0.033115 0.000000 0.000000
# 5 0.000000 0.000000 0.000000 0.000000 0.179314 0.000000
# 6 0.000000 0.000000 0.000000 0.000000 0.000000 -0.001908
#
#
# Mechanical properties :
#
#
# Convention : Reuss Voigt Hill
#
# Bulk Modulus (GPa) = 63.53814 87.65210 75.59512
# Shear Modulus (GPa) = 13.18821 -87.24243 -37.02711
#
# Velocity S-wave (km/s) = 2.63208 -6.76972 -4.41029
# Velocity P-wave (km/s) = 6.52796 3.88087 3.71167
#
# Compressibility (1/GPa) = 0.01573858
#
# Stress axis : x y z
#
# Youngs Moduli (GPa) = 20.47799 124.62789 30.58830
#
# Poissons Ratio (x) = 0.04893 0.94177
# Poissons Ratio (y) = 0.00804 0.17509
# Poissons Ratio (z) = 0.63049 0.71337
#
# Static dielectric constant tensor:
#      x y z
#    x 1.675040 0.000000 0.000000 
#    y 0.000000 1.262630 0.000000 
#    z 0.000000 0.000000 1.616120 
# 
# From -- ./inp_files/16704.got.cif
#   From: 2010.05.17/outbox.cif.g08.bks.cpg/sg53_9_cif.got.tgz:16704.got - 2010.06.03 12:45:16.
