data_PCOD9418610
_publ_section_title
;
Structure prediction by ZEFSAII (Michael W. Deem and Ramdas Pophale) SiO2 
 PCOD9418610
Probable space group: P M N A
;
_chemical_formula_sum "Si O2"
_cell_formula_units_Z 64
_cell_length_a 28.152480
_cell_length_b 6.590697
_cell_length_c 16.922209
_cell_angle_alpha 90.000000
_cell_angle_beta 90.000000
_cell_angle_gamma 90.000000
_cell_volume 3139.822224
_symmetry_space_group_name_H-M "P M N A"
_symmetry_group_IT_number 53
_symmetry_cell_setting 'orthorhombic'
loop_
_space_group_symop_operation_xyz
x,y,z
1/2-x,-y,1/2+z
x,-y,-z
1/2-x,y,1/2-z
-x,-y,-z
1/2+x,y,1/2-z
-x,y,z
1/2+x,-y,1/2+z
loop_
_atom_site_type_symbol
_atom_site_label
_atom_site_fract_x
_atom_site_fract_y
_atom_site_fract_z
Si Si1 0.631878 0.208270 0.175282
Si Si2 0.698799 0.555765 0.150767
Si Si3 0.945377 0.464541 0.626493
Si Si4 0.108040 0.581794 0.914693
Si Si5 0.446702 0.305287 0.695050
Si Si6 0.307981 0.338021 0.665999
Si Si7 0.631649 0.031344 0.343859
Si Si8 0.627315 0.164444 0.930889
O O1 0.678973 0.326550 0.146055
O O2 0.587998 0.340664 0.142019
O O3 0.634390 0.183800 0.269257
O O4 0.626421 0.981740 0.144673
O O5 0.683656 0.626148 0.239866
O O6 0.754601 0.594169 0.147383
O O7 0.671419 0.686482 0.084879
O O8 0.944991 0.354395 0.712036
O O9 0.918712 0.310005 0.567211
O O10 0.000000 0.509295 0.605579
O O11 0.068458 0.506716 0.852593
O O12 0.156075 0.470694 0.885568
O O13 0.117960 0.820749 0.914677
O O14 0.094828 0.500000 0.000000
O O15 0.500000 0.243901 0.674588
O O16 0.409524 0.131591 0.672612
O O17 0.320816 0.102950 0.649327
O O18 0.630914 0.000000 0.000000
#
# Coordination Sequence:
#
# PCOD9418610 Si02
#       8
#     8   8   8   8   8   8   8   8
#     4  11  19  38  64  84 115 159 197 237 295 351
#     4  10  21  39  60  87 114 147 201 246 285 355
#     4  10  21  37  61  91 120 153 202 249 287 352
#     4  11  23  40  58  87 123 156 191 248 301 347
#     4  10  21  37  61  91 120 153 202 249 287 352
#     4  10  21  39  60  87 114 147 201 246 285 355
#     4  11  19  38  64  84 115 159 197 237 295 351
#     4  11  23  40  58  87 123 156 191 248 301 347
#
# _framework density 20.383320999999999
#
# number of rings (size 3 to 8) (size 9 to 14) (size 15 to 20)
#    0.000    1.500    5.000    1.500    0.000    7.000 
#    4.500    1.250    0.000    0.000    0.000    0.000 
#    0.000    0.000    0.000    0.000    0.000    0.000 
#
# Total GULP energy -357286.555934 kJ/mol
# GULP energy per Si atom -5582.602436 kJ/mol
# Density = 2.033693 g / cm^3
# Si number density = 20.383321 Si / 1000 Ang^3
#
#
#
# Elastic Constant Matrix: (Units=GPa)
#
#
# Indices 1 2 3 4 5 6 
#
# 1 118.9986 25.5070 1.9377 0.0000 0.0000 0.0000
# 2 25.5070 84.0189 -11.1530 0.0000 0.0000 0.0000
# 3 1.9377 -11.1530 25.5463 0.0000 0.0000 0.0000
# 4 0.0000 0.0000 0.0000 20.8858 0.0000 0.0000
# 5 0.0000 0.0000 0.0000 0.0000 6.6222 0.0000
# 6 0.0000 0.0000 0.0000 0.0000 0.0000 14.3120
#
#
#
# Elastic Compliance Matrix: (Units=1/GPa)
#
#
# Indices 1 2 3 4 5 6 
#
# 1 0.009085 -0.003025 -0.002010 0.000000 0.000000 0.000000
# 2 -0.003025 0.013641 0.006185 0.000000 0.000000 0.000000
# 3 -0.002010 0.006185 0.041997 0.000000 0.000000 0.000000
# 4 0.000000 0.000000 0.000000 0.047879 0.000000 0.000000
# 5 0.000000 0.000000 0.000000 0.000000 0.151008 0.000000
# 6 0.000000 0.000000 0.000000 0.000000 0.000000 0.069871
#
#
# Mechanical properties :
#
#
# Convention : Reuss Voigt Hill
#
# Bulk Modulus (GPa) = 14.91992 29.01634 21.96813
# Shear Modulus (GPa) = 14.14341 22.51549 18.32945
#
# Velocity S-wave (km/s) = 2.63700 3.32716 3.00198
# Velocity P-wave (km/s) = 4.07520 5.38760 4.77669
#
# Compressibility (1/GPa) = 0.06702450
#
# Stress axis : x y z
#
# Youngs Moduli (GPa) = 110.07743 73.30656 23.81108
#
# Poissons Ratio (x) = 0.22173 0.04785
# Poissons Ratio (y) = 0.33295 -0.14727
# Poissons Ratio (z) = 0.22121 -0.45340
#
# Static dielectric constant tensor:
#      x y z
#    x 1.706540 0.000000 0.000000 
#    y 0.000000 1.722770 0.000000 
#    z 0.000000 0.000000 1.801160 
# 
# From -- ./inp_files/29827.got.cif
#   From: 2010.05.17/outbox.cif.g08.bks.cpg/sg53_15_cif.got.tgz:29827.got - 2010.06.03 12:45:16.
