data_PCOD9418626
_publ_section_title
;
Structure prediction by ZEFSAII (Michael W. Deem and Ramdas Pophale) SiO2 
 PCOD9418626
Probable space group: P M N A
;
_chemical_formula_sum "Si O2"
_cell_formula_units_Z 40
_cell_length_a 16.383362
_cell_length_b 11.101384
_cell_length_c 10.204265
_cell_angle_alpha 90.000000
_cell_angle_beta 90.000000
_cell_angle_gamma 90.000000
_cell_volume 1855.931236
_symmetry_space_group_name_H-M "P M N A"
_symmetry_group_IT_number 53
_symmetry_cell_setting 'orthorhombic'
loop_
_space_group_symop_operation_xyz
x,y,z
1/2-x,-y,1/2+z
x,-y,-z
1/2-x,y,1/2-z
-x,-y,-z
1/2+x,y,1/2-z
-x,y,z
1/2+x,-y,1/2+z
loop_
_atom_site_type_symbol
_atom_site_label
_atom_site_fract_x
_atom_site_fract_y
_atom_site_fract_z
Si Si1 0.753761 0.596436 0.112427
Si Si2 0.091546 0.353799 0.496121
Si Si3 0.092282 0.204097 0.233242
Si Si4 0.813045 0.973597 0.146009
Si Si5 0.090055 0.250042 0.930725
O O1 0.750000 0.529721 0.250000
O O2 0.834435 0.674751 0.119356
O O3 0.762716 0.500000 0.000000
O O4 0.671881 0.672937 0.081625
O O5 0.088589 0.500000 0.500000
O O6 0.106965 0.296849 0.352074
O O7 0.000000 0.313043 0.537540
O O8 0.000000 0.156571 0.253596
O O9 0.154649 0.094103 0.217452
O O10 0.092588 0.262238 0.088708
O O11 0.750000 0.918211 0.250000
O O12 0.888667 0.886238 0.111436
O O13 0.776986 0.000000 0.000000
O O14 0.000000 0.285779 0.885308
#
# Coordination Sequence:
#
# PCOD9418626 Si02
#       5
#     8   8   8   8   8
#     4  11  26  42  64  95 128 171 223 276 339 402
#     4   9  20  38  63  94 132 168 213 274 337 403
#     4   9  19  36  64  97 126 170 220 268 331 399
#     4  10  21  37  63  96 130 172 222 279 334 395
#     4  10  22  40  64  92 133 174 220 278 332 398
#
# _framework density 21.552522
#
# number of rings (size 3 to 8) (size 9 to 14) (size 15 to 20)
#    0.000    2.200    0.000    1.200   11.200    3.600 
#    0.000    0.000    0.000    1.200    0.000    0.000 
#    0.000    0.000    0.000    0.000    0.000    0.000 
#
# Total GULP energy -223027.535357 kJ/mol
# GULP energy per Si atom -5575.688384 kJ/mol
# Density = 2.150347 g / cm^3
# Si number density = 21.552522 Si / 1000 Ang^3
#
#
#
# Elastic Constant Matrix: (Units=GPa)
#
#
# Indices 1 2 3 4 5 6 
#
# 1 145.7380 29.9579 60.7556 0.0000 0.0000 0.0000
# 2 29.9579 61.7136 50.2442 0.0000 0.0000 0.0000
# 3 60.7556 50.2442 152.5054 0.0000 0.0000 0.0000
# 4 0.0000 0.0000 0.0000 37.7125 0.0000 0.0000
# 5 0.0000 0.0000 0.0000 0.0000 -80.6240 0.0000
# 6 0.0000 0.0000 0.0000 0.0000 0.0000 25.2598
#
#
#
# Elastic Compliance Matrix: (Units=1/GPa)
#
#
# Indices 1 2 3 4 5 6 
#
# 1 0.008379 -0.001845 -0.002730 0.000000 0.000000 0.000000
# 2 -0.001845 0.022549 -0.006694 0.000000 0.000000 0.000000
# 3 -0.002730 -0.006694 0.009850 0.000000 0.000000 0.000000
# 4 0.000000 0.000000 0.000000 0.026516 0.000000 0.000000
# 5 0.000000 0.000000 0.000000 0.000000 -0.012403 0.000000
# 6 0.000000 0.000000 0.000000 0.000000 0.000000 0.039589
#
#
# Mechanical properties :
#
#
# Convention : Reuss Voigt Hill
#
# Bulk Modulus (GPa) = 54.82315 71.31917 63.07116
# Shear Modulus (GPa) = 40.61768 11.06961 25.84365
#
# Velocity S-wave (km/s) = 4.34590 2.26876 3.46656
# Velocity P-wave (km/s) = 7.11861 6.32659 6.73425
#
# Compressibility (1/GPa) = 0.01824047
#
# Stress axis : x y z
#
# Youngs Moduli (GPa) = 119.34554 44.34703 101.51903
#
# Poissons Ratio (x) = 0.08180 0.27718
# Poissons Ratio (y) = 0.22014 0.67960
# Poissons Ratio (z) = 0.32586 0.29687
#
# Static dielectric constant tensor:
#      x y z
#    x 1.816650 0.000000 0.000000 
#    y 0.000000 1.814770 0.000000 
#    z 0.000000 0.000000 1.782710 
# 
# From -- ./inp_files/9676.got.cif
#   From: 2010.05.17/outbox.cif.g08.bks.cpg/sg53_5_cif.got.tgz:9676.got - 2010.06.03 12:45:16.
