data_PCOD9418048
_publ_section_title
;
Structure prediction by ZEFSAII (Michael W. Deem and Ramdas Pophale) SiO2 
 PCOD9418048
Probable space group: P M N A
;
_chemical_formula_sum "Si O2"
_cell_formula_units_Z 64
_cell_length_a 17.906689
_cell_length_b 11.937379
_cell_length_c 14.350845
_cell_angle_alpha 90.000000
_cell_angle_beta 90.000000
_cell_angle_gamma 90.000000
_cell_volume 3067.621318
_symmetry_space_group_name_H-M "P M N A"
_symmetry_group_IT_number 53
_symmetry_cell_setting 'orthorhombic'
loop_
_space_group_symop_operation_xyz
x,y,z
1/2-x,-y,1/2+z
x,-y,-z
1/2-x,y,1/2-z
-x,-y,-z
1/2+x,y,1/2-z
-x,y,z
1/2+x,-y,1/2+z
loop_
_atom_site_type_symbol
_atom_site_label
_atom_site_fract_x
_atom_site_fract_y
_atom_site_fract_z
Si Si1 0.091836 0.946872 0.302048
Si Si2 0.587084 0.955234 0.403246
Si Si3 0.086006 0.687960 0.075337
Si Si4 0.224762 0.367728 0.013676
Si Si5 0.412234 0.842409 0.916771
Si Si6 0.844921 0.737857 0.395386
Si Si7 0.839551 0.563182 0.250369
Si Si8 0.681645 0.685775 0.803336
O O1 0.113513 0.991696 0.199360
O O2 0.138036 0.834002 0.320625
O O3 0.000000 0.927704 0.303078
O O4 0.111482 0.033332 0.384689
O O5 0.500000 0.990867 0.405390
O O6 0.589433 0.820315 0.403297
O O7 0.622105 0.000000 0.500000
O O8 0.120558 0.616178 0.160665
O O9 0.000000 0.657682 0.061011
O O10 0.138443 0.665419 0.986323
O O11 0.275700 0.348020 0.102306
O O12 0.228899 0.500000 0.000000
O O13 0.262538 0.293190 0.932062
O O14 0.500000 0.847012 0.923334
O O15 0.385313 0.764127 0.832453
O O16 0.384425 0.786782 0.012395
O O17 0.870807 0.623654 0.343776
O O18 0.750000 0.586463 0.250000
O O19 0.844519 0.428884 0.254787
O O20 0.750000 0.744047 0.750000
#
# Coordination Sequence:
#
# PCOD9418048 Si02
#       8
#     8   8   8   8   8   8   8   8
#     4  10  20  38  62  91 132 170 206 262 328 381
#     4   9  19  36  57  83 118 163 207 253 315 379
#     4  11  23  38  62  96 124 159 217 273 321 376
#     4  11  21  40  61  87 123 163 205 256 325 379
#     4  10  23  39  60  94 134 170 204 260 328 387
#     4  11  20  35  66  91 120 166 216 253 312 393
#     4  11  20  39  65  90 123 167 209 268 319 374
#     4  10  22  41  63  86 123 174 217 254 318 391
#
# _framework density 20.863071000000001
#
# number of rings (size 3 to 8) (size 9 to 14) (size 15 to 20)
#    0.000    1.625    3.750    1.500    0.000    3.250 
#    0.000    6.875    0.000    0.000    0.000    0.000 
#    0.000    0.000    0.000    0.000    0.000    0.000 
#
# Total GULP energy -356694.780850 kJ/mol
# GULP energy per Si atom -5573.355951 kJ/mol
# Density = 2.081559 g / cm^3
# Si number density = 20.863071 Si / 1000 Ang^3
#
#
#
# Elastic Constant Matrix: (Units=GPa)
#
#
# Indices 1 2 3 4 5 6 
#
# 1 49.2176 23.4779 0.5390 0.0000 0.0000 0.0000
# 2 23.4779 48.6842 17.2418 0.0000 0.0000 0.0000
# 3 0.5390 17.2418 65.5061 0.0000 0.0000 0.0000
# 4 0.0000 0.0000 0.0000 18.6026 0.0000 0.0000
# 5 0.0000 0.0000 0.0000 0.0000 27.7690 0.0000
# 6 0.0000 0.0000 0.0000 0.0000 0.0000 28.7371
#
#
#
# Elastic Compliance Matrix: (Units=1/GPa)
#
#
# Indices 1 2 3 4 5 6 
#
# 1 0.027117 -0.014334 0.003550 0.000000 0.000000 0.000000
# 2 -0.014334 0.030229 -0.007839 0.000000 0.000000 0.000000
# 3 0.003550 -0.007839 0.017300 0.000000 0.000000 0.000000
# 4 0.000000 0.000000 0.000000 0.053756 0.000000 0.000000
# 5 0.000000 0.000000 0.000000 0.000000 0.036011 0.000000
# 6 0.000000 0.000000 0.000000 0.000000 0.000000 0.034798
#
#
# Mechanical properties :
#
#
# Convention : Reuss Voigt Hill
#
# Bulk Modulus (GPa) = 26.73824 27.32503 27.03163
# Shear Modulus (GPa) = 20.08644 23.16501 21.62572
#
# Velocity S-wave (km/s) = 3.10623 3.33578 3.22305
# Velocity P-wave (km/s) = 5.07038 5.28795 5.18030
#
# Compressibility (1/GPa) = 0.03739963
#
# Stress axis : x y z
#
# Youngs Moduli (GPa) = 36.87755 33.08052 57.80423
#
# Poissons Ratio (x) = 0.47418 -0.20519
# Poissons Ratio (y) = 0.52861 0.45311
# Poissons Ratio (z) = -0.13091 0.25931
#
# Static dielectric constant tensor:
#      x y z
#    x 1.728630 0.000000 0.000000 
#    y 0.000000 1.741150 0.000000 
#    z 0.000000 0.000000 1.868820 
# 
# From -- ./inp_files/23931.got.cif
#   From: 2010.05.17/outbox.cif.g08.bks.cpg/sg53_12_cif.got.tgz:23931.got - 2010.06.03 12:45:16.
