data_PCOD9418865
_publ_section_title
;
Structure prediction by ZEFSAII (Michael W. Deem and Ramdas Pophale) SiO2 
 PCOD9418865
Probable space group: P M N A
;
_chemical_formula_sum "Si O2"
_cell_formula_units_Z 56
_cell_length_a 14.130655
_cell_length_b 11.653392
_cell_length_c 15.751907
_cell_angle_alpha 90.000000
_cell_angle_beta 90.000000
_cell_angle_gamma 90.000000
_cell_volume 2593.867501
_symmetry_space_group_name_H-M "P M N A"
_symmetry_group_IT_number 53
_symmetry_cell_setting 'orthorhombic'
loop_
_space_group_symop_operation_xyz
x,y,z
1/2-x,-y,1/2+z
x,-y,-z
1/2-x,y,1/2-z
-x,-y,-z
1/2+x,y,1/2-z
-x,y,z
1/2+x,-y,1/2+z
loop_
_atom_site_type_symbol
_atom_site_label
_atom_site_fract_x
_atom_site_fract_y
_atom_site_fract_z
Si Si1 0.888032 0.157616 0.137003
Si Si2 0.278624 0.390047 0.346391
Si Si3 0.609175 0.837017 0.095087
Si Si4 0.613045 0.063731 0.720874
Si Si5 0.689196 0.158218 0.543601
Si Si6 0.103661 0.631447 0.526102
Si Si7 0.608745 0.409858 0.576920
O O1 0.851745 0.286108 0.144423
O O2 0.000000 0.159378 0.137911
O O3 0.856233 0.069475 0.210941
O O4 0.856035 0.115445 0.043832
O O5 0.250000 0.388318 0.250000
O O6 0.190488 0.359067 0.408505
O O7 0.325939 0.514304 0.361846
O O8 0.500000 0.878992 0.081251
O O9 0.635937 0.868620 0.192341
O O10 0.700257 0.876697 0.041886
O O11 0.609064 0.706032 0.060629
O O12 0.500000 0.065861 0.718005
O O13 0.649171 0.118197 0.633922
O O14 0.662842 0.294782 0.548695
O O15 0.103331 0.500000 0.500000
O O16 0.000000 0.661584 0.564646
O O17 0.600756 0.500000 0.500000
O O18 0.500000 0.383609 0.605095
#
# Coordination Sequence:
#
# PCOD9418865 Si02
#       7
#     8   8   8   8   8   8   8
#     4  11  23  43  67  95 134 178 225 283 343 406
#     4  12  25  40  64  98 140 180 225 278 340 406
#     4  10  21  39  64  94 135 177 220 277 334 407
#     4  10  23  40  64 100 133 170 225 283 343 402
#     4  12  21  38  69  99 133 171 224 282 343 409
#     4  10  21  41  67  95 135 185 232 278 342 418
#     4  11  22  39  64  95 132 171 215 271 336 405
#
# _framework density 21.589383999999999
#
# number of rings (size 3 to 8) (size 9 to 14) (size 15 to 20)
#    0.000    1.143    2.857    3.857    0.000    5.714 
#    0.000    1.429    0.000    2.571    0.000    0.000 
#    0.000    0.000    0.000    0.000    0.000    0.000 
#
# Total GULP energy -312148.502615 kJ/mol
# GULP energy per Si atom -5574.080404 kJ/mol
# Density = 2.154025 g / cm^3
# Si number density = 21.589384 Si / 1000 Ang^3
#
#
#
# Elastic Constant Matrix: (Units=GPa)
#
#
# Indices 1 2 3 4 5 6 
#
# 1 124.0628 34.6175 65.7818 0.0000 0.0000 0.0000
# 2 34.6175 97.9189 51.0661 0.0000 0.0000 0.0000
# 3 65.7818 51.0661 105.1124 0.0000 0.0000 0.0000
# 4 0.0000 0.0000 0.0000 -13.9350 0.0000 0.0000
# 5 0.0000 0.0000 0.0000 0.0000 26.2662 0.0000
# 6 0.0000 0.0000 0.0000 0.0000 0.0000 4509.8647
#
#
#
# Elastic Compliance Matrix: (Units=1/GPa)
#
#
# Indices 1 2 3 4 5 6 
#
# 1 0.012078 -0.000439 -0.007345 0.000000 0.000000 0.000000
# 2 -0.000439 0.013694 -0.006378 0.000000 0.000000 0.000000
# 3 -0.007345 -0.006378 0.017209 0.000000 0.000000 0.000000
# 4 0.000000 0.000000 0.000000 -0.071762 0.000000 0.000000
# 5 0.000000 0.000000 0.000000 0.000000 0.038072 0.000000
# 6 0.000000 0.000000 0.000000 0.000000 0.000000 0.000222
#
#
# Mechanical properties :
#
#
# Convention : Reuss Voigt Hill
#
# Bulk Modulus (GPa) = 68.23173 70.00279 69.11726
# Shear Modulus (GPa) = 117.03522 916.14776 516.59149
#
# Velocity S-wave (km/s) = 7.37071 20.62213 15.48547
# Velocity P-wave (km/s) = 10.20340 24.48519 18.75679
#
# Compressibility (1/GPa) = 0.01465594
#
# Stress axis : x y z
#
# Youngs Moduli (GPa) = 82.79823 73.02449 58.10959
#
# Poissons Ratio (x) = 0.03208 0.42682
# Poissons Ratio (y) = 0.03637 0.37062
# Poissons Ratio (z) = 0.60815 0.46575
#
# Static dielectric constant tensor:
#      x y z
#    x 1.850730 0.000000 0.000000 
#    y 0.000000 1.901460 0.000000 
#    z 0.000000 0.000000 1.777120 
# 
# From -- ./inp_files/22835.got.cif
#   From: 2010.05.17/outbox.cif.g08.bks.cpg/sg53_12_cif.got.tgz:22835.got - 2010.06.03 12:45:16.
