data_PCOD9418917
_publ_section_title
;
Structure prediction by ZEFSAII (Michael W. Deem and Ramdas Pophale) SiO2 
 PCOD9418917
Probable space group: P M N A
;
_chemical_formula_sum "Si O2"
_cell_formula_units_Z 52
_cell_length_a 22.637604
_cell_length_b 6.702180
_cell_length_c 17.444527
_cell_angle_alpha 90.000000
_cell_angle_beta 90.000000
_cell_angle_gamma 90.000000
_cell_volume 2646.706258
_symmetry_space_group_name_H-M "P M N A"
_symmetry_group_IT_number 53
_symmetry_cell_setting 'orthorhombic'
loop_
_space_group_symop_operation_xyz
x,y,z
1/2-x,-y,1/2+z
x,-y,-z
1/2-x,y,1/2-z
-x,-y,-z
1/2+x,y,1/2-z
-x,y,z
1/2+x,-y,1/2+z
loop_
_atom_site_type_symbol
_atom_site_label
_atom_site_fract_x
_atom_site_fract_y
_atom_site_fract_z
Si Si1 0.934262 0.100133 0.416324
Si Si2 0.886462 0.730228 0.137796
Si Si3 0.851330 0.542444 0.588684
Si Si4 0.104773 0.500000 0.000000
Si Si5 0.827311 0.882924 0.929472
Si Si6 0.272306 0.445349 0.337143
Si Si7 0.065475 0.724295 0.307598
O O1 0.879120 0.240373 0.399273
O O2 0.000000 0.199447 0.418093
O O3 0.927118 0.000000 0.500000
O O4 0.935751 0.934546 0.350825
O O5 0.923287 0.601272 0.075123
O O6 0.825290 0.603748 0.149707
O O7 0.917481 0.743640 0.219241
O O8 0.870844 0.949724 0.105347
O O9 0.863424 0.500000 0.500000
O O10 0.782846 0.513797 0.607341
O O11 0.887390 0.404011 0.646273
O O12 0.141964 0.689543 0.968280
O O13 0.791918 0.778794 0.860898
O O14 0.795385 0.000000 0.000000
O O15 0.250000 0.454825 0.250000
O O16 0.000000 0.634423 0.314190
#
# Coordination Sequence:
#
# PCOD9418917 Si02
#       7
#     8   8   8   4   8   8   8
#     4  10  22  40  60  86 120 165 217 262 305 365
#     4  10  21  40  62  89 123 166 204 257 318 374
#     4  12  25  39  62  91 129 168 208 258 312 367
#     4   8  18  38  63  90 118 150 201 250 300 378
#     4   9  20  37  61  83 119 164 198 243 311 369
#     4  11  24  38  56  90 130 161 206 258 307 383
#     4  11  24  42  63  89 123 165 213 261 312 372
#
# _framework density 19.64706
#
# number of rings (size 3 to 8) (size 9 to 14) (size 15 to 20)
#    0.000    1.692    3.077    0.462    8.615    3.077 
#    0.000    0.385    0.000    4.154    0.000    0.000 
#    0.000    0.000    0.000    0.000    0.000    0.000 
#
# Total GULP energy -289776.386457 kJ/mol
# GULP energy per Si atom -5572.622816 kJ/mol
# Density = 1.960234 g / cm^3
# Si number density = 19.647060 Si / 1000 Ang^3
#
#
#
# Elastic Constant Matrix: (Units=GPa)
#
#
# Indices 1 2 3 4 5 6 
#
# 1 45.3458 12.6164 -0.2153 0.0000 0.0000 0.0000
# 2 12.6164 87.7617 33.5664 0.0000 0.0000 0.0000
# 3 -0.2153 33.5664 135.4235 0.0000 0.0000 0.0000
# 4 0.0000 0.0000 0.0000 32.7401 0.0000 0.0000
# 5 0.0000 0.0000 0.0000 0.0000 4.8071 0.0000
# 6 0.0000 0.0000 0.0000 0.0000 0.0000 22.4756
#
#
#
# Elastic Compliance Matrix: (Units=1/GPa)
#
#
# Indices 1 2 3 4 5 6 
#
# 1 0.023081 -0.003681 0.000949 0.000000 0.000000 0.000000
# 2 -0.003681 0.013175 -0.003271 0.000000 0.000000 0.000000
# 3 0.000949 -0.003271 0.008197 0.000000 0.000000 0.000000
# 4 0.000000 0.000000 0.000000 0.030544 0.000000 0.000000
# 5 0.000000 0.000000 0.000000 0.000000 0.208026 0.000000
# 6 0.000000 0.000000 0.000000 0.000000 0.000000 0.044493
#
#
# Mechanical properties :
#
#
# Convention : Reuss Voigt Hill
#
# Bulk Modulus (GPa) = 30.82037 40.05177 35.43607
# Shear Modulus (GPa) = 14.27194 26.84213 20.55703
#
# Velocity S-wave (km/s) = 2.69813 3.70025 3.23819
# Velocity P-wave (km/s) = 5.04258 6.21978 5.66186
#
# Compressibility (1/GPa) = 0.03244607
#
# Stress axis : x y z
#
# Youngs Moduli (GPa) = 43.32485 75.90181 122.00155
#
# Poissons Ratio (x) = 0.27941 -0.11579
# Poissons Ratio (y) = 0.15949 0.39912
# Poissons Ratio (z) = -0.04112 0.24831
#
# Static dielectric constant tensor:
#      x y z
#    x 1.688910 0.000000 0.000000 
#    y 0.000000 1.432280 0.000000 
#    z 0.000000 0.000000 1.703400 
# 
# From -- ./inp_files/29681.got.cif
#   From: 2010.05.17/outbox.cif.g08.bks.cpg/sg53_15_cif.got.tgz:29681.got - 2010.06.03 12:45:16.
