data_PCOD9418754
_publ_section_title
;
Structure prediction by ZEFSAII (Michael W. Deem and Ramdas Pophale) SiO2 
 PCOD9418754
Probable space group: P M N A
;
_chemical_formula_sum "Si O2"
_cell_formula_units_Z 52
_cell_length_a 9.256095
_cell_length_b 12.027497
_cell_length_c 24.019539
_cell_angle_alpha 90.000000
_cell_angle_beta 90.000000
_cell_angle_gamma 90.000000
_cell_volume 2674.038947
_symmetry_space_group_name_H-M "P M N A"
_symmetry_group_IT_number 53
_symmetry_cell_setting 'orthorhombic'
loop_
_space_group_symop_operation_xyz
x,y,z
1/2-x,-y,1/2+z
x,-y,-z
1/2-x,y,1/2-z
-x,-y,-z
1/2+x,y,1/2-z
-x,y,z
1/2+x,-y,1/2+z
loop_
_atom_site_type_symbol
_atom_site_label
_atom_site_fract_x
_atom_site_fract_y
_atom_site_fract_z
Si Si1 0.826424 0.288693 0.690832
Si Si2 0.169585 0.887783 0.892508
Si Si3 0.329360 0.882522 0.095090
Si Si4 0.736452 0.500000 0.500000
Si Si5 0.175398 0.271117 0.309993
Si Si6 0.658293 0.751986 0.494024
Si Si7 0.169123 0.493152 0.373884
O O1 0.750000 0.284049 0.750000
O O2 0.800485 0.180460 0.653118
O O3 0.771658 0.396186 0.655844
O O4 0.000000 0.297328 0.698157
O O5 0.262436 0.834602 0.842915
O O6 0.000000 0.897412 0.877956
O O7 0.236956 0.005887 0.908891
O O8 0.180339 0.806087 0.945604
O O9 0.500000 0.905718 0.090565
O O10 0.280243 0.797782 0.046879
O O11 0.658602 0.618974 0.497681
O O12 0.815416 0.504754 0.559650
O O13 0.250000 0.278019 0.250000
O O14 0.223133 0.379913 0.345608
O O15 0.000000 0.267107 0.306253
O O16 0.500000 0.789034 0.473274
O O17 0.000000 0.494375 0.361789
#
# Coordination Sequence:
#
# PCOD9418754 Si02
#       7
#     8   8   8   4   8   8   8
#     4  10  22  41  62  91 124 161 207 255 307 367
#     4  11  24  43  64  91 128 166 209 262 316 374
#     4  11  24  42  65  92 125 166 215 262 312 377
#     4  12  20  40  66  98 129 160 203 256 315 382
#     4  11  23  41  65  94 126 167 213 259 312 374
#     4  11  24  41  63  95 131 165 204 256 319 381
#     4  10  21  38  63  95 129 162 202 255 316 375
#
# _framework density 19.446238999999998
#
# number of rings (size 3 to 8) (size 9 to 14) (size 15 to 20)
#    0.000    1.231    3.077    2.769    0.000    5.538 
#    0.000    2.308    0.000    0.000    0.000    0.000 
#    0.000    0.000    0.000    0.000    0.000    0.000 
#
# Total GULP energy -290299.647757 kJ/mol
# GULP energy per Si atom -5582.685534 kJ/mol
# Density = 1.940198 g / cm^3
# Si number density = 19.446239 Si / 1000 Ang^3
#
#
#
# Elastic Constant Matrix: (Units=GPa)
#
#
# Indices 1 2 3 4 5 6 
#
# 1 67.5441 46.4269 38.5920 0.0000 0.0000 0.0000
# 2 46.4269 127.0749 36.7331 0.0000 0.0000 0.0000
# 3 38.5920 36.7331 99.9016 0.0000 0.0000 0.0000
# 4 0.0000 0.0000 0.0000 18.7985 0.0000 0.0000
# 5 0.0000 0.0000 0.0000 0.0000 43.7911 0.0000
# 6 0.0000 0.0000 0.0000 0.0000 0.0000 -21.0179
#
#
#
# Elastic Compliance Matrix: (Units=1/GPa)
#
#
# Indices 1 2 3 4 5 6 
#
# 1 0.022996 -0.006528 -0.006483 0.000000 0.000000 0.000000
# 2 -0.006528 0.010658 -0.001397 0.000000 0.000000 0.000000
# 3 -0.006483 -0.001397 0.013028 0.000000 0.000000 0.000000
# 4 0.000000 0.000000 0.000000 0.053196 0.000000 0.000000
# 5 0.000000 0.000000 0.000000 0.000000 0.022836 0.000000
# 6 0.000000 0.000000 0.000000 0.000000 0.000000 -0.047579
#
#
# Mechanical properties :
#
#
# Convention : Reuss Voigt Hill
#
# Bulk Modulus (GPa) = 55.97189 59.78050 57.87619
# Shear Modulus (GPa) = 45.49291 19.83225 32.66258
#
# Velocity S-wave (km/s) = 4.84200 3.19697 4.10278
# Velocity P-wave (km/s) = 7.75276 6.66601 7.22983
#
# Compressibility (1/GPa) = 0.01786611
#
# Stress axis : x y z
#
# Youngs Moduli (GPa) = 43.48537 93.82489 76.75696
#
# Poissons Ratio (x) = 0.61245 0.49764
# Poissons Ratio (y) = 0.28385 0.10725
# Poissons Ratio (z) = 0.28193 0.13110
#
# Static dielectric constant tensor:
#      x y z
#    x 1.662080 0.000000 0.000000 
#    y 0.000000 1.692330 0.000000 
#    z 0.000000 0.000000 1.644710 
# 
# From -- ./inp_files/36222.got.cif
#   From: 2010.05.17/outbox.cif.g08.bks.cpg/sg53_19_cif.got.tgz:36222.got - 2010.06.03 12:45:16.
