data_PCOD9418055
_publ_section_title
;
Structure prediction by ZEFSAII (Michael W. Deem and Ramdas Pophale) SiO2 
 PCOD9418055
Probable space group: P M N A
;
_chemical_formula_sum "Si O2"
_cell_formula_units_Z 24
_cell_length_a 11.229298
_cell_length_b 4.897166
_cell_length_c 15.910454
_cell_angle_alpha 90.000000
_cell_angle_beta 90.000000
_cell_angle_gamma 90.000000
_cell_volume 874.943492
_symmetry_space_group_name_H-M "P M N A"
_symmetry_group_IT_number 53
_symmetry_cell_setting 'orthorhombic'
loop_
_space_group_symop_operation_xyz
x,y,z
1/2-x,-y,1/2+z
x,-y,-z
1/2-x,y,1/2-z
-x,-y,-z
1/2+x,y,1/2-z
-x,y,z
1/2+x,-y,1/2+z
loop_
_atom_site_type_symbol
_atom_site_label
_atom_site_fract_x
_atom_site_fract_y
_atom_site_fract_z
Si Si1 0.500000 0.739496 0.255817
Si Si2 0.750000 0.737335 0.250000
Si Si3 0.500000 0.486195 0.098224
Si Si4 0.000000 0.160324 0.088803
Si Si5 0.264110 0.857180 0.909015
O O1 0.625296 0.588198 0.265915
O O2 0.500000 0.762948 0.153713
O O3 0.500000 0.978593 0.324758
O O4 0.740878 0.928644 0.167688
O O5 0.374599 0.334727 0.112497
O O6 0.500000 0.500000 0.000000
O O7 0.133168 0.286079 0.085256
O O8 0.000000 0.000000 0.000000
O O9 0.284178 0.000000 0.000000
#
# Coordination Sequence:
#
# PCOD9418055 Si02
#       5
#     4   4   4   4   8
#     4  10  21  36  59  89 119 154 203 265 317 355
#     4  10  20  40  62  82 116 166 212 248 300 382
#     4  12  24  37  57  95 135 161 196 264 325 367
#     4   8  18  39  66  86 111 165 223 257 299 378
#     4  10  20  38  63  88 119 167 212 246 302 385
#
# _framework density 27.430344000000002
#
# number of rings (size 3 to 8) (size 9 to 14) (size 15 to 20)
#    0.000    2.000    0.000    3.500    0.000    1.333 
#    0.000    2.500    0.000    0.000    0.000    0.000 
#    0.000    0.000    0.000    0.000    0.000    0.000 
#
# Total GULP energy -133794.274724 kJ/mol
# GULP energy per Si atom -5574.761447 kJ/mol
# Density = 2.736791 g / cm^3
# Si number density = 27.430344 Si / 1000 Ang^3
#
#
#
# Elastic Constant Matrix: (Units=GPa)
#
#
# Indices 1 2 3 4 5 6 
#
# 1 353.2722 32.0504 -17.0488 0.0000 0.0000 0.0000
# 2 32.0504 34.6130 62.9065 0.0000 0.0000 0.0000
# 3 -17.0488 62.9065 258.9226 0.0000 0.0000 0.0000
# 4 0.0000 0.0000 0.0000 67.1786 0.0000 0.0000
# 5 0.0000 0.0000 0.0000 0.0000 19.3083 0.0000
# 6 0.0000 0.0000 0.0000 0.0000 0.0000 -83.9837
#
#
#
# Elastic Compliance Matrix: (Units=1/GPa)
#
#
# Indices 1 2 3 4 5 6 
#
# 1 0.003516 -0.006584 0.001831 0.000000 0.000000 0.000000
# 2 -0.006584 0.064062 -0.015998 0.000000 0.000000 0.000000
# 3 0.001831 -0.015998 0.007869 0.000000 0.000000 0.000000
# 4 0.000000 0.000000 0.000000 0.014886 0.000000 0.000000
# 5 0.000000 0.000000 0.000000 0.000000 0.051791 0.000000
# 6 0.000000 0.000000 0.000000 0.000000 0.000000 -0.011907
#
#
# Mechanical properties :
#
#
# Convention : Reuss Voigt Hill
#
# Bulk Modulus (GPa) = 29.45796 89.18046 59.31921
# Shear Modulus (GPa) = 27.31729 38.42729 32.87229
#
# Velocity S-wave (km/s) = 3.15918 3.74693 3.46553
# Velocity P-wave (km/s) = 4.90609 7.16250 6.13886
#
# Compressibility (1/GPa) = 0.03394668
#
# Stress axis : x y z
#
# Youngs Moduli (GPa) = 284.38311 15.60988 127.07369
#
# Poissons Ratio (x) = 0.10278 -0.23269
# Poissons Ratio (y) = 1.87239 2.03289
# Poissons Ratio (z) = -0.52075 0.24972
#
# Static dielectric constant tensor:
#      x y z
#    x 1.922060 0.000000 0.000000 
#    y 0.000000 2.089460 0.000000 
#    z 0.000000 0.000000 2.232550 
# 
# From -- ./inp_files/27152.got.cif
#   From: 2010.05.17/outbox.cif.g08.bks.cpg/sg53_14_cif.got.tgz:27152.got - 2010.06.03 12:45:16.
