data_PCOD9418659
_publ_section_title
;
Structure prediction by ZEFSAII (Michael W. Deem and Ramdas Pophale) SiO2 
 PCOD9418659
Probable space group: P M N A
;
_chemical_formula_sum "Si O2"
_cell_formula_units_Z 64
_cell_length_a 7.736410
_cell_length_b 13.070635
_cell_length_c 29.757027
_cell_angle_alpha 90.000000
_cell_angle_beta 90.000000
_cell_angle_gamma 90.000000
_cell_volume 3009.024361
_symmetry_space_group_name_H-M "P M N A"
_symmetry_group_IT_number 53
_symmetry_cell_setting 'orthorhombic'
loop_
_space_group_symop_operation_xyz
x,y,z
1/2-x,-y,1/2+z
x,-y,-z
1/2-x,y,1/2-z
-x,-y,-z
1/2+x,y,1/2-z
-x,y,z
1/2+x,-y,1/2+z
loop_
_atom_site_type_symbol
_atom_site_label
_atom_site_fract_x
_atom_site_fract_y
_atom_site_fract_z
Si Si1 0.292839 0.046065 0.453399
Si Si2 0.788376 0.485064 0.050616
Si Si3 0.794335 0.014313 0.648500
Si Si4 0.291026 0.259791 0.417582
Si Si5 0.696265 0.197131 0.180061
Si Si6 0.203419 0.774582 0.197372
Si Si7 0.293264 0.586033 0.798092
Si Si8 0.797554 0.591771 0.136607
O O1 0.500000 0.037345 0.455041
O O2 0.245509 0.996887 0.404815
O O3 0.250125 0.166406 0.450706
O O4 0.222880 0.000000 0.500000
O O5 0.741451 0.371134 0.065939
O O6 0.725272 0.567598 0.087157
O O7 0.000000 0.489330 0.050657
O O8 0.729187 0.500000 0.000000
O O9 0.722132 0.915650 0.676266
O O10 0.000000 0.006402 0.652067
O O11 0.739977 0.119563 0.671537
O O12 0.500000 0.258338 0.409702
O O13 0.196082 0.232255 0.371751
O O14 0.500000 0.187196 0.197775
O O15 0.779074 0.297790 0.201954
O O16 0.250000 0.777337 0.250000
O O17 0.280562 0.680892 0.167822
O O18 0.000000 0.758327 0.197564
O O19 0.250000 0.538328 0.750000
O O20 0.500000 0.590514 0.804274
O O21 0.216496 0.514876 0.836485
O O22 0.000000 0.615781 0.130060
#
# Coordination Sequence:
#
# PCOD9418659 Si02
#       8
#     8   8   8   8   8   8   8   8
#     4   9  18  32  53  84 118 154 199 247 295 346
#     4   9  17  30  52  83 113 145 188 233 281 335
#     4  10  21  38  59  83 115 152 196 242 293 352
#     4   9  16  29  52  76 105 146 185 228 280 335
#     4   9  19  35  54  78 108 143 178 224 281 333
#     4  11  24  41  61  84 114 154 198 246 301 354
#     4  11  22  35  55  82 111 142 179 225 277 333
#     4  10  21  38  59  83 113 149 190 237 285 341
#
# _framework density 21.269352000000001
#
# number of rings (size 3 to 8) (size 9 to 14) (size 15 to 20)
#    0.000    2.250    1.250    1.500    0.000    4.750 
#    0.000    5.000    0.000    1.500    0.000    0.000 
#    0.000    0.000    0.000    0.000    0.000    0.000 
#
# Total GULP energy -356882.180167 kJ/mol
# GULP energy per Si atom -5576.284065 kJ/mol
# Density = 2.122094 g / cm^3
# Si number density = 21.269352 Si / 1000 Ang^3
#
#
#
# Elastic Constant Matrix: (Units=GPa)
#
#
# Indices 1 2 3 4 5 6 
#
# 1 32.4692 0.0309 -4.6214 0.0000 0.0000 0.0000
# 2 0.0309 135.8286 70.3822 0.0000 0.0000 0.0000
# 3 -4.6214 70.3822 120.9267 0.0000 0.0000 0.0000
# 4 0.0000 0.0000 0.0000 -1.6572 0.0000 0.0000
# 5 0.0000 0.0000 0.0000 0.0000 15.6780 0.0000
# 6 0.0000 0.0000 0.0000 0.0000 0.0000 -0.5429
#
#
#
# Elastic Compliance Matrix: (Units=1/GPa)
#
#
# Indices 1 2 3 4 5 6 
#
# 1 0.031042 -0.000890 0.001704 0.000000 0.000000 0.000000
# 2 -0.000890 0.010567 -0.006184 0.000000 0.000000 0.000000
# 3 0.001704 -0.006184 0.011934 0.000000 0.000000 0.000000
# 4 0.000000 0.000000 0.000000 -0.603421 0.000000 0.000000
# 5 0.000000 0.000000 0.000000 0.000000 0.063784 0.000000
# 6 0.000000 0.000000 0.000000 0.000000 0.000000 -1.841800
#
#
# Mechanical properties :
#
#
# Convention : Reuss Voigt Hill
#
# Bulk Modulus (GPa) = 23.36301 46.75646 35.05973
# Shear Modulus (GPa) = -2.17119 17.59108 7.70995
#
# Velocity S-wave (km/s) = -1.01145 2.87899 1.90598
# Velocity P-wave (km/s) = 3.10551 5.75171 4.62203
#
# Compressibility (1/GPa) = 0.04280270
#
# Stress axis : x y z
#
# Youngs Moduli (GPa) = 32.21456 94.63528 83.79448
#
# Poissons Ratio (x) = 0.08425 -0.14282
# Poissons Ratio (y) = 0.02868 0.51820
# Poissons Ratio (z) = -0.05491 0.58524
#
# Static dielectric constant tensor:
#      x y z
#    x 1.786850 0.000000 0.000000 
#    y 0.000000 1.852000 0.000000 
#    z 0.000000 0.000000 1.763280 
# 
# From -- ./inp_files/38301.got.cif
#   From: 2010.05.17/outbox.cif.g08.bks.cpg/sg53_20_cif.got.tgz:38301.got - 2010.06.03 12:45:16.
