data_PCOD9418083
_publ_section_title
;
Structure prediction by ZEFSAII (Michael W. Deem and Ramdas Pophale) SiO2 
 PCOD9418083
Probable space group: P M N A
;
_chemical_formula_sum "Si O2"
_cell_formula_units_Z 40
_cell_length_a 18.206773
_cell_length_b 8.243769
_cell_length_c 12.145329
_cell_angle_alpha 90.000000
_cell_angle_beta 90.000000
_cell_angle_gamma 90.000000
_cell_volume 1822.921953
_symmetry_space_group_name_H-M "P M N A"
_symmetry_group_IT_number 53
_symmetry_cell_setting 'orthorhombic'
loop_
_space_group_symop_operation_xyz
x,y,z
1/2-x,-y,1/2+z
x,-y,-z
1/2-x,y,1/2-z
-x,-y,-z
1/2+x,y,1/2-z
-x,y,z
1/2+x,-y,1/2+z
loop_
_atom_site_type_symbol
_atom_site_label
_atom_site_fract_x
_atom_site_fract_y
_atom_site_fract_z
Si Si1 0.686255 0.178345 0.557332
Si Si2 0.084499 0.928383 0.249109
Si Si3 0.912439 0.414219 0.352840
Si Si4 0.644558 0.246973 0.945902
Si Si5 0.584249 0.281088 0.369179
O O1 0.641986 0.164798 0.671023
O O2 0.768460 0.240094 0.569873
O O3 0.638123 0.279270 0.471167
O O4 0.691042 0.000000 0.500000
O O5 0.108730 0.898107 0.375093
O O6 0.000000 0.872088 0.236906
O O7 0.086381 0.109949 0.198576
O O8 0.889396 0.589196 0.395600
O O9 0.873993 0.274359 0.425630
O O10 0.894127 0.406609 0.224530
O O11 0.000000 0.391632 0.364276
O O12 0.500000 0.303426 0.405237
#
# Coordination Sequence:
#
# PCOD9418083 Si02
#       5
#     8   8   8   8   8
#     4  10  22  39  60  91 127 156 196 249 305 357
#     4  10  20  38  65  90 118 158 203 247 295 355
#     4  10  22  42  63  85 120 161 203 248 292 354
#     4  11  22  38  59  88 124 159 192 247 304 352
#     4   9  20  40  66  90 116 157 204 249 297 355
#
# _framework density 21.942793999999999
#
# number of rings (size 3 to 8) (size 9 to 14) (size 15 to 20)
#    0.000    2.000    0.000    3.600    2.800    3.200 
#   14.400    3.000    0.000    3.600    0.000    0.000 
#    0.000    0.000    0.000    0.000    0.000    0.000 
#
# Total GULP energy -223519.232569 kJ/mol
# GULP energy per Si atom -5587.980814 kJ/mol
# Density = 2.189285 g / cm^3
# Si number density = 21.942794 Si / 1000 Ang^3
#
#
#
# Elastic Constant Matrix: (Units=GPa)
#
#
# Indices 1 2 3 4 5 6 
#
# 1 68.2266 -16.3338 11.6119 0.0000 0.0000 0.0000
# 2 -16.3338 28.8304 -8.1221 0.0000 0.0000 0.0000
# 3 11.6119 -8.1221 39.4124 0.0000 0.0000 0.0000
# 4 0.0000 0.0000 0.0000 26.3033 0.0000 0.0000
# 5 0.0000 0.0000 0.0000 0.0000 62.7314 0.0000
# 6 0.0000 0.0000 0.0000 0.0000 0.0000 33.4468
#
#
#
# Elastic Compliance Matrix: (Units=1/GPa)
#
#
# Indices 1 2 3 4 5 6 
#
# 1 0.017346 0.008905 -0.003276 0.000000 0.000000 0.000000
# 2 0.008905 0.041395 0.005907 0.000000 0.000000 0.000000
# 3 -0.003276 0.005907 0.027555 0.000000 0.000000 0.000000
# 4 0.000000 0.000000 0.000000 0.038018 0.000000 0.000000
# 5 0.000000 0.000000 0.000000 0.000000 0.015941 0.000000
# 6 0.000000 0.000000 0.000000 0.000000 0.000000 0.029898
#
#
# Mechanical properties :
#
#
# Convention : Reuss Voigt Hill
#
# Bulk Modulus (GPa) = 9.14339 12.30905 10.72622
# Shear Modulus (GPa) = 27.24242 34.45053 30.84648
#
# Velocity S-wave (km/s) = 3.52734 3.96664 3.75342
# Velocity P-wave (km/s) = 4.55692 5.15759 4.86653
#
# Compressibility (1/GPa) = 0.10936859
#
# Stress axis : x y z
#
# Youngs Moduli (GPa) = 57.64900 24.15768 36.29085
#
# Poissons Ratio (x) = -0.21512 0.11887
# Poissons Ratio (y) = -0.51335 -0.21437
# Poissons Ratio (z) = 0.18884 -0.14270
#
# Static dielectric constant tensor:
#      x y z
#    x 1.726180 0.000000 0.000000 
#    y 0.000000 1.856590 0.000000 
#    z 0.000000 0.000000 1.845640 
# 
# From -- ./inp_files/16662.got.cif
#   From: 2010.05.17/outbox.cif.g08.bks.cpg/sg53_9_cif.got.tgz:16662.got - 2010.06.03 12:45:16.
