data_PCOD9418244
_publ_section_title
;
Structure prediction by ZEFSAII (Michael W. Deem and Ramdas Pophale) SiO2 
 PCOD9418244
Probable space group: P M N A
;
_chemical_formula_sum "Si O2"
_cell_formula_units_Z 64
_cell_length_a 8.724986
_cell_length_b 19.695463
_cell_length_c 23.911505
_cell_angle_alpha 90.000000
_cell_angle_beta 90.000000
_cell_angle_gamma 90.000000
_cell_volume 4109.016120
_symmetry_space_group_name_H-M "P M N A"
_symmetry_group_IT_number 53
_symmetry_cell_setting 'orthorhombic'
loop_
_space_group_symop_operation_xyz
x,y,z
1/2-x,-y,1/2+z
x,-y,-z
1/2-x,y,1/2-z
-x,-y,-z
1/2+x,y,1/2-z
-x,y,z
1/2+x,-y,1/2+z
loop_
_atom_site_type_symbol
_atom_site_label
_atom_site_fract_x
_atom_site_fract_y
_atom_site_fract_z
Si Si1 0.184203 0.385750 0.188423
Si Si2 0.315195 0.976728 0.589298
Si Si3 0.683369 0.107666 0.188118
Si Si4 0.314879 0.607464 0.476395
Si Si5 0.815458 0.106959 0.978352
Si Si6 0.185992 0.476470 0.086892
Si Si7 0.685219 0.250845 0.131679
Si Si8 0.682990 0.249926 0.000946
O O1 0.250000 0.395234 0.250000
O O2 0.236173 0.444412 0.145207
O O3 0.241172 0.314443 0.163078
O O4 0.000000 0.385306 0.190398
O O5 0.500000 0.974896 0.593646
O O6 0.242410 0.950032 0.646016
O O7 0.271368 0.926326 0.538192
O O8 0.270722 0.052063 0.568749
O O9 0.750000 0.100950 0.250000
O O10 0.500000 0.106101 0.190432
O O11 0.729767 0.180370 0.161357
O O12 0.500000 0.612015 0.475652
O O13 0.269608 0.573559 0.535941
O O14 0.265696 0.552443 0.429808
O O15 0.245750 0.681869 0.472833
O O16 0.000000 0.111732 0.977886
O O17 0.744634 0.180973 0.973803
O O18 0.000000 0.477166 0.086824
O O19 0.500000 0.256671 0.134083
O O20 0.731910 0.250285 0.066491
O O21 0.500000 0.249982 0.999766
#
# Coordination Sequence:
#
# PCOD9418244 Si02
#       8
#     8   8   8   8   8   8   8   8
#     4  11  21  33  49  69  93 128 165 201 238 278
#     4   9  18  33  51  72  95 123 163 205 240 284
#     4  11  22  35  49  68  96 133 170 204 240 280
#     4   9  16  31  51  69  90 122 161 198 236 287
#     4   9  18  32  51  72  96 127 161 196 240 292
#     4   8  16  30  49  69  90 120 162 200 235 282
#     4  10  21  34  45  66  99 133 168 199 229 278
#     4  11  20  30  46  74 104 128 157 196 242 289
#
# _framework density 15.575505
#
# number of rings (size 3 to 8) (size 9 to 14) (size 15 to 20)
#    0.000    2.250    2.500    3.000    0.000    3.000 
#    0.000    3.750    0.000    0.000    0.000    0.875 
#    0.000    2.000    0.000    0.000    0.000    0.000 
#
# Total GULP energy -356985.582597 kJ/mol
# GULP energy per Si atom -5577.899728 kJ/mol
# Density = 1.554005 g / cm^3
# Si number density = 15.575505 Si / 1000 Ang^3
#
#
#
# Elastic Constant Matrix: (Units=GPa)
#
#
# Indices 1 2 3 4 5 6 
#
# 1 21.7372 35.9659 26.5426 0.0000 0.0000 0.0000
# 2 35.9659 157.8830 73.4571 0.0000 0.0000 0.0000
# 3 26.5426 73.4571 97.2678 0.0000 0.0000 0.0000
# 4 0.0000 0.0000 0.0000 20.1029 0.0000 0.0000
# 5 0.0000 0.0000 0.0000 0.0000 18.9934 0.0000
# 6 0.0000 0.0000 0.0000 0.0000 0.0000 14.5186
#
#
#
# Elastic Compliance Matrix: (Units=1/GPa)
#
#
# Indices 1 2 3 4 5 6 
#
# 1 0.083201 -0.012935 -0.012936 0.000000 0.000000 0.000000
# 2 -0.012935 0.011776 -0.005363 0.000000 0.000000 0.000000
# 3 -0.012936 -0.005363 0.017861 0.000000 0.000000 0.000000
# 4 0.000000 0.000000 0.000000 0.049744 0.000000 0.000000
# 5 0.000000 0.000000 0.000000 0.000000 0.052650 0.000000
# 6 0.000000 0.000000 0.000000 0.000000 0.000000 0.068877
#
#
# Mechanical properties :
#
#
# Convention : Reuss Voigt Hill
#
# Bulk Modulus (GPa) = 19.85295 60.97992 40.41643
# Shear Modulus (GPa) = 13.76018 20.11781 16.93900
#
# Velocity S-wave (km/s) = 2.97551 3.59783 3.30137
# Velocity P-wave (km/s) = 4.95771 7.51634 6.36687
#
# Compressibility (1/GPa) = 0.05037036
#
# Stress axis : x y z
#
# Youngs Moduli (GPa) = 12.01906 84.92007 55.98697
#
# Poissons Ratio (x) = 1.09843 0.72423
# Poissons Ratio (y) = 0.15546 0.30028
# Poissons Ratio (z) = 0.15547 0.45546
#
# Static dielectric constant tensor:
#      x y z
#    x 1.520500 0.000000 0.000000 
#    y 0.000000 1.513610 0.000000 
#    z 0.000000 0.000000 1.502890 
# 
# From -- ./inp_files/34522.got.cif
#   From: 2010.05.17/outbox.cif.g08.bks.cpg/sg53_18_cif.got.tgz:34522.got - 2010.06.03 12:45:16.
