data_PCOD9418549
_publ_section_title
;
Structure prediction by ZEFSAII (Michael W. Deem and Ramdas Pophale) SiO2 
 PCOD9418549
Probable space group: P M N A
;
_chemical_formula_sum "Si O2"
_cell_formula_units_Z 34
_cell_length_a 7.918519
_cell_length_b 19.837253
_cell_length_c 9.933851
_cell_angle_alpha 90.000000
_cell_angle_beta 90.000000
_cell_angle_gamma 90.000000
_cell_volume 1560.425853
_symmetry_space_group_name_H-M "P M N A"
_symmetry_group_IT_number 53
_symmetry_cell_setting 'orthorhombic'
loop_
_space_group_symop_operation_xyz
x,y,z
1/2-x,-y,1/2+z
x,-y,-z
1/2-x,y,1/2-z
-x,-y,-z
1/2+x,y,1/2-z
-x,y,z
1/2+x,-y,1/2+z
loop_
_atom_site_type_symbol
_atom_site_label
_atom_site_fract_x
_atom_site_fract_y
_atom_site_fract_z
Si Si1 0.191718 0.326384 0.097168
Si Si2 0.297483 0.939511 0.403726
Si Si3 0.191267 0.427563 0.617216
Si Si4 0.000000 0.500000 0.000000
Si Si5 0.195845 0.787831 0.405777
O O1 0.250000 0.317237 0.250000
O O2 0.000000 0.353584 0.094906
O O3 0.297334 0.380180 0.013067
O O4 0.203513 0.257920 0.011191
O O5 0.250000 0.955040 0.250000
O O6 0.500000 0.932765 0.413048
O O7 0.219906 0.866851 0.437717
O O8 0.241876 0.000000 0.500000
O O9 0.250000 0.386114 0.750000
O O10 0.346085 0.479623 0.605778
O O11 0.000000 0.452466 0.625275
O O12 0.250000 0.779428 0.250000
O O13 0.000000 0.769132 0.417908
#
# Coordination Sequence:
#
# PCOD9418549 Si02
#       5
#     8   8   8   2   8
#     4  12  25  45  67  99 134 170 217 275 333 386
#     4  10  21  37  58  87 123 164 213 265 322 385
#     4  12  25  49  74 103 138 180 227 271 329 397
#     4  12  26  48  72 112 132 180 224 278 320 398
#     4  11  22  39  64  93 124 170 218 267 323 390
#
# _framework density 21.788923
#
# number of rings (size 3 to 8) (size 9 to 14) (size 15 to 20)
#    0.000    0.706    2.353    7.412    0.000    3.765 
#    4.235    2.353    0.000    0.000    0.000    0.000 
#    0.000    0.000    0.000    0.000    0.000    0.000 
#
# Total GULP energy -189591.246099 kJ/mol
# GULP energy per Si atom -5576.213121 kJ/mol
# Density = 2.173933 g / cm^3
# Si number density = 21.788923 Si / 1000 Ang^3
#
#
#
# Elastic Constant Matrix: (Units=GPa)
#
#
# Indices 1 2 3 4 5 6 
#
# 1 175.0138 17.1835 32.3594 0.0000 0.0000 0.0000
# 2 17.1835 59.9845 41.5885 0.0000 0.0000 0.0000
# 3 32.3594 41.5885 130.7514 0.0000 0.0000 0.0000
# 4 0.0000 0.0000 0.0000 34.1946 0.0000 0.0000
# 5 0.0000 0.0000 0.0000 0.0000 30.8551 0.0000
# 6 0.0000 0.0000 0.0000 0.0000 0.0000 44.7090
#
#
#
# Elastic Compliance Matrix: (Units=1/GPa)
#
#
# Indices 1 2 3 4 5 6 
#
# 1 0.006024 -0.000888 -0.001209 0.000000 0.000000 0.000000
# 2 -0.000888 0.021518 -0.006625 0.000000 0.000000 0.000000
# 3 -0.001209 -0.006625 0.010054 0.000000 0.000000 0.000000
# 4 0.000000 0.000000 0.000000 0.029244 0.000000 0.000000
# 5 0.000000 0.000000 0.000000 0.000000 0.032410 0.000000
# 6 0.000000 0.000000 0.000000 0.000000 0.000000 0.022367
#
#
# Mechanical properties :
#
#
# Convention : Reuss Voigt Hill
#
# Bulk Modulus (GPa) = 49.61567 60.89026 55.25297
# Shear Modulus (GPa) = 34.29863 40.25965 37.27914
#
# Velocity S-wave (km/s) = 3.97184 4.30317 4.14082
# Velocity P-wave (km/s) = 6.62227 7.25919 6.94803
#
# Compressibility (1/GPa) = 0.02015492
#
# Stress axis : x y z
#
# Youngs Moduli (GPa) = 165.98972 46.47198 99.45955
#
# Poissons Ratio (x) = 0.04126 0.12020
# Poissons Ratio (y) = 0.14738 0.65889
# Poissons Ratio (z) = 0.20061 0.30786
#
# Static dielectric constant tensor:
#      x y z
#    x 1.757930 0.000000 0.000000 
#    y 0.000000 1.844820 0.000000 
#    z 0.000000 0.000000 1.866990 
# 
# From -- ./inp_files/6095.got.cif
#   From: 2010.05.17/outbox.cif.g08.bks.cpg/sg53_4_cif.got.tgz:6095.got - 2010.06.03 12:45:16.
