data_PCOD9418721
_publ_section_title
;
Structure prediction by ZEFSAII (Michael W. Deem and Ramdas Pophale) SiO2 
 PCOD9418721
Probable space group: P M N A
;
_chemical_formula_sum "Si O2"
_cell_formula_units_Z 48
_cell_length_a 16.007962
_cell_length_b 15.988864
_cell_length_c 7.944968
_cell_angle_alpha 90.000000
_cell_angle_beta 90.000000
_cell_angle_gamma 90.000000
_cell_volume 2033.507626
_symmetry_space_group_name_H-M "P M N A"
_symmetry_group_IT_number 53
_symmetry_cell_setting 'orthorhombic'
loop_
_space_group_symop_operation_xyz
x,y,z
1/2-x,-y,1/2+z
x,-y,-z
1/2-x,y,1/2-z
-x,-y,-z
1/2+x,y,1/2-z
-x,y,z
1/2+x,-y,1/2+z
loop_
_atom_site_type_symbol
_atom_site_label
_atom_site_fract_x
_atom_site_fract_y
_atom_site_fract_z
Si Si1 0.157996 0.878875 0.810030
Si Si2 0.402874 0.960867 0.170685
Si Si3 0.836932 0.205168 0.824475
Si Si4 0.093562 0.714051 0.647423
Si Si5 0.271407 0.412782 0.052964
Si Si6 0.908833 0.360586 0.970814
O O1 0.250000 0.899854 0.750000
O O2 0.117512 0.810066 0.685235
O O3 0.108158 0.965392 0.806962
O O4 0.167617 0.833928 0.988585
O O5 0.500000 0.944550 0.146183
O O6 0.362092 0.873608 0.213602
O O7 0.366852 0.000000 0.000000
O O8 0.750000 0.236540 0.750000
O O9 0.900776 0.280983 0.847971
O O10 0.164720 0.665167 0.543422
O O11 0.000000 0.708063 0.576851
O O12 0.091330 0.672043 0.834851
O O13 0.250000 0.417726 0.250000
O O14 0.312504 0.500000 0.000000
O O15 0.182032 0.404644 0.957160
O O16 0.000000 0.401845 0.942237
#
# Coordination Sequence:
#
# PCOD9418721 Si02
#       6
#     8   8   8   8   8   8
#     4  11  21  37  60  84 115 159 206 252 307 370
#     4  11  24  39  55  82 120 158 201 256 311 365
#     4  11  22  37  60  87 117 154 202 256 308 370
#     4   9  18  35  60  89 119 156 203 252 307 370
#     4  10  21  38  61  90 124 161 205 260 316 375
#     4   9  19  37  61  87 118 159 203 248 304 372
#
# _framework density 23.604534000000001
#
# number of rings (size 3 to 8) (size 9 to 14) (size 15 to 20)
#    0.000    1.833    0.000    5.500    0.000    4.000 
#    0.000    0.000    0.000    7.000    0.000    0.000 
#    0.000    0.000    0.000    0.000    0.000    0.000 
#
# Total GULP energy -268308.195459 kJ/mol
# GULP energy per Si atom -5589.754072 kJ/mol
# Density = 2.355081 g / cm^3
# Si number density = 23.604534 Si / 1000 Ang^3
#
#
#
# Elastic Constant Matrix: (Units=GPa)
#
#
# Indices 1 2 3 4 5 6 
#
# 1 132.9928 40.6661 33.5009 0.0000 0.0000 0.0000
# 2 40.6661 90.5522 27.9467 0.0000 0.0000 0.0000
# 3 33.5009 27.9467 66.3019 0.0000 0.0000 0.0000
# 4 0.0000 0.0000 0.0000 31.0220 0.0000 0.0000
# 5 0.0000 0.0000 0.0000 0.0000 -28.0627 0.0000
# 6 0.0000 0.0000 0.0000 0.0000 0.0000 -2.5253
#
#
#
# Elastic Compliance Matrix: (Units=1/GPa)
#
#
# Indices 1 2 3 4 5 6 
#
# 1 0.009335 -0.003146 -0.003391 0.000000 0.000000 0.000000
# 2 -0.003146 0.013755 -0.004208 0.000000 0.000000 0.000000
# 3 -0.003391 -0.004208 0.018570 0.000000 0.000000 0.000000
# 4 0.000000 0.000000 0.000000 0.032235 0.000000 0.000000
# 5 0.000000 0.000000 0.000000 0.000000 -0.035634 0.000000
# 6 0.000000 0.000000 0.000000 0.000000 0.000000 -0.395994
#
#
# Mechanical properties :
#
#
# Convention : Reuss Voigt Hill
#
# Bulk Modulus (GPa) = 49.57900 54.89714 52.23807
# Shear Modulus (GPa) = -15.17361 12.60233 -1.28564
#
# Velocity S-wave (km/s) = -2.53815 2.31312 -0.73881
# Velocity P-wave (km/s) = 3.52987 5.51739 4.63150
#
# Compressibility (1/GPa) = 0.02016983
#
# Stress axis : x y z
#
# Youngs Moduli (GPa) = 107.12008 72.70130 53.85116
#
# Poissons Ratio (x) = 0.22871 0.18261
# Poissons Ratio (y) = 0.33699 0.22662
# Poissons Ratio (z) = 0.36324 0.30594
#
# Static dielectric constant tensor:
#      x y z
#    x 1.883120 0.000000 0.000000 
#    y 0.000000 1.895040 0.000000 
#    z 0.000000 0.000000 1.935410 
# 
# From -- ./inp_files/8625.got.cif
#   From: 2010.05.17/outbox.cif.g08.bks.cpg/sg53_5_cif.got.tgz:8625.got - 2010.06.03 12:45:16.
