data_PCOD9418476
_publ_section_title
;
Structure prediction by ZEFSAII (Michael W. Deem and Ramdas Pophale) SiO2 
 PCOD9418476
Probable space group: P M N A
;
_chemical_formula_sum "Si O2"
_cell_formula_units_Z 56
_cell_length_a 14.234769
_cell_length_b 9.505340
_cell_length_c 21.935580
_cell_angle_alpha 90.000000
_cell_angle_beta 90.000000
_cell_angle_gamma 90.000000
_cell_volume 2968.022589
_symmetry_space_group_name_H-M "P M N A"
_symmetry_group_IT_number 53
_symmetry_cell_setting 'orthorhombic'
loop_
_space_group_symop_operation_xyz
x,y,z
1/2-x,-y,1/2+z
x,-y,-z
1/2-x,y,1/2-z
-x,-y,-z
1/2+x,y,1/2-z
-x,y,z
1/2+x,-y,1/2+z
loop_
_atom_site_type_symbol
_atom_site_label
_atom_site_fract_x
_atom_site_fract_y
_atom_site_fract_z
Si Si1 0.388754 0.487785 0.638220
Si Si2 0.389914 0.228424 0.720478
Si Si3 0.111137 0.733267 0.031762
Si Si4 0.722901 0.262637 0.405407
Si Si5 0.713515 0.063575 0.620370
Si Si6 0.109234 0.755227 0.365873
Si Si7 0.890007 0.540027 0.570537
O O1 0.500000 0.514353 0.640725
O O2 0.363508 0.379072 0.691598
O O3 0.369900 0.400937 0.575614
O O4 0.333032 0.631737 0.638625
O O5 0.500000 0.204369 0.704330
O O6 0.326914 0.114867 0.685526
O O7 0.382843 0.233920 0.792824
O O8 0.142609 0.868842 0.070893
O O9 0.000000 0.736139 0.019066
O O10 0.170049 0.727565 0.970353
O O11 0.825590 0.329180 0.412439
O O12 0.721291 0.102472 0.384578
O O13 0.814070 0.137156 0.608556
O O14 0.132197 0.598512 0.389444
O O15 0.000000 0.783385 0.382800
O O16 0.873871 0.500000 0.500000
O O17 0.000000 0.571435 0.578432
#
# Coordination Sequence:
#
# PCOD9418476 Si02
#       7
#     8   8   8   8   8   8   8
#     4   9  18  33  55  82 109 139 180 227 269 318
#     4   9  19  38  60  79 103 143 192 230 265 323
#     4  10  21  37  56  79 111 151 187 215 257 328
#     4  12  22  32  52  83 117 146 174 222 286 333
#     4  11  22  34  53  82 114 146 181 225 272 323
#     4  10  21  40  63  78  99 146 195 228 268 329
#     4  10  21  38  60  84 109 141 187 240 287 332
#
# _framework density 18.867781000000001
#
# number of rings (size 3 to 8) (size 9 to 14) (size 15 to 20)
#    0.000    1.857    0.000    6.429    0.000    4.571 
#    0.000    2.857    0.000    7.714    0.000    0.000 
#    0.000    0.000    0.000    0.000    0.000    0.000 
#
# Total GULP energy -312954.428401 kJ/mol
# GULP energy per Si atom -5588.471936 kJ/mol
# Density = 1.882484 g / cm^3
# Si number density = 18.867781 Si / 1000 Ang^3
#
#
#
# Elastic Constant Matrix: (Units=GPa)
#
#
# Indices 1 2 3 4 5 6 
#
# 1 92.1544 64.3988 21.6883 0.0000 0.0000 0.0000
# 2 64.3988 148.7243 11.0301 0.0000 0.0000 0.0000
# 3 21.6883 11.0301 15.3910 0.0000 0.0000 0.0000
# 4 0.0000 0.0000 0.0000 4.3947 0.0000 0.0000
# 5 0.0000 0.0000 0.0000 0.0000 15.4727 0.0000
# 6 0.0000 0.0000 0.0000 0.0000 0.0000 -0.3585
#
#
#
# Elastic Compliance Matrix: (Units=1/GPa)
#
#
# Indices 1 2 3 4 5 6 
#
# 1 0.022400 -0.007772 -0.025996 0.000000 0.000000 0.000000
# 2 -0.007772 0.009798 0.003930 0.000000 0.000000 0.000000
# 3 -0.025996 0.003930 0.098789 0.000000 0.000000 0.000000
# 4 0.000000 0.000000 0.000000 0.227549 0.000000 0.000000
# 5 0.000000 0.000000 0.000000 0.000000 0.064630 0.000000
# 6 0.000000 0.000000 0.000000 0.000000 0.000000 -2.789690
#
#
# Mechanical properties :
#
#
# Convention : Reuss Voigt Hill
#
# Bulk Modulus (GPa) = 14.02298 50.05603 32.03950
# Shear Modulus (GPa) = -2.19003 14.51194 6.16096
#
# Velocity S-wave (km/s) = -1.07854 2.77634 1.80898
# Velocity P-wave (km/s) = 2.42845 6.07165 4.62398
#
# Compressibility (1/GPa) = 0.07131152
#
# Stress axis : x y z
#
# Youngs Moduli (GPa) = 44.64225 102.06654 10.12257
#
# Poissons Ratio (x) = 0.79321 0.26315
# Poissons Ratio (y) = 0.34694 -0.03978
# Poissons Ratio (z) = 1.16052 -0.40110
#
# Static dielectric constant tensor:
#      x y z
#    x 1.685290 0.000000 0.000000 
#    y 0.000000 1.618010 0.000000 
#    z 0.000000 0.000000 1.659670 
# 
# From -- ./inp_files/32442.got.cif
#   From: 2010.05.17/outbox.cif.g08.bks.cpg/sg53_17_cif.got.tgz:32442.got - 2010.06.03 12:45:16.
