data_PCOD9418502
_publ_section_title
;
Structure prediction by ZEFSAII (Michael W. Deem and Ramdas Pophale) SiO2 
 PCOD9418502
Probable space group: P M N A
;
_chemical_formula_sum "Si O2"
_cell_formula_units_Z 32
_cell_length_a 26.064980
_cell_length_b 12.995646
_cell_length_c 5.039534
_cell_angle_alpha 90.000000
_cell_angle_beta 90.000000
_cell_angle_gamma 90.000000
_cell_volume 1707.047667
_symmetry_space_group_name_H-M "P M N A"
_symmetry_group_IT_number 53
_symmetry_cell_setting 'orthorhombic'
loop_
_space_group_symop_operation_xyz
x,y,z
1/2-x,-y,1/2+z
x,-y,-z
1/2-x,y,1/2-z
-x,-y,-z
1/2+x,y,1/2-z
-x,y,z
1/2+x,-y,1/2+z
loop_
_atom_site_type_symbol
_atom_site_label
_atom_site_fract_x
_atom_site_fract_y
_atom_site_fract_z
Si Si1 0.441672 0.882212 0.099524
Si Si2 0.607886 0.786247 0.612167
Si Si3 0.213149 0.118268 0.999777
Si Si4 0.941659 0.428905 0.255741
O O1 0.500000 0.844529 0.054832
O O2 0.426535 0.850635 0.399278
O O3 0.400759 0.831668 0.904297
O O4 0.441497 0.000000 0.000000
O O5 0.665715 0.804757 0.518078
O O6 0.590196 0.669415 0.656885
O O7 0.250000 0.128602 0.250000
O O8 0.250000 0.131964 0.750000
O O9 0.192469 0.000000 0.000000
O O10 0.922152 0.500000 0.500000
O O11 0.000000 0.395666 0.330819
O O12 0.945073 0.500000 0.000000
#
# Coordination Sequence:
#
# PCOD9418502 Si02
#       4
#     8   8   8   8
#     4  11  22  34  52  84 121 152 185 228 287 364
#     4  12  22  37  60  82 113 156 197 238 295 351
#     4  10  21  37  57  83 114 148 190 237 284 342
#     4  10  21  37  57  83 114 148 190 237 284 340
#
# _framework density 18.745813999999999
#
# number of rings (size 3 to 8) (size 9 to 14) (size 15 to 20)
#    0.000    1.250    0.000    7.500    0.000    6.000 
#    0.000    0.000    0.000    3.000    0.000    0.000 
#    0.000    0.000    0.000    0.000    0.000    0.000 
#
# Total GULP energy -178515.366378 kJ/mol
# GULP energy per Si atom -5578.605199 kJ/mol
# Density = 1.870315 g / cm^3
# Si number density = 18.745814 Si / 1000 Ang^3
#
#
#
# Elastic Constant Matrix: (Units=GPa)
#
#
# Indices 1 2 3 4 5 6 
#
# 1 92.0205 53.9583 16.1126 0.0000 0.0000 0.0000
# 2 53.9583 119.6128 25.2783 0.0000 0.0000 0.0000
# 3 16.1126 25.2783 107.9107 0.0000 0.0000 0.0000
# 4 0.0000 0.0000 0.0000 29.8942 0.0000 0.0000
# 5 0.0000 0.0000 0.0000 0.0000 9.6243 0.0000
# 6 0.0000 0.0000 0.0000 0.0000 0.0000 118.8653
#
#
#
# Elastic Compliance Matrix: (Units=1/GPa)
#
#
# Indices 1 2 3 4 5 6 
#
# 1 0.014823 -0.006543 -0.000681 0.000000 0.000000 0.000000
# 2 -0.006543 0.011684 -0.001760 0.000000 0.000000 0.000000
# 3 -0.000681 -0.001760 0.009781 0.000000 0.000000 0.000000
# 4 0.000000 0.000000 0.000000 0.033451 0.000000 0.000000
# 5 0.000000 0.000000 0.000000 0.000000 0.103903 0.000000
# 6 0.000000 0.000000 0.000000 0.000000 0.000000 0.008413
#
#
# Mechanical properties :
#
#
# Convention : Reuss Voigt Hill
#
# Bulk Modulus (GPa) = 54.58351 56.69361 55.63856
# Shear Modulus (GPa) = 24.25669 46.62308 35.43989
#
# Velocity S-wave (km/s) = 3.60109 4.99251 4.35276
# Velocity P-wave (km/s) = 6.81700 7.97136 7.41667
#
# Compressibility (1/GPa) = 0.01832055
#
# Stress axis : x y z
#
# Youngs Moduli (GPa) = 67.46325 85.58855 102.24080
#
# Poissons Ratio (x) = 0.56000 0.06958
# Poissons Ratio (y) = 0.44140 0.17994
# Poissons Ratio (z) = 0.04591 0.15064
#
# Static dielectric constant tensor:
#      x y z
#    x 1.637800 0.000000 0.000000 
#    y 0.000000 1.891840 0.000000 
#    z 0.000000 0.000000 1.633320 
# 
# From -- ./inp_files/2616.got.cif
#   From: 2010.05.17/outbox.cif.g08.bks.cpg/sg53_2_cif.got.tgz:2616.got - 2010.06.03 12:45:16.
