data_PCOD9418989
_publ_section_title
;
Structure prediction by ZEFSAII (Michael W. Deem and Ramdas Pophale) SiO2 
 PCOD9418989
Probable space group: P M N A
;
_chemical_formula_sum "Si O2"
_cell_formula_units_Z 48
_cell_length_a 8.776895
_cell_length_b 9.978549
_cell_length_c 29.587504
_cell_angle_alpha 90.000000
_cell_angle_beta 90.000000
_cell_angle_gamma 90.000000
_cell_volume 2591.293626
_symmetry_space_group_name_H-M "P M N A"
_symmetry_group_IT_number 53
_symmetry_cell_setting 'orthorhombic'
loop_
_space_group_symop_operation_xyz
x,y,z
1/2-x,-y,1/2+z
x,-y,-z
1/2-x,y,1/2-z
-x,-y,-z
1/2+x,y,1/2-z
-x,y,z
1/2+x,-y,1/2+z
loop_
_atom_site_type_symbol
_atom_site_label
_atom_site_fract_x
_atom_site_fract_y
_atom_site_fract_z
Si Si1 0.317794 0.293757 0.378605
Si Si2 0.816460 0.520467 0.700023
Si Si3 0.316948 0.211749 0.799088
Si Si4 0.325001 0.123757 0.534636
Si Si5 0.679983 0.357783 0.024422
Si Si6 0.182381 0.995752 0.376262
O O1 0.500000 0.297424 0.377847
O O2 0.250562 0.381196 0.337616
O O3 0.257840 0.349598 0.426590
O O4 0.260972 0.140479 0.374652
O O5 0.750000 0.548781 0.750000
O O6 0.774999 0.365355 0.688820
O O7 0.000000 0.531409 0.701077
O O8 0.250000 0.182499 0.750000
O O9 0.500000 0.208489 0.796614
O O10 0.268985 0.101406 0.835384
O O11 0.500000 0.152490 0.547601
O O12 0.252331 0.247065 0.508180
O O13 0.229491 0.078852 0.577861
O O14 0.326063 0.000000 0.500000
O O15 0.500000 0.331588 0.030274
O O16 0.698940 0.500000 0.000000
O O17 0.000000 0.013711 0.374689
#
# Coordination Sequence:
#
# PCOD9418989 Si02
#       6
#     8   8   8   8   8   8
#     4  12  25  41  61  91 125 162 205 252 305 364
#     4  10  21  41  65  91 122 159 201 251 305 365
#     4   9  21  40  64  92 121 154 199 247 300 360
#     4  11  23  40  62  91 124 160 202 249 303 363
#     4  11  25  43  64  90 121 161 206 253 304 363
#     4  11  23  40  63  91 122 163 206 251 303 362
#
# _framework density 18.523567
#
# number of rings (size 3 to 8) (size 9 to 14) (size 15 to 20)
#    0.000    1.333    1.667    3.500    2.333    4.667 
#    0.000    1.667    0.000    0.000    0.000    0.000 
#    0.000    0.000    0.000    0.000    0.000    0.000 
#
# Total GULP energy -268327.744276 kJ/mol
# GULP energy per Si atom -5590.161339 kJ/mol
# Density = 1.848141 g / cm^3
# Si number density = 18.523567 Si / 1000 Ang^3
#
#
#
# Elastic Constant Matrix: (Units=GPa)
#
#
# Indices 1 2 3 4 5 6 
#
# 1 93.3586 48.2533 34.4934 0.0000 0.0000 0.0000
# 2 48.2533 75.9382 51.9737 0.0000 0.0000 0.0000
# 3 34.4934 51.9737 104.3920 0.0000 0.0000 0.0000
# 4 0.0000 0.0000 0.0000 40.7467 0.0000 0.0000
# 5 0.0000 0.0000 0.0000 0.0000 37.7451 0.0000
# 6 0.0000 0.0000 0.0000 0.0000 0.0000 53.9758
#
#
#
# Elastic Compliance Matrix: (Units=1/GPa)
#
#
# Indices 1 2 3 4 5 6 
#
# 1 0.015958 -0.009907 -0.000340 0.000000 0.000000 0.000000
# 2 -0.009907 0.026126 -0.009734 0.000000 0.000000 0.000000
# 3 -0.000340 -0.009734 0.014538 0.000000 0.000000 0.000000
# 4 0.000000 0.000000 0.000000 0.024542 0.000000 0.000000
# 5 0.000000 0.000000 0.000000 0.000000 0.026493 0.000000
# 6 0.000000 0.000000 0.000000 0.000000 0.000000 0.018527
#
#
# Mechanical properties :
#
#
# Convention : Reuss Voigt Hill
#
# Bulk Modulus (GPa) = 60.02728 60.34772 60.18750
# Shear Modulus (GPa) = 29.12074 35.75807 32.43940
#
# Velocity S-wave (km/s) = 3.96926 4.39841 4.18933
# Velocity P-wave (km/s) = 7.31320 7.64489 7.48088
#
# Compressibility (1/GPa) = 0.01665909
#
# Stress axis : x y z
#
# Youngs Moduli (GPa) = 62.66573 38.27632 68.78571
#
# Poissons Ratio (x) = 0.37920 0.02341
# Poissons Ratio (y) = 0.62083 0.66954
# Poissons Ratio (z) = 0.02133 0.37257
#
# Static dielectric constant tensor:
#      x y z
#    x 1.627230 0.000000 0.000000 
#    y 0.000000 1.613820 0.000000 
#    z 0.000000 0.000000 1.602180 
# 
# From -- ./inp_files/37697.got.cif
#   From: 2010.05.17/outbox.cif.g08.bks.cpg/sg53_19_cif.got.tgz:37697.got - 2010.06.03 12:45:16.
