data_PCOD9418202
_publ_section_title
;
Structure prediction by ZEFSAII (Michael W. Deem and Ramdas Pophale) SiO2 
 PCOD9418202
Probable space group: P M N A
;
_chemical_formula_sum "Si O2"
_cell_formula_units_Z 58
_cell_length_a 17.904708
_cell_length_b 16.562841
_cell_length_c 10.227885
_cell_angle_alpha 90.000000
_cell_angle_beta 90.000000
_cell_angle_gamma 90.000000
_cell_volume 3033.108260
_symmetry_space_group_name_H-M "P M N A"
_symmetry_group_IT_number 53
_symmetry_cell_setting 'orthorhombic'
loop_
_space_group_symop_operation_xyz
x,y,z
1/2-x,-y,1/2+z
x,-y,-z
1/2-x,y,1/2-z
-x,-y,-z
1/2+x,y,1/2-z
-x,y,z
1/2+x,-y,1/2+z
loop_
_atom_site_type_symbol
_atom_site_label
_atom_site_fract_x
_atom_site_fract_y
_atom_site_fract_z
Si Si1 0.914556 0.816978 0.452874
Si Si2 0.589780 0.926863 0.802627
Si Si3 0.237630 0.427959 0.099340
Si Si4 0.000000 0.500000 0.500000
Si Si5 0.911953 0.152763 0.025987
Si Si6 0.162347 0.904752 0.236617
Si Si7 0.084050 0.336477 0.107366
Si Si8 0.107440 0.350941 0.414559
O O1 0.887228 0.872929 0.573330
O O2 0.864995 0.831533 0.326832
O O3 0.913987 0.724747 0.497480
O O4 0.000000 0.840736 0.422744
O O5 0.500000 0.932210 0.807954
O O6 0.609598 0.883325 0.666619
O O7 0.623580 0.015546 0.795497
O O8 0.250000 0.454511 0.250000
O O9 0.154631 0.392973 0.077853
O O10 0.303467 0.363415 0.078255
O O11 0.249459 0.500000 0.000000
O O12 0.935179 0.567539 0.542986
O O13 0.905053 0.249478 0.039968
O O14 0.000000 0.134681 0.003113
O O15 0.864851 0.113318 0.910063
O O16 0.250000 0.914661 0.250000
O O17 0.086406 0.328809 0.265142
O O18 0.000000 0.366059 0.072707
#
# Coordination Sequence:
#
# PCOD9418202 Si02
#       8
#     8   8   8   2   8   8   8   8
#     4  11  22  41  68  95 124 165 218 271 329 385
#     4  10  21  41  70  93 118 166 220 274 318 386
#     4  10  23  41  62  92 126 165 202 260 322 383
#     4  12  20  36  76 100 130 154 214 276 320 388
#     4  10  21  41  67  90 120 172 216 263 318 391
#     4  12  27  41  55  93 139 171 212 271 324 386
#     4  10  20  40  67  92 125 163 220 259 311 393
#     4  11  21  40  67 100 124 164 213 271 324 390
#
# _framework density 19.122298000000001
#
# number of rings (size 3 to 8) (size 9 to 14) (size 15 to 20)
#    0.000    1.379    3.448    2.069    1.931    4.690 
#    2.483    0.000    6.069    0.000    0.000    0.000 
#    0.000    0.000    0.000    0.000    0.000    0.000 
#
# Total GULP energy -323379.805659 kJ/mol
# GULP energy per Si atom -5575.513891 kJ/mol
# Density = 1.907877 g / cm^3
# Si number density = 19.122298 Si / 1000 Ang^3
#
#
#
# Elastic Constant Matrix: (Units=GPa)
#
#
# Indices 1 2 3 4 5 6 
#
# 1 76.0197 5.8752 16.8328 0.0000 0.0000 0.0000
# 2 5.8752 53.7197 10.7554 0.0000 0.0000 0.0000
# 3 16.8328 10.7554 37.4698 0.0000 0.0000 0.0000
# 4 0.0000 0.0000 0.0000 20.4316 0.0000 0.0000
# 5 0.0000 0.0000 0.0000 0.0000 16.2559 0.0000
# 6 0.0000 0.0000 0.0000 0.0000 0.0000 14.2806
#
#
#
# Elastic Compliance Matrix: (Units=1/GPa)
#
#
# Indices 1 2 3 4 5 6 
#
# 1 0.014612 -0.000301 -0.006478 0.000000 0.000000 0.000000
# 2 -0.000301 0.019756 -0.005536 0.000000 0.000000 0.000000
# 3 -0.006478 -0.005536 0.031187 0.000000 0.000000 0.000000
# 4 0.000000 0.000000 0.000000 0.048944 0.000000 0.000000
# 5 0.000000 0.000000 0.000000 0.000000 0.061516 0.000000
# 6 0.000000 0.000000 0.000000 0.000000 0.000000 0.070025
#
#
# Mechanical properties :
#
#
# Convention : Reuss Voigt Hill
#
# Bulk Modulus (GPa) = 24.43408 26.01512 25.22460
# Shear Modulus (GPa) = 17.58631 19.11001 18.34816
#
# Velocity S-wave (km/s) = 3.03591 3.16469 3.10097
# Velocity P-wave (km/s) = 5.00944 5.19498 5.10305
#
# Compressibility (1/GPa) = 0.04092645
#
# Stress axis : x y z
#
# Youngs Moduli (GPa) = 68.43636 50.61657 32.06447
#
# Poissons Ratio (x) = 0.01524 0.20771
# Poissons Ratio (y) = 0.02061 0.17750
# Poissons Ratio (z) = 0.44332 0.28019
#
# Static dielectric constant tensor:
#      x y z
#    x 1.672140 0.000000 0.000000 
#    y 0.000000 1.650060 0.000000 
#    z 0.000000 0.000000 1.652730 
# 
# From -- ./inp_files/10171.got.cif
#   From: 2010.05.17/outbox.cif.g08.bks.cpg/sg53_6_cif.got.tgz:10171.got - 2010.06.03 12:45:16.
