data_PCOD9418222
_publ_section_title
;
Structure prediction by ZEFSAII (Michael W. Deem and Ramdas Pophale) SiO2 
 PCOD9418222
Probable space group: P M N A
;
_chemical_formula_sum "Si O2"
_cell_formula_units_Z 52
_cell_length_a 15.011134
_cell_length_b 22.493673
_cell_length_c 7.032640
_cell_angle_alpha 90.000000
_cell_angle_beta 90.000000
_cell_angle_gamma 90.000000
_cell_volume 2374.609854
_symmetry_space_group_name_H-M "P M N A"
_symmetry_group_IT_number 53
_symmetry_cell_setting 'orthorhombic'
loop_
_space_group_symop_operation_xyz
x,y,z
1/2-x,-y,1/2+z
x,-y,-z
1/2-x,y,1/2-z
-x,-y,-z
1/2+x,y,1/2-z
-x,y,z
1/2+x,-y,1/2+z
loop_
_atom_site_type_symbol
_atom_site_label
_atom_site_fract_x
_atom_site_fract_y
_atom_site_fract_z
Si Si1 0.646636 0.067270 0.222828
Si Si2 0.331269 0.763349 0.902045
Si Si3 0.395683 0.067572 0.770012
Si Si4 0.403298 0.475593 0.783560
Si Si5 0.180512 0.357632 0.592765
Si Si6 0.500000 0.838790 0.739743
Si Si7 0.250000 0.839787 0.250000
Si Si8 0.750000 0.562577 0.750000
O O1 0.750000 0.082537 0.250000
O O2 0.577534 0.111803 0.315734
O O3 0.630569 0.999301 0.285093
O O4 0.621148 0.070433 0.998594
O O5 0.250000 0.756340 0.750000
O O6 0.418851 0.794215 0.814922
O O7 0.359040 0.699434 0.988668
O O8 0.290132 0.801420 0.077346
O O9 0.500000 0.078970 0.740184
O O10 0.329337 0.116232 0.685763
O O11 0.500000 0.483479 0.700049
O O12 0.380051 0.406106 0.799708
O O13 0.329572 0.518214 0.696804
O O14 0.405824 0.500000 0.000000
O O15 0.250000 0.335577 0.750000
O O16 0.227288 0.396389 0.428352
#
# Coordination Sequence:
#
# PCOD9418222 Si02
#       8
#     8   8   8   8   8   4   4   4
#     4  11  20  37  67  97 132 173 217 276 350 413
#     4  12  27  49  69  95 136 187 233 283 332 409
#     4  11  21  40  64  99 135 171 214 283 356 414
#     4   9  19  36  66 101 136 177 217 266 332 399
#     4  11  22  41  69  98 136 180 225 274 330 395
#     4  12  24  43  70  95 133 187 225 273 354 407
#     4  12  24  43  72  99 130 178 232 280 346 416
#     4  10  20  41  68  99 144 174 212 276 342 382
#
# _framework density 21.898333000000001
#
# number of rings (size 3 to 8) (size 9 to 14) (size 15 to 20)
#    0.000    1.077    6.154    0.923    1.077    0.000 
#    1.385    1.538    1.692    2.769    0.000    0.000 
#    0.000    0.000    0.000    0.000    0.000    0.000 
#
# Total GULP energy -289737.657596 kJ/mol
# GULP energy per Si atom -5571.878031 kJ/mol
# Density = 2.184849 g / cm^3
# Si number density = 21.898333 Si / 1000 Ang^3
#
#
#
# Elastic Constant Matrix: (Units=GPa)
#
#
# Indices 1 2 3 4 5 6 
#
# 1 171.3709 49.2821 15.8344 0.0000 0.0000 0.0000
# 2 49.2821 151.1684 14.7721 0.0000 0.0000 0.0000
# 3 15.8344 14.7721 80.3416 0.0000 0.0000 0.0000
# 4 0.0000 0.0000 0.0000 4.0544 0.0000 0.0000
# 5 0.0000 0.0000 0.0000 0.0000 4.3471 0.0000
# 6 0.0000 0.0000 0.0000 0.0000 0.0000 -3.5805
#
#
#
# Elastic Compliance Matrix: (Units=1/GPa)
#
#
# Indices 1 2 3 4 5 6 
#
# 1 0.006503 -0.002031 -0.000908 0.000000 0.000000 0.000000
# 2 -0.002031 0.007371 -0.000955 0.000000 0.000000 0.000000
# 3 -0.000908 -0.000955 0.012801 0.000000 0.000000 0.000000
# 4 0.000000 0.000000 0.000000 0.246645 0.000000 0.000000
# 5 0.000000 0.000000 0.000000 0.000000 0.230036 0.000000
# 6 0.000000 0.000000 0.000000 0.000000 0.000000 -0.279293
#
#
# Mechanical properties :
#
#
# Convention : Reuss Voigt Hill
#
# Bulk Modulus (GPa) = 52.94781 62.51757 57.73269
# Shear Modulus (GPa) = 20.99527 22.49703 21.74615
#
# Velocity S-wave (km/s) = 3.09975 3.20869 3.15469
# Velocity P-wave (km/s) = 6.08627 6.50681 6.30005
#
# Compressibility (1/GPa) = 0.01888652
#
# Stress axis : x y z
#
# Youngs Moduli (GPa) = 153.76569 135.67230 78.11631
#
# Poissons Ratio (x) = 0.27561 0.07095
# Poissons Ratio (y) = 0.31236 0.07459
# Poissons Ratio (z) = 0.13966 0.12955
#
# Static dielectric constant tensor:
#      x y z
#    x 1.854930 0.000000 0.000000 
#    y 0.000000 1.798620 0.000000 
#    z 0.000000 0.000000 1.930030 
# 
# From -- ./inp_files/8813.got.cif
#   From: 2010.05.17/outbox.cif.g08.bks.cpg/sg53_5_cif.got.tgz:8813.got - 2010.06.03 12:45:16.
