data_PCOD9418920
_publ_section_title
;
Structure prediction by ZEFSAII (Michael W. Deem and Ramdas Pophale) SiO2 
 PCOD9418920
Probable space group: P M N A
;
_chemical_formula_sum "Si O2"
_cell_formula_units_Z 32
_cell_length_a 18.734440
_cell_length_b 9.779803
_cell_length_c 8.628815
_cell_angle_alpha 90.000000
_cell_angle_beta 90.000000
_cell_angle_gamma 90.000000
_cell_volume 1580.963999
_symmetry_space_group_name_H-M "P M N A"
_symmetry_group_IT_number 53
_symmetry_cell_setting 'orthorhombic'
loop_
_space_group_symop_operation_xyz
x,y,z
1/2-x,-y,1/2+z
x,-y,-z
1/2-x,y,1/2-z
-x,-y,-z
1/2+x,y,1/2-z
-x,y,z
1/2+x,-y,1/2+z
loop_
_atom_site_type_symbol
_atom_site_label
_atom_site_fract_x
_atom_site_fract_y
_atom_site_fract_z
Si Si1 0.816717 0.089446 0.642102
Si Si2 0.421635 0.905552 0.647167
Si Si3 0.323835 0.349901 0.044191
Si Si4 0.657577 0.638727 0.584960
O O1 0.750000 0.127322 0.750000
O O2 0.851235 0.224528 0.561863
O O3 0.786640 0.000000 0.500000
O O4 0.869613 0.986380 0.733979
O O5 0.500000 0.880614 0.719234
O O6 0.392051 0.768521 0.566133
O O7 0.428716 0.000000 0.500000
O O8 0.336210 0.353213 0.228062
O O9 0.237993 0.341502 0.022620
O O10 0.349940 0.500000 0.000000
O O11 0.632018 0.500000 0.500000
#
# Coordination Sequence:
#
# PCOD9418920 Si02
#       4
#     8   8   8   8
#     4  12  23  39  66  96 130 165 216 270 328 389
#     4  11  25  43  63  90 127 174 220 266 325 385
#     4  10  22  36  60  97 124 160 207 265 326 380
#     4  10  21  40  62  90 130 164 210 264 321 383
#
# _framework density 20.240815000000001
#
# number of rings (size 3 to 8) (size 9 to 14) (size 15 to 20)
#    0.000    1.250    2.500    3.750   10.500    1.000 
#    0.000    0.000    0.000    1.500    0.000    0.000 
#    0.000    0.000    0.000    0.000    0.000    0.000 
#
# Total GULP energy -178195.918025 kJ/mol
# GULP energy per Si atom -5568.622438 kJ/mol
# Density = 2.019475 g / cm^3
# Si number density = 20.240815 Si / 1000 Ang^3
#
#
#
# Elastic Constant Matrix: (Units=GPa)
#
#
# Indices 1 2 3 4 5 6 
#
# 1 44.2048 39.9236 15.1109 0.0000 0.0000 0.0000
# 2 39.9236 183.6795 52.5264 0.0000 0.0000 0.0000
# 3 15.1109 52.5264 81.2636 0.0000 0.0000 0.0000
# 4 0.0000 0.0000 0.0000 54.2483 0.0000 0.0000
# 5 0.0000 0.0000 0.0000 0.0000 11.0050 0.0000
# 6 0.0000 0.0000 0.0000 0.0000 0.0000 22.3259
#
#
#
# Elastic Compliance Matrix: (Units=1/GPa)
#
#
# Indices 1 2 3 4 5 6 
#
# 1 0.028312 -0.005702 -0.001579 0.000000 0.000000 0.000000
# 2 -0.005702 0.007827 -0.003999 0.000000 0.000000 0.000000
# 3 -0.001579 -0.003999 0.015184 0.000000 0.000000 0.000000
# 4 0.000000 0.000000 0.000000 0.018434 0.000000 0.000000
# 5 0.000000 0.000000 0.000000 0.000000 0.090868 0.000000
# 6 0.000000 0.000000 0.000000 0.000000 0.000000 0.044791
#
#
# Mechanical properties :
#
#
# Convention : Reuss Voigt Hill
#
# Bulk Modulus (GPa) = 34.76698 58.25219 46.50959
# Shear Modulus (GPa) = 21.04703 30.95498 26.00100
#
# Velocity S-wave (km/s) = 3.22814 3.91491 3.58800
# Velocity P-wave (km/s) = 5.57750 7.01979 6.33979
#
# Compressibility (1/GPa) = 0.02876292
#
# Stress axis : x y z
#
# Youngs Moduli (GPa) = 35.32127 127.75902 65.85870
#
# Poissons Ratio (x) = 0.72850 0.10398
# Poissons Ratio (y) = 0.20141 0.26337
# Poissons Ratio (z) = 0.05577 0.51091
#
# Static dielectric constant tensor:
#      x y z
#    x 1.767860 0.000000 0.000000 
#    y 0.000000 1.691790 0.000000 
#    z 0.000000 0.000000 1.430490 
# 
# From -- ./inp_files/10429.got.cif
#   From: 2010.05.17/outbox.cif.g08.bks.cpg/sg53_6_cif.got.tgz:10429.got - 2010.06.03 12:45:16.
