data_PCOD9418294
_publ_section_title
;
Structure prediction by ZEFSAII (Michael W. Deem and Ramdas Pophale) SiO2 
 PCOD9418294
Probable space group: P M N A
;
_chemical_formula_sum "Si O2"
_cell_formula_units_Z 48
_cell_length_a 8.563111
_cell_length_b 31.641854
_cell_length_c 9.315917
_cell_angle_alpha 90.000000
_cell_angle_beta 90.000000
_cell_angle_gamma 90.000000
_cell_volume 2524.172939
_symmetry_space_group_name_H-M "P M N A"
_symmetry_group_IT_number 53
_symmetry_cell_setting 'orthorhombic'
loop_
_space_group_symop_operation_xyz
x,y,z
1/2-x,-y,1/2+z
x,-y,-z
1/2-x,y,1/2-z
-x,-y,-z
1/2+x,y,1/2-z
-x,y,z
1/2+x,-y,1/2+z
loop_
_atom_site_type_symbol
_atom_site_label
_atom_site_fract_x
_atom_site_fract_y
_atom_site_fract_z
Si Si1 0.311283 0.541015 0.089792
Si Si2 0.311353 0.378258 0.089786
Si Si3 0.686477 0.122378 0.411855
Si Si4 0.312524 0.042381 0.912169
Si Si5 0.812155 0.201887 0.588948
Si Si6 0.311579 0.716966 0.910490
O O1 0.250000 0.538356 0.250000
O O2 0.500000 0.541182 0.091564
O O3 0.260320 0.500000 0.000000
O O4 0.258018 0.584344 0.013990
O O5 0.250000 0.386054 0.250000
O O6 0.500000 0.378854 0.093027
O O7 0.261782 0.330650 0.047790
O O8 0.750000 0.119472 0.250000
O O9 0.500000 0.123376 0.408356
O O10 0.743259 0.082413 0.504373
O O11 0.749774 0.164352 0.489097
O O12 0.250000 0.040347 0.750000
O O13 0.500000 0.046047 0.908637
O O14 0.271319 0.000000 0.000000
O O15 0.750000 0.197203 0.750000
O O16 0.761410 0.246555 0.519469
O O17 0.000000 0.200312 0.590829
O O18 0.250000 0.725424 0.750000
O O19 0.500000 0.717506 0.905100
#
# Coordination Sequence:
#
# PCOD9418294 Si02
#       6
#     8   8   8   8   8   8
#     4  10  21  35  52  76 106 139 177 222 270 324
#     4   9  18  34  54  78 107 139 179 224 272 327
#     4  12  25  42  64  89 119 154 194 239 288 341
#     4  11  24  42  65  93 125 160 198 240 287 338
#     4  11  23  39  58  83 115 150 190 235 285 337
#     4   9  19  35  56  80 108 143 182 227 276 330
#
# _framework density 19.01613
#
# number of rings (size 3 to 8) (size 9 to 14) (size 15 to 20)
#    0.000    1.667    0.000    4.500    0.000    7.000 
#    0.000    0.000    0.000    0.000    0.000    0.000 
#    0.000    0.000    0.000    0.000    0.000    0.000 
#
# Total GULP energy -268289.906757 kJ/mol
# GULP energy per Si atom -5589.373057 kJ/mol
# Density = 1.897285 g / cm^3
# Si number density = 19.016130 Si / 1000 Ang^3
#
#
#
# Elastic Constant Matrix: (Units=GPa)
#
#
# Indices 1 2 3 4 5 6 
#
# 1 49.6989 51.1342 45.7817 0.0000 0.0000 0.0000
# 2 51.1342 172.2578 123.4612 0.0000 0.0000 0.0000
# 3 45.7817 123.4612 184.3475 0.0000 0.0000 0.0000
# 4 0.0000 0.0000 0.0000 40.9318 0.0000 0.0000
# 5 0.0000 0.0000 0.0000 0.0000 37.6992 0.0000
# 6 0.0000 0.0000 0.0000 0.0000 0.0000 -25.8481
#
#
#
# Elastic Compliance Matrix: (Units=1/GPa)
#
#
# Indices 1 2 3 4 5 6 
#
# 1 0.029718 -0.006792 -0.002831 0.000000 0.000000 0.000000
# 2 -0.006792 0.012717 -0.006830 0.000000 0.000000 0.000000
# 3 -0.002831 -0.006830 0.010702 0.000000 0.000000 0.000000
# 4 0.000000 0.000000 0.000000 0.024431 0.000000 0.000000
# 5 0.000000 0.000000 0.000000 0.000000 0.026526 0.000000
# 6 0.000000 0.000000 0.000000 0.000000 0.000000 -0.038687
#
#
# Mechanical properties :
#
#
# Convention : Reuss Voigt Hill
#
# Bulk Modulus (GPa) = 49.43308 94.11758 71.77533
# Shear Modulus (GPa) = 47.59415 22.95172 35.27294
#
# Velocity S-wave (km/s) = 5.00826 3.47790 4.31152
# Velocity P-wave (km/s) = 7.71332 8.10733 7.91278
#
# Compressibility (1/GPa) = 0.02022937
#
# Stress axis : x y z
#
# Youngs Moduli (GPa) = 33.64977 78.63782 93.44383
#
# Poissons Ratio (x) = 0.53414 0.26456
# Poissons Ratio (y) = 0.22856 0.63819
# Poissons Ratio (z) = 0.09527 0.53707
#
# Static dielectric constant tensor:
#      x y z
#    x 1.641900 0.000000 0.000000 
#    y 0.000000 1.666240 0.000000 
#    z 0.000000 0.000000 1.606520 
# 
# From -- ./inp_files/6689.got.cif
#   From: 2010.05.17/outbox.cif.g08.bks.cpg/sg53_4_cif.got.tgz:6689.got - 2010.06.03 12:45:16.
