data_PCOD9418700
_publ_section_title
;
Structure prediction by ZEFSAII (Michael W. Deem and Ramdas Pophale) SiO2 
 PCOD9418700
Probable space group: P M N A
;
_chemical_formula_sum "Si O2"
_cell_formula_units_Z 40
_cell_length_a 7.877362
_cell_length_b 9.905531
_cell_length_c 27.321956
_cell_angle_alpha 90.000000
_cell_angle_beta 90.000000
_cell_angle_gamma 90.000000
_cell_volume 2131.917295
_symmetry_space_group_name_H-M "P M N A"
_symmetry_group_IT_number 53
_symmetry_cell_setting 'orthorhombic'
loop_
_space_group_symop_operation_xyz
x,y,z
1/2-x,-y,1/2+z
x,-y,-z
1/2-x,y,1/2-z
-x,-y,-z
1/2+x,y,1/2-z
-x,y,z
1/2+x,-y,1/2+z
loop_
_atom_site_type_symbol
_atom_site_label
_atom_site_fract_x
_atom_site_fract_y
_atom_site_fract_z
Si Si1 0.298212 0.496353 0.694133
Si Si2 0.000000 0.638730 0.470989
Si Si3 0.196019 0.199854 0.306203
Si Si4 0.701883 0.297444 0.605213
Si Si5 0.189367 0.023092 0.107768
Si Si6 0.500000 0.111338 0.041886
O O1 0.250000 0.460508 0.750000
O O2 0.500000 0.516794 0.693414
O O3 0.218035 0.641578 0.681324
O O4 0.256618 0.382698 0.654196
O O5 0.000000 0.500000 0.500000
O O6 0.833094 0.658156 0.436920
O O7 0.000000 0.749819 0.513373
O O8 0.250000 0.186376 0.250000
O O9 0.301076 0.102481 0.341187
O O10 0.000000 0.162890 0.311708
O O11 0.500000 0.320164 0.593883
O O12 0.723216 0.136761 0.613469
O O13 0.333389 0.088536 0.074298
O O14 0.000000 0.037833 0.086683
O O15 0.500000 0.000000 0.000000
#
# Coordination Sequence:
#
# PCOD9418700 Si02
#       6
#     8   4   8   8   8   4
#     4  10  21  38  60  92 126 168 211 254 317 381
#     4  12  28  44  68  94 128 168 216 270 320 378
#     4  11  22  38  62  95 130 168 215 260 315 384
#     4  10  24  43  64  93 129 164 211 262 317 382
#     4  11  23  42  66  94 129 167 210 267 320 377
#     4  12  24  46  66  98 124 168 222 260 324 382
#
# _framework density 18.762453000000001
#
# number of rings (size 3 to 8) (size 9 to 14) (size 15 to 20)
#    0.000    1.200    3.000    3.600    5.600    2.400 
#    0.000    2.000    0.000    0.000    0.000    0.000 
#    0.000    0.000    0.000    0.000    0.000    0.000 
#
# Total GULP energy -223443.660320 kJ/mol
# GULP energy per Si atom -5586.091508 kJ/mol
# Density = 1.871975 g / cm^3
# Si number density = 18.762453 Si / 1000 Ang^3
#
#
#
# Elastic Constant Matrix: (Units=GPa)
#
#
# Indices 1 2 3 4 5 6 
#
# 1 114.7154 57.5705 59.8557 0.0000 0.0000 0.0000
# 2 57.5705 140.5972 88.0382 0.0000 0.0000 0.0000
# 3 59.8557 88.0382 110.9619 0.0000 0.0000 0.0000
# 4 0.0000 0.0000 0.0000 42.0000 0.0000 0.0000
# 5 0.0000 0.0000 0.0000 0.0000 29.5926 0.0000
# 6 0.0000 0.0000 0.0000 0.0000 0.0000 25.0736
#
#
#
# Elastic Compliance Matrix: (Units=1/GPa)
#
#
# Indices 1 2 3 4 5 6 
#
# 1 0.012347 -0.001759 -0.005264 0.000000 0.000000 0.000000
# 2 -0.001759 0.014386 -0.010465 0.000000 0.000000 0.000000
# 3 -0.005264 -0.010465 0.020155 0.000000 0.000000 0.000000
# 4 0.000000 0.000000 0.000000 0.023810 0.000000 0.000000
# 5 0.000000 0.000000 0.000000 0.000000 0.033792 0.000000
# 6 0.000000 0.000000 0.000000 0.000000 0.000000 0.039883
#
#
# Mechanical properties :
#
#
# Convention : Reuss Voigt Hill
#
# Bulk Modulus (GPa) = 83.96000 86.35593 85.15796
# Shear Modulus (GPa) = 27.27495 30.05391 28.66443
#
# Velocity S-wave (km/s) = 3.81688 4.00661 3.91289
# Velocity P-wave (km/s) = 8.01691 8.21765 8.11790
#
# Compressibility (1/GPa) = 0.01191043
#
# Stress axis : x y z
#
# Youngs Moduli (GPa) = 80.99143 69.51413 49.61643
#
# Poissons Ratio (x) = 0.12229 0.26120
# Poissons Ratio (y) = 0.14249 0.51922
# Poissons Ratio (z) = 0.42638 0.72744
#
# Static dielectric constant tensor:
#      x y z
#    x 1.651500 0.000000 0.000000 
#    y 0.000000 1.615710 0.000000 
#    z 0.000000 0.000000 1.638630 
# 
# From -- ./inp_files/36077.got.cif
#   From: 2010.05.17/outbox.cif.g08.bks.cpg/sg53_19_cif.got.tgz:36077.got - 2010.06.03 12:45:16.
