data_PCOD9418426
_publ_section_title
;
Structure prediction by ZEFSAII (Michael W. Deem and Ramdas Pophale) SiO2 
 PCOD9418426
Probable space group: P M N A
;
_chemical_formula_sum "Si O2"
_cell_formula_units_Z 64
_cell_length_a 7.954657
_cell_length_b 14.911523
_cell_length_c 26.142031
_cell_angle_alpha 90.000000
_cell_angle_beta 90.000000
_cell_angle_gamma 90.000000
_cell_volume 3100.864477
_symmetry_space_group_name_H-M "P M N A"
_symmetry_group_IT_number 53
_symmetry_cell_setting 'orthorhombic'
loop_
_space_group_symop_operation_xyz
x,y,z
1/2-x,-y,1/2+z
x,-y,-z
1/2-x,y,1/2-z
-x,-y,-z
1/2+x,y,1/2-z
-x,y,z
1/2+x,-y,1/2+z
loop_
_atom_site_type_symbol
_atom_site_label
_atom_site_fract_x
_atom_site_fract_y
_atom_site_fract_z
Si Si1 0.702573 0.905366 0.308961
Si Si2 0.200698 0.413354 0.597073
Si Si3 0.202695 0.285818 0.506346
Si Si4 0.797831 0.383334 0.403656
Si Si5 0.794075 0.086134 0.138427
Si Si6 0.702370 0.094400 0.477981
Si Si7 0.700056 0.265183 0.307692
Si Si8 0.201031 0.295560 0.808747
O O1 0.750000 0.921662 0.250000
O O2 0.500000 0.903657 0.312605
O O3 0.763795 0.805230 0.322447
O O4 0.763200 0.988515 0.342720
O O5 0.266452 0.347676 0.552599
O O6 0.267046 0.514703 0.594107
O O7 0.232502 0.368024 0.651625
O O8 0.000000 0.419232 0.589640
O O9 0.264566 0.325651 0.452086
O O10 0.250528 0.181933 0.509964
O O11 0.000000 0.290054 0.506287
O O12 0.757239 0.335625 0.350361
O O13 0.000000 0.386530 0.407865
O O14 0.739169 0.105354 0.080550
O O15 0.736545 0.166514 0.175214
O O16 0.000000 0.085303 0.138944
O O17 0.500000 0.089994 0.476917
O O18 0.764838 0.000000 0.500000
O O19 0.750000 0.287163 0.250000
O O20 0.500000 0.262047 0.309796
O O21 0.250000 0.312987 0.750000
O O22 0.000000 0.295249 0.811942
#
# Coordination Sequence:
#
# PCOD9418426 Si02
#       8
#     8   8   8   8   8   8   8   8
#     4   9  18  33  53  77 107 142 182 224 270 327
#     4  10  22  39  61  86 113 148 191 238 289 347
#     4  10  21  39  62  87 117 149 189 239 289 341
#     4  10  21  40  62  84 112 150 192 237 293 347
#     4   9  18  34  54  80 113 148 186 229 277 334
#     4  10  21  36  58  85 118 156 189 228 283 341
#     4  11  22  37  59  86 118 153 195 242 291 345
#     4  10  21  37  59  85 116 151 189 235 286 339
#
# _framework density 20.639403999999999
#
# number of rings (size 3 to 8) (size 9 to 14) (size 15 to 20)
#    0.000    2.125    1.250    1.500    1.750    3.750 
#    0.000    1.250    0.000    2.250    0.000    0.000 
#    0.000    0.000    0.000    0.000    0.000    0.000 
#
# Total GULP energy -357461.008540 kJ/mol
# GULP energy per Si atom -5585.328258 kJ/mol
# Density = 2.059243 g / cm^3
# Si number density = 20.639404 Si / 1000 Ang^3
#
#
#
# Elastic Constant Matrix: (Units=GPa)
#
#
# Indices 1 2 3 4 5 6 
#
# 1 17.0188 7.3317 -0.6466 0.0000 0.0000 0.0000
# 2 7.3317 163.5566 67.0700 0.0000 0.0000 0.0000
# 3 -0.6466 67.0700 94.1532 0.0000 0.0000 0.0000
# 4 0.0000 0.0000 0.0000 37.5226 0.0000 0.0000
# 5 0.0000 0.0000 0.0000 0.0000 15.0989 0.0000
# 6 0.0000 0.0000 0.0000 0.0000 0.0000 13.2641
#
#
#
# Elastic Compliance Matrix: (Units=1/GPa)
#
#
# Indices 1 2 3 4 5 6 
#
# 1 0.060643 -0.004081 0.003324 0.000000 0.000000 0.000000
# 2 -0.004081 0.008912 -0.006376 0.000000 0.000000 0.000000
# 3 0.003324 -0.006376 0.015186 0.000000 0.000000 0.000000
# 4 0.000000 0.000000 0.000000 0.026651 0.000000 0.000000
# 5 0.000000 0.000000 0.000000 0.000000 0.066230 0.000000
# 6 0.000000 0.000000 0.000000 0.000000 0.000000 0.075391
#
#
# Mechanical properties :
#
#
# Convention : Reuss Voigt Hill
#
# Bulk Modulus (GPa) = 14.18979 46.91541 30.55260
# Shear Modulus (GPa) = 17.19560 26.57534 21.88547
#
# Velocity S-wave (km/s) = 2.88955 3.59221 3.25987
# Velocity P-wave (km/s) = 4.24532 6.32342 5.38555
#
# Compressibility (1/GPa) = 0.07047321
#
# Stress axis : x y z
#
# Youngs Moduli (GPa) = 16.48990 112.21055 65.85006
#
# Poissons Ratio (x) = 0.45799 -0.21888
# Poissons Ratio (y) = 0.06730 0.41988
# Poissons Ratio (z) = -0.05481 0.71549
#
# Static dielectric constant tensor:
#      x y z
#    x 1.744410 0.000000 0.000000 
#    y 0.000000 1.738420 0.000000 
#    z 0.000000 0.000000 1.742650 
# 
# From -- ./inp_files/34334.got.cif
#   From: 2010.05.17/outbox.cif.g08.bks.cpg/sg53_18_cif.got.tgz:34334.got - 2010.06.03 12:45:16.
