data_PCOD9418688
_publ_section_title
;
Structure prediction by ZEFSAII (Michael W. Deem and Ramdas Pophale) SiO2 
 PCOD9418688
Probable space group: P M N A
;
_chemical_formula_sum "Si O2"
_cell_formula_units_Z 40
_cell_length_a 8.148536
_cell_length_b 7.714484
_cell_length_c 31.131307
_cell_angle_alpha 90.000000
_cell_angle_beta 90.000000
_cell_angle_gamma 90.000000
_cell_volume 1956.968456
_symmetry_space_group_name_H-M "P M N A"
_symmetry_group_IT_number 53
_symmetry_cell_setting 'orthorhombic'
loop_
_space_group_symop_operation_xyz
x,y,z
1/2-x,-y,1/2+z
x,-y,-z
1/2-x,y,1/2-z
-x,-y,-z
1/2+x,y,1/2-z
-x,y,z
1/2+x,-y,1/2+z
loop_
_atom_site_type_symbol
_atom_site_label
_atom_site_fract_x
_atom_site_fract_y
_atom_site_fract_z
Si Si1 0.806905 0.733228 0.701292
Si Si2 0.194491 0.965281 0.139466
Si Si3 0.312716 0.537921 0.045994
Si Si4 0.804596 0.914211 0.045965
Si Si5 0.199977 0.435650 0.639062
O O1 0.750000 0.749759 0.750000
O O2 0.771627 0.903840 0.673264
O O3 0.739383 0.564438 0.676123
O O4 0.000000 0.708170 0.702626
O O5 0.000000 0.974692 0.144998
O O6 0.232767 0.017006 0.089810
O O7 0.246035 0.763733 0.144757
O O8 0.500000 0.470331 0.044070
O O9 0.306561 0.745080 0.047981
O O10 0.241152 0.490706 0.092522
O O11 0.230291 0.500000 0.000000
O O12 0.000000 0.867789 0.048408
O O13 0.778128 0.000000 0.000000
O O14 0.000000 0.435612 0.637399
#
# Coordination Sequence:
#
# PCOD9418688 Si02
#       5
#     8   8   8   8   8
#     4  11  24  41  63  88 115 149 194 243 295 349
#     4  10  21  38  60  86 119 156 195 240 290 346
#     4   9  18  32  52  80 111 145 189 233 280 337
#     4   9  19  34  51  78 114 152 191 229 277 336
#     4   9  20  39  59  83 117 155 194 241 292 345
#
# _framework density 20.439776999999999
#
# number of rings (size 3 to 8) (size 9 to 14) (size 15 to 20)
#    0.000    2.400    0.000    1.200    2.800    4.000 
#    0.000    2.000    0.000    0.000    0.000    0.000 
#    0.000    0.000    0.000    0.000    0.000    0.000 
#
# Total GULP energy -222929.631433 kJ/mol
# GULP energy per Si atom -5573.240786 kJ/mol
# Density = 2.039325 g / cm^3
# Si number density = 20.439777 Si / 1000 Ang^3
#
#
#
# Elastic Constant Matrix: (Units=GPa)
#
#
# Indices 1 2 3 4 5 6 
#
# 1 16.1427 -0.6480 26.0510 0.0000 0.0000 0.0000
# 2 -0.6480 63.7651 64.5809 0.0000 0.0000 0.0000
# 3 26.0510 64.5809 201.8618 0.0000 0.0000 0.0000
# 4 0.0000 0.0000 0.0000 30.9846 0.0000 0.0000
# 5 0.0000 0.0000 0.0000 0.0000 -8.0822 0.0000
# 6 0.0000 0.0000 0.0000 0.0000 0.0000 23.4979
#
#
#
# Elastic Compliance Matrix: (Units=1/GPa)
#
#
# Indices 1 2 3 4 5 6 
#
# 1 0.091669 0.019103 -0.017942 0.000000 0.000000 0.000000
# 2 0.019103 0.027181 -0.011161 0.000000 0.000000 0.000000
# 3 -0.017942 -0.011161 0.010840 0.000000 0.000000 0.000000
# 4 0.000000 0.000000 0.000000 0.032274 0.000000 0.000000
# 5 0.000000 0.000000 0.000000 0.000000 -0.123728 0.000000
# 6 0.000000 0.000000 0.000000 0.000000 0.000000 0.042557
#
#
# Mechanical properties :
#
#
# Convention : Reuss Voigt Hill
#
# Bulk Modulus (GPa) = 9.11666 51.30415 30.21041
# Shear Modulus (GPa) = 36.40208 22.06576 29.23392
#
# Velocity S-wave (km/s) = 4.22470 3.28922 3.78596
# Velocity P-wave (km/s) = 5.31671 6.29126 5.82440
#
# Compressibility (1/GPa) = 0.10968926
#
# Stress axis : x y z
#
# Youngs Moduli (GPa) = 10.90886 36.79104 92.25066
#
# Poissons Ratio (x) = -0.70281 1.65513
# Poissons Ratio (y) = -0.20839 1.02961
# Poissons Ratio (z) = 0.19572 0.41063
#
# Static dielectric constant tensor:
#      x y z
#    x 1.740300 0.000000 0.000000 
#    y 0.000000 1.700860 0.000000 
#    z 0.000000 0.000000 1.803610 
# 
# From -- ./inp_files/33631.got.cif
#   From: 2010.05.17/outbox.cif.g08.bks.cpg/sg53_17_cif.got.tgz:33631.got - 2010.06.03 12:45:16.
