data_PCOD9418261
_publ_section_title
;
Structure prediction by ZEFSAII (Michael W. Deem and Ramdas Pophale) SiO2 
 PCOD9418261
Probable space group: P M N A
;
_chemical_formula_sum "Si O2"
_cell_formula_units_Z 26
_cell_length_a 15.998898
_cell_length_b 5.078859
_cell_length_c 13.619436
_cell_angle_alpha 90.000000
_cell_angle_beta 90.000000
_cell_angle_gamma 90.000000
_cell_volume 1106.662895
_symmetry_space_group_name_H-M "P M N A"
_symmetry_group_IT_number 53
_symmetry_cell_setting 'orthorhombic'
loop_
_space_group_symop_operation_xyz
x,y,z
1/2-x,-y,1/2+z
x,-y,-z
1/2-x,y,1/2-z
-x,-y,-z
1/2+x,y,1/2-z
-x,y,z
1/2+x,-y,1/2+z
loop_
_atom_site_type_symbol
_atom_site_label
_atom_site_fract_x
_atom_site_fract_y
_atom_site_fract_z
Si Si1 0.331030 0.129871 0.606583
Si Si2 0.651604 0.634430 0.721116
Si Si3 0.500000 0.000000 0.000000
Si Si4 0.353140 0.676221 0.094657
O O1 0.362220 0.421879 0.633862
O O2 0.230414 0.160551 0.620883
O O3 0.344682 0.000000 0.500000
O O4 0.368777 0.923533 0.684091
O O5 0.750000 0.635049 0.750000
O O6 0.614434 0.518406 0.820359
O O7 0.427171 0.136613 0.933769
O O8 0.329395 0.500000 0.000000
#
# Coordination Sequence:
#
# PCOD9418261 Si02
#       4
#     8   8   2   8
#     4  11  20  36  61  89 123 159 210 276 333 380
#     4  10  21  34  59  87 121 164 208 272 330 381
#     4  12  26  40  64  90 146 198 218 254 330 426
#     4  11  24  39  60  92 137 176 224 263 332 415
#
# _framework density 23.494056
#
# number of rings (size 3 to 8) (size 9 to 14) (size 15 to 20)
#    0.000    1.231    1.538    7.846    4.308    0.000 
#    0.000    0.000    0.000    0.000    0.000    6.462 
#    0.000    0.000    0.000    0.000    0.000    0.000 
#
# Total GULP energy -144867.755867 kJ/mol
# GULP energy per Si atom -5571.836764 kJ/mol
# Density = 2.344058 g / cm^3
# Si number density = 23.494056 Si / 1000 Ang^3
#
#
#
# Elastic Constant Matrix: (Units=GPa)
#
#
# Indices 1 2 3 4 5 6 
#
# 1 27.8837 6.7711 0.4675 0.0000 0.0000 0.0000
# 2 6.7711 83.7066 26.5304 0.0000 0.0000 0.0000
# 3 0.4675 26.5304 104.2760 0.0000 0.0000 0.0000
# 4 0.0000 0.0000 0.0000 53.2596 0.0000 0.0000
# 5 0.0000 0.0000 0.0000 0.0000 12.3826 0.0000
# 6 0.0000 0.0000 0.0000 0.0000 0.0000 -66.9905
#
#
#
# Elastic Compliance Matrix: (Units=1/GPa)
#
#
# Indices 1 2 3 4 5 6 
#
# 1 0.036621 -0.003166 0.000641 0.000000 0.000000 0.000000
# 2 -0.003166 0.013268 -0.003362 0.000000 0.000000 0.000000
# 3 0.000641 -0.003362 0.010442 0.000000 0.000000 0.000000
# 4 0.000000 0.000000 0.000000 0.018776 0.000000 0.000000
# 5 0.000000 0.000000 0.000000 0.000000 0.080759 0.000000
# 6 0.000000 0.000000 0.000000 0.000000 0.000000 -0.014927
#
#
# Mechanical properties :
#
#
# Convention : Reuss Voigt Hill
#
# Bulk Modulus (GPa) = 20.59318 31.48936 26.04127
# Shear Modulus (GPa) = 28.91900 11.87017 20.39459
#
# Velocity S-wave (km/s) = 3.51223 2.25020 2.94951
# Velocity P-wave (km/s) = 5.02315 4.49259 4.76526
#
# Compressibility (1/GPa) = 0.04855975
#
# Stress axis : x y z
#
# Youngs Moduli (GPa) = 27.30664 75.36949 95.76424
#
# Poissons Ratio (x) = 0.23858 -0.06141
# Poissons Ratio (y) = 0.08644 0.32191
# Poissons Ratio (z) = -0.01751 0.25336
#
# Static dielectric constant tensor:
#      x y z
#    x 1.811050 0.000000 0.000000 
#    y 0.000000 1.923120 0.000000 
#    z 0.000000 0.000000 1.901170 
# 
# From -- ./inp_files/23116.got.cif
#   From: 2010.05.17/outbox.cif.g08.bks.cpg/sg53_12_cif.got.tgz:23116.got - 2010.06.03 12:45:16.
