data_PCOD9418365
_publ_section_title
;
Structure prediction by ZEFSAII (Michael W. Deem and Ramdas Pophale) SiO2 
 PCOD9418365
Probable space group: P M N A
;
_chemical_formula_sum "Si O2"
_cell_formula_units_Z 32
_cell_length_a 37.920972
_cell_length_b 7.050672
_cell_length_c 5.205009
_cell_angle_alpha 90.000000
_cell_angle_beta 90.000000
_cell_angle_gamma 90.000000
_cell_volume 1391.654593
_symmetry_space_group_name_H-M "P M N A"
_symmetry_group_IT_number 53
_symmetry_cell_setting 'orthorhombic'
loop_
_space_group_symop_operation_xyz
x,y,z
1/2-x,-y,1/2+z
x,-y,-z
1/2-x,y,1/2-z
-x,-y,-z
1/2+x,y,1/2-z
-x,y,z
1/2+x,-y,1/2+z
loop_
_atom_site_type_symbol
_atom_site_label
_atom_site_fract_x
_atom_site_fract_y
_atom_site_fract_z
Si Si1 0.639654 0.216377 0.579075
Si Si2 0.889752 0.783903 0.578649
Si Si3 0.961128 0.632499 0.751292
Si Si4 0.711276 0.366806 0.749620
O O1 0.636265 0.303288 0.293487
O O2 0.678016 0.231223 0.706588
O O3 0.631034 0.000000 0.500000
O O4 0.613529 0.303225 0.793281
O O5 0.928277 0.770070 0.703472
O O6 0.880905 0.000000 0.500000
O O7 0.961640 0.500000 0.500000
O O8 0.000000 0.724727 0.773640
O O9 0.956409 0.500000 0.000000
O O10 0.711254 0.500000 0.500000
O O11 0.750000 0.271469 0.750000
O O12 0.707781 0.500000 0.000000
#
# Coordination Sequence:
#
# PCOD9418365 Si02
#       4
#     8   8   8   8
#     4  10  21  37  55  80 110 140 179 224 269 322
#     4  10  21  36  55  79 108 141 179 222 268 322
#     4  10  21  36  54  79 109 140 179 224 268 320
#     4  10  21  37  56  80 109 141 180 224 270 325
#
# _framework density 22.994212000000001
#
# number of rings (size 3 to 8) (size 9 to 14) (size 15 to 20)
#    0.000    2.000    0.000    3.000    0.000    6.500 
#    0.000    7.500    0.000    9.000    0.000    0.000 
#    0.000    0.000    0.000    0.000    0.000    0.000 
#
# Total GULP energy -178452.089623 kJ/mol
# GULP energy per Si atom -5576.627801 kJ/mol
# Density = 2.294188 g / cm^3
# Si number density = 22.994212 Si / 1000 Ang^3
#
#
#
# Elastic Constant Matrix: (Units=GPa)
#
#
# Indices 1 2 3 4 5 6 
#
# 1 173.1336 5.6536 58.0360 0.0000 0.0000 0.0000
# 2 5.6536 29.9057 22.2063 0.0000 0.0000 0.0000
# 3 58.0360 22.2063 225.3526 0.0000 0.0000 0.0000
# 4 0.0000 0.0000 0.0000 18.4982 0.0000 0.0000
# 5 0.0000 0.0000 0.0000 0.0000 49.4412 0.0000
# 6 0.0000 0.0000 0.0000 0.0000 0.0000 28.9111
#
#
#
# Elastic Compliance Matrix: (Units=1/GPa)
#
#
# Indices 1 2 3 4 5 6 
#
# 1 0.006322 0.000015 -0.001630 0.000000 0.000000 0.000000
# 2 0.000015 0.036078 -0.003559 0.000000 0.000000 0.000000
# 3 -0.001630 -0.003559 0.005208 0.000000 0.000000 0.000000
# 4 0.000000 0.000000 0.000000 0.054059 0.000000 0.000000
# 5 0.000000 0.000000 0.000000 0.000000 0.020226 0.000000
# 6 0.000000 0.000000 0.000000 0.000000 0.000000 0.034589
#
#
# Mechanical properties :
#
#
# Convention : Reuss Voigt Hill
#
# Bulk Modulus (GPa) = 26.83803 66.68710 46.76256
# Shear Modulus (GPa) = 27.89410 42.20317 35.04864
#
# Velocity S-wave (km/s) = 3.48673 4.28878 3.90838
# Velocity P-wave (km/s) = 5.28268 7.32049 6.38342
#
# Compressibility (1/GPa) = 0.03726056
#
# Stress axis : x y z
#
# Youngs Moduli (GPa) = 158.18716 27.71746 192.01789
#
# Poissons Ratio (x) = -0.00041 0.31289
# Poissons Ratio (y) = -0.00235 0.68339
# Poissons Ratio (z) = 0.25777 0.09865
#
# Static dielectric constant tensor:
#      x y z
#    x 1.918320 0.000000 0.000000 
#    y 0.000000 1.909950 0.000000 
#    z 0.000000 0.000000 1.987210 
# 
# From -- ./inp_files/4935.got.cif
#   From: 2010.05.17/outbox.cif.g08.bks.cpg/sg53_3_cif.got.tgz:4935.got - 2010.06.03 12:45:16.
