data_PCOD9418806
_publ_section_title
;
Structure prediction by ZEFSAII (Michael W. Deem and Ramdas Pophale) SiO2 
 PCOD9418806
Probable space group: P M N A
;
_chemical_formula_sum "Si O2"
_cell_formula_units_Z 60
_cell_length_a 9.358605
_cell_length_b 18.449083
_cell_length_c 17.626159
_cell_angle_alpha 90.000000
_cell_angle_beta 90.000000
_cell_angle_gamma 90.000000
_cell_volume 3043.291727
_symmetry_space_group_name_H-M "P M N A"
_symmetry_group_IT_number 53
_symmetry_cell_setting 'orthorhombic'
loop_
_space_group_symop_operation_xyz
x,y,z
1/2-x,-y,1/2+z
x,-y,-z
1/2-x,y,1/2-z
-x,-y,-z
1/2+x,y,1/2-z
-x,y,z
1/2+x,-y,1/2+z
loop_
_atom_site_type_symbol
_atom_site_label
_atom_site_fract_x
_atom_site_fract_y
_atom_site_fract_z
Si Si1 0.152019 0.675360 0.124726
Si Si2 0.327700 0.962914 0.670270
Si Si3 0.330652 0.141119 0.052170
Si Si4 0.162082 0.896166 0.373183
Si Si5 0.661968 0.551908 0.174359
Si Si6 0.335244 0.284587 0.457989
Si Si7 0.250000 0.219809 0.750000
Si Si8 0.833388 0.433434 0.444813
O O1 0.275943 0.616489 0.123415
O O2 0.158955 0.725802 0.198043
O O3 0.000000 0.635585 0.122557
O O4 0.160812 0.722739 0.049369
O O5 0.250000 0.943640 0.750000
O O6 0.500000 0.956250 0.674806
O O7 0.259746 0.915052 0.602626
O O8 0.279115 0.044996 0.651279
O O9 0.500000 0.137147 0.069536
O O10 0.264818 0.220007 0.070261
O O11 0.316964 0.125552 0.961434
O O12 0.173737 0.830655 0.312661
O O13 0.000000 0.926687 0.367184
O O14 0.750000 0.553576 0.250000
O O15 0.500000 0.569260 0.190527
O O16 0.670604 0.474023 0.135556
O O17 0.500000 0.280525 0.430950
O O18 0.265599 0.363313 0.444686
O O19 0.789986 0.500000 0.500000
O O20 0.000000 0.415194 0.463088
#
# Coordination Sequence:
#
# PCOD9418806 Si02
#       8
#     8   8   8   8   8   8   4   8
#     4  11  23  36  56  89 130 169 207 251 310 374
#     4  12  26  45  70  98 129 168 217 271 327 384
#     4  11  24  44  68  96 132 172 218 268 322 385
#     4  11  24  41  65  97 134 176 216 259 316 384
#     4  11  23  38  59  85 120 160 204 253 308 373
#     4  11  23  39  61  93 126 162 211 268 319 372
#     4  12  22  38  62  96 138 174 208 250 310 382
#     4  10  21  39  61  86 117 161 209 254 308 374
#
# _framework density 19.715494
#
# number of rings (size 3 to 8) (size 9 to 14) (size 15 to 20)
#    0.000    0.933    4.000    3.200    0.000    5.600 
#    0.000    0.667    0.000    1.600    0.000    0.000 
#    0.000    0.000    0.000    0.000    0.000    0.000 
#
# Total GULP energy -334946.789315 kJ/mol
# GULP energy per Si atom -5582.446489 kJ/mol
# Density = 1.967062 g / cm^3
# Si number density = 19.715494 Si / 1000 Ang^3
#
#
#
# Elastic Constant Matrix: (Units=GPa)
#
#
# Indices 1 2 3 4 5 6 
#
# 1 161.9989 51.7539 40.5384 0.0000 0.0000 0.0000
# 2 51.7539 83.5247 22.4721 0.0000 0.0000 0.0000
# 3 40.5384 22.4721 54.0353 0.0000 0.0000 0.0000
# 4 0.0000 0.0000 0.0000 28.2800 0.0000 0.0000
# 5 0.0000 0.0000 0.0000 0.0000 -0.6101 0.0000
# 6 0.0000 0.0000 0.0000 0.0000 0.0000 26.2264
#
#
#
# Elastic Compliance Matrix: (Units=1/GPa)
#
#
# Indices 1 2 3 4 5 6 
#
# 1 0.008683 -0.004084 -0.004815 0.000000 0.000000 0.000000
# 2 -0.004084 0.015402 -0.003341 0.000000 0.000000 0.000000
# 3 -0.004815 -0.003341 0.023508 0.000000 0.000000 0.000000
# 4 0.000000 0.000000 0.000000 0.035361 0.000000 0.000000
# 5 0.000000 0.000000 0.000000 0.000000 -1.639136 0.000000
# 6 0.000000 0.000000 0.000000 0.000000 0.000000 0.038130
#
#
# Mechanical properties :
#
#
# Convention : Reuss Voigt Hill
#
# Bulk Modulus (GPa) = 43.26847 58.78750 51.02799
# Shear Modulus (GPa) = -3.36504 23.09888 9.86692
#
# Velocity S-wave (km/s) = -1.30786 3.42659 2.23954
# Velocity P-wave (km/s) = 4.43998 6.74819 5.71189
#
# Compressibility (1/GPa) = 0.02311152
#
# Stress axis : x y z
#
# Youngs Moduli (GPa) = 115.17107 64.92537 42.53783
#
# Poissons Ratio (x) = 0.26519 0.20483
# Poissons Ratio (y) = 0.47042 0.14213
# Poissons Ratio (z) = 0.55458 0.21693
#
# Static dielectric constant tensor:
#      x y z
#    x 1.711090 0.000000 0.000000 
#    y 0.000000 1.682910 0.000000 
#    z 0.000000 0.000000 1.717450 
# 
# From -- ./inp_files/26577.got.cif
#   From: 2010.05.17/outbox.cif.g08.bks.cpg/sg53_14_cif.got.tgz:26577.got - 2010.06.03 12:45:16.
