data_PCOD9418857
_publ_section_title
;
Structure prediction by ZEFSAII (Michael W. Deem and Ramdas Pophale) SiO2 
 PCOD9418857
Probable space group: P M N A
;
_chemical_formula_sum "Si O2"
_cell_formula_units_Z 34
_cell_length_a 7.780957
_cell_length_b 9.988144
_cell_length_c 20.510015
_cell_angle_alpha 90.000000
_cell_angle_beta 90.000000
_cell_angle_gamma 90.000000
_cell_volume 1593.983378
_symmetry_space_group_name_H-M "P M N A"
_symmetry_group_IT_number 53
_symmetry_cell_setting 'orthorhombic'
loop_
_space_group_symop_operation_xyz
x,y,z
1/2-x,-y,1/2+z
x,-y,-z
1/2-x,y,1/2-z
-x,-y,-z
1/2+x,y,1/2-z
-x,y,z
1/2+x,-y,1/2+z
loop_
_atom_site_type_symbol
_atom_site_label
_atom_site_fract_x
_atom_site_fract_y
_atom_site_fract_z
Si Si1 0.792560 0.848810 0.940267
Si Si2 0.806285 0.032673 0.824726
Si Si3 0.795737 0.462911 0.071968
Si Si4 0.500000 0.000000 0.000000
Si Si5 0.195785 0.675187 0.322524
O O1 0.774015 0.695233 0.918986
O O2 0.000000 0.869079 0.955279
O O3 0.723507 0.944011 0.881314
O O4 0.656679 0.884954 0.996477
O O5 0.750000 0.017328 0.750000
O O6 0.797058 0.190039 0.840588
O O7 0.000000 0.984619 0.826293
O O8 0.715578 0.556070 0.126924
O O9 0.000000 0.491826 0.073619
O O10 0.731616 0.500000 0.000000
O O11 0.250000 0.631780 0.250000
O O12 0.000000 0.721583 0.318666
#
# Coordination Sequence:
#
# PCOD9418857 Si02
#       5
#     8   8   8   2   8
#     4  10  25  43  63  96 127 168 213 265 322 375
#     4  10  21  39  64  92 126 162 210 264 316 378
#     4  10  23  43  64  90 129 168 209 263 322 379
#     4  12  26  40  70  90 132 168 216 258 316 398
#     4  11  23  39  64  93 126 166 215 259 315 384
#
# _framework density 21.330210999999998
#
# number of rings (size 3 to 8) (size 9 to 14) (size 15 to 20)
#    0.000    1.647    0.000    4.588    8.235    1.412 
#    0.000    2.353    0.000    0.000    0.000    0.000 
#    0.000    0.000    0.000    0.000    0.000    0.000 
#
# Total GULP energy -189269.649199 kJ/mol
# GULP energy per Si atom -5566.754388 kJ/mol
# Density = 2.128166 g / cm^3
# Si number density = 21.330211 Si / 1000 Ang^3
#
#
#
# Elastic Constant Matrix: (Units=GPa)
#
#
# Indices 1 2 3 4 5 6 
#
# 1 81.2690 0.3001 3.5974 0.0000 0.0000 0.0000
# 2 0.3001 101.7922 65.6859 0.0000 0.0000 0.0000
# 3 3.5974 65.6859 98.9352 0.0000 0.0000 0.0000
# 4 0.0000 0.0000 0.0000 31.0630 0.0000 0.0000
# 5 0.0000 0.0000 0.0000 0.0000 4.0555 0.0000
# 6 0.0000 0.0000 0.0000 0.0000 0.0000 8.8380
#
#
#
# Elastic Compliance Matrix: (Units=1/GPa)
#
#
# Indices 1 2 3 4 5 6 
#
# 1 0.012336 0.000443 -0.000743 0.000000 0.000000 0.000000
# 2 0.000443 0.017203 -0.011438 0.000000 0.000000 0.000000
# 3 -0.000743 -0.011438 0.017729 0.000000 0.000000 0.000000
# 4 0.000000 0.000000 0.000000 0.032193 0.000000 0.000000
# 5 0.000000 0.000000 0.000000 0.000000 0.246576 0.000000
# 6 0.000000 0.000000 0.000000 0.000000 0.000000 0.113148
#
#
# Mechanical properties :
#
#
# Convention : Reuss Voigt Hill
#
# Bulk Modulus (GPa) = 42.02969 46.79590 44.41280
# Shear Modulus (GPa) = 10.62494 22.95219 16.78856
#
# Velocity S-wave (km/s) = 2.23427 3.28387 2.80854
# Velocity P-wave (km/s) = 5.13839 6.03032 5.60214
#
# Compressibility (1/GPa) = 0.02379270
#
# Stress axis : x y z
#
# Youngs Moduli (GPa) = 81.06325 58.12775 56.40599
#
# Poissons Ratio (x) = -0.02574 0.04188
# Poissons Ratio (y) = -0.03589 0.64517
# Poissons Ratio (z) = 0.06019 0.66486
#
# Static dielectric constant tensor:
#      x y z
#    x 1.802200 0.000000 0.000000 
#    y 0.000000 1.727250 0.000000 
#    z 0.000000 0.000000 1.920510 
# 
# From -- ./inp_files/30156.got.cif
#   From: 2010.05.17/outbox.cif.g08.bks.cpg/sg53_16_cif.got.tgz:30156.got - 2010.06.03 12:45:16.
