data_PCOD9418260
_publ_section_title
;
Structure prediction by ZEFSAII (Michael W. Deem and Ramdas Pophale) SiO2 
 PCOD9418260
Probable space group: P M N A
;
_chemical_formula_sum "Si O2"
_cell_formula_units_Z 56
_cell_length_a 15.841915
_cell_length_b 9.435023
_cell_length_c 19.385959
_cell_angle_alpha 90.000000
_cell_angle_beta 90.000000
_cell_angle_gamma 90.000000
_cell_volume 2897.596656
_symmetry_space_group_name_H-M "P M N A"
_symmetry_group_IT_number 53
_symmetry_cell_setting 'orthorhombic'
loop_
_space_group_symop_operation_xyz
x,y,z
1/2-x,-y,1/2+z
x,-y,-z
1/2-x,y,1/2-z
-x,-y,-z
1/2+x,y,1/2-z
-x,y,z
1/2+x,-y,1/2+z
loop_
_atom_site_type_symbol
_atom_site_label
_atom_site_fract_x
_atom_site_fract_y
_atom_site_fract_z
Si Si1 0.130875 0.175809 0.096423
Si Si2 0.404864 0.559254 0.875665
Si Si3 0.844977 0.287665 0.245476
Si Si4 0.402136 0.964358 0.830637
Si Si5 0.000000 0.672245 0.002055
Si Si6 0.099971 0.768334 0.403207
Si Si7 0.500000 0.943840 0.421073
Si Si8 0.179582 0.804670 0.548990
O O1 0.129205 0.265020 0.167084
O O2 0.225674 0.152510 0.069352
O O3 0.080613 0.268695 0.040213
O O4 0.081759 0.026505 0.108600
O O5 0.500000 0.588308 0.901684
O O6 0.398758 0.615901 0.797339
O O7 0.388783 0.393979 0.882691
O O8 0.339229 0.648137 0.921021
O O9 0.750000 0.342575 0.250000
O O10 0.847991 0.131390 0.279905
O O11 0.500000 0.946312 0.811712
O O12 0.384671 0.900270 0.906595
O O13 0.381171 0.128136 0.839416
O O14 0.000000 0.500000 0.000000
O O15 0.000000 0.772753 0.071737
O O16 0.156728 0.805873 0.469093
O O17 0.000000 0.789353 0.420336
O O18 0.500000 0.000000 0.500000
#
# Coordination Sequence:
#
# PCOD9418260 Si02
#       8
#     8   8   8   8   4   8   4   8
#     4  10  21  38  63  86 111 153 196 244 287 342
#     4  10  21  35  57  85 119 161 190 232 284 353
#     4  11  20  39  59  82 110 146 204 233 279 344
#     4  10  21  34  56  86 116 152 188 239 282 341
#     4  10  24  44  62  90 120 144 194 247 299 352
#     4  10  21  36  52  86 127 150 185 231 291 351
#     4   8  20  40  62  86 114 146 188 243 293 338
#     4  11  19  34  60  85 114 152 195 232 287 345
#
# _framework density 19.326360999999999
#
# number of rings (size 3 to 8) (size 9 to 14) (size 15 to 20)
#    0.000    2.000    2.857    3.429    4.000    6.857 
#    0.000    2.143    0.000    0.000    0.000    0.000 
#    0.000    0.000    0.000    0.000    0.000    0.000 
#
# Total GULP energy -312200.074365 kJ/mol
# GULP energy per Si atom -5575.001328 kJ/mol
# Density = 1.928237 g / cm^3
# Si number density = 19.326361 Si / 1000 Ang^3
#
#
#
# Elastic Constant Matrix: (Units=GPa)
#
#
# Indices 1 2 3 4 5 6 
#
# 1 61.6210 12.2534 2.1413 0.0000 0.0000 0.0000
# 2 12.2534 86.8770 -9.2324 0.0000 0.0000 0.0000
# 3 2.1413 -9.2324 42.9896 0.0000 0.0000 0.0000
# 4 0.0000 0.0000 0.0000 4.0510 0.0000 0.0000
# 5 0.0000 0.0000 0.0000 0.0000 25.3998 0.0000
# 6 0.0000 0.0000 0.0000 0.0000 0.0000 -2.7439
#
#
#
# Elastic Compliance Matrix: (Units=1/GPa)
#
#
# Indices 1 2 3 4 5 6 
#
# 1 0.016776 -0.002512 -0.001375 0.000000 0.000000 0.000000
# 2 -0.002512 0.012156 0.002736 0.000000 0.000000 0.000000
# 3 -0.001375 0.002736 0.023917 0.000000 0.000000 0.000000
# 4 0.000000 0.000000 0.000000 0.246851 0.000000 0.000000
# 5 0.000000 0.000000 0.000000 0.000000 0.039370 0.000000
# 6 0.000000 0.000000 0.000000 0.000000 0.000000 -0.364448
#
#
# Mechanical properties :
#
#
# Convention : Reuss Voigt Hill
#
# Bulk Modulus (GPa) = 19.78427 22.42360 21.10393
# Shear Modulus (GPa) = -803.08949 17.76307 -392.66321
#
# Velocity S-wave (km/s) = -20.40694 3.03497 -14.26941
# Velocity P-wave (km/s) = 23.34520 4.88970 16.14139
#
# Compressibility (1/GPa) = 0.05054520
#
# Stress axis : x y z
#
# Youngs Moduli (GPa) = 59.61050 82.26677 41.81054
#
# Poissons Ratio (x) = 0.20667 0.05749
# Poissons Ratio (y) = 0.14975 -0.11438
# Poissons Ratio (z) = 0.08197 -0.22505
#
# Static dielectric constant tensor:
#      x y z
#    x 1.694220 0.000000 0.000000 
#    y 0.000000 1.714410 0.000000 
#    z 0.000000 0.000000 1.686630 
# 
# From -- ./inp_files/32519.got.cif
#   From: 2010.05.17/outbox.cif.g08.bks.cpg/sg53_17_cif.got.tgz:32519.got - 2010.06.03 12:45:16.
