data_PCOD9418728
_publ_section_title
;
Structure prediction by ZEFSAII (Michael W. Deem and Ramdas Pophale) SiO2 
 PCOD9418728
Probable space group: P M N A
;
_chemical_formula_sum "Si O2"
_cell_formula_units_Z 64
_cell_length_a 19.129824
_cell_length_b 9.053420
_cell_length_c 18.508687
_cell_angle_alpha 90.000000
_cell_angle_beta 90.000000
_cell_angle_gamma 90.000000
_cell_volume 3205.525632
_symmetry_space_group_name_H-M "P M N A"
_symmetry_group_IT_number 53
_symmetry_cell_setting 'orthorhombic'
loop_
_space_group_symop_operation_xyz
x,y,z
1/2-x,-y,1/2+z
x,-y,-z
1/2-x,y,1/2-z
-x,-y,-z
1/2+x,y,1/2-z
-x,y,z
1/2+x,-y,1/2+z
loop_
_atom_site_type_symbol
_atom_site_label
_atom_site_fract_x
_atom_site_fract_y
_atom_site_fract_z
Si Si1 0.421340 0.498363 0.280950
Si Si2 0.578050 0.048646 0.845280
Si Si3 0.720978 0.975316 0.669157
Si Si4 0.712350 0.328683 0.674231
Si Si5 0.919617 0.456930 0.388093
Si Si6 0.921795 0.145565 0.198829
Si Si7 0.341244 0.835451 0.929557
Si Si8 0.335509 0.284139 0.916388
O O1 0.500000 0.546673 0.301217
O O2 0.361407 0.588287 0.322303
O O3 0.413851 0.513449 0.194626
O O4 0.416948 0.321521 0.291488
O O5 0.500000 0.110701 0.846806
O O6 0.584483 0.945202 0.774674
O O7 0.593648 0.943104 0.912999
O O8 0.634898 0.177896 0.852754
O O9 0.750000 0.941670 0.750000
O O10 0.645742 0.903492 0.655287
O O11 0.777526 0.907081 0.614752
O O12 0.708147 0.151228 0.666169
O O13 0.750000 0.363137 0.750000
O O14 0.766931 0.368860 0.611015
O O15 0.866987 0.321788 0.399052
O O16 0.895528 0.598031 0.433812
O O17 0.000000 0.413257 0.400565
O O18 0.000000 0.112259 0.170800
O O19 0.322508 0.811812 0.012703
#
# Coordination Sequence:
#
# PCOD9418728 Si02
#       8
#     8   8   8   8   8   8   8   8
#     4  10  21  38  62  89 117 154 201 252 306 360
#     4  11  21  38  61  87 123 167 206 242 294 361
#     4  11  21  38  60  87 116 156 201 253 302 359
#     4  11  22  38  60  87 119 157 199 251 303 360
#     4  11  23  40  59  86 125 168 210 250 300 368
#     4  10  21  38  62  90 117 152 205 254 300 359
#     4  12  24  39  60  87 125 166 208 251 301 365
#     4  12  25  39  56  90 127 166 207 252 302 360
#
# _framework density 19.965525
#
# number of rings (size 3 to 8) (size 9 to 14) (size 15 to 20)
#    0.000    1.000    5.000    2.250    1.750    4.000 
#    0.000    0.000    0.000    0.750    0.000    3.500 
#    0.000    0.000    0.000    0.000    0.000    0.000 
#
# Total GULP energy -357426.994677 kJ/mol
# GULP energy per Si atom -5584.796792 kJ/mol
# Density = 1.992008 g / cm^3
# Si number density = 19.965525 Si / 1000 Ang^3
#
#
#
# Elastic Constant Matrix: (Units=GPa)
#
#
# Indices 1 2 3 4 5 6 
#
# 1 169.5085 58.8245 38.5717 0.0000 0.0000 0.0000
# 2 58.8245 85.6558 12.5122 0.0000 0.0000 0.0000
# 3 38.5717 12.5122 44.3321 0.0000 0.0000 0.0000
# 4 0.0000 0.0000 0.0000 22.2507 0.0000 0.0000
# 5 0.0000 0.0000 0.0000 0.0000 21.0147 0.0000
# 6 0.0000 0.0000 0.0000 0.0000 0.0000 33.8471
#
#
#
# Elastic Compliance Matrix: (Units=1/GPa)
#
#
# Indices 1 2 3 4 5 6 
#
# 1 0.009262 -0.005407 -0.006533 0.000000 0.000000 0.000000
# 2 -0.005407 0.015333 0.000377 0.000000 0.000000 0.000000
# 3 -0.006533 0.000377 0.028135 0.000000 0.000000 0.000000
# 4 0.000000 0.000000 0.000000 0.044942 0.000000 0.000000
# 5 0.000000 0.000000 0.000000 0.000000 0.047586 0.000000
# 6 0.000000 0.000000 0.000000 0.000000 0.000000 0.029545
#
#
# Mechanical properties :
#
#
# Convention : Reuss Voigt Hill
#
# Bulk Modulus (GPa) = 33.77919 57.70144 45.74032
# Shear Modulus (GPa) = 24.06211 28.06170 26.06191
#
# Velocity S-wave (km/s) = 3.47534 3.75308 3.61688
# Velocity P-wave (km/s) = 5.74974 6.90971 6.35624
#
# Compressibility (1/GPa) = 0.02960402
#
# Stress axis : x y z
#
# Youngs Moduli (GPa) = 107.96600 65.22052 35.54341
#
# Poissons Ratio (x) = 0.35262 0.23220
# Poissons Ratio (y) = 0.58373 -0.01339
# Poissons Ratio (z) = 0.70531 -0.02456
#
# Static dielectric constant tensor:
#      x y z
#    x 1.722230 0.000000 0.000000 
#    y 0.000000 1.756440 0.000000 
#    z 0.000000 0.000000 1.721240 
# 
# From -- ./inp_files/32817.got.cif
#   From: 2010.05.17/outbox.cif.g08.bks.cpg/sg53_17_cif.got.tgz:32817.got - 2010.06.03 12:45:16.
