data_PCOD9418926
_publ_section_title
;
Structure prediction by ZEFSAII (Michael W. Deem and Ramdas Pophale) SiO2 
 PCOD9418926
Probable space group: P M N A
;
_chemical_formula_sum "Si O2"
_cell_formula_units_Z 40
_cell_length_a 31.417631
_cell_length_b 8.773714
_cell_length_c 7.223256
_cell_angle_alpha 90.000000
_cell_angle_beta 90.000000
_cell_angle_gamma 90.000000
_cell_volume 1991.085525
_symmetry_space_group_name_H-M "P M N A"
_symmetry_group_IT_number 53
_symmetry_cell_setting 'orthorhombic'
loop_
_space_group_symop_operation_xyz
x,y,z
1/2-x,-y,1/2+z
x,-y,-z
1/2-x,y,1/2-z
-x,-y,-z
1/2+x,y,1/2-z
-x,y,z
1/2+x,-y,1/2+z
loop_
_atom_site_type_symbol
_atom_site_label
_atom_site_fract_x
_atom_site_fract_y
_atom_site_fract_z
Si Si1 0.657235 0.850596 0.093526
Si Si2 0.625350 0.344340 0.256654
Si Si3 0.799330 0.443802 0.707777
Si Si4 0.046715 0.445764 0.786837
Si Si5 0.411360 0.851207 0.401579
O O1 0.687558 0.733125 0.202571
O O2 0.622267 0.899543 0.244507
O O3 0.636117 0.757545 0.922701
O O4 0.677596 0.000000 0.000000
O O5 0.666362 0.447876 0.307601
O O6 0.586288 0.458171 0.209077
O O7 0.611686 0.244026 0.433671
O O8 0.804860 0.500000 0.500000
O O9 0.750000 0.465731 0.750000
O O10 0.057401 0.267099 0.800395
O O11 0.000000 0.474094 0.706315
O O12 0.045000 0.500000 0.000000
O O13 0.430594 0.000000 0.500000
#
# Coordination Sequence:
#
# PCOD9418926 Si02
#       5
#     8   8   8   8   8
#     4  11  22  40  60  89 124 156 199 245 300 356
#     4  10  21  40  63  89 117 159 204 247 298 349
#     4  10  23  39  64  90 118 154 202 253 293 355
#     4   9  19  36  62  92 119 154 206 253 295 353
#     4  11  21  36  64  87 119 166 194 242 305 360
#
# _framework density 20.089545999999999
#
# number of rings (size 3 to 8) (size 9 to 14) (size 15 to 20)
#    0.000    1.800    4.000    0.000    2.800    0.400 
#    0.000    7.000    0.000    1.200    0.000    0.000 
#    0.000    0.000    0.000    0.000    0.000    0.000 
#
# Total GULP energy -223033.697645 kJ/mol
# GULP energy per Si atom -5575.842441 kJ/mol
# Density = 2.004382 g / cm^3
# Si number density = 20.089546 Si / 1000 Ang^3
#
#
#
# Elastic Constant Matrix: (Units=GPa)
#
#
# Indices 1 2 3 4 5 6 
#
# 1 98.0819 34.2177 -1.1901 0.0000 0.0000 0.0000
# 2 34.2177 117.3785 5.2377 0.0000 0.0000 0.0000
# 3 -1.1901 5.2377 72.7349 0.0000 0.0000 0.0000
# 4 0.0000 0.0000 0.0000 30.8598 0.0000 0.0000
# 5 0.0000 0.0000 0.0000 0.0000 -6.3418 0.0000
# 6 0.0000 0.0000 0.0000 0.0000 0.0000 11.6287
#
#
#
# Elastic Compliance Matrix: (Units=1/GPa)
#
#
# Indices 1 2 3 4 5 6 
#
# 1 0.011363 -0.003331 0.000426 0.000000 0.000000 0.000000
# 2 -0.003331 0.009524 -0.000740 0.000000 0.000000 0.000000
# 3 0.000426 -0.000740 0.013809 0.000000 0.000000 0.000000
# 4 0.000000 0.000000 0.000000 0.032405 0.000000 0.000000
# 5 0.000000 0.000000 0.000000 0.000000 -0.157685 0.000000
# 6 0.000000 0.000000 0.000000 0.000000 0.000000 0.085994
#
#
# Mechanical properties :
#
#
# Convention : Reuss Voigt Hill
#
# Bulk Modulus (GPa) = 36.49165 40.52508 38.50837
# Shear Modulus (GPa) = 422.44483 23.89134 223.16809
#
# Velocity S-wave (km/s) = 14.51680 3.45228 10.55120
# Velocity P-wave (km/s) = 17.29703 6.00891 12.94786
#
# Compressibility (1/GPa) = 0.02740353
#
# Stress axis : x y z
#
# Youngs Moduli (GPa) = 88.00508 105.00156 72.41736
#
# Poissons Ratio (x) = 0.34981 -0.03084
# Poissons Ratio (y) = 0.29319 0.05361
# Poissons Ratio (z) = -0.03747 0.07773
#
# Static dielectric constant tensor:
#      x y z
#    x 1.865890 0.000000 0.000000 
#    y 0.000000 1.749060 0.000000 
#    z 0.000000 0.000000 1.742640 
# 
# From -- ./inp_files/12289.got.cif
#   From: 2010.05.17/outbox.cif.g08.bks.cpg/sg53_7_cif.got.tgz:12289.got - 2010.06.03 12:45:16.
