data_PCOD9418852
_publ_section_title
;
Structure prediction by ZEFSAII (Michael W. Deem and Ramdas Pophale) SiO2 
 PCOD9418852
Probable space group: P M N A
;
_chemical_formula_sum "Si O2"
_cell_formula_units_Z 28
_cell_length_a 8.527877
_cell_length_b 17.541705
_cell_length_c 9.025397
_cell_angle_alpha 90.000000
_cell_angle_beta 90.000000
_cell_angle_gamma 90.000000
_cell_volume 1350.140750
_symmetry_space_group_name_H-M "P M N A"
_symmetry_group_IT_number 53
_symmetry_cell_setting 'orthorhombic'
loop_
_space_group_symop_operation_xyz
x,y,z
1/2-x,-y,1/2+z
x,-y,-z
1/2-x,y,1/2-z
-x,-y,-z
1/2+x,y,1/2-z
-x,y,z
1/2+x,-y,1/2+z
loop_
_atom_site_type_symbol
_atom_site_label
_atom_site_fract_x
_atom_site_fract_y
_atom_site_fract_z
Si Si1 0.176174 0.106602 0.007560
Si Si2 0.186895 0.261432 0.419881
Si Si3 0.750000 0.002500 0.250000
Si Si4 0.188074 0.577475 0.916758
O O1 0.235750 0.192031 0.990963
O O2 0.000000 0.106163 0.074491
O O3 0.293776 0.063243 0.120835
O O4 0.165191 0.057921 0.857674
O O5 0.250000 0.255251 0.250000
O O6 0.238875 0.344287 0.478079
O O7 0.000000 0.255516 0.418898
O O8 0.250000 0.571148 0.750000
O O9 0.000000 0.585041 0.916692
O O10 0.231553 0.500000 0.000000
#
# Coordination Sequence:
#
# PCOD9418852 Si02
#       4
#     8   8   4   8
#     4  11  23  41  62  90 124 158 203 253 299 358
#     4  11  22  37  62  90 121 161 202 246 298 359
#     4  10  22  38  64  88 118 160 200 248 302 352
#     4  10  21  39  64  92 122 159 198 245 298 356
#
# _framework density 20.738579000000001
#
# number of rings (size 3 to 8) (size 9 to 14) (size 15 to 20)
#    0.000    1.429    1.429    6.857    0.000    5.714 
#    2.571    7.143    0.000    0.000    0.000    0.000 
#    0.000    0.000    0.000    0.000    0.000    0.000 
#
# Total GULP energy -155917.336967 kJ/mol
# GULP energy per Si atom -5568.476320 kJ/mol
# Density = 2.069138 g / cm^3
# Si number density = 20.738579 Si / 1000 Ang^3
#
#
#
# Elastic Constant Matrix: (Units=GPa)
#
#
# Indices 1 2 3 4 5 6 
#
# 1 94.0060 63.0754 28.8527 0.0000 0.0000 0.0000
# 2 63.0754 220.6540 43.8569 0.0000 0.0000 0.0000
# 3 28.8527 43.8569 51.6949 0.0000 0.0000 0.0000
# 4 0.0000 0.0000 0.0000 34.1764 0.0000 0.0000
# 5 0.0000 0.0000 0.0000 0.0000 19.7816 0.0000
# 6 0.0000 0.0000 0.0000 0.0000 0.0000 149.5924
#
#
#
# Elastic Compliance Matrix: (Units=1/GPa)
#
#
# Indices 1 2 3 4 5 6 
#
# 1 0.014330 -0.003015 -0.005440 0.000000 0.000000 0.000000
# 2 -0.003015 0.006086 -0.003480 0.000000 0.000000 0.000000
# 3 -0.005440 -0.003480 0.025333 0.000000 0.000000 0.000000
# 4 0.000000 0.000000 0.000000 0.029260 0.000000 0.000000
# 5 0.000000 0.000000 0.000000 0.000000 0.050552 0.000000
# 6 0.000000 0.000000 0.000000 0.000000 0.000000 0.006685
#
#
# Mechanical properties :
#
#
# Convention : Reuss Voigt Hill
#
# Bulk Modulus (GPa) = 45.70773 70.88054 58.29413
# Shear Modulus (GPa) = 30.59794 56.08139 43.33966
#
# Velocity S-wave (km/s) = 3.84528 5.20584 4.57640
# Velocity P-wave (km/s) = 6.46550 8.38968 7.48964
#
# Compressibility (1/GPa) = 0.02187814
#
# Stress axis : x y z
#
# Youngs Moduli (GPa) = 69.78142 164.32323 39.47405
#
# Poissons Ratio (x) = 0.49546 0.21475
# Poissons Ratio (y) = 0.21040 0.13737
# Poissons Ratio (z) = 0.37963 0.57185
#
# Static dielectric constant tensor:
#      x y z
#    x 1.755150 0.000000 0.000000 
#    y 0.000000 1.759270 0.000000 
#    z 0.000000 0.000000 1.732270 
# 
# From -- ./inp_files/5887.got.cif
#   From: 2010.05.17/outbox.cif.g08.bks.cpg/sg53_3_cif.got.tgz:5887.got - 2010.06.03 12:45:16.
