data_PCOD9418086
_publ_section_title
;
Structure prediction by ZEFSAII (Michael W. Deem and Ramdas Pophale) SiO2 
 PCOD9418086
Probable space group: P M N A
;
_chemical_formula_sum "Si O2"
_cell_formula_units_Z 56
_cell_length_a 14.726356
_cell_length_b 11.507434
_cell_length_c 15.750333
_cell_angle_alpha 90.000000
_cell_angle_beta 90.000000
_cell_angle_gamma 90.000000
_cell_volume 2669.091904
_symmetry_space_group_name_H-M "P M N A"
_symmetry_group_IT_number 53
_symmetry_cell_setting 'orthorhombic'
loop_
_space_group_symop_operation_xyz
x,y,z
1/2-x,-y,1/2+z
x,-y,-z
1/2-x,y,1/2-z
-x,-y,-z
1/2+x,y,1/2-z
-x,y,z
1/2+x,-y,1/2+z
loop_
_atom_site_type_symbol
_atom_site_label
_atom_site_fract_x
_atom_site_fract_y
_atom_site_fract_z
Si Si1 0.602935 0.991164 0.596052
Si Si2 0.201521 0.363773 0.018901
Si Si3 0.396429 0.741821 0.358283
Si Si4 0.596386 0.361618 0.994041
Si Si5 0.108139 0.972655 0.600898
Si Si6 0.730748 0.196870 0.343786
Si Si7 0.107185 0.780712 0.322928
O O1 0.500000 0.945332 0.587789
O O2 0.662399 0.912389 0.656291
O O3 0.641893 0.000000 0.500000
O O4 0.599059 0.120196 0.631122
O O5 0.165066 0.304089 0.934091
O O6 0.308072 0.342092 0.036665
O O7 0.185934 0.500000 0.000000
O O8 0.171554 0.290727 0.100905
O O9 0.500000 0.694754 0.366711
O O10 0.357403 0.725331 0.264038
O O11 0.500000 0.310891 0.025397
O O12 0.610821 0.309582 0.900296
O O13 0.587970 0.500000 0.000000
O O14 0.175893 0.867100 0.623142
O O15 0.000000 0.953022 0.620468
O O16 0.112853 0.000000 0.500000
O O17 0.140480 0.092338 0.647602
O O18 0.750000 0.243268 0.250000
O O19 0.000000 0.798900 0.305411
#
# Coordination Sequence:
#
# PCOD9418086 Si02
#       7
#     8   8   8   8   8   8   8
#     4  10  20  38  65  93 124 165 205 246 310 384
#     4  11  25  44  61  85 117 167 216 256 310 365
#     4  10  21  39  64  92 123 156 202 260 308 366
#     4   9  19  38  60  82 118 162 205 252 299 357
#     4  10  21  38  63  95 133 167 196 246 316 380
#     4  12  25  40  62  92 131 162 204 259 314 378
#     4   9  18  34  59  95 124 151 203 256 302 366
#
# _framework density 20.980919
#
# number of rings (size 3 to 8) (size 9 to 14) (size 15 to 20)
#    0.000    1.857    1.429    2.143    2.000    4.286 
#    5.143    0.000    0.000    0.000    0.000    0.000 
#    0.000    0.000    0.000    0.000    0.000    0.000 
#
# Total GULP energy -311879.503089 kJ/mol
# GULP energy per Si atom -5569.276841 kJ/mol
# Density = 2.093317 g / cm^3
# Si number density = 20.980919 Si / 1000 Ang^3
#
#
#
# Elastic Constant Matrix: (Units=GPa)
#
#
# Indices 1 2 3 4 5 6 
#
# 1 46.5089 19.3759 -49.1318 0.0000 0.0000 0.0000
# 2 19.3759 118.1771 51.7770 0.0000 0.0000 0.0000
# 3 -49.1318 51.7770 -15.5731 0.0000 0.0000 0.0000
# 4 0.0000 0.0000 0.0000 -1.1318 0.0000 0.0000
# 5 0.0000 0.0000 0.0000 0.0000 19.2890 0.0000
# 6 0.0000 0.0000 0.0000 0.0000 0.0000 -5.6661
#
#
#
# Elastic Compliance Matrix: (Units=1/GPa)
#
#
# Indices 1 2 3 4 5 6 
#
# 1 0.007685 0.003811 -0.011575 0.000000 0.000000 0.000000
# 2 0.003811 0.005335 0.005712 0.000000 0.000000 0.000000
# 3 -0.011575 0.005712 -0.008705 0.000000 0.000000 0.000000
# 4 0.000000 0.000000 0.000000 -0.883542 0.000000 0.000000
# 5 0.000000 0.000000 0.000000 0.000000 0.051843 0.000000
# 6 0.000000 0.000000 0.000000 0.000000 0.000000 -0.176488
#
#
# Mechanical properties :
#
#
# Convention : Reuss Voigt Hill
#
# Bulk Modulus (GPa) = 4740.97345 21.46168 2381.21757
# Shear Modulus (GPa) = -5.00151 10.97101 2.98475
#
# Velocity S-wave (km/s) = -1.54564 2.28919 1.19402
# Velocity P-wave (km/s) = 47.55397 4.15193 33.75365
#
# Compressibility (1/GPa) = 0.00021093
#
# Stress axis : x y z
#
# Youngs Moduli (GPa) = 130.11547 187.45778 -114.87996
#
# Poissons Ratio (x) = -0.71447 -1.32975
# Poissons Ratio (y) = -0.49592 0.65615
# Poissons Ratio (z) = 1.50611 -1.07069
#
# Static dielectric constant tensor:
#      x y z
#    x 1.864060 0.000000 0.000000 
#    y 0.000000 1.750690 0.000000 
#    z 0.000000 0.000000 1.588950 
# 
# From -- ./inp_files/22860.got.cif
#   From: 2010.05.17/outbox.cif.g08.bks.cpg/sg53_12_cif.got.tgz:22860.got - 2010.06.03 12:45:16.
