data_PCOD9418617
_publ_section_title
;
Structure prediction by ZEFSAII (Michael W. Deem and Ramdas Pophale) SiO2 
 PCOD9418617
Probable space group: P M N A
;
_chemical_formula_sum "Si O2"
_cell_formula_units_Z 48
_cell_length_a 8.483334
_cell_length_b 10.119532
_cell_length_c 28.755043
_cell_angle_alpha 90.000000
_cell_angle_beta 90.000000
_cell_angle_gamma 90.000000
_cell_volume 2468.544812
_symmetry_space_group_name_H-M "P M N A"
_symmetry_group_IT_number 53
_symmetry_cell_setting 'orthorhombic'
loop_
_space_group_symop_operation_xyz
x,y,z
1/2-x,-y,1/2+z
x,-y,-z
1/2-x,y,1/2-z
-x,-y,-z
1/2+x,y,1/2-z
-x,y,z
1/2+x,-y,1/2+z
loop_
_atom_site_type_symbol
_atom_site_label
_atom_site_fract_x
_atom_site_fract_y
_atom_site_fract_z
Si Si1 0.815623 0.723485 0.699296
Si Si2 0.307432 0.594958 0.542439
Si Si3 0.314278 0.014017 0.138295
Si Si4 0.189053 0.099274 0.039886
Si Si5 0.814164 0.515954 0.142426
Si Si6 0.687418 0.765085 0.197461
O O1 0.750000 0.753205 0.750000
O O2 0.801020 0.851712 0.667344
O O3 0.717420 0.606084 0.676527
O O4 0.000000 0.685665 0.701734
O O5 0.259452 0.500000 0.500000
O O6 0.500000 0.598081 0.543011
O O7 0.253381 0.747828 0.537753
O O8 0.257124 0.530381 0.591442
O O9 0.500000 0.990087 0.128937
O O10 0.229101 0.036355 0.089589
O O11 0.252548 0.895035 0.170337
O O12 0.000000 0.106622 0.034963
O O13 0.249663 0.000000 0.000000
O O14 0.730958 0.641051 0.165367
O O15 0.000000 0.543990 0.139164
O O16 0.750000 0.752191 0.250000
O O17 0.500000 0.776208 0.201260
#
# Coordination Sequence:
#
# PCOD9418617 Si02
#       6
#     8   8   8   8   8   8
#     4  11  22  38  61  87 117 154 196 245 297 356
#     4   9  19  36  58  88 121 152 193 244 294 347
#     4  10  23  41  61  86 122 159 195 246 301 355
#     4  10  21  37  62  92 120 154 199 247 294 352
#     4  11  22  38  62  89 120 159 197 244 298 353
#     4  11  24  42  61  87 121 159 203 249 297 354
#
# _framework density 19.444655000000001
#
# number of rings (size 3 to 8) (size 9 to 14) (size 15 to 20)
#    0.000    1.667    1.667    2.500    2.333    2.333 
#    0.000    0.000    0.000    2.500    0.000    0.000 
#    0.000    0.000    0.000    0.000    0.000    0.000 
#
# Total GULP energy -268097.360229 kJ/mol
# GULP energy per Si atom -5585.361671 kJ/mol
# Density = 1.940040 g / cm^3
# Si number density = 19.444655 Si / 1000 Ang^3
#
#
#
# Elastic Constant Matrix: (Units=GPa)
#
#
# Indices 1 2 3 4 5 6 
#
# 1 8.4012 9.1392 11.6030 0.0000 0.0000 0.0000
# 2 9.1392 94.8844 13.3470 0.0000 0.0000 0.0000
# 3 11.6030 13.3470 75.4422 0.0000 0.0000 0.0000
# 4 0.0000 0.0000 0.0000 29.7716 0.0000 0.0000
# 5 0.0000 0.0000 0.0000 0.0000 -47.4337 0.0000
# 6 0.0000 0.0000 0.0000 0.0000 0.0000 24.2437
#
#
#
# Elastic Compliance Matrix: (Units=1/GPa)
#
#
# Indices 1 2 3 4 5 6 
#
# 1 0.164639 -0.012610 -0.023091 0.000000 0.000000 0.000000
# 2 -0.012610 0.011774 -0.000144 0.000000 0.000000 0.000000
# 3 -0.023091 -0.000144 0.016832 0.000000 0.000000 0.000000
# 4 0.000000 0.000000 0.000000 0.033589 0.000000 0.000000
# 5 0.000000 0.000000 0.000000 0.000000 -0.021082 0.000000
# 6 0.000000 0.000000 0.000000 0.000000 0.000000 0.041248
#
#
# Mechanical properties :
#
#
# Convention : Reuss Voigt Hill
#
# Bulk Modulus (GPa) = 8.22660 27.43402 17.83031
# Shear Modulus (GPa) = 13.91955 10.95888 12.43922
#
# Velocity S-wave (km/s) = 2.67845 2.37659 2.53202
# Velocity P-wave (km/s) = 3.71556 4.65514 4.21163
#
# Compressibility (1/GPa) = 0.12155686
#
# Stress axis : x y z
#
# Youngs Moduli (GPa) = 6.07389 84.93362 59.41089
#
# Poissons Ratio (x) = 1.07100 1.37184
# Poissons Ratio (y) = 0.07659 0.00853
# Poissons Ratio (z) = 0.14025 0.01220
#
# Static dielectric constant tensor:
#      x y z
#    x 1.679750 0.000000 0.000000 
#    y 0.000000 1.677480 0.000000 
#    z 0.000000 0.000000 1.650640 
# 
# From -- ./inp_files/37715.got.cif
#   From: 2010.05.17/outbox.cif.g08.bks.cpg/sg53_19_cif.got.tgz:37715.got - 2010.06.03 12:45:16.
