data_PCOD9418031
_publ_section_title
;
Structure prediction by ZEFSAII (Michael W. Deem and Ramdas Pophale) SiO2 
 PCOD9418031
Probable space group: P M N A
;
_chemical_formula_sum "Si O2"
_cell_formula_units_Z 56
_cell_length_a 14.220847
_cell_length_b 13.709284
_cell_length_c 15.076845
_cell_angle_alpha 90.000000
_cell_angle_beta 90.000000
_cell_angle_gamma 90.000000
_cell_volume 2939.345973
_symmetry_space_group_name_H-M "P M N A"
_symmetry_group_IT_number 53
_symmetry_cell_setting 'orthorhombic'
loop_
_space_group_symop_operation_xyz
x,y,z
1/2-x,-y,1/2+z
x,-y,-z
1/2-x,y,1/2-z
-x,-y,-z
1/2+x,y,1/2-z
-x,y,z
1/2+x,-y,1/2+z
loop_
_atom_site_type_symbol
_atom_site_label
_atom_site_fract_x
_atom_site_fract_y
_atom_site_fract_z
Si Si1 0.612530 0.757843 0.749645
Si Si2 0.250057 0.521327 0.351979
Si Si3 0.613512 0.015570 0.249448
Si Si4 0.111953 0.368170 0.079357
Si Si5 0.749049 0.715467 0.438054
Si Si6 0.888279 0.368804 0.421571
Si Si7 0.750526 0.054673 0.903111
O O1 0.500000 0.758452 0.747077
O O2 0.640244 0.869986 0.750974
O O3 0.641049 0.699838 0.662394
O O4 0.637030 0.699015 0.837459
O O5 0.250000 0.492183 0.250000
O O6 0.339133 0.471593 0.400280
O O7 0.250405 0.637528 0.358970
O O8 0.160828 0.471981 0.400361
O O9 0.500000 0.004644 0.249322
O O10 0.661042 0.972847 0.339106
O O11 0.661455 0.972128 0.160319
O O12 0.000000 0.376458 0.073587
O O13 0.158440 0.315899 0.995699
O O14 0.839185 0.684054 0.496372
O O15 0.749091 0.829144 0.418073
O O16 0.000000 0.377565 0.430138
O O17 0.750621 0.000000 0.000000
#
# Coordination Sequence:
#
# PCOD9418031 Si02
#       7
#     8   8   8   8   8   8   8
#     4   9  17  33  61  89 112 147 195 251 300 339
#     4  11  23  37  57  82 122 158 188 238 298 357
#     4  10  23  41  62  90 126 162 208 265 313 368
#     4  10  20  38  61  89 117 150 198 244 296 357
#     4  11  25  37  58  87 119 160 196 248 294 352
#     4  10  20  38  61  89 117 150 198 244 296 357
#     4  11  24  42  65  92 123 167 216 256 316 371
#
# _framework density 19.051856999999998
#
# number of rings (size 3 to 8) (size 9 to 14) (size 15 to 20)
#    0.000    1.714    1.429    3.429    2.000    7.429 
#    0.000    0.000    0.000    0.000    0.000    0.000 
#    0.000    0.000    0.000    0.000    0.000    0.000 
#
# Total GULP energy -312538.371881 kJ/mol
# GULP energy per Si atom -5581.042355 kJ/mol
# Density = 1.900849 g / cm^3
# Si number density = 19.051857 Si / 1000 Ang^3
#
#
#
# Elastic Constant Matrix: (Units=GPa)
#
#
# Indices 1 2 3 4 5 6 
#
# 1 111.1354 19.5487 -8.3465 0.0000 0.0000 0.0000
# 2 19.5487 165.8967 34.5773 0.0000 0.0000 0.0000
# 3 -8.3465 34.5773 61.2368 0.0000 0.0000 0.0000
# 4 0.0000 0.0000 0.0000 31.5821 0.0000 0.0000
# 5 0.0000 0.0000 0.0000 0.0000 171.0206 0.0000
# 6 0.0000 0.0000 0.0000 0.0000 0.0000 8.1715
#
#
#
# Elastic Compliance Matrix: (Units=1/GPa)
#
#
# Indices 1 2 3 4 5 6 
#
# 1 0.009436 -0.001564 0.002169 0.000000 0.000000 0.000000
# 2 -0.001564 0.007091 -0.004217 0.000000 0.000000 0.000000
# 3 0.002169 -0.004217 0.019007 0.000000 0.000000 0.000000
# 4 0.000000 0.000000 0.000000 0.031664 0.000000 0.000000
# 5 0.000000 0.000000 0.000000 0.000000 0.005847 0.000000
# 6 0.000000 0.000000 0.000000 0.000000 0.000000 0.122377
#
#
# Mechanical properties :
#
#
# Convention : Reuss Voigt Hill
#
# Bulk Modulus (GPa) = 35.32296 47.75867 41.54082
# Shear Modulus (GPa) = 23.57576 61.65414 42.61495
#
# Velocity S-wave (km/s) = 3.52156 5.69486 4.73460
# Velocity P-wave (km/s) = 5.92586 8.26826 7.19305
#
# Compressibility (1/GPa) = 0.02831020
#
# Stress axis : x y z
#
# Youngs Moduli (GPa) = 105.97640 141.02143 52.61240
#
# Poissons Ratio (x) = 0.22056 -0.11413
# Poissons Ratio (y) = 0.16575 0.22188
# Poissons Ratio (z) = -0.22989 0.59471
#
# Static dielectric constant tensor:
#      x y z
#    x 1.667390 0.000000 0.000000 
#    y 0.000000 1.659110 0.000000 
#    z 0.000000 0.000000 1.674530 
# 
# From -- ./inp_files/22942.got.cif
#   From: 2010.05.17/outbox.cif.g08.bks.cpg/sg53_12_cif.got.tgz:22942.got - 2010.06.03 12:45:16.
