data_PCOD9418714
_publ_section_title
;
Structure prediction by ZEFSAII (Michael W. Deem and Ramdas Pophale) SiO2 
 PCOD9418714
Probable space group: P M N A
;
_chemical_formula_sum "Si O2"
_cell_formula_units_Z 36
_cell_length_a 7.804931
_cell_length_b 9.742774
_cell_length_c 20.413755
_cell_angle_alpha 90.000000
_cell_angle_beta 90.000000
_cell_angle_gamma 90.000000
_cell_volume 1552.296201
_symmetry_space_group_name_H-M "P M N A"
_symmetry_group_IT_number 53
_symmetry_cell_setting 'orthorhombic'
loop_
_space_group_symop_operation_xyz
x,y,z
1/2-x,-y,1/2+z
x,-y,-z
1/2-x,y,1/2-z
-x,-y,-z
1/2+x,y,1/2-z
-x,y,z
1/2+x,-y,1/2+z
loop_
_atom_site_type_symbol
_atom_site_label
_atom_site_fract_x
_atom_site_fract_y
_atom_site_fract_z
Si Si1 0.795779 0.237834 0.471018
Si Si2 0.697938 0.743637 0.379737
Si Si3 0.198296 0.558432 0.643085
Si Si4 0.750000 0.253846 0.250000
Si Si5 0.294441 0.046027 0.354738
O O1 0.711956 0.245476 0.541649
O O2 0.761950 0.373891 0.427298
O O3 0.734559 0.110874 0.426495
O O4 0.000000 0.227461 0.480429
O O5 0.500000 0.731680 0.361019
O O6 0.786526 0.604046 0.357964
O O7 0.762241 0.888694 0.352247
O O8 0.314178 0.634626 0.696634
O O9 0.000000 0.595026 0.658926
O O10 0.692672 0.141739 0.195793
O O11 0.500000 0.055865 0.340424
#
# Coordination Sequence:
#
# PCOD9418714 Si02
#       5
#     8   8   8   4   8
#     4  10  21  38  61  89 120 155 194 236 287 345
#     4  11  23  37  58  90 122 153 191 238 292 346
#     4  10  22  39  60  85 115 152 194 240 287 342
#     4  10  22  42  64  82 108 152 200 242 290 344
#     4  10  22  40  61  86 118 154 193 238 288 346
#
# _framework density 23.191451000000001
#
# number of rings (size 3 to 8) (size 9 to 14) (size 15 to 20)
#    0.000    1.778    0.000    3.333    0.000   14.222 
#    0.000    2.222    0.000    0.000    0.000    0.000 
#    0.000    0.000    0.000    0.000    0.000    0.000 
#
# Total GULP energy -200765.850618 kJ/mol
# GULP energy per Si atom -5576.829184 kJ/mol
# Density = 2.313867 g / cm^3
# Si number density = 23.191451 Si / 1000 Ang^3
#
#
#
# Elastic Constant Matrix: (Units=GPa)
#
#
# Indices 1 2 3 4 5 6 
#
# 1 69.7610 32.6630 3.6054 0.0000 0.0000 0.0000
# 2 32.6630 228.4036 42.9163 0.0000 0.0000 0.0000
# 3 3.6054 42.9163 76.8464 0.0000 0.0000 0.0000
# 4 0.0000 0.0000 0.0000 4.9752 0.0000 0.0000
# 5 0.0000 0.0000 0.0000 0.0000 -23.1232 0.0000
# 6 0.0000 0.0000 0.0000 0.0000 0.0000 -430.7630
#
#
#
# Elastic Compliance Matrix: (Units=1/GPa)
#
#
# Indices 1 2 3 4 5 6 
#
# 1 0.015385 -0.002307 0.000566 0.000000 0.000000 0.000000
# 2 -0.002307 0.005237 -0.002817 0.000000 0.000000 0.000000
# 3 0.000566 -0.002817 0.014559 0.000000 0.000000 0.000000
# 4 0.000000 0.000000 0.000000 0.200997 0.000000 0.000000
# 5 0.000000 0.000000 0.000000 0.000000 -0.043247 0.000000
# 6 0.000000 0.000000 0.000000 0.000000 0.000000 -0.002321
#
#
# Mechanical properties :
#
#
# Convention : Reuss Voigt Hill
#
# Bulk Modulus (GPa) = 38.36085 59.26449 48.81267
# Shear Modulus (GPa) = 23.99072 -70.06045 -23.03487
#
# Velocity S-wave (km/s) = 3.21980 -5.50229 -3.15500
# Velocity P-wave (km/s) = 5.51359 3.84148 2.79666
#
# Compressibility (1/GPa) = 0.02606824
#
# Stress axis : x y z
#
# Youngs Moduli (GPa) = 64.99683 190.93763 68.68404
#
# Poissons Ratio (x) = 0.44042 -0.03890
# Poissons Ratio (y) = 0.14992 0.19346
# Poissons Ratio (z) = -0.03681 0.53781
#
# Static dielectric constant tensor:
#      x y z
#    x 1.980840 0.000000 0.000000 
#    y 0.000000 1.841000 0.000000 
#    z 0.000000 0.000000 1.829610 
# 
# From -- ./inp_files/30118.got.cif
#   From: 2010.05.17/outbox.cif.g08.bks.cpg/sg53_16_cif.got.tgz:30118.got - 2010.06.03 12:45:16.
