data_PCOD9418773
_publ_section_title
;
Structure prediction by ZEFSAII (Michael W. Deem and Ramdas Pophale) SiO2 
 PCOD9418773
Probable space group: P M N A
;
_chemical_formula_sum "Si O2"
_cell_formula_units_Z 64
_cell_length_a 28.402395
_cell_length_b 17.519074
_cell_length_c 5.898173
_cell_angle_alpha 90.000000
_cell_angle_beta 90.000000
_cell_angle_gamma 90.000000
_cell_volume 2934.834507
_symmetry_space_group_name_H-M "P M N A"
_symmetry_group_IT_number 53
_symmetry_cell_setting 'orthorhombic'
loop_
_space_group_symop_operation_xyz
x,y,z
1/2-x,-y,1/2+z
x,-y,-z
1/2-x,y,1/2-z
-x,-y,-z
1/2+x,y,1/2-z
-x,y,z
1/2+x,-y,1/2+z
loop_
_atom_site_type_symbol
_atom_site_label
_atom_site_fract_x
_atom_site_fract_y
_atom_site_fract_z
Si Si1 0.835017 0.191812 0.743460
Si Si2 0.115275 0.329301 0.493878
Si Si3 0.552801 0.364879 0.621541
Si Si4 0.552489 0.225594 0.319620
Si Si5 0.108834 0.085760 0.046332
Si Si6 0.224735 0.707169 0.999655
Si Si7 0.699981 0.918960 0.871671
Si Si8 0.147993 0.418854 0.106117
O O1 0.855259 0.271881 0.651126
O O2 0.805503 0.150069 0.549915
O O3 0.874249 0.131865 0.823095
O O4 0.804481 0.215020 0.962154
O O5 0.072453 0.368409 0.626090
O O6 0.091966 0.270234 0.319778
O O7 0.145087 0.395450 0.371532
O O8 0.500000 0.394930 0.589632
O O9 0.551546 0.275415 0.550444
O O10 0.594286 0.402986 0.476011
O O11 0.500000 0.231446 0.220260
O O12 0.568972 0.139608 0.348814
O O13 0.154732 0.081174 0.207100
O O14 0.093197 0.000000 0.000000
O O15 0.250000 0.708151 0.750000
O O16 0.186852 0.639485 0.983920
O O17 0.250000 0.699047 0.250000
O O18 0.750000 0.914502 0.750000
O O19 0.699009 0.000000 0.000000
O O20 0.160275 0.500000 0.000000
#
# Coordination Sequence:
#
# PCOD9418773 Si02
#       8
#     8   8   8   8   8   8   8   8
#     4  12  25  44  70  99 138 186 242 304 360 434
#     4  11  20  43  72 100 138 183 241 295 365 435
#     4  10  21  41  70 104 138 182 238 295 360 439
#     4  10  21  38  66 100 137 184 243 303 357 430
#     4  12  24  41  64  94 141 183 235 302 372 434
#     4  12  29  49  75 112 146 192 252 306 366 440
#     4  12  28  45  64  97 137 186 236 298 378 444
#     4  11  26  47  70 104 148 187 233 298 371 446
#
# _framework density 21.807022
#
# number of rings (size 3 to 8) (size 9 to 14) (size 15 to 20)
#    0.000    0.750    5.000    2.250    3.500    2.000 
#    0.000    0.625    0.000    1.125    0.000    0.000 
#    0.000    0.000    0.000    0.000    0.000    0.000 
#
# Total GULP energy -357318.980389 kJ/mol
# GULP energy per Si atom -5583.109069 kJ/mol
# Density = 2.175739 g / cm^3
# Si number density = 21.807022 Si / 1000 Ang^3
#
#
#
# Elastic Constant Matrix: (Units=GPa)
#
#
# Indices 1 2 3 4 5 6 
#
# 1 52.6609 -3.0841 15.9808 0.0000 0.0000 0.0000
# 2 -3.0841 58.8778 21.1015 0.0000 0.0000 0.0000
# 3 15.9808 21.1015 81.6675 0.0000 0.0000 0.0000
# 4 0.0000 0.0000 0.0000 23.9331 0.0000 0.0000
# 5 0.0000 0.0000 0.0000 0.0000 30.2902 0.0000
# 6 0.0000 0.0000 0.0000 0.0000 0.0000 15.0009
#
#
#
# Elastic Compliance Matrix: (Units=1/GPa)
#
#
# Indices 1 2 3 4 5 6 
#
# 1 0.020593 0.002780 -0.004748 0.000000 0.000000 0.000000
# 2 0.002780 0.019093 -0.005477 0.000000 0.000000 0.000000
# 3 -0.004748 -0.005477 0.014589 0.000000 0.000000 0.000000
# 4 0.000000 0.000000 0.000000 0.041783 0.000000 0.000000
# 5 0.000000 0.000000 0.000000 0.000000 0.033014 0.000000
# 6 0.000000 0.000000 0.000000 0.000000 0.000000 0.066662
#
#
# Mechanical properties :
#
#
# Convention : Reuss Voigt Hill
#
# Bulk Modulus (GPa) = 25.39029 29.02251 27.20640
# Shear Modulus (GPa) = 22.34603 24.45872 23.40237
#
# Velocity S-wave (km/s) = 3.20459 3.35266 3.27946
# Velocity P-wave (km/s) = 5.03597 5.32210 5.18101
#
# Compressibility (1/GPa) = 0.03938514
#
# Stress axis : x y z
#
# Youngs Moduli (GPa) = 48.55981 52.37517 68.54415
#
# Poissons Ratio (x) = -0.14562 0.32545
# Poissons Ratio (y) = -0.13501 0.37544
# Poissons Ratio (z) = 0.23057 0.28688
#
# Static dielectric constant tensor:
#      x y z
#    x 1.835610 0.000000 0.000000 
#    y 0.000000 1.780010 0.000000 
#    z 0.000000 0.000000 1.896200 
# 
# From -- ./inp_files/5468.got.cif
#   From: 2010.05.17/outbox.cif.g08.bks.cpg/sg53_3_cif.got.tgz:5468.got - 2010.06.03 12:45:16.
