data_PCOD9418915
_publ_section_title
;
Structure prediction by ZEFSAII (Michael W. Deem and Ramdas Pophale) SiO2 
 PCOD9418915
Probable space group: P M N A
;
_chemical_formula_sum "Si O2"
_cell_formula_units_Z 32
_cell_length_a 5.597209
_cell_length_b 10.308351
_cell_length_c 20.618605
_cell_angle_alpha 90.000000
_cell_angle_beta 90.000000
_cell_angle_gamma 90.000000
_cell_volume 1189.652168
_symmetry_space_group_name_H-M "P M N A"
_symmetry_group_IT_number 53
_symmetry_cell_setting 'orthorhombic'
loop_
_space_group_symop_operation_xyz
x,y,z
1/2-x,-y,1/2+z
x,-y,-z
1/2-x,y,1/2-z
-x,-y,-z
1/2+x,y,1/2-z
-x,y,z
1/2+x,-y,1/2+z
loop_
_atom_site_type_symbol
_atom_site_label
_atom_site_fract_x
_atom_site_fract_y
_atom_site_fract_z
Si Si1 0.500000 0.055302 0.882998
Si Si2 0.500000 0.895878 0.748323
Si Si3 0.000000 0.465189 0.139374
Si Si4 0.000000 0.536518 0.663711
Si Si5 0.000000 0.684240 0.981511
Si Si6 0.500000 0.693485 0.267581
Si Si7 0.000000 0.051872 0.099068
Si Si8 0.500000 0.321555 0.941304
O O1 0.500000 0.210057 0.886322
O O2 0.500000 0.989598 0.811572
O O3 0.254544 0.011959 0.918376
O O4 0.250000 0.823562 0.750000
O O5 0.500000 0.960585 0.677427
O O6 0.242630 0.400085 0.164327
O O7 0.000000 0.443783 0.063174
O O8 0.000000 0.617320 0.162934
O O9 0.000000 0.431884 0.720703
O O10 0.000000 0.457589 0.595995
O O11 0.000000 0.805047 0.930647
O O12 0.253204 0.692651 0.018975
O O13 0.750000 0.761942 0.250000
#
# Coordination Sequence:
#
# PCOD9418915 Si02
#       8
#     4   4   4   4   4   4   4   4
#     4  10  21  40  62  88 122 160 202 252 304 356
#     4   8  16  34  58  84 114 148 194 246 300 348
#     4  10  21  40  62  88 122 160 202 252 304 356
#     4  10  21  40  62  88 122 160 202 252 304 356
#     4  12  26  40  60  92 124 164 208 242 298 370
#     4   8  16  34  58  84 114 148 194 246 300 348
#     4  10  21  40  62  88 122 160 202 252 304 356
#     4  12  26  40  60  92 124 164 208 242 298 370
#
# _framework density 26.898620999999999
#
# number of rings (size 3 to 8) (size 9 to 14) (size 15 to 20)
#    0.000    2.000    0.000    3.000    0.000    6.000 
#    0.000   22.500    0.000    0.000    0.000    0.000 
#    0.000    0.000    0.000    0.000    0.000    0.000 
#
# Total GULP energy -178912.040740 kJ/mol
# GULP energy per Si atom -5591.001273 kJ/mol
# Density = 2.683740 g / cm^3
# Si number density = 26.898621 Si / 1000 Ang^3
#
#
#
# Elastic Constant Matrix: (Units=GPa)
#
#
# Indices 1 2 3 4 5 6 
#
# 1 348.0981 59.5215 65.4110 0.0000 0.0000 0.0000
# 2 59.5215 87.0447 39.7736 0.0000 0.0000 0.0000
# 3 65.4110 39.7736 84.2448 0.0000 0.0000 0.0000
# 4 0.0000 0.0000 0.0000 48.7317 0.0000 0.0000
# 5 0.0000 0.0000 0.0000 0.0000 20.9342 0.0000
# 6 0.0000 0.0000 0.0000 0.0000 0.0000 26.2875
#
#
#
# Elastic Compliance Matrix: (Units=1/GPa)
#
#
# Indices 1 2 3 4 5 6 
#
# 1 0.003505 -0.001470 -0.002027 0.000000 0.000000 0.000000
# 2 -0.001470 0.015265 -0.006065 0.000000 0.000000 0.000000
# 3 -0.002027 -0.006065 0.016308 0.000000 0.000000 0.000000
# 4 0.000000 0.000000 0.000000 0.020521 0.000000 0.000000
# 5 0.000000 0.000000 0.000000 0.000000 0.047769 0.000000
# 6 0.000000 0.000000 0.000000 0.000000 0.000000 0.038041
#
#
# Mechanical properties :
#
#
# Convention : Reuss Voigt Hill
#
# Bulk Modulus (GPa) = 62.68774 94.31108 78.49941
# Shear Modulus (GPa) = 30.14738 42.83611 36.49174
#
# Velocity S-wave (km/s) = 3.35143 3.99495 3.68726
# Velocity P-wave (km/s) = 6.19128 7.51114 6.88292
#
# Compressibility (1/GPa) = 0.01595208
#
# Stress axis : x y z
#
# Youngs Moduli (GPa) = 285.29527 65.50798 61.32050
#
# Poissons Ratio (x) = 0.09633 0.12431
# Poissons Ratio (y) = 0.41953 0.37193
# Poissons Ratio (z) = 0.57837 0.39732
#
# Static dielectric constant tensor:
#      x y z
#    x 2.179000 0.000000 0.000000 
#    y 0.000000 2.025420 0.000000 
#    z 0.000000 0.000000 2.112230 
# 
# From -- ./inp_files/33418.got.cif
#   From: 2010.05.17/outbox.cif.g08.bks.cpg/sg53_17_cif.got.tgz:33418.got - 2010.06.03 12:45:16.
