data_PCOD9418528
_publ_section_title
;
Structure prediction by ZEFSAII (Michael W. Deem and Ramdas Pophale) SiO2 
 PCOD9418528
Probable space group: P M N A
;
_chemical_formula_sum "Si O2"
_cell_formula_units_Z 64
_cell_length_a 9.141932
_cell_length_b 15.304417
_cell_length_c 22.176696
_cell_angle_alpha 90.000000
_cell_angle_beta 90.000000
_cell_angle_gamma 90.000000
_cell_volume 3102.784549
_symmetry_space_group_name_H-M "P M N A"
_symmetry_group_IT_number 53
_symmetry_cell_setting 'orthorhombic'
loop_
_space_group_symop_operation_xyz
x,y,z
1/2-x,-y,1/2+z
x,-y,-z
1/2-x,y,1/2-z
-x,-y,-z
1/2+x,y,1/2-z
-x,y,z
1/2+x,-y,1/2+z
loop_
_atom_site_type_symbol
_atom_site_label
_atom_site_fract_x
_atom_site_fract_y
_atom_site_fract_z
Si Si1 0.656416 0.262460 0.912324
Si Si2 0.828391 0.548371 0.439977
Si Si3 0.671939 0.288362 0.312768
Si Si4 0.666198 0.983726 0.359524
Si Si5 0.171963 0.499056 0.185902
Si Si6 0.329741 0.800190 0.307618
Si Si7 0.676319 0.150515 0.105947
Si Si8 0.226919 0.909270 0.480028
O O1 0.500000 0.273186 0.879757
O O2 0.675757 0.347677 0.952495
O O3 0.786256 0.255006 0.865443
O O4 0.650940 0.171258 0.947153
O O5 0.771196 0.500000 0.500000
O O6 0.747821 0.532503 0.376007
O O7 0.000000 0.523106 0.432328
O O8 0.750000 0.264747 0.250000
O O9 0.500000 0.263717 0.313288
O O10 0.680103 0.393139 0.318657
O O11 0.762635 0.237066 0.363280
O O12 0.500000 0.008353 0.343546
O O13 0.775953 0.064876 0.355917
O O14 0.717294 0.900380 0.320972
O O15 0.665365 0.945941 0.428521
O O16 0.250000 0.523211 0.250000
O O17 0.000000 0.523998 0.188001
O O18 0.250000 0.764238 0.250000
O O19 0.500000 0.801698 0.298304
O O20 0.500000 0.152746 0.096362
O O21 0.764852 0.134047 0.043718
O O22 0.150418 0.000000 0.500000
#
# Coordination Sequence:
#
# PCOD9418528 Si02
#       8
#     8   8   8   8   8   8   8   8
#     4  10  21  38  59  86 120 158 198 244 297 355
#     4  10  23  41  64  94 129 168 209 257 315 375
#     4  10  22  40  60  85 116 152 197 249 305 365
#     4   9  20  37  54  77 114 156 200 250 303 358
#     4  10  22  42  68  94 123 164 211 262 319 382
#     4  10  21  37  58  83 111 151 196 244 299 355
#     4  11  22  33  55  86 116 155 199 247 301 360
#     4   9  20  35  57  86 118 155 202 247 294 353
#
# _framework density 20.626635
#
# number of rings (size 3 to 8) (size 9 to 14) (size 15 to 20)
#    0.000    2.125    0.000    1.875    1.750   13.500 
#    0.000    1.250    0.000    0.000    0.000    0.000 
#    0.000    0.000    0.000    0.000    0.000    0.000 
#
# Total GULP energy -356474.571595 kJ/mol
# GULP energy per Si atom -5569.915181 kJ/mol
# Density = 2.057969 g / cm^3
# Si number density = 20.626635 Si / 1000 Ang^3
#
#
#
# Elastic Constant Matrix: (Units=GPa)
#
#
# Indices 1 2 3 4 5 6 
#
# 1 60.3475 31.6949 22.4316 0.0000 0.0000 0.0000
# 2 31.6949 64.0586 32.0047 0.0000 0.0000 0.0000
# 3 22.4316 32.0047 93.4283 0.0000 0.0000 0.0000
# 4 0.0000 0.0000 0.0000 19.9013 0.0000 0.0000
# 5 0.0000 0.0000 0.0000 0.0000 -88.1493 0.0000
# 6 0.0000 0.0000 0.0000 0.0000 0.0000 24.4158
#
#
#
# Elastic Compliance Matrix: (Units=1/GPa)
#
#
# Indices 1 2 3 4 5 6 
#
# 1 0.022674 -0.010254 -0.001931 0.000000 0.000000 0.000000
# 2 -0.010254 0.023471 -0.005578 0.000000 0.000000 0.000000
# 3 -0.001931 -0.005578 0.013078 0.000000 0.000000 0.000000
# 4 0.000000 0.000000 0.000000 0.050248 0.000000 0.000000
# 5 0.000000 0.000000 0.000000 0.000000 -0.011344 0.000000
# 6 0.000000 0.000000 0.000000 0.000000 0.000000 0.040957
#
#
# Mechanical properties :
#
#
# Convention : Reuss Voigt Hill
#
# Bulk Modulus (GPa) = 42.20092 43.34408 42.77250
# Shear Modulus (GPa) = 27.39588 0.01376 13.70482
#
# Velocity S-wave (km/s) = 3.64837 0.08178 2.58044
# Velocity P-wave (km/s) = 6.18477 4.59001 5.44608
#
# Compressibility (1/GPa) = 0.02369616
#
# Stress axis : x y z
#
# Youngs Moduli (GPa) = 44.10368 42.60573 76.46405
#
# Poissons Ratio (x) = 0.43686 0.14768
# Poissons Ratio (y) = 0.45222 0.42655
# Poissons Ratio (z) = 0.08518 0.23767
#
# Static dielectric constant tensor:
#      x y z
#    x 1.718930 0.000000 0.000000 
#    y 0.000000 1.753260 0.000000 
#    z 0.000000 0.000000 4.410620 
# 
# From -- ./inp_files/34329.got.cif
#   From: 2010.05.17/outbox.cif.g08.bks.cpg/sg53_18_cif.got.tgz:34329.got - 2010.06.03 12:45:16.
