data_PCOD9418747
_publ_section_title
;
Structure prediction by ZEFSAII (Michael W. Deem and Ramdas Pophale) SiO2 
 PCOD9418747
Probable space group: P M N A
;
_chemical_formula_sum "Si O2"
_cell_formula_units_Z 56
_cell_length_a 14.982424
_cell_length_b 20.380651
_cell_length_c 9.044799
_cell_angle_alpha 90.000000
_cell_angle_beta 90.000000
_cell_angle_gamma 90.000000
_cell_volume 2761.843436
_symmetry_space_group_name_H-M "P M N A"
_symmetry_group_IT_number 53
_symmetry_cell_setting 'orthorhombic'
loop_
_space_group_symop_operation_xyz
x,y,z
1/2-x,-y,1/2+z
x,-y,-z
1/2-x,y,1/2-z
-x,-y,-z
1/2+x,y,1/2-z
-x,y,z
1/2+x,-y,1/2+z
loop_
_atom_site_type_symbol
_atom_site_label
_atom_site_fract_x
_atom_site_fract_y
_atom_site_fract_z
Si Si1 0.895912 0.405954 0.893342
Si Si2 0.603679 0.066446 0.078100
Si Si3 0.601876 0.525971 0.830516
Si Si4 0.106469 0.148569 0.678842
Si Si5 0.233358 0.642420 0.597937
Si Si6 0.655634 0.012894 0.671634
Si Si7 0.894713 0.706179 0.354323
O O1 0.876084 0.470977 0.793769
O O2 0.892932 0.346670 0.776204
O O3 0.000000 0.411671 0.946172
O O4 0.820677 0.387810 0.014560
O O5 0.500000 0.070687 0.041535
O O6 0.607410 0.048721 0.248905
O O7 0.643105 0.126079 0.983973
O O8 0.636838 0.000000 0.000000
O O9 0.500000 0.547575 0.800916
O O10 0.671698 0.583904 0.839734
O O11 0.601983 0.500000 0.000000
O O12 0.124746 0.086508 0.785367
O O13 0.136366 0.222699 0.705452
O O14 0.000000 0.154927 0.680477
O O15 0.250000 0.682491 0.750000
O O16 0.172414 0.681618 0.480972
O O17 0.750000 0.007710 0.750000
O O18 0.654550 0.000000 0.500000
O O19 0.000000 0.708831 0.405054
#
# Coordination Sequence:
#
# PCOD9418747 Si02
#       7
#     8   8   8   8   8   8   8
#     4  10  23  42  63  90 125 163 205 256 307 367
#     4   8  15  31  53  77 107 140 177 221 276 338
#     4  10  21  38  63  93 122 157 203 256 313 369
#     4   9  19  37  61  84 109 148 192 238 295 359
#     4  12  26  38  63  92 125 163 207 256 313 371
#     4  11  21  33  52  82 117 149 186 238 290 346
#     4  10  21  41  64  85 116 160 209 254 304 367
#
# _framework density 20.276312000000001
#
# number of rings (size 3 to 8) (size 9 to 14) (size 15 to 20)
#    0.000    2.000    1.429    3.429    2.000    3.429 
#    0.000    5.000    0.000    5.143    0.000    0.000 
#    0.000    0.000    0.000    0.000    0.000    0.000 
#
# Total GULP energy -311759.256044 kJ/mol
# GULP energy per Si atom -5567.129572 kJ/mol
# Density = 2.023016 g / cm^3
# Si number density = 20.276312 Si / 1000 Ang^3
#
#
#
# Elastic Constant Matrix: (Units=GPa)
#
#
# Indices 1 2 3 4 5 6 
#
# 1 78.6444 27.8585 37.5208 0.0000 0.0000 0.0000
# 2 27.8585 101.3078 31.5208 0.0000 0.0000 0.0000
# 3 37.5208 31.5208 138.5035 0.0000 0.0000 0.0000
# 4 0.0000 0.0000 0.0000 7.8527 0.0000 0.0000
# 5 0.0000 0.0000 0.0000 0.0000 18.0061 0.0000
# 6 0.0000 0.0000 0.0000 0.0000 0.0000 -36.2126
#
#
#
# Elastic Compliance Matrix: (Units=1/GPa)
#
#
# Indices 1 2 3 4 5 6 
#
# 1 0.015500 -0.003181 -0.003475 0.000000 0.000000 0.000000
# 2 -0.003181 0.011276 -0.001704 0.000000 0.000000 0.000000
# 3 -0.003475 -0.001704 0.008549 0.000000 0.000000 0.000000
# 4 0.000000 0.000000 0.000000 0.127345 0.000000 0.000000
# 5 0.000000 0.000000 0.000000 0.000000 0.055537 0.000000
# 6 0.000000 0.000000 0.000000 0.000000 0.000000 -0.027615
#
#
# Mechanical properties :
#
#
# Convention : Reuss Voigt Hill
#
# Bulk Modulus (GPa) = 53.75107 56.91732 55.33420
# Shear Modulus (GPa) = 23.41755 12.69961 18.05858
#
# Velocity S-wave (km/s) = 3.40210 2.50537 2.98757
# Velocity P-wave (km/s) = 6.48068 6.04160 6.26499
#
# Compressibility (1/GPa) = 0.01860428
#
# Stress axis : x y z
#
# Youngs Moduli (GPa) = 64.51492 88.68389 116.96821
#
# Poissons Ratio (x) = 0.28212 0.40647
# Poissons Ratio (y) = 0.20523 0.19936
# Poissons Ratio (z) = 0.22419 0.15115
#
# Static dielectric constant tensor:
#      x y z
#    x 1.785440 0.000000 0.000000 
#    y 0.000000 1.535020 0.000000 
#    z 0.000000 0.000000 1.843040 
# 
# From -- ./inp_files/8832.got.cif
#   From: 2010.05.17/outbox.cif.g08.bks.cpg/sg53_5_cif.got.tgz:8832.got - 2010.06.03 12:45:16.
