data_PCOD9418177
_publ_section_title
;
Structure prediction by ZEFSAII (Michael W. Deem and Ramdas Pophale) SiO2 
 PCOD9418177
Probable space group: P M N A
;
_chemical_formula_sum "Si O2"
_cell_formula_units_Z 48
_cell_length_a 8.866545
_cell_length_b 9.919944
_cell_length_c 29.797925
_cell_angle_alpha 90.000000
_cell_angle_beta 90.000000
_cell_angle_gamma 90.000000
_cell_volume 2620.895262
_symmetry_space_group_name_H-M "P M N A"
_symmetry_group_IT_number 53
_symmetry_cell_setting 'orthorhombic'
loop_
_space_group_symop_operation_xyz
x,y,z
1/2-x,-y,1/2+z
x,-y,-z
1/2-x,y,1/2-z
-x,-y,-z
1/2+x,y,1/2-z
-x,y,z
1/2+x,-y,1/2+z
loop_
_atom_site_type_symbol
_atom_site_label
_atom_site_fract_x
_atom_site_fract_y
_atom_site_fract_z
Si Si1 0.326008 0.864280 0.470871
Si Si2 0.818769 0.709194 0.877717
Si Si3 0.321086 0.633354 0.972668
Si Si4 0.819982 0.785536 0.298728
Si Si5 0.680954 0.527410 0.799254
Si Si6 0.818191 0.024947 0.873909
O O1 0.500000 0.814405 0.469645
O O2 0.222129 0.757394 0.495432
O O3 0.277530 0.904727 0.420988
O O4 0.326341 0.000000 0.500000
O O5 0.761916 0.651779 0.925269
O O6 0.748825 0.624855 0.836857
O O7 0.000000 0.701648 0.876048
O O8 0.774725 0.867343 0.874565
O O9 0.500000 0.628676 0.964368
O O10 0.276426 0.500000 0.000000
O O11 0.750000 0.811576 0.250000
O O12 0.783321 0.629411 0.310554
O O13 0.754555 0.890419 0.334128
O O14 0.000000 0.796965 0.296553
O O15 0.750000 0.554980 0.750000
O O16 0.500000 0.541324 0.797393
O O17 0.000000 0.029442 0.870216
#
# Coordination Sequence:
#
# PCOD9418177 Si02
#       6
#     8   8   8   8   8   8
#     4  10  20  40  63  86 118 157 200 243 289 348
#     4  11  23  41  63  88 119 158 201 245 296 353
#     4  11  25  41  58  87 124 158 198 248 296 351
#     4  10  22  40  63  89 120 154 195 242 294 352
#     4  10  22  41  63  90 121 155 197 244 295 353
#     4  10  22  39  61  89 120 154 197 244 292 350
#
# _framework density 18.314353000000001
#
# number of rings (size 3 to 8) (size 9 to 14) (size 15 to 20)
#    0.000    1.667    1.667    2.000    2.333    6.333 
#    0.000    0.000    0.000    0.000    0.000    0.000 
#    0.000    0.000    0.000    0.000    0.000    0.000 
#
# Total GULP energy -268189.232107 kJ/mol
# GULP energy per Si atom -5587.275669 kJ/mol
# Density = 1.827267 g / cm^3
# Si number density = 18.314353 Si / 1000 Ang^3
#
#
#
# Elastic Constant Matrix: (Units=GPa)
#
#
# Indices 1 2 3 4 5 6 
#
# 1 46.9492 50.2512 57.8170 0.0000 0.0000 0.0000
# 2 50.2512 108.4972 95.9097 0.0000 0.0000 0.0000
# 3 57.8170 95.9097 163.5306 0.0000 0.0000 0.0000
# 4 0.0000 0.0000 0.0000 36.4064 0.0000 0.0000
# 5 0.0000 0.0000 0.0000 0.0000 39.4186 0.0000
# 6 0.0000 0.0000 0.0000 0.0000 0.0000 26.5319
#
#
#
# Elastic Compliance Matrix: (Units=1/GPa)
#
#
# Indices 1 2 3 4 5 6 
#
# 1 0.046737 -0.014619 -0.007950 0.000000 0.000000 0.000000
# 2 -0.014619 0.023712 -0.008739 0.000000 0.000000 0.000000
# 3 -0.007950 -0.008739 0.014051 0.000000 0.000000 0.000000
# 4 0.000000 0.000000 0.000000 0.027468 0.000000 0.000000
# 5 0.000000 0.000000 0.000000 0.000000 0.025369 0.000000
# 6 0.000000 0.000000 0.000000 0.000000 0.000000 0.037691
#
#
# Mechanical properties :
#
#
# Convention : Reuss Voigt Hill
#
# Bulk Modulus (GPa) = 45.69277 80.77031 63.23154
# Shear Modulus (GPa) = 20.41331 28.13798 24.27564
#
# Velocity S-wave (km/s) = 3.34219 3.92393 3.64469
# Velocity P-wave (km/s) = 6.31641 8.04535 7.23272
#
# Compressibility (1/GPa) = 0.02188530
#
# Stress axis : x y z
#
# Youngs Moduli (GPa) = 21.39622 42.17206 71.16846
#
# Poissons Ratio (x) = 0.61650 0.56582
# Poissons Ratio (y) = 0.31278 0.62192
# Poissons Ratio (z) = 0.17011 0.36853
#
# Static dielectric constant tensor:
#      x y z
#    x 1.621370 0.000000 0.000000 
#    y 0.000000 1.607510 0.000000 
#    z 0.000000 0.000000 1.594260 
# 
# From -- ./inp_files/37739.got.cif
#   From: 2010.05.17/outbox.cif.g08.bks.cpg/sg53_19_cif.got.tgz:37739.got - 2010.06.03 12:45:16.
