data_PCOD9418847
_publ_section_title
;
Structure prediction by ZEFSAII (Michael W. Deem and Ramdas Pophale) SiO2 
 PCOD9418847
Probable space group: P M N A
;
_chemical_formula_sum "Si O2"
_cell_formula_units_Z 32
_cell_length_a 19.368331
_cell_length_b 5.087710
_cell_length_c 15.358034
_cell_angle_alpha 90.000000
_cell_angle_beta 90.000000
_cell_angle_gamma 90.000000
_cell_volume 1513.387602
_symmetry_space_group_name_H-M "P M N A"
_symmetry_group_IT_number 53
_symmetry_cell_setting 'orthorhombic'
loop_
_space_group_symop_operation_xyz
x,y,z
1/2-x,-y,1/2+z
x,-y,-z
1/2-x,y,1/2-z
-x,-y,-z
1/2+x,y,1/2-z
-x,y,z
1/2+x,-y,1/2+z
loop_
_atom_site_type_symbol
_atom_site_label
_atom_site_fract_x
_atom_site_fract_y
_atom_site_fract_z
Si Si1 0.420332 0.245870 0.562055
Si Si2 0.074566 0.251301 0.436927
Si Si3 0.787465 0.370644 0.837278
Si Si4 0.720270 0.860551 0.905961
O O1 0.420614 0.500000 0.500000
O O2 0.500000 0.195802 0.590149
O O3 0.367527 0.305607 0.641342
O O4 0.398191 0.000000 0.500000
O O5 0.085065 0.500000 0.500000
O O6 0.142254 0.216784 0.379703
O O7 0.000000 0.279984 0.392364
O O8 0.070732 0.000000 0.500000
O O9 0.750000 0.477149 0.750000
O O10 0.765293 0.598272 0.904756
O O11 0.750929 0.091109 0.849013
O O12 0.717097 0.000000 0.000000
#
# Coordination Sequence:
#
# PCOD9418847 Si02
#       4
#     8   8   8   8
#     4  10  21  39  64  89 115 155 207 255 296 353
#     4   9  17  30  50  78 108 137 179 231 270 315
#     4  12  24  38  57  88 124 152 189 252 321 373
#     4  11  21  37  60  83 110 155 204 242 290 364
#
# _framework density 21.144614000000001
#
# number of rings (size 3 to 8) (size 9 to 14) (size 15 to 20)
#    0.000    1.500    0.000    8.250    0.000    0.000 
#    0.000    2.500    0.000    0.000    0.000    0.000 
#    0.000    0.000    0.000    0.000    0.000    0.000 
#
# Total GULP energy -178344.950780 kJ/mol
# GULP energy per Si atom -5573.279712 kJ/mol
# Density = 2.109649 g / cm^3
# Si number density = 21.144614 Si / 1000 Ang^3
#
#
#
# Elastic Constant Matrix: (Units=GPa)
#
#
# Indices 1 2 3 4 5 6 
#
# 1 172.3080 30.0714 30.2132 0.0000 0.0000 0.0000
# 2 30.0714 140.1197 3.4821 0.0000 0.0000 0.0000
# 3 30.2132 3.4821 61.7904 0.0000 0.0000 0.0000
# 4 0.0000 0.0000 0.0000 17.2516 0.0000 0.0000
# 5 0.0000 0.0000 0.0000 0.0000 -10.4036 0.0000
# 6 0.0000 0.0000 0.0000 0.0000 0.0000 31.5312
#
#
#
# Elastic Compliance Matrix: (Units=1/GPa)
#
#
# Indices 1 2 3 4 5 6 
#
# 1 0.006588 -0.001336 -0.003146 0.000000 0.000000 0.000000
# 2 -0.001336 0.007418 0.000235 0.000000 0.000000 0.000000
# 3 -0.003146 0.000235 0.017709 0.000000 0.000000 0.000000
# 4 0.000000 0.000000 0.000000 0.057966 0.000000 0.000000
# 5 0.000000 0.000000 0.000000 0.000000 -0.096121 0.000000
# 6 0.000000 0.000000 0.000000 0.000000 0.000000 0.031715
#
#
# Mechanical properties :
#
#
# Convention : Reuss Voigt Hill
#
# Bulk Modulus (GPa) = 43.06416 55.75017 49.40717
# Shear Modulus (GPa) = 120.45708 28.37259 74.41483
#
# Velocity S-wave (km/s) = 7.55592 3.66708 5.93883
# Velocity P-wave (km/s) = 9.82513 6.65983 8.39305
#
# Compressibility (1/GPa) = 0.02322116
#
# Stress axis : x y z
#
# Youngs Moduli (GPa) = 151.78323 134.81487 56.46892
#
# Poissons Ratio (x) = 0.18008 0.17766
# Poissons Ratio (y) = 0.20274 -0.01328
# Poissons Ratio (z) = 0.47754 -0.03170
#
# Static dielectric constant tensor:
#      x y z
#    x 1.854050 0.000000 0.000000 
#    y 0.000000 1.747360 0.000000 
#    z 0.000000 0.000000 1.881640 
# 
# From -- ./inp_files/23253.got.cif
#   From: 2010.05.17/outbox.cif.g08.bks.cpg/sg53_12_cif.got.tgz:23253.got - 2010.06.03 12:45:16.
