data_PCOD9418407
_publ_section_title
;
Structure prediction by ZEFSAII (Michael W. Deem and Ramdas Pophale) SiO2 
 PCOD9418407
Probable space group: P M N A
;
_chemical_formula_sum "Si O2"
_cell_formula_units_Z 64
_cell_length_a 25.044619
_cell_length_b 9.660414
_cell_length_c 13.414338
_cell_angle_alpha 90.000000
_cell_angle_beta 90.000000
_cell_angle_gamma 90.000000
_cell_volume 3245.483555
_symmetry_space_group_name_H-M "P M N A"
_symmetry_group_IT_number 53
_symmetry_cell_setting 'orthorhombic'
loop_
_space_group_symop_operation_xyz
x,y,z
1/2-x,-y,1/2+z
x,-y,-z
1/2-x,y,1/2-z
-x,-y,-z
1/2+x,y,1/2-z
-x,y,z
1/2+x,-y,1/2+z
loop_
_atom_site_type_symbol
_atom_site_label
_atom_site_fract_x
_atom_site_fract_y
_atom_site_fract_z
Si Si1 0.834304 0.924421 0.906889
Si Si2 0.564563 0.266389 0.070715
Si Si3 0.374727 0.024959 0.188846
Si Si4 0.705198 0.646549 0.664691
Si Si5 0.734487 0.883913 0.138773
Si Si6 0.380998 0.491500 0.210611
Si Si7 0.783381 0.585667 0.408909
Si Si8 0.562317 0.253746 0.834841
O O1 0.865856 0.923664 0.801907
O O2 0.808472 0.770740 0.910916
O O3 0.784495 0.027163 0.893272
O O4 0.863608 0.000000 0.000000
O O5 0.500000 0.259249 0.084204
O O6 0.593762 0.132174 0.118313
O O7 0.589842 0.394935 0.129887
O O8 0.574984 0.280402 0.952407
O O9 0.316903 0.982908 0.144614
O O10 0.406193 0.881905 0.195123
O O11 0.750000 0.691312 0.750000
O O12 0.647710 0.606063 0.709719
O O13 0.732296 0.508071 0.620036
O O14 0.750000 0.832071 0.250000
O O15 0.725596 0.746679 0.074449
O O16 0.328756 0.573832 0.173259
O O17 0.421850 0.614554 0.231870
O O18 0.806987 0.500000 0.500000
O O19 0.500000 0.227619 0.828854
#
# Coordination Sequence:
#
# PCOD9418407 Si02
#       8
#     8   8   8   8   8   8   8   8
#     4  11  23  39  59  87 116 153 199 240 286 345
#     4  11  23  39  60  87 118 152 195 241 291 355
#     4  11  22  39  60  84 120 156 193 239 295 345
#     4  10  21  37  58  84 122 157 192 239 285 351
#     4  10  21  36  56  82 116 153 190 235 283 341
#     4  11  21  37  59  85 121 155 188 231 293 350
#     4  11  21  34  55  87 120 156 194 230 282 346
#     4  11  23  39  60  89 117 150 194 241 292 353
#
# _framework density 19.719712000000001
#
# number of rings (size 3 to 8) (size 9 to 14) (size 15 to 20)
#    0.000    1.250    2.500    5.250    3.500    3.000 
#    0.000    0.000    0.000    1.500    0.000    0.875 
#    0.000    0.000    0.000    0.000    0.000    0.000 
#
# Total GULP energy -357043.251598 kJ/mol
# GULP energy per Si atom -5578.800806 kJ/mol
# Density = 1.967483 g / cm^3
# Si number density = 19.719712 Si / 1000 Ang^3
#
#
#
# Elastic Constant Matrix: (Units=GPa)
#
#
# Indices 1 2 3 4 5 6 
#
# 1 48.1964 25.1393 5.6369 0.0000 0.0000 0.0000
# 2 25.1393 78.0664 4.8364 0.0000 0.0000 0.0000
# 3 5.6369 4.8364 36.2487 0.0000 0.0000 0.0000
# 4 0.0000 0.0000 0.0000 -5.0618 0.0000 0.0000
# 5 0.0000 0.0000 0.0000 0.0000 28.7975 0.0000
# 6 0.0000 0.0000 0.0000 0.0000 0.0000 7.5670
#
#
#
# Elastic Compliance Matrix: (Units=1/GPa)
#
#
# Indices 1 2 3 4 5 6 
#
# 1 0.025228 -0.007947 -0.002863 0.000000 0.000000 0.000000
# 2 -0.007947 0.015420 -0.000822 0.000000 0.000000 0.000000
# 3 -0.002863 -0.000822 0.028142 0.000000 0.000000 0.000000
# 4 0.000000 0.000000 0.000000 -0.197559 0.000000 0.000000
# 5 0.000000 0.000000 0.000000 0.000000 0.034725 0.000000
# 6 0.000000 0.000000 0.000000 0.000000 0.000000 0.132152
#
#
# Mechanical properties :
#
#
# Convention : Reuss Voigt Hill
#
# Bulk Modulus (GPa) = 21.96476 25.97074 23.96775
# Shear Modulus (GPa) = 65.31973 14.72048 40.02010
#
# Velocity S-wave (km/s) = 5.76160 2.73515 4.50983
# Velocity P-wave (km/s) = 7.44473 4.81386 6.26886
#
# Compressibility (1/GPa) = 0.04552748
#
# Stress axis : x y z
#
# Youngs Moduli (GPa) = 39.63806 64.85269 35.53409
#
# Poissons Ratio (x) = 0.51537 0.10173
# Poissons Ratio (y) = 0.31499 0.02919
# Poissons Ratio (z) = 0.11348 0.05328
#
# Static dielectric constant tensor:
#      x y z
#    x 1.672820 0.000000 0.000000 
#    y 0.000000 1.745650 0.000000 
#    z 0.000000 0.000000 1.853990 
# 
# From -- ./inp_files/24708.got.cif
#   From: 2010.05.17/outbox.cif.g08.bks.cpg/sg53_13_cif.got.tgz:24708.got - 2010.06.03 12:45:16.
