data_PCOD9418154
_publ_section_title
;
Structure prediction by ZEFSAII (Michael W. Deem and Ramdas Pophale) SiO2 
 PCOD9418154
Probable space group: P M N A
;
_chemical_formula_sum "Si O2"
_cell_formula_units_Z 48
_cell_length_a 15.182622
_cell_length_b 10.625645
_cell_length_c 15.431334
_cell_angle_alpha 90.000000
_cell_angle_beta 90.000000
_cell_angle_gamma 90.000000
_cell_volume 2489.462296
_symmetry_space_group_name_H-M "P M N A"
_symmetry_group_IT_number 53
_symmetry_cell_setting 'orthorhombic'
loop_
_space_group_symop_operation_xyz
x,y,z
1/2-x,-y,1/2+z
x,-y,-z
1/2-x,y,1/2-z
-x,-y,-z
1/2+x,y,1/2-z
-x,y,z
1/2+x,-y,1/2+z
loop_
_atom_site_type_symbol
_atom_site_label
_atom_site_fract_x
_atom_site_fract_y
_atom_site_fract_z
Si Si1 0.344454 0.387489 0.065120
Si Si2 0.353948 0.196315 0.770001
Si Si3 0.605092 0.134011 0.967278
Si Si4 0.132747 0.598966 0.925838
Si Si5 0.000000 0.182708 0.047274
Si Si6 0.856909 0.510940 0.257043
Si Si7 0.000000 0.925659 0.147320
O O1 0.238164 0.387660 0.069812
O O2 0.379903 0.427458 0.159369
O O3 0.370806 0.500000 0.000000
O O4 0.370880 0.252764 0.027317
O O5 0.250000 0.187214 0.750000
O O6 0.365684 0.155575 0.868997
O O7 0.382105 0.343116 0.765407
O O8 0.415307 0.117177 0.704222
O O9 0.500000 0.126708 0.966653
O O10 0.641099 0.000000 0.000000
O O11 0.084926 0.729943 0.940198
O O12 0.108466 0.545208 0.832061
O O13 0.106901 0.500000 0.000000
O O14 0.000000 0.071541 0.118252
O O15 0.000000 0.138823 0.947386
O O16 0.750000 0.510656 0.250000
#
# Coordination Sequence:
#
# PCOD9418154 Si02
#       7
#     8   8   8   8   4   8   4
#     4  10  20  39  65  95 128 163 221 271 314 389
#     4  11  23  43  70  93 125 170 214 262 330 387
#     4  11  25  44  63  92 133 171 213 272 327 387
#     4  10  21  38  64  95 130 164 211 270 328 381
#     4  11  25  42  60  92 135 168 211 265 326 376
#     4   9  19  37  64  97 127 163 211 273 326 379
#     4  11  26  44  63  93 131 170 223 265 303 410
#
# _framework density 19.281272999999999
#
# number of rings (size 3 to 8) (size 9 to 14) (size 15 to 20)
#    0.000    1.667    2.500    1.250    4.667    3.667 
#    3.000    1.667    0.000    0.000    0.000    0.000 
#    0.000    0.000    0.000    0.000    0.000    0.000 
#
# Total GULP energy -268120.263885 kJ/mol
# GULP energy per Si atom -5585.838831 kJ/mol
# Density = 1.923739 g / cm^3
# Si number density = 19.281273 Si / 1000 Ang^3
#
#
#
# Elastic Constant Matrix: (Units=GPa)
#
#
# Indices 1 2 3 4 5 6 
#
# 1 69.0554 37.2449 40.8589 0.0000 0.0000 0.0000
# 2 37.2449 170.7110 104.7430 0.0000 0.0000 0.0000
# 3 40.8589 104.7430 193.8147 0.0000 0.0000 0.0000
# 4 0.0000 0.0000 0.0000 128.4906 0.0000 0.0000
# 5 0.0000 0.0000 0.0000 0.0000 87.8090 0.0000
# 6 0.0000 0.0000 0.0000 0.0000 0.0000 30.8206
#
#
#
# Elastic Compliance Matrix: (Units=1/GPa)
#
#
# Indices 1 2 3 4 5 6 
#
# 1 0.017115 -0.002275 -0.002379 0.000000 0.000000 0.000000
# 2 -0.002275 0.009066 -0.004420 0.000000 0.000000 0.000000
# 3 -0.002379 -0.004420 0.008050 0.000000 0.000000 0.000000
# 4 0.000000 0.000000 0.000000 0.007783 0.000000 0.000000
# 5 0.000000 0.000000 0.000000 0.000000 0.011388 0.000000
# 6 0.000000 0.000000 0.000000 0.000000 0.000000 0.032446
#
#
# Mechanical properties :
#
#
# Convention : Reuss Voigt Hill
#
# Bulk Modulus (GPa) = 62.17254 88.80832 75.49043
# Shear Modulus (GPa) = 45.72188 66.13968 55.93078
#
# Velocity S-wave (km/s) = 4.87489 5.86319 5.39173
# Velocity P-wave (km/s) = 8.00007 9.59142 8.83166
#
# Compressibility (1/GPa) = 0.01608427
#
# Stress axis : x y z
#
# Youngs Moduli (GPa) = 58.42668 110.30071 124.22617
#
# Poissons Ratio (x) = 0.25088 0.29553
# Poissons Ratio (y) = 0.13289 0.54909
# Poissons Ratio (z) = 0.13900 0.48754
#
# Static dielectric constant tensor:
#      x y z
#    x 1.687350 0.000000 0.000000 
#    y 0.000000 1.658940 0.000000 
#    z 0.000000 0.000000 1.659080 
# 
# From -- ./inp_files/23704.got.cif
#   From: 2010.05.17/outbox.cif.g08.bks.cpg/sg53_12_cif.got.tgz:23704.got - 2010.06.03 12:45:16.
