data_PCOD9418382
_publ_section_title
;
Structure prediction by ZEFSAII (Michael W. Deem and Ramdas Pophale) SiO2 
 PCOD9418382
Probable space group: P M N A
;
_chemical_formula_sum "Si O2"
_cell_formula_units_Z 32
_cell_length_a 23.817403
_cell_length_b 8.474881
_cell_length_c 8.223030
_cell_angle_alpha 90.000000
_cell_angle_beta 90.000000
_cell_angle_gamma 90.000000
_cell_volume 1659.815778
_symmetry_space_group_name_H-M "P M N A"
_symmetry_group_IT_number 53
_symmetry_cell_setting 'orthorhombic'
loop_
_space_group_symop_operation_xyz
x,y,z
1/2-x,-y,1/2+z
x,-y,-z
1/2-x,y,1/2-z
-x,-y,-z
1/2+x,y,1/2-z
-x,y,z
1/2+x,-y,1/2+z
loop_
_atom_site_type_symbol
_atom_site_label
_atom_site_fract_x
_atom_site_fract_y
_atom_site_fract_z
Si Si1 0.134981 0.101384 0.337026
Si Si2 0.283245 0.317321 0.977483
Si Si3 0.437944 0.182995 0.443115
Si Si4 0.669184 0.202446 0.645623
O O1 0.179005 0.235086 0.386431
O O2 0.082314 0.176092 0.243642
O O3 0.121467 0.000000 0.500000
O O4 0.161293 0.975856 0.210484
O O5 0.225055 0.223523 0.959562
O O6 0.317716 0.299972 0.808926
O O7 0.270855 0.500000 0.000000
O O8 0.500000 0.253021 0.463757
O O9 0.386988 0.251937 0.550609
O O10 0.441595 0.000000 0.500000
#
# Coordination Sequence:
#
# PCOD9418382 Si02
#       4
#     8   8   8   8
#     4   9  19  34  55  80 108 139 177 223 270 325
#     4  10  21  36  55  80 111 142 176 222 275 329
#     4   9  18  33  54  79 105 137 180 226 267 314
#     4   9  20  35  53  80 107 138 179 221 271 326
#
# _framework density 19.279247000000002
#
# number of rings (size 3 to 8) (size 9 to 14) (size 15 to 20)
#    0.000    2.750    0.000    0.000    0.000   22.500 
#    0.000    3.750    0.000    8.250    0.000    0.000 
#    0.000    0.000    0.000    0.000    0.000    0.000 
#
# Total GULP energy -178470.573943 kJ/mol
# GULP energy per Si atom -5577.205436 kJ/mol
# Density = 1.923537 g / cm^3
# Si number density = 19.279247 Si / 1000 Ang^3
#
#
#
# Elastic Constant Matrix: (Units=GPa)
#
#
# Indices 1 2 3 4 5 6 
#
# 1 166.5287 20.8408 72.0881 0.0000 0.0000 0.0000
# 2 20.8408 28.0641 20.1185 0.0000 0.0000 0.0000
# 3 72.0881 20.1185 82.6153 0.0000 0.0000 0.0000
# 4 0.0000 0.0000 0.0000 9.0435 0.0000 0.0000
# 5 0.0000 0.0000 0.0000 0.0000 23.1146 0.0000
# 6 0.0000 0.0000 0.0000 0.0000 0.0000 -10.5474
#
#
#
# Elastic Compliance Matrix: (Units=1/GPa)
#
#
# Indices 1 2 3 4 5 6 
#
# 1 0.009694 -0.001375 -0.008124 0.000000 0.000000 0.000000
# 2 -0.001375 0.043364 -0.009360 0.000000 0.000000 0.000000
# 3 -0.008124 -0.009360 0.021472 0.000000 0.000000 0.000000
# 4 0.000000 0.000000 0.000000 0.110577 0.000000 0.000000
# 5 0.000000 0.000000 0.000000 0.000000 0.043263 0.000000
# 6 0.000000 0.000000 0.000000 0.000000 0.000000 -0.094810
#
#
# Mechanical properties :
#
#
# Convention : Reuss Voigt Hill
#
# Bulk Modulus (GPa) = 27.16500 55.92253 41.54376
# Shear Modulus (GPa) = 27.24087 15.26618 21.25353
#
# Velocity S-wave (km/s) = 3.76302 2.81703 3.32385
# Velocity P-wave (km/s) = 5.74467 6.29686 6.02709
#
# Compressibility (1/GPa) = 0.03681207
#
# Stress axis : x y z
#
# Youngs Moduli (GPa) = 103.16036 23.06070 46.57205
#
# Poissons Ratio (x) = 0.03171 0.37833
# Poissons Ratio (y) = 0.14185 0.43592
# Poissons Ratio (z) = 0.83803 0.21585
#
# Static dielectric constant tensor:
#      x y z
#    x 1.674740 0.000000 0.000000 
#    y 0.000000 1.669460 0.000000 
#    z 0.000000 0.000000 1.727730 
# 
# From -- ./inp_files/11429.got.cif
#   From: 2010.05.17/outbox.cif.g08.bks.cpg/sg53_6_cif.got.tgz:11429.got - 2010.06.03 12:45:16.
