data_PCOD9418206
_publ_section_title
;
Structure prediction by ZEFSAII (Michael W. Deem and Ramdas Pophale) SiO2 
 PCOD9418206
Probable space group: P M N A
;
_chemical_formula_sum "Si O2"
_cell_formula_units_Z 56
_cell_length_a 30.118012
_cell_length_b 6.080203
_cell_length_c 14.569394
_cell_angle_alpha 90.000000
_cell_angle_beta 90.000000
_cell_angle_gamma 90.000000
_cell_volume 2668.000271
_symmetry_space_group_name_H-M "P M N A"
_symmetry_group_IT_number 53
_symmetry_cell_setting 'orthorhombic'
loop_
_space_group_symop_operation_xyz
x,y,z
1/2-x,-y,1/2+z
x,-y,-z
1/2-x,y,1/2-z
-x,-y,-z
1/2+x,y,1/2-z
-x,y,z
1/2+x,-y,1/2+z
loop_
_atom_site_type_symbol
_atom_site_label
_atom_site_fract_x
_atom_site_fract_y
_atom_site_fract_z
Si Si1 0.299831 0.520534 0.727264
Si Si2 0.217633 0.756436 0.957278
Si Si3 0.591572 0.035687 0.098571
Si Si4 0.450334 0.026403 0.606947
Si Si5 0.451648 0.338512 0.245991
Si Si6 0.615655 0.722448 0.262687
Si Si7 0.679888 0.692654 0.928083
O O1 0.250000 0.441668 0.750000
O O2 0.299027 0.703880 0.646708
O O3 0.333992 0.323713 0.707594
O O4 0.316064 0.616410 0.823343
O O5 0.271139 0.779793 0.953483
O O6 0.210081 0.500000 0.000000
O O7 0.202231 0.000000 0.000000
O O8 0.558606 0.172044 0.163524
O O9 0.636894 0.158294 0.071862
O O10 0.608663 0.841669 0.165257
O O11 0.569217 0.000000 0.000000
O O12 0.500000 0.128427 0.617798
O O13 0.452570 0.795167 0.659261
O O14 0.441694 0.000000 0.500000
O O15 0.411630 0.153779 0.658587
O O16 0.500000 0.445403 0.232253
O O17 0.410174 0.495999 0.251073
O O18 0.671353 0.500000 0.000000
#
# Coordination Sequence:
#
# PCOD9418206 Si02
#       7
#     8   8   8   8   8   8   8
#     4  10  22  41  66  95 131 178 222 280 344 413
#     4  10  23  44  65  98 136 181 229 290 351 416
#     4  11  23  37  64  94 122 168 215 275 329 404
#     4   9  20  41  69  99 130 172 224 280 347 424
#     4  10  22  41  63  91 130 166 212 275 334 403
#     4  11  22  41  64  94 130 170 226 274 339 409
#     4  10  20  40  68  93 124 169 232 279 336 411
#
# _framework density 20.989502999999999
#
# number of rings (size 3 to 8) (size 9 to 14) (size 15 to 20)
#    0.000    1.857    1.429    1.714    0.000    4.857 
#    2.571   10.000    0.000    0.857    0.000    0.000 
#    0.000    0.000    0.000    0.000    0.000    0.000 
#
# Total GULP energy -311967.967953 kJ/mol
# GULP energy per Si atom -5570.856571 kJ/mol
# Density = 2.094173 g / cm^3
# Si number density = 20.989503 Si / 1000 Ang^3
#
#
#
# Elastic Constant Matrix: (Units=GPa)
#
#
# Indices 1 2 3 4 5 6 
#
# 1 85.8862 35.6035 35.2069 0.0000 0.0000 0.0000
# 2 35.6035 74.9026 65.1871 0.0000 0.0000 0.0000
# 3 35.2069 65.1871 171.0152 0.0000 0.0000 0.0000
# 4 0.0000 0.0000 0.0000 1.5274 0.0000 0.0000
# 5 0.0000 0.0000 0.0000 0.0000 -23.0462 0.0000
# 6 0.0000 0.0000 0.0000 0.0000 0.0000 8.1103
#
#
#
# Elastic Compliance Matrix: (Units=1/GPa)
#
#
# Indices 1 2 3 4 5 6 
#
# 1 0.014533 -0.006441 -0.000537 0.000000 0.000000 0.000000
# 2 -0.006441 0.022833 -0.007377 0.000000 0.000000 0.000000
# 3 -0.000537 -0.007377 0.008770 0.000000 0.000000 0.000000
# 4 0.000000 0.000000 0.000000 0.654713 0.000000 0.000000
# 5 0.000000 0.000000 0.000000 0.000000 -0.043391 0.000000
# 6 0.000000 0.000000 0.000000 0.000000 0.000000 0.123300
#
#
# Mechanical properties :
#
#
# Convention : Reuss Voigt Hill
#
# Bulk Modulus (GPa) = 57.38588 67.08878 62.23733
# Shear Modulus (GPa) = 6.13289 10.37206 8.25248
#
# Velocity S-wave (km/s) = 1.71121 2.22537 1.98501
# Velocity P-wave (km/s) = 5.59499 6.21574 5.91352
#
# Compressibility (1/GPa) = 0.01742589
#
# Stress axis : x y z
#
# Youngs Moduli (GPa) = 68.80682 43.79697 114.02498
#
# Poissons Ratio (x) = 0.28209 0.06121
# Poissons Ratio (y) = 0.44318 0.84119
# Poissons Ratio (z) = 0.03694 0.32310
#
# Static dielectric constant tensor:
#      x y z
#    x 1.770260 0.000000 0.000000 
#    y 0.000000 1.832830 0.000000 
#    z 0.000000 0.000000 1.711140 
# 
# From -- ./inp_files/25124.got.cif
#   From: 2010.05.17/outbox.cif.g08.bks.cpg/sg53_13_cif.got.tgz:25124.got - 2010.06.03 12:45:16.
