data_PCOD9418927
_publ_section_title
;
Structure prediction by ZEFSAII (Michael W. Deem and Ramdas Pophale) SiO2 
 PCOD9418927
Probable space group: P M N A
;
_chemical_formula_sum "Si O2"
_cell_formula_units_Z 64
_cell_length_a 8.260163
_cell_length_b 14.834265
_cell_length_c 25.694135
_cell_angle_alpha 90.000000
_cell_angle_beta 90.000000
_cell_angle_gamma 90.000000
_cell_volume 3148.390926
_symmetry_space_group_name_H-M "P M N A"
_symmetry_group_IT_number 53
_symmetry_cell_setting 'orthorhombic'
loop_
_space_group_symop_operation_xyz
x,y,z
1/2-x,-y,1/2+z
x,-y,-z
1/2-x,y,1/2-z
-x,-y,-z
1/2+x,y,1/2-z
-x,y,z
1/2+x,-y,1/2+z
loop_
_atom_site_type_symbol
_atom_site_label
_atom_site_fract_x
_atom_site_fract_y
_atom_site_fract_z
Si Si1 0.810184 0.182814 0.694646
Si Si2 0.197140 0.730852 0.412694
Si Si3 0.694637 0.786802 0.691969
Si Si4 0.303484 0.470720 0.941924
Si Si5 0.193322 0.343623 0.400282
Si Si6 0.186950 0.970411 0.556621
Si Si7 0.812537 0.793237 0.978901
Si Si8 0.188001 0.990640 0.832763
O O1 0.750000 0.217965 0.750000
O O2 0.743929 0.230421 0.642510
O O3 0.000000 0.196656 0.693091
O O4 0.775726 0.075944 0.691742
O O5 0.250219 0.627957 0.423591
O O6 0.261408 0.788609 0.461263
O O7 0.000000 0.734765 0.414227
O O8 0.750000 0.762545 0.750000
O O9 0.500000 0.787978 0.688265
O O10 0.757682 0.715464 0.649595
O O11 0.751053 0.890390 0.681149
O O12 0.500000 0.465718 0.944551
O O13 0.262626 0.550751 0.901658
O O14 0.249081 0.500000 0.000000
O O15 0.279000 0.300775 0.450665
O O16 0.000000 0.337359 0.407299
O O17 0.202230 0.863049 0.552700
O O18 0.289118 0.001620 0.605350
O O19 0.000000 0.999222 0.562886
O O20 0.246879 0.000000 0.500000
O O21 0.000000 0.818533 0.973098
O O22 0.000000 0.994746 0.818264
#
# Coordination Sequence:
#
# PCOD9418927 Si02
#       8
#     8   8   8   8   8   8   8   8
#     4  11  24  41  63  87 118 158 203 252 298 352
#     4  10  21  40  63  89 119 156 202 249 302 367
#     4  11  24  41  61  88 120 158 203 249 299 356
#     4   9  17  34  63  93 118 153 200 245 297 361
#     4  11  21  37  63  89 120 159 198 247 299 355
#     4  11  23  37  55  82 118 161 205 245 294 357
#     4  12  23  35  55  87 125 159 194 243 300 357
#     4  11  23  39  61  88 120 155 200 252 299 353
#
# _framework density 20.327843999999999
#
# number of rings (size 3 to 8) (size 9 to 14) (size 15 to 20)
#    0.000    1.250    2.500    4.125    0.000    7.500 
#    0.000    2.500    0.000    1.500    0.000    0.000 
#    0.000    0.000    0.000    0.000    0.000    0.000 
#
# Total GULP energy -357609.004720 kJ/mol
# GULP energy per Si atom -5587.640699 kJ/mol
# Density = 2.028158 g / cm^3
# Si number density = 20.327844 Si / 1000 Ang^3
#
#
#
# Elastic Constant Matrix: (Units=GPa)
#
#
# Indices 1 2 3 4 5 6 
#
# 1 33.4654 0.2233 13.0289 0.0000 0.0000 0.0000
# 2 0.2233 76.3610 36.4335 0.0000 0.0000 0.0000
# 3 13.0289 36.4335 141.5907 0.0000 0.0000 0.0000
# 4 0.0000 0.0000 0.0000 15.1214 0.0000 0.0000
# 5 0.0000 0.0000 0.0000 0.0000 24.6782 0.0000
# 6 0.0000 0.0000 0.0000 0.0000 0.0000 13.9615
#
#
#
# Elastic Compliance Matrix: (Units=1/GPa)
#
#
# Indices 1 2 3 4 5 6 
#
# 1 0.031133 0.001454 -0.003239 0.000000 0.000000 0.000000
# 2 0.001454 0.014996 -0.003993 0.000000 0.000000 0.000000
# 3 -0.003239 -0.003993 0.008388 0.000000 0.000000 0.000000
# 4 0.000000 0.000000 0.000000 0.066132 0.000000 0.000000
# 5 0.000000 0.000000 0.000000 0.000000 0.040522 0.000000
# 6 0.000000 0.000000 0.000000 0.000000 0.000000 0.071625
#
#
# Mechanical properties :
#
#
# Convention : Reuss Voigt Hill
#
# Bulk Modulus (GPa) = 23.27598 38.97651 31.12624
# Shear Modulus (GPa) = 19.32955 24.20099 21.76527
#
# Velocity S-wave (km/s) = 3.08700 3.45415 3.27572
# Velocity P-wave (km/s) = 4.91744 5.92654 5.44541
#
# Compressibility (1/GPa) = 0.04296275
#
# Stress axis : x y z
#
# Youngs Moduli (GPa) = 32.12036 66.68259 119.21759
#
# Poissons Ratio (x) = -0.09698 0.38615
# Poissons Ratio (y) = -0.04671 0.47599
# Poissons Ratio (z) = 0.10404 0.26624
#
# Static dielectric constant tensor:
#      x y z
#    x 1.701780 0.000000 0.000000 
#    y 0.000000 1.769600 0.000000 
#    z 0.000000 0.000000 1.722700 
# 
# From -- ./inp_files/34301.got.cif
#   From: 2010.05.17/outbox.cif.g08.bks.cpg/sg53_18_cif.got.tgz:34301.got - 2010.06.03 12:45:16.
