data_PCOD9418985
_publ_section_title
;
Structure prediction by ZEFSAII (Michael W. Deem and Ramdas Pophale) SiO2 
 PCOD9418985
Probable space group: P M N A
;
_chemical_formula_sum "Si O2"
_cell_formula_units_Z 48
_cell_length_a 8.606161
_cell_length_b 15.311076
_cell_length_c 19.572512
_cell_angle_alpha 90.000000
_cell_angle_beta 90.000000
_cell_angle_gamma 90.000000
_cell_volume 2579.061786
_symmetry_space_group_name_H-M "P M N A"
_symmetry_group_IT_number 53
_symmetry_cell_setting 'orthorhombic'
loop_
_space_group_symop_operation_xyz
x,y,z
1/2-x,-y,1/2+z
x,-y,-z
1/2-x,y,1/2-z
-x,-y,-z
1/2+x,y,1/2-z
-x,y,z
1/2+x,-y,1/2+z
loop_
_atom_site_type_symbol
_atom_site_label
_atom_site_fract_x
_atom_site_fract_y
_atom_site_fract_z
Si Si1 0.685697 0.964542 0.076070
Si Si2 0.814848 0.888168 0.826552
Si Si3 0.686864 0.566473 0.825020
Si Si4 0.187066 0.365852 0.674315
Si Si5 0.313039 0.728580 0.915927
Si Si6 0.314915 0.229074 0.565216
O O1 0.500000 0.970834 0.084880
O O2 0.739525 0.864884 0.080716
O O3 0.768141 0.025479 0.131467
O O4 0.723343 0.000000 0.000000
O O5 0.750000 0.892024 0.750000
O O6 0.739357 0.806932 0.866656
O O7 0.000000 0.878119 0.825400
O O8 0.750000 0.589412 0.750000
O O9 0.500000 0.568575 0.821642
O O10 0.732954 0.466681 0.840821
O O11 0.735381 0.637544 0.880732
O O12 0.250000 0.345714 0.750000
O O13 0.256594 0.299999 0.619517
O O14 0.000000 0.360440 0.673799
O O15 0.500000 0.730206 0.922767
O O16 0.238681 0.742581 0.989735
O O17 0.500000 0.221294 0.567538
#
# Coordination Sequence:
#
# PCOD9418985 Si02
#       6
#     8   8   8   8   8   8
#     4  11  23  42  67  90 119 159 202 249 305 363
#     4  12  25  41  63  93 127 162 204 252 302 361
#     4   9  20  37  61  88 120 161 204 251 305 360
#     4  10  21  41  64  89 121 159 204 255 306 361
#     4  11  22  39  61  90 125 163 205 251 305 363
#     4  12  25  40  62  92 123 161 204 250 305 365
#
# _framework density 18.611419999999999
#
# number of rings (size 3 to 8) (size 9 to 14) (size 15 to 20)
#    0.000    1.167    1.667    5.000    0.000    5.333 
#    0.000    6.667    0.000    0.000    0.000    0.000 
#    0.000    0.000    0.000    0.000    0.000    0.000 
#
# Total GULP energy -268459.769405 kJ/mol
# GULP energy per Si atom -5592.911863 kJ/mol
# Density = 1.856906 g / cm^3
# Si number density = 18.611420 Si / 1000 Ang^3
#
#
#
# Elastic Constant Matrix: (Units=GPa)
#
#
# Indices 1 2 3 4 5 6 
#
# 1 42.1560 -0.0211 8.6137 0.0000 0.0000 0.0000
# 2 -0.0211 100.2261 60.6566 0.0000 0.0000 0.0000
# 3 8.6137 60.6566 114.7124 0.0000 0.0000 0.0000
# 4 0.0000 0.0000 0.0000 175.6687 0.0000 0.0000
# 5 0.0000 0.0000 0.0000 0.0000 34.3577 0.0000
# 6 0.0000 0.0000 0.0000 0.0000 0.0000 33.6765
#
#
#
# Elastic Compliance Matrix: (Units=1/GPa)
#
#
# Indices 1 2 3 4 5 6 
#
# 1 0.024271 0.001630 -0.002684 0.000000 0.000000 0.000000
# 2 0.001630 0.014782 -0.007939 0.000000 0.000000 0.000000
# 3 -0.002684 -0.007939 0.013117 0.000000 0.000000 0.000000
# 4 0.000000 0.000000 0.000000 0.005693 0.000000 0.000000
# 5 0.000000 0.000000 0.000000 0.000000 0.029106 0.000000
# 6 0.000000 0.000000 0.000000 0.000000 0.000000 0.029694
#
#
# Mechanical properties :
#
#
# Convention : Reuss Voigt Hill
#
# Bulk Modulus (GPa) = 29.25431 43.95476 36.60454
# Shear Modulus (GPa) = 34.23639 61.26359 47.74999
#
# Velocity S-wave (km/s) = 4.29364 5.74358 5.07070
# Velocity P-wave (km/s) = 6.35083 8.22516 7.34800
#
# Compressibility (1/GPa) = 0.03418300
#
# Stress axis : x y z
#
# Youngs Moduli (GPa) = 41.20200 67.64826 76.23793
#
# Poissons Ratio (x) = -0.11024 0.20463
# Poissons Ratio (y) = -0.06714 0.60524
# Poissons Ratio (z) = 0.11059 0.53705
#
# Static dielectric constant tensor:
#      x y z
#    x 1.670340 0.000000 0.000000 
#    y 0.000000 1.631450 0.000000 
#    z 0.000000 0.000000 1.600100 
# 
# From -- ./inp_files/26271.got.cif
#   From: 2010.05.17/outbox.cif.g08.bks.cpg/sg53_14_cif.got.tgz:26271.got - 2010.06.03 12:45:16.
