data_PCOD9418163
_publ_section_title
;
Structure prediction by ZEFSAII (Michael W. Deem and Ramdas Pophale) SiO2 
 PCOD9418163
Probable space group: P M N A
;
_chemical_formula_sum "Si O2"
_cell_formula_units_Z 40
_cell_length_a 13.694944
_cell_length_b 14.259501
_cell_length_c 10.115103
_cell_angle_alpha 90.000000
_cell_angle_beta 90.000000
_cell_angle_gamma 90.000000
_cell_volume 1975.308344
_symmetry_space_group_name_H-M "P M N A"
_symmetry_group_IT_number 53
_symmetry_cell_setting 'orthorhombic'
loop_
_space_group_symop_operation_xyz
x,y,z
1/2-x,-y,1/2+z
x,-y,-z
1/2-x,y,1/2-z
-x,-y,-z
1/2+x,y,1/2-z
-x,y,z
1/2+x,-y,1/2+z
loop_
_atom_site_type_symbol
_atom_site_label
_atom_site_fract_x
_atom_site_fract_y
_atom_site_fract_z
Si Si1 0.894093 0.128096 0.166783
Si Si2 0.500000 0.593065 0.095761
Si Si3 0.000000 0.525466 0.847168
Si Si4 0.811950 0.900066 0.548272
Si Si5 0.669325 0.332658 0.363291
Si Si6 0.297636 0.294791 0.896306
O O1 0.799405 0.083862 0.098592
O O2 0.873809 0.128382 0.323383
O O3 0.889831 0.236294 0.123716
O O4 0.000000 0.086747 0.136961
O O5 0.500000 0.559150 0.246953
O O6 0.401847 0.654630 0.082760
O O7 0.500000 0.500000 0.000000
O O8 0.903446 0.586248 0.822492
O O9 0.000000 0.500000 0.000000
O O10 0.809126 0.813604 0.445658
O O11 0.849739 0.000000 0.500000
O O12 0.750000 0.318626 0.250000
O O13 0.723956 0.345809 0.501810
O O14 0.250000 0.298626 0.750000
#
# Coordination Sequence:
#
# PCOD9418163 Si02
#       6
#     8   4   4   8   8   8
#     4  10  20  39  68  94 122 166 228 255 311 391
#     4  12  28  44  67  98 128 170 223 272 323 396
#     4  12  26  40  66  96 127 165 224 272 318 394
#     4  10  23  41  64  97 132 169 216 268 318 385
#     4  11  21  41  68  92 124 176 214 266 318 386
#     4  11  25  44  64  95 138 172 205 275 338 377
#
# _framework density 20.250004000000001
#
# number of rings (size 3 to 8) (size 9 to 14) (size 15 to 20)
#    0.000    1.200    5.000    2.400    4.200    5.600 
#    1.800    0.000    0.000    0.000    0.000    0.000 
#    0.000    0.000    0.000    0.000    0.000    0.000 
#
# Total GULP energy -223355.492125 kJ/mol
# GULP energy per Si atom -5583.887303 kJ/mol
# Density = 2.020391 g / cm^3
# Si number density = 20.250004 Si / 1000 Ang^3
#
#
#
# Elastic Constant Matrix: (Units=GPa)
#
#
# Indices 1 2 3 4 5 6 
#
# 1 124.4350 35.3216 38.4531 0.0000 0.0000 0.0000
# 2 35.3216 57.1278 17.5442 0.0000 0.0000 0.0000
# 3 38.4531 17.5442 108.0903 0.0000 0.0000 0.0000
# 4 0.0000 0.0000 0.0000 13.5217 0.0000 0.0000
# 5 0.0000 0.0000 0.0000 0.0000 7.8540 0.0000
# 6 0.0000 0.0000 0.0000 0.0000 0.0000 -7.2637
#
#
#
# Elastic Compliance Matrix: (Units=1/GPa)
#
#
# Indices 1 2 3 4 5 6 
#
# 1 0.010507 -0.005629 -0.002824 0.000000 0.000000 0.000000
# 2 -0.005629 0.021439 -0.001477 0.000000 0.000000 0.000000
# 3 -0.002824 -0.001477 0.010496 0.000000 0.000000 0.000000
# 4 0.000000 0.000000 0.000000 0.073955 0.000000 0.000000
# 5 0.000000 0.000000 0.000000 0.000000 0.127323 0.000000
# 6 0.000000 0.000000 0.000000 0.000000 0.000000 -0.137672
#
#
# Mechanical properties :
#
#
# Convention : Reuss Voigt Hill
#
# Bulk Modulus (GPa) = 44.28553 52.47679 48.38116
# Shear Modulus (GPa) = 37.47119 16.04469 26.75794
#
# Velocity S-wave (km/s) = 4.30633 2.81789 3.63902
# Velocity P-wave (km/s) = 6.82955 6.04633 6.44984
#
# Compressibility (1/GPa) = 0.02258074
#
# Stress axis : x y z
#
# Youngs Moduli (GPa) = 95.17574 46.64479 95.27450
#
# Poissons Ratio (x) = 0.26256 0.26907
# Poissons Ratio (y) = 0.53574 0.14074
# Poissons Ratio (z) = 0.26879 0.06890
#
# Static dielectric constant tensor:
#      x y z
#    x 1.776350 0.000000 0.000000 
#    y 0.000000 1.752900 0.000000 
#    z 0.000000 0.000000 1.689170 
# 
# From -- ./inp_files/8485.got.cif
#   From: 2010.05.17/outbox.cif.g08.bks.cpg/sg53_5_cif.got.tgz:8485.got - 2010.06.03 12:45:16.
