data_PCOD9418301
_publ_section_title
;
Structure prediction by ZEFSAII (Michael W. Deem and Ramdas Pophale) SiO2 
 PCOD9418301
Probable space group: P M N A
;
_chemical_formula_sum "Si O2"
_cell_formula_units_Z 56
_cell_length_a 7.549220
_cell_length_b 14.608693
_cell_length_c 21.909327
_cell_angle_alpha 90.000000
_cell_angle_beta 90.000000
_cell_angle_gamma 90.000000
_cell_volume 2416.253419
_symmetry_space_group_name_H-M "P M N A"
_symmetry_group_IT_number 53
_symmetry_cell_setting 'orthorhombic'
loop_
_space_group_symop_operation_xyz
x,y,z
1/2-x,-y,1/2+z
x,-y,-z
1/2-x,y,1/2-z
-x,-y,-z
1/2+x,y,1/2-z
-x,y,z
1/2+x,-y,1/2+z
loop_
_atom_site_type_symbol
_atom_site_label
_atom_site_fract_x
_atom_site_fract_y
_atom_site_fract_z
Si Si1 0.297917 0.663869 0.615444
Si Si2 0.211841 0.828180 0.376365
Si Si3 0.789669 0.833495 0.817929
Si Si4 0.702059 0.022342 0.082849
Si Si5 0.300452 0.524396 0.067441
Si Si6 0.713307 0.648044 0.180495
Si Si7 0.788544 0.192840 0.486406
O O1 0.500000 0.636469 0.628145
O O2 0.228877 0.730005 0.668619
O O3 0.192645 0.573897 0.600056
O O4 0.294627 0.732212 0.557340
O O5 0.278711 0.753110 0.328665
O O6 0.238612 0.784913 0.443379
O O7 0.000000 0.837722 0.364736
O O8 0.283852 0.930895 0.387488
O O9 0.750000 0.860629 0.750000
O O10 0.699927 0.903498 0.863331
O O11 0.000000 0.835685 0.830079
O O12 0.500000 0.996618 0.066116
O O13 0.774823 0.088959 0.029083
O O14 0.500000 0.559692 0.053626
O O15 0.222791 0.589579 0.121118
O O16 0.219421 0.500000 0.000000
O O17 0.750000 0.616094 0.250000
O O18 0.500000 0.647492 0.174930
O O19 0.000000 0.193304 0.475217
#
# Coordination Sequence:
#
# PCOD9418301 Si02
#       7
#     8   8   8   8   8   8   8
#     4  10  21  35  53  80 110 136 166 213 272 326
#     4   9  17  32  55  80 106 142 186 224 261 314
#     4  10  21  36  52  73 104 140 178 219 265 319
#     4   9  17  30  52  81 109 139 179 228 275 316
#     4  10  21  39  63  86 107 139 184 230 277 331
#     4  10  22  39  57  79 111 147 184 229 278 335
#     4   9  16  30  54  82 111 141 177 221 267 320
#
# _framework density 23.176376000000001
#
# number of rings (size 3 to 8) (size 9 to 14) (size 15 to 20)
#    0.000    2.429    0.000    2.143    0.000    7.714 
#    0.000    7.857    0.000    3.429    0.000    0.000 
#    0.000    0.000    0.000    0.000    0.000    0.000 
#
# Total GULP energy -312159.907563 kJ/mol
# GULP energy per Si atom -5574.284064 kJ/mol
# Density = 2.312363 g / cm^3
# Si number density = 23.176376 Si / 1000 Ang^3
#
#
#
# Elastic Constant Matrix: (Units=GPa)
#
#
# Indices 1 2 3 4 5 6 
#
# 1 59.2590 6.0075 8.1171 0.0000 0.0000 0.0000
# 2 6.0075 119.4554 28.1557 0.0000 0.0000 0.0000
# 3 8.1171 28.1557 108.5768 0.0000 0.0000 0.0000
# 4 0.0000 0.0000 0.0000 29.5168 0.0000 0.0000
# 5 0.0000 0.0000 0.0000 0.0000 8.3649 0.0000
# 6 0.0000 0.0000 0.0000 0.0000 0.0000 110.0390
#
#
#
# Elastic Compliance Matrix: (Units=1/GPa)
#
#
# Indices 1 2 3 4 5 6 
#
# 1 0.017089 -0.000595 -0.001123 0.000000 0.000000 0.000000
# 2 -0.000595 0.008937 -0.002273 0.000000 0.000000 0.000000
# 3 -0.001123 -0.002273 0.009883 0.000000 0.000000 0.000000
# 4 0.000000 0.000000 0.000000 0.033879 0.000000 0.000000
# 5 0.000000 0.000000 0.000000 0.000000 0.119547 0.000000
# 6 0.000000 0.000000 0.000000 0.000000 0.000000 0.009088
#
#
# Mechanical properties :
#
#
# Convention : Reuss Voigt Hill
#
# Bulk Modulus (GPa) = 35.80691 41.31687 38.56189
# Shear Modulus (GPa) = 23.17873 45.91820 34.54847
#
# Velocity S-wave (km/s) = 3.16587 4.45595 3.86512
# Velocity P-wave (km/s) = 5.37093 6.65882 6.04925
#
# Compressibility (1/GPa) = 0.02792757
#
# Stress axis : x y z
#
# Youngs Moduli (GPa) = 58.51637 111.89450 101.17881
#
# Poissons Ratio (x) = 0.06654 0.11366
# Poissons Ratio (y) = 0.03480 0.22998
# Poissons Ratio (z) = 0.06574 0.25434
#
# Static dielectric constant tensor:
#      x y z
#    x 1.978700 0.000000 0.000000 
#    y 0.000000 1.897100 0.000000 
#    z 0.000000 0.000000 1.899500 
# 
# From -- ./inp_files/30739.got.cif
#   From: 2010.05.17/outbox.cif.g08.bks.cpg/sg53_16_cif.got.tgz:30739.got - 2010.06.03 12:45:16.
