data_PCOD9418143
_publ_section_title
;
Structure prediction by ZEFSAII (Michael W. Deem and Ramdas Pophale) SiO2 
 PCOD9418143
Probable space group: P M N A
;
_chemical_formula_sum "Si O2"
_cell_formula_units_Z 64
_cell_length_a 8.656632
_cell_length_b 14.732080
_cell_length_c 26.212651
_cell_angle_alpha 90.000000
_cell_angle_beta 90.000000
_cell_angle_gamma 90.000000
_cell_volume 3342.904498
_symmetry_space_group_name_H-M "P M N A"
_symmetry_group_IT_number 53
_symmetry_cell_setting 'orthorhombic'
loop_
_space_group_symop_operation_xyz
x,y,z
1/2-x,-y,1/2+z
x,-y,-z
1/2-x,y,1/2-z
-x,-y,-z
1/2+x,y,1/2-z
-x,y,z
1/2+x,-y,1/2+z
loop_
_atom_site_type_symbol
_atom_site_label
_atom_site_fract_x
_atom_site_fract_y
_atom_site_fract_z
Si Si1 0.685010 0.097011 0.022935
Si Si2 0.811693 0.382307 0.098351
Si Si3 0.685109 0.918196 0.635572
Si Si4 0.313715 0.737969 0.694104
Si Si5 0.186765 0.408815 0.899489
Si Si6 0.184925 0.703917 0.306165
Si Si7 0.186765 0.282899 0.994203
Si Si8 0.314945 0.912735 0.193573
O O1 0.500000 0.099462 0.024706
O O2 0.751864 0.104839 0.079792
O O3 0.745851 0.182166 0.990745
O O4 0.733285 0.000000 0.000000
O O5 0.762380 0.332413 0.150247
O O6 0.762078 0.486830 0.095788
O O7 0.000000 0.381444 0.098103
O O8 0.763533 0.327158 0.048058
O O9 0.500000 0.920022 0.633727
O O10 0.732242 0.838366 0.674664
O O11 0.748386 0.014173 0.654692
O O12 0.250000 0.718566 0.750000
O O13 0.500000 0.735339 0.696030
O O14 0.248730 0.362875 0.848382
O O15 0.234295 0.348131 0.947941
O O16 0.000000 0.408854 0.898229
O O17 0.250000 0.683880 0.250000
O O18 0.228535 0.808609 0.318758
O O19 0.000000 0.698657 0.304991
O O20 0.000000 0.277411 0.994379
O O21 0.250000 0.932637 0.250000
O O22 0.500000 0.918952 0.194464
#
# Coordination Sequence:
#
# PCOD9418143 Si02
#       8
#     8   8   8   8   8   8   8   8
#     4  11  25  41  58  85 122 160 193 238 298 355
#     4   9  18  38  61  86 120 154 195 247 297 348
#     4  11  22  38  61  86 115 153 198 248 294 353
#     4  10  21  37  58  85 119 156 196 243 296 353
#     4  10  21  36  63  93 116 152 198 245 298 358
#     4  10  22  40  60  83 120 158 195 245 295 350
#     4  10  20  39  64  90 118 154 199 245 294 354
#     4  10  21  37  57  83 115 154 194 238 290 345
#
# _framework density 19.145028
#
# number of rings (size 3 to 8) (size 9 to 14) (size 15 to 20)
#    0.000    1.875    1.250    2.250    1.750    7.000 
#    0.000    2.500    0.000    1.500    0.000    0.000 
#    0.000    0.000    0.000    0.000    0.000    0.000 
#
# Total GULP energy -357595.066552 kJ/mol
# GULP energy per Si atom -5587.422915 kJ/mol
# Density = 1.910145 g / cm^3
# Si number density = 19.145028 Si / 1000 Ang^3
#
#
#
# Elastic Constant Matrix: (Units=GPa)
#
#
# Indices 1 2 3 4 5 6 
#
# 1 19.8703 29.6400 20.7804 0.0000 0.0000 0.0000
# 2 29.6400 144.3316 71.5795 0.0000 0.0000 0.0000
# 3 20.7804 71.5795 107.3913 0.0000 0.0000 0.0000
# 4 0.0000 0.0000 0.0000 23.1940 0.0000 0.0000
# 5 0.0000 0.0000 0.0000 0.0000 25.3556 0.0000
# 6 0.0000 0.0000 0.0000 0.0000 0.0000 24.1248
#
#
#
# Elastic Compliance Matrix: (Units=1/GPa)
#
#
# Indices 1 2 3 4 5 6 
#
# 1 0.075363 -0.012315 -0.006374 0.000000 0.000000 0.000000
# 2 -0.012315 0.012362 -0.005857 0.000000 0.000000 0.000000
# 3 -0.006374 -0.005857 0.014449 0.000000 0.000000 0.000000
# 4 0.000000 0.000000 0.000000 0.043115 0.000000 0.000000
# 5 0.000000 0.000000 0.000000 0.000000 0.039439 0.000000
# 6 0.000000 0.000000 0.000000 0.000000 0.000000 0.041451
#
#
# Mechanical properties :
#
#
# Convention : Reuss Voigt Hill
#
# Bulk Modulus (GPa) = 18.83897 57.28809 38.06353
# Shear Modulus (GPa) = 17.06686 24.50778 20.78732
#
# Velocity S-wave (km/s) = 2.98896 3.58175 3.29869
# Velocity P-wave (km/s) = 4.66619 6.86246 5.86799
#
# Compressibility (1/GPa) = 0.05308147
#
# Stress axis : x y z
#
# Youngs Moduli (GPa) = 13.26906 80.89228 69.20958
#
# Poissons Ratio (x) = 0.99621 0.44117
# Poissons Ratio (y) = 0.16341 0.40534
# Poissons Ratio (z) = 0.08458 0.47376
#
# Static dielectric constant tensor:
#      x y z
#    x 1.647890 0.000000 0.000000 
#    y 0.000000 1.661900 0.000000 
#    z 0.000000 0.000000 1.649730 
# 
# From -- ./inp_files/34238.got.cif
#   From: 2010.05.17/outbox.cif.g08.bks.cpg/sg53_18_cif.got.tgz:34238.got - 2010.06.03 12:45:16.
