data_PCOD9418205
_publ_section_title
;
Structure prediction by ZEFSAII (Michael W. Deem and Ramdas Pophale) SiO2 
 PCOD9418205
Probable space group: P M N A
;
_chemical_formula_sum "Si O2"
_cell_formula_units_Z 54
_cell_length_a 28.447434
_cell_length_b 5.037142
_cell_length_c 15.743410
_cell_angle_alpha 90.000000
_cell_angle_beta 90.000000
_cell_angle_gamma 90.000000
_cell_volume 2255.932486
_symmetry_space_group_name_H-M "P M N A"
_symmetry_group_IT_number 53
_symmetry_cell_setting 'orthorhombic'
loop_
_space_group_symop_operation_xyz
x,y,z
1/2-x,-y,1/2+z
x,-y,-z
1/2-x,y,1/2-z
-x,-y,-z
1/2+x,y,1/2-z
-x,y,z
1/2+x,-y,1/2+z
loop_
_atom_site_type_symbol
_atom_site_label
_atom_site_fract_x
_atom_site_fract_y
_atom_site_fract_z
Si Si1 0.716494 0.670930 0.585383
Si Si2 0.394935 0.038511 0.672178
Si Si3 0.500000 0.000000 0.000000
Si Si4 0.363243 0.000000 0.500000
Si Si5 0.316808 0.345599 0.089511
Si Si6 0.580778 0.704094 0.920030
Si Si7 0.445556 0.470042 0.264159
Si Si8 0.197836 0.288920 0.754745
O O1 0.722327 0.500000 0.500000
O O2 0.671910 0.840944 0.560705
O O3 0.767392 0.810268 0.594908
O O4 0.704927 0.497005 0.667585
O O5 0.393032 0.133334 0.573556
O O6 0.433190 0.230625 0.712907
O O7 0.345285 0.100923 0.719354
O O8 0.412096 0.737840 0.685619
O O9 0.541577 0.076470 0.067301
O O10 0.365991 0.191899 0.090283
O O11 0.314165 0.551938 0.168363
O O12 0.318251 0.500000 0.000000
O O13 0.567524 0.557284 0.834316
O O14 0.576768 0.500000 0.000000
O O15 0.500000 0.408870 0.278898
O O16 0.250000 0.160354 0.750000
#
# Coordination Sequence:
#
# PCOD9418205 Si02
#       8
#     8   8   2   4   8   8   8   8
#     4  10  20  40  68 101 145 194 245 291 362 445
#     4  12  27  49  76 111 147 197 245 315 379 451
#     4  12  26  38  68 106 132 202 250 308 362 444
#     4  12  26  43  73 108 144 197 243 304 380 460
#     4   9  20  39  66  99 147 193 240 302 359 436
#     4  11  25  43  68 100 146 192 245 303 367 438
#     4  12  28  50  78 109 147 195 255 316 382 441
#     4  10  20  41  72 106 149 195 248 301 370 452
#
# _framework density 23.936888
#
# number of rings (size 3 to 8) (size 9 to 14) (size 15 to 20)
#    0.000    1.185    3.704    1.556    2.074    0.593 
#    2.667    2.963    0.000    0.000    0.000    0.000 
#    0.000    0.000    0.000    0.000    0.000    0.000 
#
# Total GULP energy -301484.202240 kJ/mol
# GULP energy per Si atom -5583.040782 kJ/mol
# Density = 2.388241 g / cm^3
# Si number density = 23.936888 Si / 1000 Ang^3
#
#
#
# Elastic Constant Matrix: (Units=GPa)
#
#
# Indices 1 2 3 4 5 6 
#
# 1 145.9517 2.6157 28.0887 0.0000 0.0000 0.0000
# 2 2.6157 26.9726 11.6394 0.0000 0.0000 0.0000
# 3 28.0887 11.6394 158.4276 0.0000 0.0000 0.0000
# 4 0.0000 0.0000 0.0000 22.7737 0.0000 0.0000
# 5 0.0000 0.0000 0.0000 0.0000 26.5282 0.0000
# 6 0.0000 0.0000 0.0000 0.0000 0.0000 -33.1799
#
#
#
# Elastic Compliance Matrix: (Units=1/GPa)
#
#
# Indices 1 2 3 4 5 6 
#
# 1 0.007094 -0.000150 -0.001247 0.000000 0.000000 0.000000
# 2 -0.000150 0.038292 -0.002787 0.000000 0.000000 0.000000
# 3 -0.001247 -0.002787 0.006738 0.000000 0.000000 0.000000
# 4 0.000000 0.000000 0.000000 0.043910 0.000000 0.000000
# 5 0.000000 0.000000 0.000000 0.000000 0.037696 0.000000
# 6 0.000000 0.000000 0.000000 0.000000 0.000000 -0.030139
#
#
# Mechanical properties :
#
#
# Convention : Reuss Voigt Hill
#
# Bulk Modulus (GPa) = 22.85349 46.22662 34.54006
# Shear Modulus (GPa) = 39.51213 22.49161 31.00187
#
# Velocity S-wave (km/s) = 4.06726 3.06865 3.60272
# Velocity P-wave (km/s) = 5.62361 5.64883 5.63623
#
# Compressibility (1/GPa) = 0.04375699
#
# Stress axis : x y z
#
# Youngs Moduli (GPa) = 140.96001 26.11531 148.41616
#
# Poissons Ratio (x) = 0.00392 0.18504
# Poissons Ratio (y) = 0.02114 0.41358
# Poissons Ratio (z) = 0.17574 0.07277
#
# Static dielectric constant tensor:
#      x y z
#    x 2.075340 0.000000 0.000000 
#    y 0.000000 1.968160 0.000000 
#    z 0.000000 0.000000 2.403600 
# 
# From -- ./inp_files/25165.got.cif
#   From: 2010.05.17/outbox.cif.g08.bks.cpg/sg53_13_cif.got.tgz:25165.got - 2010.06.03 12:45:16.
