data_PCOD9418186
_publ_section_title
;
Structure prediction by ZEFSAII (Michael W. Deem and Ramdas Pophale) SiO2 
 PCOD9418186
Probable space group: P M N A
;
_chemical_formula_sum "Si O2"
_cell_formula_units_Z 64
_cell_length_a 8.848290
_cell_length_b 15.039130
_cell_length_c 23.913603
_cell_angle_alpha 90.000000
_cell_angle_beta 90.000000
_cell_angle_gamma 90.000000
_cell_volume 3182.197107
_symmetry_space_group_name_H-M "P M N A"
_symmetry_group_IT_number 53
_symmetry_cell_setting 'orthorhombic'
loop_
_space_group_symop_operation_xyz
x,y,z
1/2-x,-y,1/2+z
x,-y,-z
1/2-x,y,1/2-z
-x,-y,-z
1/2+x,y,1/2-z
-x,y,z
1/2+x,-y,1/2+z
loop_
_atom_site_type_symbol
_atom_site_label
_atom_site_fract_x
_atom_site_fract_y
_atom_site_fract_z
Si Si1 0.320816 0.148014 0.596060
Si Si2 0.680594 0.677272 0.127213
Si Si3 0.329891 0.103774 0.017642
Si Si4 0.180054 0.348083 0.110815
Si Si5 0.678591 0.203532 0.191090
Si Si6 0.320138 0.605552 0.003818
Si Si7 0.681630 0.501480 0.810727
Si Si8 0.822144 0.053493 0.129580
O O1 0.500000 0.151922 0.586440
O O2 0.265480 0.229698 0.633424
O O3 0.235545 0.152954 0.536382
O O4 0.287476 0.050970 0.622072
O O5 0.500000 0.692061 0.128429
O O6 0.716390 0.599926 0.171290
O O7 0.719674 0.639650 0.065465
O O8 0.500000 0.134675 0.031609
O O9 0.222118 0.100955 0.071067
O O10 0.339412 0.000000 0.000000
O O11 0.248807 0.265301 0.143917
O O12 0.232411 0.348382 0.046632
O O13 0.248482 0.434082 0.142455
O O14 0.000000 0.348431 0.114708
O O15 0.750000 0.229753 0.250000
O O16 0.500000 0.214266 0.192155
O O17 0.725518 0.102915 0.176320
O O18 0.500000 0.618870 0.995716
O O19 0.290922 0.500000 0.000000
O O20 0.750000 0.521688 0.750000
O O21 0.500000 0.512766 0.810401
O O22 0.000000 0.064068 0.140377
#
# Coordination Sequence:
#
# PCOD9418186 Si02
#       8
#     8   8   8   8   8   8   8   8
#     4  10  21  36  58  87 124 161 200 253 306 361
#     4  10  22  39  62  89 126 169 211 255 308 372
#     4   9  17  31  53  81 113 152 196 240 293 356
#     4  12  25  41  64  95 128 164 204 253 309 374
#     4  12  26  45  67  91 122 161 207 261 314 375
#     4  10  20  40  64  90 127 169 209 254 312 373
#     4  11  23  43  66  91 121 161 207 257 307 361
#     4  10  21  39  60  86 119 157 202 252 307 361
#
# _framework density 20.111889999999999
#
# number of rings (size 3 to 8) (size 9 to 14) (size 15 to 20)
#    0.000    1.500    1.250    4.125    1.750    4.750 
#    0.000    0.625    0.000    1.500    0.000    0.000 
#    0.000    0.000    0.000    0.000    0.000    0.000 
#
# Total GULP energy -357908.096310 kJ/mol
# GULP energy per Si atom -5592.314005 kJ/mol
# Density = 2.006611 g / cm^3
# Si number density = 20.111890 Si / 1000 Ang^3
#
#
#
# Elastic Constant Matrix: (Units=GPa)
#
#
# Indices 1 2 3 4 5 6 
#
# 1 82.9483 27.8586 24.5319 0.0000 0.0000 0.0000
# 2 27.8586 74.8264 2.3930 0.0000 0.0000 0.0000
# 3 24.5319 2.3930 55.8982 0.0000 0.0000 0.0000
# 4 0.0000 0.0000 0.0000 17.4599 0.0000 0.0000
# 5 0.0000 0.0000 0.0000 0.0000 28.8148 0.0000
# 6 0.0000 0.0000 0.0000 0.0000 0.0000 50.6089
#
#
#
# Elastic Compliance Matrix: (Units=1/GPa)
#
#
# Indices 1 2 3 4 5 6 
#
# 1 0.015984 -0.005734 -0.006769 0.000000 0.000000 0.000000
# 2 -0.005734 0.015440 0.001856 0.000000 0.000000 0.000000
# 3 -0.006769 0.001856 0.020781 0.000000 0.000000 0.000000
# 4 0.000000 0.000000 0.000000 0.057274 0.000000 0.000000
# 5 0.000000 0.000000 0.000000 0.000000 0.034704 0.000000
# 6 0.000000 0.000000 0.000000 0.000000 0.000000 0.019759
#
#
# Mechanical properties :
#
#
# Convention : Reuss Voigt Hill
#
# Bulk Modulus (GPa) = 32.35341 35.91556 34.13448
# Shear Modulus (GPa) = 25.57010 29.96936 27.76973
#
# Velocity S-wave (km/s) = 3.56953 3.86441 3.71989
# Velocity P-wave (km/s) = 5.75416 6.14884 5.95477
#
# Compressibility (1/GPa) = 0.03090865
#
# Stress axis : x y z
#
# Youngs Moduli (GPa) = 62.56408 64.76735 48.12083
#
# Poissons Ratio (x) = 0.37140 0.32574
# Poissons Ratio (y) = 0.35877 -0.08930
# Poissons Ratio (z) = 0.42351 -0.12019
#
# Static dielectric constant tensor:
#      x y z
#    x 1.668980 0.000000 0.000000 
#    y 0.000000 1.745240 0.000000 
#    z 0.000000 0.000000 1.686350 
# 
# From -- ./inp_files/34315.got.cif
#   From: 2010.05.17/outbox.cif.g08.bks.cpg/sg53_18_cif.got.tgz:34315.got - 2010.06.03 12:45:16.
