data_PCOD9418580
_publ_section_title
;
Structure prediction by ZEFSAII (Michael W. Deem and Ramdas Pophale) SiO2 
 PCOD9418580
Probable space group: P M N A
;
_chemical_formula_sum "Si O2"
_cell_formula_units_Z 40
_cell_length_a 9.649123
_cell_length_b 24.921502
_cell_length_c 8.796829
_cell_angle_alpha 90.000000
_cell_angle_beta 90.000000
_cell_angle_gamma 90.000000
_cell_volume 2115.379083
_symmetry_space_group_name_H-M "P M N A"
_symmetry_group_IT_number 53
_symmetry_cell_setting 'orthorhombic'
loop_
_space_group_symop_operation_xyz
x,y,z
1/2-x,-y,1/2+z
x,-y,-z
1/2-x,y,1/2-z
-x,-y,-z
1/2+x,y,1/2-z
-x,y,z
1/2+x,-y,1/2+z
loop_
_atom_site_type_symbol
_atom_site_label
_atom_site_fract_x
_atom_site_fract_y
_atom_site_fract_z
Si Si1 0.000000 0.060504 0.566009
Si Si2 0.000000 0.058907 0.930330
Si Si3 0.833413 0.344007 0.091043
Si Si4 0.334053 0.445076 0.092500
Si Si5 0.335430 0.234061 0.594185
Si Si6 0.752791 0.126618 0.068129
O O1 0.000000 0.057066 0.748263
O O2 0.124665 0.095847 0.503523
O O3 0.000000 0.000000 0.500000
O O4 0.125858 0.091896 0.997002
O O5 0.000000 0.000000 0.000000
O O6 0.750000 0.334860 0.250000
O O7 0.750209 0.394831 0.020874
O O8 0.000000 0.354219 0.112777
O O9 0.821834 0.291275 0.988587
O O10 0.250000 0.452666 0.250000
O O11 0.500000 0.433855 0.111461
O O12 0.322964 0.500000 0.000000
O O13 0.250000 0.233716 0.750000
O O14 0.500000 0.223855 0.619528
O O15 0.273577 0.187270 0.488353
O O16 0.750000 0.124759 0.250000
#
# Coordination Sequence:
#
# PCOD9418580 Si02
#       6
#     4   4   8   8   8   8
#     4  12  26  44  68  98 128 170 209 260 323 372
#     4  12  24  44  68  94 132 166 211 262 311 384
#     4  10  21  39  62  90 124 163 211 260 315 378
#     4  10  21  37  59  89 124 165 213 263 318 380
#     4  11  25  43  64  93 127 164 208 261 317 378
#     4  12  25  44  66  95 128 166 214 260 317 382
#
# _framework density 18.909141999999999
#
# number of rings (size 3 to 8) (size 9 to 14) (size 15 to 20)
#    0.000    1.000    1.000    7.200    1.400    4.000 
#    0.000    4.000    0.000    0.000    0.000    0.000 
#    0.000    0.000    0.000    0.000    0.000    0.000 
#
# Total GULP energy -223269.191505 kJ/mol
# GULP energy per Si atom -5581.729788 kJ/mol
# Density = 1.886610 g / cm^3
# Si number density = 18.909142 Si / 1000 Ang^3
#
#
#
# Elastic Constant Matrix: (Units=GPa)
#
#
# Indices 1 2 3 4 5 6 
#
# 1 198.6073 88.8766 74.3756 0.0000 0.0000 0.0000
# 2 88.8766 182.2003 84.5210 0.0000 0.0000 0.0000
# 3 74.3756 84.5210 162.4894 0.0000 0.0000 0.0000
# 4 0.0000 0.0000 0.0000 43.8326 0.0000 0.0000
# 5 0.0000 0.0000 0.0000 0.0000 24.9905 0.0000
# 6 0.0000 0.0000 0.0000 0.0000 0.0000 37.5821
#
#
#
# Elastic Compliance Matrix: (Units=1/GPa)
#
#
# Indices 1 2 3 4 5 6 
#
# 1 0.006833 -0.002481 -0.001837 0.000000 0.000000 0.000000
# 2 -0.002481 0.008135 -0.003096 0.000000 0.000000 0.000000
# 3 -0.001837 -0.003096 0.008606 0.000000 0.000000 0.000000
# 4 0.000000 0.000000 0.000000 0.022814 0.000000 0.000000
# 5 0.000000 0.000000 0.000000 0.000000 0.040015 0.000000
# 6 0.000000 0.000000 0.000000 0.000000 0.000000 0.026608
#
#
# Mechanical properties :
#
#
# Convention : Reuss Voigt Hill
#
# Bulk Modulus (GPa) = 114.34410 115.42705 114.88557
# Shear Modulus (GPa) = 38.23952 40.98261 39.61107
#
# Velocity S-wave (km/s) = 4.50185 4.66052 4.58188
# Velocity P-wave (km/s) = 9.36076 9.49401 9.42762
#
# Compressibility (1/GPa) = 0.00874553
#
# Stress axis : x y z
#
# Youngs Moduli (GPa) = 146.34152 122.92872 116.20415
#
# Poissons Ratio (x) = 0.30498 0.21350
# Poissons Ratio (y) = 0.36307 0.35975
# Poissons Ratio (z) = 0.26887 0.38056
#
# Static dielectric constant tensor:
#      x y z
#    x 1.619720 0.000000 0.000000 
#    y 0.000000 1.695670 0.000000 
#    z 0.000000 0.000000 1.623130 
# 
# From -- ./inp_files/6363.got.cif
#   From: 2010.05.17/outbox.cif.g08.bks.cpg/sg53_4_cif.got.tgz:6363.got - 2010.06.03 12:45:16.
