data_PCOD9418269
_publ_section_title
;
Structure prediction by ZEFSAII (Michael W. Deem and Ramdas Pophale) SiO2 
 PCOD9418269
Probable space group: P M N A
;
_chemical_formula_sum "Si O2"
_cell_formula_units_Z 56
_cell_length_a 14.922102
_cell_length_b 18.556789
_cell_length_c 10.529332
_cell_angle_alpha 90.000000
_cell_angle_beta 90.000000
_cell_angle_gamma 90.000000
_cell_volume 2915.638347
_symmetry_space_group_name_H-M "P M N A"
_symmetry_group_IT_number 53
_symmetry_cell_setting 'orthorhombic'
loop_
_space_group_symop_operation_xyz
x,y,z
1/2-x,-y,1/2+z
x,-y,-z
1/2-x,y,1/2-z
-x,-y,-z
1/2+x,y,1/2-z
-x,y,z
1/2+x,-y,1/2+z
loop_
_atom_site_type_symbol
_atom_site_label
_atom_site_fract_x
_atom_site_fract_y
_atom_site_fract_z
Si Si1 0.279904 0.841153 0.516875
Si Si2 0.402240 0.913086 0.998821
Si Si3 0.393573 0.439975 0.395290
Si Si4 0.893483 0.437067 0.399724
Si Si5 0.894759 0.901843 0.213642
Si Si6 0.747784 0.683100 0.600281
Si Si7 0.895887 0.952306 0.870429
O O1 0.188624 0.881796 0.554830
O O2 0.326183 0.862646 0.381199
O O3 0.262821 0.756876 0.525205
O O4 0.348985 0.876541 0.616194
O O5 0.500000 0.893827 0.943247
O O6 0.398520 0.878976 0.141006
O O7 0.399430 0.000000 0.000000
O O8 0.369864 0.500000 0.500000
O O9 0.500000 0.427272 0.404634
O O10 0.374399 0.459867 0.247247
O O11 0.336877 0.368760 0.422061
O O12 0.871543 0.500000 0.500000
O O13 0.834824 0.366119 0.426726
O O14 0.000000 0.422696 0.408773
O O15 0.000000 0.898816 0.166437
O O16 0.866161 0.986117 0.226061
O O17 0.750000 0.701317 0.750000
O O18 0.000000 0.940049 0.851726
O O19 0.883257 0.000000 0.000000
#
# Coordination Sequence:
#
# PCOD9418269 Si02
#       7
#     8   8   8   8   8   8   8
#     4  11  20  31  50  74 103 137 170 207 258 320
#     4  10  21  35  50  69  96 135 181 225 269 314
#     4   9  18  35  59  85 111 139 176 222 267 313
#     4   9  18  36  61  83 106 141 182 221 262 314
#     4   9  18  34  53  72  96 129 176 230 272 306
#     4  10  22  36  51  78 112 141 169 208 263 325
#     4   8  15  29  50  73  92 117 163 219 264 302
#
# _framework density 19.206771
#
# number of rings (size 3 to 8) (size 9 to 14) (size 15 to 20)
#    0.000    2.571    0.000    3.429    0.000    2.857 
#    0.000    2.857    0.000    3.429    0.000    0.000 
#    0.000    0.000    0.000    0.000    0.000    0.000 
#
# Total GULP energy -311925.221805 kJ/mol
# GULP energy per Si atom -5570.093247 kJ/mol
# Density = 1.916306 g / cm^3
# Si number density = 19.206771 Si / 1000 Ang^3
#
#
#
# Elastic Constant Matrix: (Units=GPa)
#
#
# Indices 1 2 3 4 5 6 
#
# 1 97.9897 59.8359 27.7232 0.0000 0.0000 0.0000
# 2 59.8359 116.7916 40.0481 0.0000 0.0000 0.0000
# 3 27.7232 40.0481 62.8311 0.0000 0.0000 0.0000
# 4 0.0000 0.0000 0.0000 16.3185 0.0000 0.0000
# 5 0.0000 0.0000 0.0000 0.0000 -6.6034 0.0000
# 6 0.0000 0.0000 0.0000 0.0000 0.0000 23.3443
#
#
#
# Elastic Compliance Matrix: (Units=1/GPa)
#
#
# Indices 1 2 3 4 5 6 
#
# 1 0.015088 -0.006971 -0.002214 0.000000 0.000000 0.000000
# 2 -0.006971 0.014178 -0.005961 0.000000 0.000000 0.000000
# 3 -0.002214 -0.005961 0.020692 0.000000 0.000000 0.000000
# 4 0.000000 0.000000 0.000000 0.061280 0.000000 0.000000
# 5 0.000000 0.000000 0.000000 0.000000 -0.151437 0.000000
# 6 0.000000 0.000000 0.000000 0.000000 0.000000 0.042837
#
#
# Mechanical properties :
#
#
# Convention : Reuss Voigt Hill
#
# Bulk Modulus (GPa) = 50.84945 59.20298 55.02621
# Shear Modulus (GPa) = 126.62603 16.61221 71.61912
#
# Velocity S-wave (km/s) = 8.12840 2.94413 6.11305
# Velocity P-wave (km/s) = 10.70639 6.51522 8.86214
#
# Compressibility (1/GPa) = 0.01966590
#
# Stress axis : x y z
#
# Youngs Moduli (GPa) = 66.27653 70.53325 48.32739
#
# Poissons Ratio (x) = 0.49168 0.10701
# Poissons Ratio (y) = 0.46201 0.28808
# Poissons Ratio (z) = 0.14675 0.42045
#
# Static dielectric constant tensor:
#      x y z
#    x 1.715010 0.000000 0.000000 
#    y 0.000000 1.723910 0.000000 
#    z 0.000000 0.000000 1.803490 
# 
# From -- ./inp_files/16080.got.cif
#   From: 2010.05.17/outbox.cif.g08.bks.cpg/sg53_9_cif.got.tgz:16080.got - 2010.06.03 12:45:16.
