data_PCOD9418057
_publ_section_title
;
Structure prediction by ZEFSAII (Michael W. Deem and Ramdas Pophale) SiO2 
 PCOD9418057
Probable space group: P M N A
;
_chemical_formula_sum "Si O2"
_cell_formula_units_Z 40
_cell_length_a 18.396220
_cell_length_b 11.582995
_cell_length_c 9.820577
_cell_angle_alpha 90.000000
_cell_angle_beta 90.000000
_cell_angle_gamma 90.000000
_cell_volume 2092.601193
_symmetry_space_group_name_H-M "P M N A"
_symmetry_group_IT_number 53
_symmetry_cell_setting 'orthorhombic'
loop_
_space_group_symop_operation_xyz
x,y,z
1/2-x,-y,1/2+z
x,-y,-z
1/2-x,y,1/2-z
-x,-y,-z
1/2+x,y,1/2-z
-x,y,z
1/2+x,-y,1/2+z
loop_
_atom_site_type_symbol
_atom_site_label
_atom_site_fract_x
_atom_site_fract_y
_atom_site_fract_z
Si Si1 0.418268 0.636187 0.984775
Si Si2 0.835294 0.749872 0.283921
Si Si3 0.912059 0.368077 0.965720
Si Si4 0.824484 0.007977 0.334867
Si Si5 0.415754 0.778918 0.720808
O O1 0.500000 0.670211 0.033519
O O2 0.356521 0.699001 0.070190
O O3 0.411760 0.500000 0.000000
O O4 0.413748 0.674992 0.829283
O O5 0.750000 0.742929 0.250000
O O6 0.879416 0.675376 0.175110
O O7 0.856350 0.884707 0.287099
O O8 0.000000 0.366298 0.962169
O O9 0.890448 0.500000 0.000000
O O10 0.887491 0.275897 0.080555
O O11 0.750000 0.021444 0.250000
O O12 0.814547 0.000000 0.500000
O O13 0.873913 0.114426 0.287645
O O14 0.500000 0.812352 0.701078
#
# Coordination Sequence:
#
# PCOD9418057 Si02
#       5
#     8   8   8   8   8
#     4  10  20  38  63  89 120 159 202 250 308 363
#     4  11  24  39  60  91 123 161 207 250 304 362
#     4  10  22  42  65  91 126 164 202 251 308 367
#     4  11  25  43  64  88 125 167 205 253 310 368
#     4  10  22  38  63  93 120 158 206 257 305 355
#
# _framework density 19.114965999999999
#
# number of rings (size 3 to 8) (size 9 to 14) (size 15 to 20)
#    0.000    1.600    2.000    1.800    5.600    6.000 
#    0.000    4.000    0.000    0.000    0.000    0.000 
#    0.000    0.000    0.000    0.000    0.000    0.000 
#
# Total GULP energy -223257.715060 kJ/mol
# GULP energy per Si atom -5581.442877 kJ/mol
# Density = 1.907146 g / cm^3
# Si number density = 19.114966 Si / 1000 Ang^3
#
#
#
# Elastic Constant Matrix: (Units=GPa)
#
#
# Indices 1 2 3 4 5 6 
#
# 1 12.7591 5.4997 -4.0690 0.0000 0.0000 0.0000
# 2 5.4997 72.1130 -8.6311 0.0000 0.0000 0.0000
# 3 -4.0690 -8.6311 56.6207 0.0000 0.0000 0.0000
# 4 0.0000 0.0000 0.0000 33.9144 0.0000 0.0000
# 5 0.0000 0.0000 0.0000 0.0000 31.0185 0.0000
# 6 0.0000 0.0000 0.0000 0.0000 0.0000 22.5982
#
#
#
# Elastic Compliance Matrix: (Units=1/GPa)
#
#
# Indices 1 2 3 4 5 6 
#
# 1 0.082438 -0.005682 0.005058 0.000000 0.000000 0.000000
# 2 -0.005682 0.014516 0.001805 0.000000 0.000000 0.000000
# 3 0.005058 0.001805 0.018300 0.000000 0.000000 0.000000
# 4 0.000000 0.000000 0.000000 0.029486 0.000000 0.000000
# 5 0.000000 0.000000 0.000000 0.000000 0.032239 0.000000
# 6 0.000000 0.000000 0.000000 0.000000 0.000000 0.044251
#
#
# Mechanical properties :
#
#
# Convention : Reuss Voigt Hill
#
# Bulk Modulus (GPa) = 8.50222 14.12133 11.31177
# Shear Modulus (GPa) = 19.37430 27.41909 23.39670
#
# Velocity S-wave (km/s) = 3.18711 3.79150 3.50236
# Velocity P-wave (km/s) = 4.24278 5.15469 4.72081
#
# Compressibility (1/GPa) = 0.11761636
#
# Stress axis : x y z
#
# Youngs Moduli (GPa) = 12.13034 68.88751 54.64490
#
# Poissons Ratio (x) = 0.39140 -0.27641
# Poissons Ratio (y) = 0.06892 -0.09861
# Poissons Ratio (z) = -0.06136 -0.12431
#
# Static dielectric constant tensor:
#      x y z
#    x 1.663210 0.000000 0.000000 
#    y 0.000000 1.651870 0.000000 
#    z 0.000000 0.000000 1.647120 
# 
# From -- ./inp_files/9632.got.cif
#   From: 2010.05.17/outbox.cif.g08.bks.cpg/sg53_5_cif.got.tgz:9632.got - 2010.06.03 12:45:16.
