data_PCOD9418948
_publ_section_title
;
Structure prediction by ZEFSAII (Michael W. Deem and Ramdas Pophale) SiO2 
 PCOD9418948
Probable space group: P M N A
;
_chemical_formula_sum "Si O2"
_cell_formula_units_Z 40
_cell_length_a 8.572900
_cell_length_b 12.680851
_cell_length_c 19.237997
_cell_angle_alpha 90.000000
_cell_angle_beta 90.000000
_cell_angle_gamma 90.000000
_cell_volume 2091.394734
_symmetry_space_group_name_H-M "P M N A"
_symmetry_group_IT_number 53
_symmetry_cell_setting 'orthorhombic'
loop_
_space_group_symop_operation_xyz
x,y,z
1/2-x,-y,1/2+z
x,-y,-z
1/2-x,y,1/2-z
-x,-y,-z
1/2+x,y,1/2-z
-x,y,z
1/2+x,-y,1/2+z
loop_
_atom_site_type_symbol
_atom_site_label
_atom_site_fract_x
_atom_site_fract_y
_atom_site_fract_z
Si Si1 0.811122 0.303059 0.055112
Si Si2 0.314170 0.675009 0.097368
Si Si3 0.312696 0.882204 0.327737
Si Si4 0.312810 0.530189 0.673179
Si Si5 0.189786 0.938554 0.930471
O O1 0.766242 0.379884 0.117890
O O2 0.759421 0.182592 0.068801
O O3 0.000000 0.304065 0.049681
O O4 0.743544 0.339887 0.981514
O O5 0.500000 0.677136 0.099662
O O6 0.247780 0.785027 0.126310
O O7 0.251536 0.580598 0.145067
O O8 0.250000 0.873787 0.250000
O O9 0.500000 0.878242 0.327065
O O10 0.262692 0.991157 0.364728
O O11 0.250000 0.551869 0.750000
O O12 0.500000 0.525354 0.675073
O O13 0.000000 0.937149 0.931495
O O14 0.240532 0.000000 0.000000
#
# Coordination Sequence:
#
# PCOD9418948 Si02
#       5
#     8   8   8   8   8
#     4  10  21  40  65  91 118 158 203 243 297 360
#     4  12  24  39  61  89 121 156 201 252 302 352
#     4  11  22  38  61  89 123 158 199 246 300 358
#     4  11  24  41  62  87 121 159 200 246 299 359
#     4   9  17  35  63  88 115 155 197 238 286 351
#
# _framework density 19.125993000000001
#
# number of rings (size 3 to 8) (size 9 to 14) (size 15 to 20)
#    0.000    1.400    2.000    4.200    0.000    4.800 
#    0.000    3.000    0.000    0.000    0.000    0.000 
#    0.000    0.000    0.000    0.000    0.000    0.000 
#
# Total GULP energy -223629.488008 kJ/mol
# GULP energy per Si atom -5590.737200 kJ/mol
# Density = 1.908246 g / cm^3
# Si number density = 19.125993 Si / 1000 Ang^3
#
#
#
# Elastic Constant Matrix: (Units=GPa)
#
#
# Indices 1 2 3 4 5 6 
#
# 1 50.0391 10.6778 32.6736 0.0000 0.0000 0.0000
# 2 10.6778 24.8496 11.8404 0.0000 0.0000 0.0000
# 3 32.6736 11.8404 141.1377 0.0000 0.0000 0.0000
# 4 0.0000 0.0000 0.0000 35.5352 0.0000 0.0000
# 5 0.0000 0.0000 0.0000 0.0000 26.5214 0.0000
# 6 0.0000 0.0000 0.0000 0.0000 0.0000 11.3470
#
#
#
# Elastic Compliance Matrix: (Units=1/GPa)
#
#
# Indices 1 2 3 4 5 6 
#
# 1 0.025104 -0.008352 -0.005111 0.000000 0.000000 0.000000
# 2 -0.008352 0.044696 -0.001816 0.000000 0.000000 0.000000
# 3 -0.005111 -0.001816 0.008421 0.000000 0.000000 0.000000
# 4 0.000000 0.000000 0.000000 0.028141 0.000000 0.000000
# 5 0.000000 0.000000 0.000000 0.000000 0.037705 0.000000
# 6 0.000000 0.000000 0.000000 0.000000 0.000000 0.088129
#
#
# Mechanical properties :
#
#
# Convention : Reuss Voigt Hill
#
# Bulk Modulus (GPa) = 20.98062 36.26779 28.62421
# Shear Modulus (GPa) = 17.94418 25.40303 21.67361
#
# Velocity S-wave (km/s) = 3.06634 3.64839 3.36996
# Velocity P-wave (km/s) = 4.85079 6.06230 5.49006
#
# Compressibility (1/GPa) = 0.04766302
#
# Stress axis : x y z
#
# Youngs Moduli (GPa) = 39.83460 22.37321 118.75305
#
# Poissons Ratio (x) = 0.18686 0.60694
# Poissons Ratio (y) = 0.33269 0.21568
# Poissons Ratio (z) = 0.20359 0.04063
#
# Static dielectric constant tensor:
#      x y z
#    x 1.650040 0.000000 0.000000 
#    y 0.000000 1.651580 0.000000 
#    z 0.000000 0.000000 1.635000 
# 
# From -- ./inp_files/25818.got.cif
#   From: 2010.05.17/outbox.cif.g08.bks.cpg/sg53_13_cif.got.tgz:25818.got - 2010.06.03 12:45:16.
