data_PCOD9418422
_publ_section_title
;
Structure prediction by ZEFSAII (Michael W. Deem and Ramdas Pophale) SiO2 
 PCOD9418422
Probable space group: P M N A
;
_chemical_formula_sum "Si O2"
_cell_formula_units_Z 44
_cell_length_a 13.316708
_cell_length_b 7.204117
_cell_length_c 16.400723
_cell_angle_alpha 90.000000
_cell_angle_beta 90.000000
_cell_angle_gamma 90.000000
_cell_volume 1573.405370
_symmetry_space_group_name_H-M "P M N A"
_symmetry_group_IT_number 53
_symmetry_cell_setting 'orthorhombic'
loop_
_space_group_symop_operation_xyz
x,y,z
1/2-x,-y,1/2+z
x,-y,-z
1/2-x,y,1/2-z
-x,-y,-z
1/2+x,y,1/2-z
-x,y,z
1/2+x,-y,1/2+z
loop_
_atom_site_type_symbol
_atom_site_label
_atom_site_fract_x
_atom_site_fract_y
_atom_site_fract_z
Si Si1 0.615492 0.305089 0.952773
Si Si2 0.116985 0.490954 0.093927
Si Si3 0.229728 0.000000 0.000000
Si Si4 0.382656 0.566668 0.227191
Si Si5 0.657664 0.931183 0.645846
Si Si6 0.611046 0.129937 0.182560
O O1 0.500000 0.240823 0.957495
O O2 0.641125 0.326162 0.856911
O O3 0.692051 0.170157 0.997021
O O4 0.617535 0.500000 0.000000
O O5 0.160697 0.579801 0.180112
O O6 0.123874 0.272111 0.117345
O O7 0.000000 0.544451 0.089079
O O8 0.157381 0.500000 0.000000
O O9 0.149246 0.938232 0.069392
O O10 0.500000 0.603652 0.238117
O O11 0.375310 0.348545 0.202149
O O12 0.779645 0.927045 0.651101
O O13 0.609197 0.975174 0.730642
O O14 0.500000 0.109029 0.144157
#
# Coordination Sequence:
#
# PCOD9418422 Si02
#       6
#     8   8   4   8   8   8
#     4  10  21  38  62  93 131 177 228 284 346 411
#     4   9  18  36  63  93 128 170 219 279 343 408
#     4  12  25  38  57  94 140 178 220 274 344 428
#     4   8  15  31  57  87 117 160 217 266 321 394
#     4  10  21  36  57  88 125 165 212 270 333 400
#     4   9  18  37  64  89 118 163 217 271 332 401
#
# _framework density 27.964824
#
# number of rings (size 3 to 8) (size 9 to 14) (size 15 to 20)
#    0.000    2.545    0.000    3.000    0.000    5.091 
#    0.000    5.455    0.000    2.727    0.000    0.000 
#    0.000    1.455    0.000    0.000    0.000    0.000 
#
# Total GULP energy -245539.323184 kJ/mol
# GULP energy per Si atom -5580.439163 kJ/mol
# Density = 2.790117 g / cm^3
# Si number density = 27.964824 Si / 1000 Ang^3
#
#
#
# Elastic Constant Matrix: (Units=GPa)
#
#
# Indices 1 2 3 4 5 6 
#
# 1 128.2528 1.6482 14.9851 0.0000 0.0000 0.0000
# 2 1.6482 77.9555 34.8255 0.0000 0.0000 0.0000
# 3 14.9851 34.8255 203.0568 0.0000 0.0000 0.0000
# 4 0.0000 0.0000 0.0000 39.3173 0.0000 0.0000
# 5 0.0000 0.0000 0.0000 0.0000 -117.8033 0.0000
# 6 0.0000 0.0000 0.0000 0.0000 0.0000 -99.0717
#
#
#
# Elastic Compliance Matrix: (Units=1/GPa)
#
#
# Indices 1 2 3 4 5 6 
#
# 1 0.007866 0.000101 -0.000598 0.000000 0.000000 0.000000
# 2 0.000101 0.013894 -0.002390 0.000000 0.000000 0.000000
# 3 -0.000598 -0.002390 0.005379 0.000000 0.000000 0.000000
# 4 0.000000 0.000000 0.000000 0.025434 0.000000 0.000000
# 5 0.000000 0.000000 0.000000 0.000000 -0.008489 0.000000
# 6 0.000000 0.000000 0.000000 0.000000 0.000000 -0.010094
#
#
# Mechanical properties :
#
#
# Convention : Reuss Voigt Hill
#
# Bulk Modulus (GPa) = 46.80901 56.90919 51.85910
# Shear Modulus (GPa) = 106.64330 -11.65778 47.49276
#
# Velocity S-wave (km/s) = 6.18204 -2.04396 4.12552
# Velocity P-wave (km/s) = 8.22992 3.85021 6.42479
#
# Compressibility (1/GPa) = 0.02136341
#
# Stress axis : x y z
#
# Youngs Moduli (GPa) = 127.13517 71.97603 185.91550
#
# Poissons Ratio (x) = -0.00725 0.11113
# Poissons Ratio (y) = -0.01281 0.44439
# Poissons Ratio (z) = 0.07599 0.17204
#
# Static dielectric constant tensor:
#      x y z
#    x 2.168560 0.000000 0.000000 
#    y 0.000000 2.215870 0.000000 
#    z 0.000000 0.000000 2.585090 
# 
# From -- ./inp_files/28156.got.cif
#   From: 2010.05.17/outbox.cif.g08.bks.cpg/sg53_15_cif.got.tgz:28156.got - 2010.06.03 12:45:16.
