data_PCOD9418002
_publ_section_title
;
Structure prediction by ZEFSAII (Michael W. Deem and Ramdas Pophale) SiO2 
 PCOD9418002
Probable space group: P M N A
;
_chemical_formula_sum "Si O2"
_cell_formula_units_Z 64
_cell_length_a 8.880546
_cell_length_b 24.205156
_cell_length_c 15.228305
_cell_angle_alpha 90.000000
_cell_angle_beta 90.000000
_cell_angle_gamma 90.000000
_cell_volume 3273.400321
_symmetry_space_group_name_H-M "P M N A"
_symmetry_group_IT_number 53
_symmetry_cell_setting 'orthorhombic'
loop_
_space_group_symop_operation_xyz
x,y,z
1/2-x,-y,1/2+z
x,-y,-z
1/2-x,y,1/2-z
-x,-y,-z
1/2+x,y,1/2-z
-x,y,z
1/2+x,-y,1/2+z
loop_
_atom_site_type_symbol
_atom_site_label
_atom_site_fract_x
_atom_site_fract_y
_atom_site_fract_z
Si Si1 0.331532 0.106404 0.335786
Si Si2 0.679208 0.064681 0.519529
Si Si3 0.681591 0.463027 0.655313
Si Si4 0.817036 0.755497 0.037789
Si Si5 0.831346 0.761292 0.837421
Si Si6 0.180072 0.145326 0.652848
Si Si7 0.680823 0.409118 0.343962
Si Si8 0.817227 0.366182 0.972494
O O1 0.250000 0.084084 0.250000
O O2 0.500000 0.082980 0.337985
O O3 0.263201 0.094048 0.430504
O O4 0.341438 0.172355 0.326462
O O5 0.500000 0.076777 0.530715
O O6 0.764924 0.090260 0.601946
O O7 0.696248 0.000000 0.500000
O O8 0.750000 0.449978 0.750000
O O9 0.500000 0.460242 0.659566
O O10 0.720088 0.526749 0.634825
O O11 0.734129 0.418361 0.584332
O O12 0.742363 0.803251 0.095001
O O13 0.000000 0.763567 0.038494
O O14 0.767238 0.755694 0.935396
O O15 0.779829 0.693276 0.068149
O O16 0.750000 0.740075 0.750000
O O17 0.000000 0.737496 0.839532
O O18 0.250000 0.147598 0.750000
O O19 0.000000 0.147286 0.657381
O O20 0.750000 0.395131 0.250000
O O21 0.500000 0.406093 0.337120
O O22 0.732272 0.372752 0.426431
O O23 0.000000 0.368438 0.975137
#
# Coordination Sequence:
#
# PCOD9418002 Si02
#       8
#     8   8   8   8   8   8   8   8
#     4   9  17  31  52  80 111 143 176 215 266 321
#     4  10  21  40  65  92 123 155 189 235 287 335
#     4   9  17  31  51  75 104 140 184 232 283 341
#     4  10  20  38  59  81 112 148 194 243 292 344
#     4   9  17  30  51  76 105 139 175 220 271 330
#     4  12  26  44  66  88 117 157 200 242 288 342
#     4   9  17  31  51  77 109 145 185 227 280 343
#     4   9  18  32  54  79 105 144 187 233 284 341
#
# _framework density 19.551534
#
# number of rings (size 3 to 8) (size 9 to 14) (size 15 to 20)
#    0.000    2.375    1.250    1.500    0.000    4.250 
#    0.000    4.375    0.000    3.000    0.000    0.000 
#    0.000    0.000    0.000    0.000    0.000    0.000 
#
# Total GULP energy -356904.595828 kJ/mol
# GULP energy per Si atom -5576.634310 kJ/mol
# Density = 1.950703 g / cm^3
# Si number density = 19.551534 Si / 1000 Ang^3
#
#
#
# Elastic Constant Matrix: (Units=GPa)
#
#
# Indices 1 2 3 4 5 6 
#
# 1 45.4980 29.9306 44.9653 0.0000 0.0000 0.0000
# 2 29.9306 89.1757 50.6117 0.0000 0.0000 0.0000
# 3 44.9653 50.6117 135.1317 0.0000 0.0000 0.0000
# 4 0.0000 0.0000 0.0000 2.7277 0.0000 0.0000
# 5 0.0000 0.0000 0.0000 0.0000 32.4102 0.0000
# 6 0.0000 0.0000 0.0000 0.0000 0.0000 -13.7579
#
#
#
# Elastic Compliance Matrix: (Units=1/GPa)
#
#
# Indices 1 2 3 4 5 6 
#
# 1 0.035593 -0.006635 -0.009359 0.000000 0.000000 0.000000
# 2 -0.006635 0.015478 -0.003589 0.000000 0.000000 0.000000
# 3 -0.009359 -0.003589 0.011859 0.000000 0.000000 0.000000
# 4 0.000000 0.000000 0.000000 0.366613 0.000000 0.000000
# 5 0.000000 0.000000 0.000000 0.000000 0.030854 0.000000
# 6 0.000000 0.000000 0.000000 0.000000 0.000000 -0.072685
#
#
# Mechanical properties :
#
#
# Convention : Reuss Voigt Hill
#
# Bulk Modulus (GPa) = 42.08075 57.86896 49.97486
# Shear Modulus (GPa) = 11.49960 13.89584 12.69772
#
# Velocity S-wave (km/s) = 2.42785 2.66884 2.55119
# Velocity P-wave (km/s) = 5.42485 6.25775 5.85612
#
# Compressibility (1/GPa) = 0.02376383
#
# Stress axis : x y z
#
# Youngs Moduli (GPa) = 28.09579 64.60887 84.32724
#
# Poissons Ratio (x) = 0.42866 0.78918
# Poissons Ratio (y) = 0.18641 0.30267
# Poissons Ratio (z) = 0.26294 0.23190
#
# Static dielectric constant tensor:
#      x y z
#    x 1.683690 0.000000 0.000000 
#    y 0.000000 1.713370 0.000000 
#    z 0.000000 0.000000 1.684730 
# 
# From -- ./inp_files/20938.got.cif
#   From: 2010.05.17/outbox.cif.g08.bks.cpg/sg53_11_cif.got.tgz:20938.got - 2010.06.03 12:45:16.
