data_PCOD9418355
_publ_section_title
;
Structure prediction by ZEFSAII (Michael W. Deem and Ramdas Pophale) SiO2 
 PCOD9418355
Probable space group: P M N A
;
_chemical_formula_sum "Si O2"
_cell_formula_units_Z 48
_cell_length_a 8.400328
_cell_length_b 12.222641
_cell_length_c 26.277976
_cell_angle_alpha 90.000000
_cell_angle_beta 90.000000
_cell_angle_gamma 90.000000
_cell_volume 2698.069991
_symmetry_space_group_name_H-M "P M N A"
_symmetry_group_IT_number 53
_symmetry_cell_setting 'orthorhombic'
loop_
_space_group_symop_operation_xyz
x,y,z
1/2-x,-y,1/2+z
x,-y,-z
1/2-x,y,1/2-z
-x,-y,-z
1/2+x,y,1/2-z
-x,y,z
1/2+x,-y,1/2+z
loop_
_atom_site_type_symbol
_atom_site_label
_atom_site_fract_x
_atom_site_fract_y
_atom_site_fract_z
Si Si1 0.691715 0.989906 0.613368
Si Si2 0.309725 0.167879 0.807506
Si Si3 0.314606 0.766907 0.573610
Si Si4 0.184683 0.151890 0.529962
Si Si5 0.311941 0.472345 0.058142
Si Si6 0.186478 0.322114 0.891072
O O1 0.500000 0.996837 0.610762
O O2 0.751991 0.061947 0.660513
O O3 0.763604 0.048236 0.563312
O O4 0.736651 0.861981 0.612802
O O5 0.250000 0.162794 0.750000
O O6 0.500000 0.173067 0.809568
O O7 0.237708 0.272904 0.836967
O O8 0.500000 0.741886 0.581705
O O9 0.291121 0.823793 0.518750
O O10 0.220647 0.653745 0.571127
O O11 0.211642 0.253878 0.567861
O O12 0.000000 0.144186 0.515200
O O13 0.500000 0.494434 0.060492
O O14 0.223030 0.552294 0.097173
O O15 0.258662 0.500000 0.000000
O O16 0.000000 0.298832 0.899054
#
# Coordination Sequence:
#
# PCOD9418355 Si02
#       6
#     8   8   8   8   8   8
#     4  10  21  36  53  78 109 141 182 226 274 327
#     4  11  22  39  63  87 111 139 178 227 283 332
#     4  11  22  34  51  75 108 150 188 224 268 324
#     4  11  20  31  49  75 108 146 185 224 269 320
#     4  11  22  35  53  78 111 151 192 230 271 326
#     4  11  21  35  56  81 111 145 186 230 276 324
#
# _framework density 17.790495
#
# number of rings (size 3 to 8) (size 9 to 14) (size 15 to 20)
#    0.000    1.167    1.667    8.500    0.000    5.333 
#    0.000    0.000    0.000    1.000    0.000    2.333 
#    0.000    0.000    0.000    0.000    0.000    0.000 
#
# Total GULP energy -268166.218981 kJ/mol
# GULP energy per Si atom -5586.796229 kJ/mol
# Density = 1.775000 g / cm^3
# Si number density = 17.790495 Si / 1000 Ang^3
#
#
#
# Elastic Constant Matrix: (Units=GPa)
#
#
# Indices 1 2 3 4 5 6 
#
# 1 69.6009 19.3958 2.3640 0.0000 0.0000 0.0000
# 2 19.3958 121.1127 39.7759 0.0000 0.0000 0.0000
# 3 2.3640 39.7759 72.9440 0.0000 0.0000 0.0000
# 4 0.0000 0.0000 0.0000 7.3996 0.0000 0.0000
# 5 0.0000 0.0000 0.0000 0.0000 43.4876 0.0000
# 6 0.0000 0.0000 0.0000 0.0000 0.0000 27.8257
#
#
#
# Elastic Compliance Matrix: (Units=1/GPa)
#
#
# Indices 1 2 3 4 5 6 
#
# 1 0.015100 -0.002750 0.001010 0.000000 0.000000 0.000000
# 2 -0.002750 0.010559 -0.005669 0.000000 0.000000 0.000000
# 3 0.001010 -0.005669 0.016767 0.000000 0.000000 0.000000
# 4 0.000000 0.000000 0.000000 0.135143 0.000000 0.000000
# 5 0.000000 0.000000 0.000000 0.000000 0.022995 0.000000
# 6 0.000000 0.000000 0.000000 0.000000 0.000000 0.035938
#
#
# Mechanical properties :
#
#
# Convention : Reuss Voigt Hill
#
# Bulk Modulus (GPa) = 36.21969 42.96989 39.59479
# Shear Modulus (GPa) = 19.19229 29.21737 24.20483
#
# Velocity S-wave (km/s) = 3.28806 4.05693 3.69256
# Velocity P-wave (km/s) = 5.90071 6.79342 6.36274
#
# Compressibility (1/GPa) = 0.02760929
#
# Stress axis : x y z
#
# Youngs Moduli (GPa) = 66.22673 94.70750 59.63947
#
# Poissons Ratio (x) = 0.26044 -0.06025
# Poissons Ratio (y) = 0.18212 0.33807
# Poissons Ratio (z) = -0.06690 0.53685
#
# Static dielectric constant tensor:
#      x y z
#    x 1.592940 0.000000 0.000000 
#    y 0.000000 1.645310 0.000000 
#    z 0.000000 0.000000 1.584890 
# 
# From -- ./inp_files/33910.got.cif
#   From: 2010.05.17/outbox.cif.g08.bks.cpg/sg53_17_cif.got.tgz:33910.got - 2010.06.03 12:45:16.
