data_PCOD9418478
_publ_section_title
;
Structure prediction by ZEFSAII (Michael W. Deem and Ramdas Pophale) SiO2 
 PCOD9418478
Probable space group: P M N A
;
_chemical_formula_sum "Si O2"
_cell_formula_units_Z 64
_cell_length_a 8.710976
_cell_length_b 19.664542
_cell_length_c 19.643317
_cell_angle_alpha 90.000000
_cell_angle_beta 90.000000
_cell_angle_gamma 90.000000
_cell_volume 3364.848214
_symmetry_space_group_name_H-M "P M N A"
_symmetry_group_IT_number 53
_symmetry_cell_setting 'orthorhombic'
loop_
_space_group_symop_operation_xyz
x,y,z
1/2-x,-y,1/2+z
x,-y,-z
1/2-x,y,1/2-z
-x,-y,-z
1/2+x,y,1/2-z
-x,y,z
1/2+x,-y,1/2+z
loop_
_atom_site_type_symbol
_atom_site_label
_atom_site_fract_x
_atom_site_fract_y
_atom_site_fract_z
Si Si1 0.317046 0.844766 0.675056
Si Si2 0.685892 0.699743 0.174105
Si Si3 0.682617 0.011894 0.174523
Si Si4 0.181771 0.280351 0.075544
Si Si5 0.182655 0.792540 0.449706
Si Si6 0.183742 0.061133 0.949994
Si Si7 0.814792 0.580630 0.572779
Si Si8 0.186165 0.569754 0.413125
O O1 0.250000 0.832802 0.750000
O O2 0.500000 0.855772 0.679033
O O3 0.240453 0.914267 0.649126
O O4 0.286319 0.780739 0.627589
O O5 0.750000 0.705725 0.250000
O O6 0.500000 0.698552 0.176904
O O7 0.729736 0.761610 0.123506
O O8 0.738410 0.629729 0.136760
O O9 0.750000 0.003515 0.250000
O O10 0.500000 0.010456 0.176820
O O11 0.747506 0.956163 0.123544
O O12 0.237980 0.352669 0.103246
O O13 0.000000 0.281893 0.062164
O O14 0.271559 0.262242 0.006622
O O15 0.261415 0.863609 0.468676
O O16 0.000000 0.801773 0.449374
O O17 0.000000 0.059912 0.948195
O O18 0.235029 0.000000 0.000000
O O19 0.767791 0.507776 0.603699
O O20 0.771268 0.580394 0.492328
O O21 0.000000 0.585694 0.576495
O O22 0.000000 0.571243 0.412100
#
# Coordination Sequence:
#
# PCOD9418478 Si02
#       8
#     8   8   8   8   8   8   8   8
#     4  10  21  37  56  80 111 147 184 228 282 342
#     4  10  21  38  58  83 115 152 194 239 287 339
#     4  11  22  38  61  85 110 145 190 235 281 343
#     4  11  22  35  54  84 119 148 182 235 290 336
#     4  11  23  39  60  84 112 150 198 239 279 345
#     4  11  24  41  60  85 119 152 184 236 298 348
#     4   9  16  31  58  82 106 144 186 229 275 331
#     4   8  15  32  56  81 107 141 187 232 274 328
#
# _framework density 19.020174999999998
#
# number of rings (size 3 to 8) (size 9 to 14) (size 15 to 20)
#    0.000    1.875    1.250    4.875    0.000    7.500 
#    0.000    3.750    0.000    3.000    0.000    0.000 
#    0.000    0.000    0.000    0.000    0.000    0.000 
#
# Total GULP energy -357356.362997 kJ/mol
# GULP energy per Si atom -5583.693172 kJ/mol
# Density = 1.897688 g / cm^3
# Si number density = 19.020175 Si / 1000 Ang^3
#
#
#
# Elastic Constant Matrix: (Units=GPa)
#
#
# Indices 1 2 3 4 5 6 
#
# 1 37.5823 22.1660 13.2978 0.0000 0.0000 0.0000
# 2 22.1660 98.2890 17.6723 0.0000 0.0000 0.0000
# 3 13.2978 17.6723 48.7540 0.0000 0.0000 0.0000
# 4 0.0000 0.0000 0.0000 26.3180 0.0000 0.0000
# 5 0.0000 0.0000 0.0000 0.0000-1219.9363 0.0000
# 6 0.0000 0.0000 0.0000 0.0000 0.0000 20.6567
#
#
#
# Elastic Compliance Matrix: (Units=1/GPa)
#
#
# Indices 1 2 3 4 5 6 
#
# 1 0.032594 -0.006153 -0.006660 0.000000 0.000000 0.000000
# 2 -0.006153 0.012045 -0.002688 0.000000 0.000000 0.000000
# 3 -0.006660 -0.002688 0.023302 0.000000 0.000000 0.000000
# 4 0.000000 0.000000 0.000000 0.037997 0.000000 0.000000
# 5 0.000000 0.000000 0.000000 0.000000 -0.000820 0.000000
# 6 0.000000 0.000000 0.000000 0.000000 0.000000 0.048410
#
#
# Mechanical properties :
#
#
# Convention : Reuss Voigt Hill
#
# Bulk Modulus (GPa) = 27.07133 32.32197 29.69665
# Shear Modulus (GPa) = 25.40104 -225.82638 -100.21267
#
# Velocity S-wave (km/s) = 3.65838 -10.90815 -7.26649
# Velocity P-wave (km/s) = 5.66647 11.90041 7.39969
#
# Compressibility (1/GPa) = 0.03693944
#
# Stress axis : x y z
#
# Youngs Moduli (GPa) = 30.68072 83.02216 42.91507
#
# Poissons Ratio (x) = 0.51084 0.28580
# Poissons Ratio (y) = 0.18878 0.11535
# Poissons Ratio (z) = 0.20432 0.22314
#
# Static dielectric constant tensor:
#      x y z
#    x 1.636830 0.000000 0.000000 
#    y 0.000000 1.685660 0.000000 
#    z 0.000000 0.000000 1.651260 
# 
# From -- ./inp_files/26889.got.cif
#   From: 2010.05.17/outbox.cif.g08.bks.cpg/sg53_14_cif.got.tgz:26889.got - 2010.06.03 12:45:16.
