data_PCOD9418363
_publ_section_title
;
Structure prediction by ZEFSAII (Michael W. Deem and Ramdas Pophale) SiO2 
 PCOD9418363
Probable space group: P M N A
;
_chemical_formula_sum "Si O2"
_cell_formula_units_Z 64
_cell_length_a 9.998924
_cell_length_b 17.408615
_cell_length_c 19.649980
_cell_angle_alpha 90.000000
_cell_angle_beta 90.000000
_cell_angle_gamma 90.000000
_cell_volume 3420.421289
_symmetry_space_group_name_H-M "P M N A"
_symmetry_group_IT_number 53
_symmetry_cell_setting 'orthorhombic'
loop_
_space_group_symop_operation_xyz
x,y,z
1/2-x,-y,1/2+z
x,-y,-z
1/2-x,y,1/2-z
-x,-y,-z
1/2+x,y,1/2-z
-x,y,z
1/2+x,-y,1/2+z
loop_
_atom_site_type_symbol
_atom_site_label
_atom_site_fract_x
_atom_site_fract_y
_atom_site_fract_z
Si Si1 0.655662 0.085038 0.468515
Si Si2 0.352577 0.655242 0.968896
Si Si3 0.156779 0.556708 0.403570
Si Si4 0.657623 0.712895 0.184394
Si Si5 0.849365 0.190070 0.557300
Si Si6 0.345788 0.529874 0.689949
Si Si7 0.350529 0.302040 0.352435
Si Si8 0.841058 0.127334 0.186776
O O1 0.500000 0.109675 0.472515
O O2 0.748285 0.137875 0.515468
O O3 0.691995 0.092047 0.388015
O O4 0.664994 0.000000 0.500000
O O5 0.500000 0.642390 0.939147
O O6 0.321491 0.585440 0.019508
O O7 0.358799 0.729819 0.016858
O O8 0.250259 0.676473 0.911313
O O9 0.173961 0.632793 0.356520
O O10 0.265776 0.496397 0.377286
O O11 0.000000 0.533009 0.396674
O O12 0.750000 0.713575 0.250000
O O13 0.500000 0.718888 0.201341
O O14 0.690869 0.783026 0.132933
O O15 0.000000 0.156678 0.559316
O O16 0.250000 0.500921 0.750000
O O17 0.500000 0.502057 0.692308
O O18 0.351814 0.622461 0.694477
O O19 0.500000 0.294589 0.381481
O O20 0.319617 0.219591 0.320427
O O21 0.750000 0.100161 0.250000
O O22 0.000000 0.114520 0.199481
#
# Coordination Sequence:
#
# PCOD9418363 Si02
#       8
#     8   8   8   8   8   8   8   8
#     4  10  21  38  61  88 116 147 182 222 271 330
#     4   9  18  33  55  80 105 139 181 225 274 330
#     4   9  19  35  52  73 105 142 184 233 282 335
#     4   9  18  32  51  77 107 141 186 234 277 328
#     4   9  18  34  55  81 111 142 181 226 270 323
#     4  11  23  36  50  71 101 139 184 234 286 339
#     4  10  21  36  54  78 108 141 183 232 279 331
#     4  10  21  38  60  86 115 148 187 229 274 328
#
# _framework density 18.711144999999998
#
# number of rings (size 3 to 8) (size 9 to 14) (size 15 to 20)
#    0.000    2.375    1.250    2.625    0.000    5.250 
#    0.000    5.625    0.000    3.000    0.000    0.000 
#    0.000    0.000    0.000    0.000    0.000    0.000 
#
# Total GULP energy -356837.271860 kJ/mol
# GULP energy per Si atom -5575.582373 kJ/mol
# Density = 1.866856 g / cm^3
# Si number density = 18.711145 Si / 1000 Ang^3
#
#
#
# Elastic Constant Matrix: (Units=GPa)
#
#
# Indices 1 2 3 4 5 6 
#
# 1 89.8174 31.7538 75.7261 0.0000 0.0000 0.0000
# 2 31.7538 60.6019 24.1585 0.0000 0.0000 0.0000
# 3 75.7261 24.1585 97.6531 0.0000 0.0000 0.0000
# 4 0.0000 0.0000 0.0000 13.9552 0.0000 0.0000
# 5 0.0000 0.0000 0.0000 0.0000 37.1589 0.0000
# 6 0.0000 0.0000 0.0000 0.0000 0.0000 20.4064
#
#
#
# Elastic Compliance Matrix: (Units=1/GPa)
#
#
# Indices 1 2 3 4 5 6 
#
# 1 0.035725 -0.008515 -0.025597 0.000000 0.000000 0.000000
# 2 -0.008515 0.020336 0.001572 0.000000 0.000000 0.000000
# 3 -0.025597 0.001572 0.029701 0.000000 0.000000 0.000000
# 4 0.000000 0.000000 0.000000 0.071658 0.000000 0.000000
# 5 0.000000 0.000000 0.000000 0.000000 0.026911 0.000000
# 6 0.000000 0.000000 0.000000 0.000000 0.000000 0.049004
#
#
# Mechanical properties :
#
#
# Convention : Reuss Voigt Hill
#
# Bulk Modulus (GPa) = 48.35035 56.81656 52.58345
# Shear Modulus (GPa) = 16.37686 22.06637 19.22162
#
# Velocity S-wave (km/s) = 2.96167 3.43784 3.20860
# Velocity P-wave (km/s) = 6.13121 6.79628 6.47229
#
# Compressibility (1/GPa) = 0.02068238
#
# Stress axis : x y z
#
# Youngs Moduli (GPa) = 27.99159 49.17371 33.66926
#
# Poissons Ratio (x) = 0.41871 0.86182
# Poissons Ratio (y) = 0.23835 -0.05293
# Poissons Ratio (z) = 0.71649 -0.07730
#
# Static dielectric constant tensor:
#      x y z
#    x 1.645880 0.000000 0.000000 
#    y 0.000000 1.671400 0.000000 
#    z 0.000000 0.000000 1.663450 
# 
# From -- ./inp_files/31218.got.cif
#   From: 2010.05.17/outbox.cif.g08.bks.cpg/sg53_16_cif.got.tgz:31218.got - 2010.06.03 12:45:16.
