data_PCOD9418540
_publ_section_title
;
Structure prediction by ZEFSAII (Michael W. Deem and Ramdas Pophale) SiO2 
 PCOD9418540
Probable space group: P M N A
;
_chemical_formula_sum "Si O2"
_cell_formula_units_Z 32
_cell_length_a 8.653373
_cell_length_b 21.045678
_cell_length_c 9.252604
_cell_angle_alpha 90.000000
_cell_angle_beta 90.000000
_cell_angle_gamma 90.000000
_cell_volume 1685.048172
_symmetry_space_group_name_H-M "P M N A"
_symmetry_group_IT_number 53
_symmetry_cell_setting 'orthorhombic'
loop_
_space_group_symop_operation_xyz
x,y,z
1/2-x,-y,1/2+z
x,-y,-z
1/2-x,y,1/2-z
-x,-y,-z
1/2+x,y,1/2-z
-x,y,z
1/2+x,-y,1/2+z
loop_
_atom_site_type_symbol
_atom_site_label
_atom_site_fract_x
_atom_site_fract_y
_atom_site_fract_z
Si Si1 0.185194 0.563054 0.589079
Si Si2 0.684773 0.183630 0.911745
Si Si3 0.685064 0.935665 0.588239
Si Si4 0.315195 0.697314 0.586629
O O1 0.223138 0.500000 0.500000
O O2 0.250000 0.555085 0.750000
O O3 0.259511 0.628270 0.531841
O O4 0.000000 0.570655 0.593154
O O5 0.750000 0.178164 0.750000
O O6 0.500000 0.185597 0.908013
O O7 0.740800 0.123689 0.005455
O O8 0.749430 0.246869 0.987784
O O9 0.750000 0.940053 0.750000
O O10 0.500000 0.927441 0.593345
O O11 0.719261 0.000000 0.500000
O O12 0.250000 0.704452 0.750000
O O13 0.500000 0.699819 0.591467
#
# Coordination Sequence:
#
# PCOD9418540 Si02
#       4
#     8   8   8   8
#     4  10  21  37  58  85 117 153 196 244 295 353
#     4  12  25  42  63  89 122 157 199 247 298 354
#     4  11  24  42  65  93 125 161 201 245 295 350
#     4  11  22  39  62  87 118 156 199 245 297 354
#
# _framework density 18.990556000000002
#
# number of rings (size 3 to 8) (size 9 to 14) (size 15 to 20)
#    0.000    1.000    0.000    9.000    0.000    7.000 
#    0.000    2.500    0.000    0.000    0.000    0.000 
#    0.000    0.000    0.000    0.000    0.000    0.000 
#
# Total GULP energy -179057.853704 kJ/mol
# GULP energy per Si atom -5595.557928 kJ/mol
# Density = 1.894733 g / cm^3
# Si number density = 18.990556 Si / 1000 Ang^3
#
#
#
# Elastic Constant Matrix: (Units=GPa)
#
#
# Indices 1 2 3 4 5 6 
#
# 1 163.4190 114.0385 79.0599 0.0000 0.0000 0.0000
# 2 114.0385 200.1667 109.5286 0.0000 0.0000 0.0000
# 3 79.0599 109.5286 140.5511 0.0000 0.0000 0.0000
# 4 0.0000 0.0000 0.0000 46.6232 0.0000 0.0000
# 5 0.0000 0.0000 0.0000 0.0000 27.1288 0.0000
# 6 0.0000 0.0000 0.0000 0.0000 0.0000 40.0943
#
#
#
# Elastic Compliance Matrix: (Units=1/GPa)
#
#
# Indices 1 2 3 4 5 6 
#
# 1 0.010526 -0.004806 -0.002175 0.000000 0.000000 0.000000
# 2 -0.004806 0.010905 -0.005794 0.000000 0.000000 0.000000
# 3 -0.002175 -0.005794 0.012854 0.000000 0.000000 0.000000
# 4 0.000000 0.000000 0.000000 0.021449 0.000000 0.000000
# 5 0.000000 0.000000 0.000000 0.000000 0.036861 0.000000
# 6 0.000000 0.000000 0.000000 0.000000 0.000000 0.024941
#
#
# Mechanical properties :
#
#
# Convention : Reuss Voigt Hill
#
# Bulk Modulus (GPa) = 114.51481 123.26564 118.89023
# Shear Modulus (GPa) = 34.24733 36.20327 35.22530
#
# Velocity S-wave (km/s) = 4.25124 4.37095 4.31151
# Velocity P-wave (km/s) = 9.19398 9.51438 9.35555
#
# Compressibility (1/GPa) = 0.00873250
#
# Stress axis : x y z
#
# Youngs Moduli (GPa) = 95.00664 91.70418 77.79937
#
# Poissons Ratio (x) = 0.44077 0.16922
# Poissons Ratio (y) = 0.45664 0.45078
# Poissons Ratio (z) = 0.20665 0.53135
#
# Static dielectric constant tensor:
#      x y z
#    x 1.635070 0.000000 0.000000 
#    y 0.000000 1.647420 0.000000 
#    z 0.000000 0.000000 1.622710 
# 
# From -- ./inp_files/6031.got.cif
#   From: 2010.05.17/outbox.cif.g08.bks.cpg/sg53_4_cif.got.tgz:6031.got - 2010.06.03 12:45:16.
