data_PCOD9418313
_publ_section_title
;
Structure prediction by ZEFSAII (Michael W. Deem and Ramdas Pophale) SiO2 
 PCOD9418313
Probable space group: P M N A
;
_chemical_formula_sum "Si O2"
_cell_formula_units_Z 64
_cell_length_a 7.782663
_cell_length_b 19.985426
_cell_length_c 19.795576
_cell_angle_alpha 90.000000
_cell_angle_beta 90.000000
_cell_angle_gamma 90.000000
_cell_volume 3079.000634
_symmetry_space_group_name_H-M "P M N A"
_symmetry_group_IT_number 53
_symmetry_cell_setting 'orthorhombic'
loop_
_space_group_symop_operation_xyz
x,y,z
1/2-x,-y,1/2+z
x,-y,-z
1/2-x,y,1/2-z
-x,-y,-z
1/2+x,y,1/2-z
-x,y,z
1/2+x,-y,1/2+z
loop_
_atom_site_type_symbol
_atom_site_label
_atom_site_fract_x
_atom_site_fract_y
_atom_site_fract_z
Si Si1 0.707250 0.258740 0.176752
Si Si2 0.700421 0.187659 0.043951
Si Si3 0.700296 0.961475 0.570746
Si Si4 0.794419 0.589527 0.677665
Si Si5 0.289461 0.478973 0.924631
Si Si6 0.705887 0.215850 0.893803
Si Si7 0.795363 0.925999 0.171920
Si Si8 0.207217 0.355324 0.670703
O O1 0.750000 0.228618 0.250000
O O2 0.500000 0.259657 0.173528
O O3 0.775705 0.222627 0.110301
O O4 0.773291 0.335017 0.175659
O O5 0.500000 0.207244 0.040858
O O6 0.710623 0.108953 0.058316
O O7 0.774388 0.207221 0.970646
O O8 0.500000 0.946997 0.586725
O O9 0.705676 0.000000 0.500000
O O10 0.772652 0.012028 0.627120
O O11 0.750000 0.559601 0.750000
O O12 0.730856 0.541054 0.620514
O O13 0.000000 0.593477 0.671457
O O14 0.500000 0.475911 0.925964
O O15 0.234805 0.411828 0.883903
O O16 0.235443 0.500000 0.000000
O O17 0.500000 0.223240 0.898101
O O18 0.737764 0.146274 0.855265
O O19 0.769817 0.281922 0.854491
O O20 0.750000 0.933527 0.250000
O O21 0.000000 0.927229 0.163794
O O22 0.250000 0.367460 0.750000
O O23 0.000000 0.355394 0.667839
#
# Coordination Sequence:
#
# PCOD9418313 Si02
#       8
#     8   8   8   8   8   8   8   8
#     4   9  19  34  52  78 109 141 178 222 267 315
#     4  10  21  35  56  82 110 142 180 226 271 319
#     4  10  21  39  58  79 107 141 178 218 267 320
#     4   9  17  31  53  76 102 138 176 215 258 309
#     4   9  18  31  52  81 107 137 179 224 266 312
#     4  10  21  36  56  83 112 145 183 227 275 323
#     4  11  23  39  60  84 112 143 181 225 270 325
#     4  10  21  36  55  80 111 145 182 224 272 324
#
# _framework density 20.785964
#
# number of rings (size 3 to 8) (size 9 to 14) (size 15 to 20)
#    0.000    2.250    1.250    1.125    1.750    3.750 
#    0.000    2.500    0.000    1.500    0.000    0.000 
#    0.000    0.000    0.000    0.000    0.000    0.000 
#
# Total GULP energy -356962.820676 kJ/mol
# GULP energy per Si atom -5577.544073 kJ/mol
# Density = 2.073865 g / cm^3
# Si number density = 20.785964 Si / 1000 Ang^3
#
#
#
# Elastic Constant Matrix: (Units=GPa)
#
#
# Indices 1 2 3 4 5 6 
#
# 1 28.3857 0.9355 3.0804 0.0000 0.0000 0.0000
# 2 0.9355 83.3739 75.9171 0.0000 0.0000 0.0000
# 3 3.0804 75.9171 192.5908 0.0000 0.0000 0.0000
# 4 0.0000 0.0000 0.0000 50.2538 0.0000 0.0000
# 5 0.0000 0.0000 0.0000 0.0000 18.7241 0.0000
# 6 0.0000 0.0000 0.0000 0.0000 0.0000 16.0373
#
#
#
# Elastic Compliance Matrix: (Units=1/GPa)
#
#
# Indices 1 2 3 4 5 6 
#
# 1 0.035292 0.000184 -0.000637 0.000000 0.000000 0.000000
# 2 0.000184 0.018711 -0.007378 0.000000 0.000000 0.000000
# 3 -0.000637 -0.007378 0.008111 0.000000 0.000000 0.000000
# 4 0.000000 0.000000 0.000000 0.019899 0.000000 0.000000
# 5 0.000000 0.000000 0.000000 0.000000 0.053407 0.000000
# 6 0.000000 0.000000 0.000000 0.000000 0.000000 0.062355
#
#
# Mechanical properties :
#
#
# Convention : Reuss Voigt Hill
#
# Bulk Modulus (GPa) = 21.52812 51.57961 36.55387
# Shear Modulus (GPa) = 21.84157 31.96418 26.90287
#
# Velocity S-wave (km/s) = 3.24510 3.92570 3.60151
# Velocity P-wave (km/s) = 4.94170 6.73919 5.90919
#
# Compressibility (1/GPa) = 0.04645087
#
# Stress axis : x y z
#
# Youngs Moduli (GPa) = 28.33500 53.44544 123.28850
#
# Poissons Ratio (x) = -0.00984 0.07854
# Poissons Ratio (y) = -0.00522 0.90968
# Poissons Ratio (z) = 0.01805 0.39435
#
# Static dielectric constant tensor:
#      x y z
#    x 1.783200 0.000000 0.000000 
#    y 0.000000 1.735810 0.000000 
#    z 0.000000 0.000000 1.781920 
# 
# From -- ./inp_files/31230.got.cif
#   From: 2010.05.17/outbox.cif.g08.bks.cpg/sg53_16_cif.got.tgz:31230.got - 2010.06.03 12:45:16.
