data_PCOD9418681
_publ_section_title
;
Structure prediction by ZEFSAII (Michael W. Deem and Ramdas Pophale) SiO2 
 PCOD9418681
Probable space group: P M N A
;
_chemical_formula_sum "Si O2"
_cell_formula_units_Z 48
_cell_length_a 8.514101
_cell_length_b 15.228595
_cell_length_c 21.062085
_cell_angle_alpha 90.000000
_cell_angle_beta 90.000000
_cell_angle_gamma 90.000000
_cell_volume 2730.863519
_symmetry_space_group_name_H-M "P M N A"
_symmetry_group_IT_number 53
_symmetry_cell_setting 'orthorhombic'
loop_
_space_group_symop_operation_xyz
x,y,z
1/2-x,-y,1/2+z
x,-y,-z
1/2-x,y,1/2-z
-x,-y,-z
1/2+x,y,1/2-z
-x,y,z
1/2+x,-y,1/2+z
loop_
_atom_site_type_symbol
_atom_site_label
_atom_site_fract_x
_atom_site_fract_y
_atom_site_fract_z
Si Si1 0.312208 0.880551 0.183639
Si Si2 0.685364 0.306482 0.644858
Si Si3 0.186953 0.565880 0.942295
Si Si4 0.815036 0.730752 0.490249
Si Si5 0.188518 0.919961 0.046381
Si Si6 0.314547 0.488021 0.813636
O O1 0.250000 0.920118 0.250000
O O2 0.500000 0.874340 0.185088
O O3 0.237719 0.782985 0.178534
O O4 0.259898 0.925893 0.117490
O O5 0.500000 0.302591 0.631223
O O6 0.781042 0.309158 0.579329
O O7 0.726538 0.394541 0.681429
O O8 0.272203 0.538721 0.877863
O O9 0.000000 0.556276 0.933789
O O10 0.233075 0.500000 0.000000
O O11 0.230091 0.664749 0.961957
O O12 0.747203 0.828895 0.484658
O O13 0.000000 0.733391 0.502592
O O14 0.000000 0.916631 0.052642
O O15 0.231084 0.000000 0.000000
O O16 0.250000 0.533179 0.750000
O O17 0.500000 0.474323 0.809223
#
# Coordination Sequence:
#
# PCOD9418681 Si02
#       6
#     8   8   8   8   8   8
#     4  11  21  34  53  79 112 147 182 224 275 335
#     4  11  20  33  51  76 110 146 184 224 273 330
#     4  11  22  37  58  81 110 148 190 232 274 325
#     4  11  21  34  56  84 112 145 185 230 278 330
#     4  10  21  38  60  85 114 147 185 230 281 335
#     4  12  24  37  53  76 109 147 190 234 282 332
#
# _framework density 17.576858000000001
#
# number of rings (size 3 to 8) (size 9 to 14) (size 15 to 20)
#    0.000    1.000    1.667    9.500    0.000    2.000 
#    0.000    0.000    0.000    1.000    0.000    2.333 
#    0.000    0.000    0.000    0.000    0.000    0.000 
#
# Total GULP energy -268196.012538 kJ/mol
# GULP energy per Si atom -5587.416928 kJ/mol
# Density = 1.753685 g / cm^3
# Si number density = 17.576858 Si / 1000 Ang^3
#
#
#
# Elastic Constant Matrix: (Units=GPa)
#
#
# Indices 1 2 3 4 5 6 
#
# 1 58.4881 5.8219 3.6922 0.0000 0.0000 0.0000
# 2 5.8219 64.4027 41.5308 0.0000 0.0000 0.0000
# 3 3.6922 41.5308 104.5188 0.0000 0.0000 0.0000
# 4 0.0000 0.0000 0.0000 18.3108 0.0000 0.0000
# 5 0.0000 0.0000 0.0000 0.0000 28.5211 0.0000
# 6 0.0000 0.0000 0.0000 0.0000 0.0000 84.7827
#
#
#
# Elastic Compliance Matrix: (Units=1/GPa)
#
#
# Indices 1 2 3 4 5 6 
#
# 1 0.017253 -0.001568 0.000014 0.000000 0.000000 0.000000
# 2 -0.001568 0.021019 -0.008297 0.000000 0.000000 0.000000
# 3 0.000014 -0.008297 0.012864 0.000000 0.000000 0.000000
# 4 0.000000 0.000000 0.000000 0.054613 0.000000 0.000000
# 5 0.000000 0.000000 0.000000 0.000000 0.035062 0.000000
# 6 0.000000 0.000000 0.000000 0.000000 0.000000 0.011795
#
#
# Mechanical properties :
#
#
# Convention : Reuss Voigt Hill
#
# Bulk Modulus (GPa) = 31.81356 36.61106 34.21231
# Shear Modulus (GPa) = 27.35446 38.08057 32.71751
#
# Velocity S-wave (km/s) = 3.94925 4.65964 4.31907
# Velocity P-wave (km/s) = 6.23974 7.05861 6.66177
#
# Compressibility (1/GPa) = 0.03143314
#
# Stress axis : x y z
#
# Youngs Moduli (GPa) = 57.96178 47.57534 77.73709
#
# Poissons Ratio (x) = 0.07462 -0.00107
# Poissons Ratio (y) = 0.09091 0.64496
# Poissons Ratio (z) = -0.00080 0.39472
#
# Static dielectric constant tensor:
#      x y z
#    x 1.580230 0.000000 0.000000 
#    y 0.000000 1.585580 0.000000 
#    z 0.000000 0.000000 1.635040 
# 
# From -- ./inp_files/26429.got.cif
#   From: 2010.05.17/outbox.cif.g08.bks.cpg/sg53_14_cif.got.tgz:26429.got - 2010.06.03 12:45:16.
