data_PCOD9418933
_publ_section_title
;
Structure prediction by ZEFSAII (Michael W. Deem and Ramdas Pophale) SiO2 
 PCOD9418933
Probable space group: P M N A
;
_chemical_formula_sum "Si O2"
_cell_formula_units_Z 48
_cell_length_a 8.940472
_cell_length_b 14.893909
_cell_length_c 18.242471
_cell_angle_alpha 90.000000
_cell_angle_beta 90.000000
_cell_angle_gamma 90.000000
_cell_volume 2429.141468
_symmetry_space_group_name_H-M "P M N A"
_symmetry_group_IT_number 53
_symmetry_cell_setting 'orthorhombic'
loop_
_space_group_symop_operation_xyz
x,y,z
1/2-x,-y,1/2+z
x,-y,-z
1/2-x,y,1/2-z
-x,-y,-z
1/2+x,y,1/2-z
-x,y,z
1/2+x,-y,1/2+z
loop_
_atom_site_type_symbol
_atom_site_label
_atom_site_fract_x
_atom_site_fract_y
_atom_site_fract_z
Si Si1 0.677920 0.850282 0.119818
Si Si2 0.322250 0.657373 0.383548
Si Si3 0.323358 0.971480 0.676516
Si Si4 0.827748 0.857520 0.553435
Si Si5 0.178586 0.519654 0.676169
Si Si6 0.674572 0.352426 0.039549
O O1 0.500000 0.846117 0.132303
O O2 0.751269 0.753926 0.135217
O O3 0.752776 0.930422 0.163894
O O4 0.701155 0.870686 0.033012
O O5 0.500000 0.659546 0.375150
O O6 0.249864 0.577716 0.337116
O O7 0.276184 0.637799 0.468060
O O8 0.250000 0.932076 0.750000
O O9 0.500000 0.977518 0.684579
O O10 0.278763 0.912306 0.606366
O O11 0.814744 0.750666 0.565651
O O12 0.000000 0.885108 0.567958
O O13 0.250000 0.558701 0.750000
O O14 0.211384 0.580526 0.605100
O O15 0.000000 0.513236 0.683309
O O16 0.500000 0.367205 0.017335
#
# Coordination Sequence:
#
# PCOD9418933 Si02
#       6
#     8   8   8   8   8   8
#     4  10  21  40  64  87 114 149 189 235 287 340
#     4  11  22  37  60  89 117 148 191 238 283 337
#     4  12  25  39  57  84 118 154 192 234 283 339
#     4   9  19  38  62  87 115 149 188 232 284 338
#     4  11  23  39  58  83 117 155 194 236 287 342
#     4   9  20  39  62  86 115 152 191 235 286 337
#
# _framework density 19.760068
#
# number of rings (size 3 to 8) (size 9 to 14) (size 15 to 20)
#    0.000    1.667    0.000    6.000    0.000   10.000 
#    0.000    5.000    0.000    0.000    0.000    0.000 
#    0.000    0.000    0.000    0.000    0.000    0.000 
#
# Total GULP energy -268464.056853 kJ/mol
# GULP energy per Si atom -5593.001184 kJ/mol
# Density = 1.971509 g / cm^3
# Si number density = 19.760068 Si / 1000 Ang^3
#
#
#
# Elastic Constant Matrix: (Units=GPa)
#
#
# Indices 1 2 3 4 5 6 
#
# 1 96.1205 27.7998 32.4650 0.0000 0.0000 0.0000
# 2 27.7998 39.2590 24.5685 0.0000 0.0000 0.0000
# 3 32.4650 24.5685 29.3800 0.0000 0.0000 0.0000
# 4 0.0000 0.0000 0.0000 -8.4164 0.0000 0.0000
# 5 0.0000 0.0000 0.0000 0.0000 24.9175 0.0000
# 6 0.0000 0.0000 0.0000 0.0000 0.0000 -9.3479
#
#
#
# Elastic Compliance Matrix: (Units=1/GPa)
#
#
# Indices 1 2 3 4 5 6 
#
# 1 0.016605 -0.000578 -0.017865 0.000000 0.000000 0.000000
# 2 -0.000578 0.053456 -0.044063 0.000000 0.000000 0.000000
# 3 -0.017865 -0.044063 0.090624 0.000000 0.000000 0.000000
# 4 0.000000 0.000000 0.000000 -0.118815 0.000000 0.000000
# 5 0.000000 0.000000 0.000000 0.000000 0.040132 0.000000
# 6 0.000000 0.000000 0.000000 0.000000 0.000000 -0.106976
#
#
# Mechanical properties :
#
#
# Convention : Reuss Voigt Hill
#
# Bulk Modulus (GPa) = 28.03211 37.15846 32.59529
# Shear Modulus (GPa) = 44.67164 6.75905 25.71534
#
# Velocity S-wave (km/s) = 4.75984 1.85148 3.61138
# Velocity P-wave (km/s) = 6.66522 4.83904 5.82415
#
# Compressibility (1/GPa) = 0.03567338
#
# Stress axis : x y z
#
# Youngs Moduli (GPa) = 60.22400 18.70700 11.03462
#
# Poissons Ratio (x) = 0.01082 0.19713
# Poissons Ratio (y) = 0.03482 0.48621
# Poissons Ratio (z) = 1.07589 0.82428
#
# Static dielectric constant tensor:
#      x y z
#    x 1.654180 0.000000 0.000000 
#    y 0.000000 1.684520 0.000000 
#    z 0.000000 0.000000 1.706430 
# 
# From -- ./inp_files/26186.got.cif
#   From: 2010.05.17/outbox.cif.g08.bks.cpg/sg53_14_cif.got.tgz:26186.got - 2010.06.03 12:45:16.
