data_PCOD9418749
_publ_section_title
;
Structure prediction by ZEFSAII (Michael W. Deem and Ramdas Pophale) SiO2 
 PCOD9418749
Probable space group: P M N A
;
_chemical_formula_sum "Si O2"
_cell_formula_units_Z 40
_cell_length_a 7.804294
_cell_length_b 9.922331
_cell_length_c 27.427430
_cell_angle_alpha 90.000000
_cell_angle_beta 90.000000
_cell_angle_gamma 90.000000
_cell_volume 2123.892090
_symmetry_space_group_name_H-M "P M N A"
_symmetry_group_IT_number 53
_symmetry_cell_setting 'orthorhombic'
loop_
_space_group_symop_operation_xyz
x,y,z
1/2-x,-y,1/2+z
x,-y,-z
1/2-x,y,1/2-z
-x,-y,-z
1/2+x,y,1/2-z
-x,y,z
1/2+x,-y,1/2+z
loop_
_atom_site_type_symbol
_atom_site_label
_atom_site_fract_x
_atom_site_fract_y
_atom_site_fract_z
Si Si1 0.302905 0.708349 0.604457
Si Si2 0.305877 0.027318 0.607861
Si Si3 0.205102 0.786043 0.306118
Si Si4 0.500000 0.115415 0.959927
Si Si5 0.500000 0.634763 0.968883
Si Si6 0.794899 0.523403 0.693592
O O1 0.500000 0.695166 0.587650
O O2 0.165771 0.651896 0.565885
O O3 0.282475 0.626935 0.654952
O O4 0.267459 0.867825 0.612121
O O5 0.500000 0.040580 0.589235
O O6 0.289887 0.104907 0.658937
O O7 0.167336 0.095931 0.573000
O O8 0.250000 0.811524 0.250000
O O9 0.260036 0.631435 0.316975
O O10 0.000000 0.792985 0.312475
O O11 0.500000 0.250614 0.990300
O O12 0.500000 0.000000 0.000000
O O13 0.500000 0.500000 0.000000
O O14 0.750000 0.552410 0.750000
O O15 0.000000 0.528663 0.688705
#
# Coordination Sequence:
#
# PCOD9418749 Si02
#       6
#     8   8   8   4   4   8
#     4  11  24  43  65  94 130 167 214 265 318 384
#     4  11  24  41  66  96 127 167 215 263 320 384
#     4  10  21  38  63  95 131 169 213 262 318 382
#     4  12  24  46  70  92 128 172 212 270 326 370
#     4  12  28  46  68  96 130 168 218 272 322 384
#     4  10  21  38  63  93 130 172 212 260 320 382
#
# _framework density 18.833348999999998
#
# number of rings (size 3 to 8) (size 9 to 14) (size 15 to 20)
#    0.000    1.200    4.000    1.200    2.800    4.800 
#    0.000    0.000    0.000    0.000    0.000    0.000 
#    0.000    0.000    0.000    0.000    0.000    0.000 
#
# Total GULP energy -223527.120098 kJ/mol
# GULP energy per Si atom -5588.178002 kJ/mol
# Density = 1.879048 g / cm^3
# Si number density = 18.833349 Si / 1000 Ang^3
#
#
#
# Elastic Constant Matrix: (Units=GPa)
#
#
# Indices 1 2 3 4 5 6 
#
# 1 110.3476 53.7902 56.5989 0.0000 0.0000 0.0000
# 2 53.7902 131.5122 85.4004 0.0000 0.0000 0.0000
# 3 56.5989 85.4004 115.2212 0.0000 0.0000 0.0000
# 4 0.0000 0.0000 0.0000 47.4386 0.0000 0.0000
# 5 0.0000 0.0000 0.0000 0.0000 31.8771 0.0000
# 6 0.0000 0.0000 0.0000 0.0000 0.0000 18.3712
#
#
#
# Elastic Compliance Matrix: (Units=1/GPa)
#
#
# Indices 1 2 3 4 5 6 
#
# 1 0.012424 -0.002156 -0.004505 0.000000 0.000000 0.000000
# 2 -0.002156 0.015034 -0.010084 0.000000 0.000000 0.000000
# 3 -0.004505 -0.010084 0.018366 0.000000 0.000000 0.000000
# 4 0.000000 0.000000 0.000000 0.021080 0.000000 0.000000
# 5 0.000000 0.000000 0.000000 0.000000 0.031371 0.000000
# 6 0.000000 0.000000 0.000000 0.000000 0.000000 0.054433
#
#
# Mechanical properties :
#
#
# Convention : Reuss Voigt Hill
#
# Bulk Modulus (GPa) = 81.07598 83.18444 82.13021
# Shear Modulus (GPa) = 26.27330 30.29014 28.28172
#
# Velocity S-wave (km/s) = 3.73908 4.01474 3.87936
# Velocity P-wave (km/s) = 7.86025 8.10897 7.98558
#
# Compressibility (1/GPa) = 0.01233411
#
# Stress axis : x y z
#
# Youngs Moduli (GPa) = 80.49013 66.51636 54.44981
#
# Poissons Ratio (x) = 0.14344 0.24527
# Poissons Ratio (y) = 0.17357 0.54905
# Poissons Ratio (z) = 0.36257 0.67073
#
# Static dielectric constant tensor:
#      x y z
#    x 1.656390 0.000000 0.000000 
#    y 0.000000 1.627680 0.000000 
#    z 0.000000 0.000000 1.627260 
# 
# From -- ./inp_files/36085.got.cif
#   From: 2010.05.17/outbox.cif.g08.bks.cpg/sg53_19_cif.got.tgz:36085.got - 2010.06.03 12:45:16.
