data_PCOD9418762
_publ_section_title
;
Structure prediction by ZEFSAII (Michael W. Deem and Ramdas Pophale) SiO2 
 PCOD9418762
Probable space group: P M N A
;
_chemical_formula_sum "Si O2"
_cell_formula_units_Z 36
_cell_length_a 22.818265
_cell_length_b 6.332066
_cell_length_c 10.713550
_cell_angle_alpha 90.000000
_cell_angle_beta 90.000000
_cell_angle_gamma 90.000000
_cell_volume 1547.966127
_symmetry_space_group_name_H-M "P M N A"
_symmetry_group_IT_number 53
_symmetry_cell_setting 'orthorhombic'
loop_
_space_group_symop_operation_xyz
x,y,z
1/2-x,-y,1/2+z
x,-y,-z
1/2-x,y,1/2-z
-x,-y,-z
1/2+x,y,1/2-z
-x,y,z
1/2+x,-y,1/2+z
loop_
_atom_site_type_symbol
_atom_site_label
_atom_site_fract_x
_atom_site_fract_y
_atom_site_fract_z
Si Si1 0.215387 0.393327 0.128464
Si Si2 0.395808 0.101414 0.377515
Si Si3 0.353003 0.726306 0.208031
Si Si4 0.356190 0.000000 0.000000
Si Si5 0.066806 0.658241 0.649894
O O1 0.250000 0.295887 0.250000
O O2 0.165258 0.223936 0.091812
O O3 0.186085 0.588262 0.201744
O O4 0.240897 0.500000 0.000000
O O5 0.431235 0.267222 0.294432
O O6 0.422990 0.000000 0.500000
O O7 0.384477 0.901252 0.289910
O O8 0.321313 0.859361 0.098927
O O9 0.399044 0.563148 0.146577
O O10 0.396628 0.165268 0.075000
O O11 0.000000 0.648268 0.608373
#
# Coordination Sequence:
#
# PCOD9418762 Si02
#       5
#     8   8   8   4   8
#     4  11  24  42  69  97 128 165 215 273 331 395
#     4  10  21  42  64  86 127 172 209 258 322 383
#     4  10  22  40  63  89 130 170 210 262 321 381
#     4  10  21  38  64  92 130 176 212 256 321 388
#     4  10  22  37  61  96 129 168 216 267 316 376
#
# _framework density 23.256323999999999
#
# number of rings (size 3 to 8) (size 9 to 14) (size 15 to 20)
#    0.000    1.778    2.222    1.000    0.000   12.000 
#    0.000    1.111    2.444    0.000    0.000    0.000 
#    0.000    0.000    0.000    0.000    0.000    0.000 
#
# Total GULP energy -200836.552840 kJ/mol
# GULP energy per Si atom -5578.793134 kJ/mol
# Density = 2.320339 g / cm^3
# Si number density = 23.256324 Si / 1000 Ang^3
#
#
#
# Elastic Constant Matrix: (Units=GPa)
#
#
# Indices 1 2 3 4 5 6 
#
# 1 36.4691 16.3904 2.1548 0.0000 0.0000 0.0000
# 2 16.3904 127.5004 43.9517 0.0000 0.0000 0.0000
# 3 2.1548 43.9517 127.4425 0.0000 0.0000 0.0000
# 4 0.0000 0.0000 0.0000 58.1425 0.0000 0.0000
# 5 0.0000 0.0000 0.0000 0.0000 -4.0862 0.0000
# 6 0.0000 0.0000 0.0000 0.0000 0.0000 77.4251
#
#
#
# Elastic Compliance Matrix: (Units=1/GPa)
#
#
# Indices 1 2 3 4 5 6 
#
# 1 0.029194 -0.004066 0.000909 0.000000 0.000000 0.000000
# 2 -0.004066 0.009468 -0.003196 0.000000 0.000000 0.000000
# 3 0.000909 -0.003196 0.008934 0.000000 0.000000 0.000000
# 4 0.000000 0.000000 0.000000 0.017199 0.000000 0.000000
# 5 0.000000 0.000000 0.000000 0.000000 -0.244727 0.000000
# 6 0.000000 0.000000 0.000000 0.000000 0.000000 0.012916
#
#
# Mechanical properties :
#
#
# Convention : Reuss Voigt Hill
#
# Bulk Modulus (GPa) = 28.66332 46.26733 37.46533
# Shear Modulus (GPa) = -35.04358 41.55729 3.25686
#
# Velocity S-wave (km/s) = -3.88602 4.23179 1.18468
# Velocity P-wave (km/s) = 2.78982 6.61930 4.24452
#
# Compressibility (1/GPa) = 0.03488779
#
# Stress axis : x y z
#
# Youngs Moduli (GPa) = 34.25329 105.62234 111.93605
#
# Poissons Ratio (x) = 0.42948 -0.10172
# Poissons Ratio (y) = 0.13928 0.35779
# Poissons Ratio (z) = -0.03113 0.33761
#
# Static dielectric constant tensor:
#      x y z
#    x 1.899420 0.000000 0.000000 
#    y 0.000000 1.839120 0.000000 
#    z 0.000000 0.000000 1.979170 
# 
# From -- ./inp_files/18909.got.cif
#   From: 2010.05.17/outbox.cif.g08.bks.cpg/sg53_10_cif.got.tgz:18909.got - 2010.06.03 12:45:16.
