data_PCOD9418555
_publ_section_title
;
Structure prediction by ZEFSAII (Michael W. Deem and Ramdas Pophale) SiO2 
 PCOD9418555
Probable space group: P M N A
;
_chemical_formula_sum "Si O2"
_cell_formula_units_Z 64
_cell_length_a 14.875077
_cell_length_b 9.328331
_cell_length_c 24.364912
_cell_angle_alpha 90.000000
_cell_angle_beta 90.000000
_cell_angle_gamma 90.000000
_cell_volume 3380.866464
_symmetry_space_group_name_H-M "P M N A"
_symmetry_group_IT_number 53
_symmetry_cell_setting 'orthorhombic'
loop_
_space_group_symop_operation_xyz
x,y,z
1/2-x,-y,1/2+z
x,-y,-z
1/2-x,y,1/2-z
-x,-y,-z
1/2+x,y,1/2-z
-x,y,z
1/2+x,-y,1/2+z
loop_
_atom_site_type_symbol
_atom_site_label
_atom_site_fract_x
_atom_site_fract_y
_atom_site_fract_z
Si Si1 0.845433 0.570892 0.771444
Si Si2 0.396558 0.272571 0.770017
Si Si3 0.104955 0.771737 0.865282
Si Si4 0.144582 0.022272 0.236418
Si Si5 0.891802 0.140388 0.612720
Si Si6 0.393837 0.330187 0.994176
Si Si7 0.712609 0.158452 0.085716
Si Si8 0.407320 0.242281 0.177598
O O1 0.750000 0.629403 0.750000
O O2 0.848676 0.403826 0.759260
O O3 0.871294 0.624362 0.831948
O O4 0.907614 0.642060 0.725374
O O5 0.500000 0.313306 0.778575
O O6 0.388354 0.137563 0.730353
O O7 0.363784 0.212040 0.829071
O O8 0.179819 0.819176 0.909948
O O9 0.000000 0.769607 0.882185
O O10 0.119434 0.885990 0.816211
O O11 0.250000 0.025119 0.250000
O O12 0.098845 0.094055 0.289332
O O13 0.883013 0.263712 0.566564
O O14 0.000000 0.102662 0.614786
O O15 0.830473 0.001162 0.596323
O O16 0.500000 0.314903 0.008385
O O17 0.332404 0.231078 0.033029
O O18 0.372003 0.500000 0.000000
O O19 0.675184 0.250321 0.137149
O O20 0.500000 0.250687 0.145152
#
# Coordination Sequence:
#
# PCOD9418555 Si02
#       8
#     8   8   8   8   8   8   8   8
#     4  11  21  35  49  76 115 158 195 231 277 333
#     4  11  21  32  51  80 116 153 189 231 281 338
#     4  11  22  38  57  81 116 154 198 238 276 330
#     4  11  18  34  51  78 112 151 190 233 276 326
#     4  10  21  37  58  89 119 148 187 235 294 351
#     4  10  23  40  61  90 122 149 181 233 297 359
#     4  12  21  37  60  83 112 151 193 235 285 340
#     4  11  19  31  52  76 105 142 183 224 274 331
#
# _framework density 18.930059
#
# number of rings (size 3 to 8) (size 9 to 14) (size 15 to 20)
#    0.000    1.125    3.750    5.625    1.750    1.000 
#    0.000    0.000    0.000    1.875    0.000    0.000 
#    0.000    0.000    0.000    0.000    0.000    0.000 
#
# Total GULP energy -356787.751759 kJ/mol
# GULP energy per Si atom -5574.808621 kJ/mol
# Density = 1.888697 g / cm^3
# Si number density = 18.930059 Si / 1000 Ang^3
#
#
#
# Elastic Constant Matrix: (Units=GPa)
#
#
# Indices 1 2 3 4 5 6 
#
# 1 124.1325 18.6477 9.9378 0.0000 0.0000 0.0000
# 2 18.6477 113.5628 27.4274 0.0000 0.0000 0.0000
# 3 9.9378 27.4274 48.5302 0.0000 0.0000 0.0000
# 4 0.0000 0.0000 0.0000 20.4214 0.0000 0.0000
# 5 0.0000 0.0000 0.0000 0.0000 21.9365 0.0000
# 6 0.0000 0.0000 0.0000 0.0000 0.0000 25.6593
#
#
#
# Elastic Compliance Matrix: (Units=1/GPa)
#
#
# Indices 1 2 3 4 5 6 
#
# 1 0.008308 -0.001104 -0.001077 0.000000 0.000000 0.000000
# 2 -0.001104 0.010344 -0.005620 0.000000 0.000000 0.000000
# 3 -0.001077 -0.005620 0.024003 0.000000 0.000000 0.000000
# 4 0.000000 0.000000 0.000000 0.048968 0.000000 0.000000
# 5 0.000000 0.000000 0.000000 0.000000 0.045586 0.000000
# 6 0.000000 0.000000 0.000000 0.000000 0.000000 0.038972
#
#
# Mechanical properties :
#
#
# Convention : Reuss Voigt Hill
#
# Bulk Modulus (GPa) = 36.96588 44.25016 40.60802
# Shear Modulus (GPa) = 24.90017 28.95095 26.92556
#
# Velocity S-wave (km/s) = 3.63075 3.91495 3.77552
# Velocity P-wave (km/s) = 6.09479 6.62285 6.36430
#
# Compressibility (1/GPa) = 0.02705197
#
# Stress axis : x y z
#
# Youngs Moduli (GPa) = 120.36582 96.67115 41.66214
#
# Poissons Ratio (x) = 0.10673 0.04488
# Poissons Ratio (y) = 0.13289 0.23415
# Poissons Ratio (z) = 0.12967 0.54331
#
# Static dielectric constant tensor:
#      x y z
#    x 1.712930 0.000000 0.000000 
#    y 0.000000 1.709790 0.000000 
#    z 0.000000 0.000000 1.656080 
# 
# From -- ./inp_files/35362.got.cif
#   From: 2010.05.17/outbox.cif.g08.bks.cpg/sg53_18_cif.got.tgz:35362.got - 2010.06.03 12:45:16.
