data_PCOD9418740
_publ_section_title
;
Structure prediction by ZEFSAII (Michael W. Deem and Ramdas Pophale) SiO2 
 PCOD9418740
Probable space group: P M N A
;
_chemical_formula_sum "Si O2"
_cell_formula_units_Z 56
_cell_length_a 21.262903
_cell_length_b 8.274543
_cell_length_c 15.282420
_cell_angle_alpha 90.000000
_cell_angle_beta 90.000000
_cell_angle_gamma 90.000000
_cell_volume 2688.801280
_symmetry_space_group_name_H-M "P M N A"
_symmetry_group_IT_number 53
_symmetry_cell_setting 'orthorhombic'
loop_
_space_group_symop_operation_xyz
x,y,z
1/2-x,-y,1/2+z
x,-y,-z
1/2-x,y,1/2-z
-x,-y,-z
1/2+x,y,1/2-z
-x,y,z
1/2+x,-y,1/2+z
loop_
_atom_site_type_symbol
_atom_site_label
_atom_site_fract_x
_atom_site_fract_y
_atom_site_fract_z
Si Si1 0.573913 0.376982 0.918274
Si Si2 0.219021 0.693807 0.919440
Si Si3 0.925368 0.124497 0.290305
Si Si4 0.674241 0.361772 0.611788
Si Si5 0.151281 0.833804 0.531820
Si Si6 0.688778 0.989394 0.309511
Si Si7 0.426202 0.510860 0.731124
O O1 0.500000 0.340430 0.911864
O O2 0.595724 0.446372 0.826014
O O3 0.581121 0.500000 0.000000
O O4 0.613453 0.225396 0.947752
O O5 0.214833 0.523732 0.868078
O O6 0.291897 0.718901 0.942379
O O7 0.193847 0.856299 0.874049
O O8 0.179442 0.667610 0.008113
O O9 0.897438 0.149814 0.387920
O O10 0.918751 0.295530 0.238775
O O11 0.000000 0.083161 0.292740
O O12 0.877230 0.003927 0.242521
O O13 0.693484 0.189807 0.651311
O O14 0.608744 0.419774 0.653377
O O15 0.181705 0.000000 0.500000
O O16 0.750000 0.012786 0.250000
O O17 0.500000 0.479174 0.724675
#
# Coordination Sequence:
#
# PCOD9418740 Si02
#       7
#     8   8   8   8   8   8   8
#     4  10  21  38  62  93 133 182 235 287 351 436
#     4  11  26  48  67 102 141 181 234 296 350 427
#     4  11  24  43  69 102 145 189 234 296 365 426
#     4  11  26  44  72 101 136 186 239 297 354 423
#     4  12  25  41  65  97 145 189 227 288 363 432
#     4  12  25  45  71 103 141 187 236 293 357 424
#     4  10  22  43  68  98 137 184 241 303 364 429
#
# _framework density 20.827124000000001
#
# number of rings (size 3 to 8) (size 9 to 14) (size 15 to 20)
#    0.000    1.000    4.286    1.714    4.000    3.429 
#    0.000    2.143    0.000    1.714    0.000    0.000 
#    0.000    0.000    0.000    0.000    0.000    0.000 
#
# Total GULP energy -312729.757745 kJ/mol
# GULP energy per Si atom -5584.459960 kJ/mol
# Density = 2.077972 g / cm^3
# Si number density = 20.827124 Si / 1000 Ang^3
#
#
#
# Elastic Constant Matrix: (Units=GPa)
#
#
# Indices 1 2 3 4 5 6 
#
# 1 90.6336 40.3691 62.9557 0.0000 0.0000 0.0000
# 2 40.3691 132.8153 42.6392 0.0000 0.0000 0.0000
# 3 62.9557 42.6392 71.9926 0.0000 0.0000 0.0000
# 4 0.0000 0.0000 0.0000 35.5086 0.0000 0.0000
# 5 0.0000 0.0000 0.0000 0.0000 281.5946 0.0000
# 6 0.0000 0.0000 0.0000 0.0000 0.0000 4.9912
#
#
#
# Elastic Compliance Matrix: (Units=1/GPa)
#
#
# Indices 1 2 3 4 5 6 
#
# 1 0.028175 -0.000807 -0.024160 0.000000 0.000000 0.000000
# 2 -0.000807 0.009320 -0.004814 0.000000 0.000000 0.000000
# 3 -0.024160 -0.004814 0.037869 0.000000 0.000000 0.000000
# 4 0.000000 0.000000 0.000000 0.028162 0.000000 0.000000
# 5 0.000000 0.000000 0.000000 0.000000 0.003551 0.000000
# 6 0.000000 0.000000 0.000000 0.000000 0.000000 0.200353
#
#
# Mechanical properties :
#
#
# Convention : Reuss Voigt Hill
#
# Bulk Modulus (GPa) = 63.28705 65.26328 64.27516
# Shear Modulus (GPa) = 13.43139 74.38404 43.90771
#
# Velocity S-wave (km/s) = 2.54224 5.98268 4.59649
# Velocity P-wave (km/s) = 6.25061 8.89534 7.68756
#
# Compressibility (1/GPa) = 0.01580102
#
# Stress axis : x y z
#
# Youngs Moduli (GPa) = 35.49202 107.29423 26.40663
#
# Poissons Ratio (x) = 0.08662 0.63800
# Poissons Ratio (y) = 0.02865 0.12712
# Poissons Ratio (z) = 0.85750 0.51652
#
# Static dielectric constant tensor:
#      x y z
#    x 1.717640 0.000000 0.000000 
#    y 0.000000 1.855510 0.000000 
#    z 0.000000 0.000000 1.757430 
# 
# From -- ./inp_files/24342.got.cif
#   From: 2010.05.17/outbox.cif.g08.bks.cpg/sg53_13_cif.got.tgz:24342.got - 2010.06.03 12:45:16.
