data_PCOD9418001
_publ_section_title
;
Structure prediction by ZEFSAII (Michael W. Deem and Ramdas Pophale) SiO2 
 PCOD9418001
Probable space group: P M N A
;
_chemical_formula_sum "Si O2"
_cell_formula_units_Z 40
_cell_length_a 26.270142
_cell_length_b 9.115798
_cell_length_c 8.286508
_cell_angle_alpha 90.000000
_cell_angle_beta 90.000000
_cell_angle_gamma 90.000000
_cell_volume 1984.397482
_symmetry_space_group_name_H-M "P M N A"
_symmetry_group_IT_number 53
_symmetry_cell_setting 'orthorhombic'
loop_
_space_group_symop_operation_xyz
x,y,z
1/2-x,-y,1/2+z
x,-y,-z
1/2-x,y,1/2-z
-x,-y,-z
1/2+x,y,1/2-z
-x,y,z
1/2+x,-y,1/2+z
loop_
_atom_site_type_symbol
_atom_site_label
_atom_site_fract_x
_atom_site_fract_y
_atom_site_fract_z
Si Si1 0.057920 0.332068 0.666738
Si Si2 0.902319 0.045967 0.820756
Si Si3 0.869583 0.773976 0.608517
Si Si4 0.850208 0.500939 0.189220
Si Si5 0.193570 0.796298 0.297538
O O1 0.061433 0.170705 0.747863
O O2 0.087952 0.310285 0.498592
O O3 0.092676 0.439510 0.773946
O O4 0.000000 0.378540 0.649749
O O5 0.846923 0.124302 0.819187
O O6 0.895600 0.907251 0.703186
O O7 0.916903 0.000000 0.000000
O O8 0.845749 0.658064 0.731846
O O9 0.827286 0.825536 0.478302
O O10 0.814201 0.621917 0.271944
O O11 0.840707 0.500000 0.000000
O O12 0.250000 0.840109 0.250000
#
# Coordination Sequence:
#
# PCOD9418001 Si02
#       5
#     8   8   8   8   8
#     4  10  21  37  57  81 109 146 188 227 275 332
#     4  10  21  38  57  81 113 147 183 228 278 327
#     4  10  20  38  59  80 112 146 183 228 274 328
#     4  10  21  38  57  81 113 147 183 228 278 327
#     4  10  21  37  57  83 111 146 186 225 272 328
#
# _framework density 20.157253000000001
#
# number of rings (size 3 to 8) (size 9 to 14) (size 15 to 20)
#    0.000    2.400    0.000    7.200    0.000    7.200 
#    0.000    5.000    0.000    0.000    0.000    0.000 
#    0.000    0.000    0.000    0.000    0.000    0.000 
#
# Total GULP energy -223311.725543 kJ/mol
# GULP energy per Si atom -5582.793139 kJ/mol
# Density = 2.011137 g / cm^3
# Si number density = 20.157253 Si / 1000 Ang^3
#
#
#
# Elastic Constant Matrix: (Units=GPa)
#
#
# Indices 1 2 3 4 5 6 
#
# 1 71.9197 -33.5358 -11.6633 0.0000 0.0000 0.0000
# 2 -33.5358 59.8408 17.0026 0.0000 0.0000 0.0000
# 3 -11.6633 17.0026 115.9043 0.0000 0.0000 0.0000
# 4 0.0000 0.0000 0.0000 39.4448 0.0000 0.0000
# 5 0.0000 0.0000 0.0000 0.0000 -0.1427 0.0000
# 6 0.0000 0.0000 0.0000 0.0000 0.0000 8.8141
#
#
#
# Elastic Compliance Matrix: (Units=1/GPa)
#
#
# Indices 1 2 3 4 5 6 
#
# 1 0.018838 0.010454 0.000362 0.000000 0.000000 0.000000
# 2 0.010454 0.023239 -0.002357 0.000000 0.000000 0.000000
# 3 0.000362 -0.002357 0.009010 0.000000 0.000000 0.000000
# 4 0.000000 0.000000 0.000000 0.025352 0.000000 0.000000
# 5 0.000000 0.000000 0.000000 0.000000 -7.008797 0.000000
# 6 0.000000 0.000000 0.000000 0.000000 0.000000 0.113454
#
#
# Mechanical properties :
#
#
# Convention : Reuss Voigt Hill
#
# Bulk Modulus (GPa) = 14.70468 21.25242 17.97855
# Shear Modulus (GPa) = -0.73387 28.01400 13.64006
#
# Velocity S-wave (km/s) = -0.60404 3.73201 2.60413
# Velocity P-wave (km/s) = 2.61234 5.39784 4.24035
#
# Compressibility (1/GPa) = 0.06800554
#
# Stress axis : x y z
#
# Youngs Moduli (GPa) = 53.08459 43.03026 110.98749
#
# Poissons Ratio (x) = -0.44985 -0.04018
# Poissons Ratio (y) = -0.55496 0.26161
# Poissons Ratio (z) = -0.01922 0.10143
#
# Static dielectric constant tensor:
#      x y z
#    x 1.700920 0.000000 0.000000 
#    y 0.000000 1.746880 0.000000 
#    z 0.000000 0.000000 1.701960 
# 
# From -- ./inp_files/12860.got.cif
#   From: 2010.05.17/outbox.cif.g08.bks.cpg/sg53_7_cif.got.tgz:12860.got - 2010.06.03 12:45:16.
