data_PCOD9418804
_publ_section_title
;
Structure prediction by ZEFSAII (Michael W. Deem and Ramdas Pophale) SiO2 
 PCOD9418804
Probable space group: P M N A
;
_chemical_formula_sum "Si O2"
_cell_formula_units_Z 64
_cell_length_a 18.427047
_cell_length_b 11.346578
_cell_length_c 15.608075
_cell_angle_alpha 90.000000
_cell_angle_beta 90.000000
_cell_angle_gamma 90.000000
_cell_volume 3263.397600
_symmetry_space_group_name_H-M "P M N A"
_symmetry_group_IT_number 53
_symmetry_cell_setting 'orthorhombic'
loop_
_space_group_symop_operation_xyz
x,y,z
1/2-x,-y,1/2+z
x,-y,-z
1/2-x,y,1/2-z
-x,-y,-z
1/2+x,y,1/2-z
-x,y,z
1/2+x,-y,1/2+z
loop_
_atom_site_type_symbol
_atom_site_label
_atom_site_fract_x
_atom_site_fract_y
_atom_site_fract_z
Si Si1 0.912041 0.382085 0.051342
Si Si2 0.916715 0.515596 0.594546
Si Si3 0.329283 0.142723 0.223362
Si Si4 0.668272 0.870280 0.274329
Si Si5 0.918242 0.755059 0.377893
Si Si6 0.847878 0.863303 0.023587
Si Si7 0.322142 0.866867 0.978165
Si Si8 0.913917 0.355400 0.240544
O O1 0.887931 0.404001 0.149683
O O2 0.000000 0.377244 0.049239
O O3 0.889342 0.500000 0.000000
O O4 0.885242 0.253243 0.017799
O O5 0.882863 0.500000 0.500000
O O6 0.920453 0.384916 0.632149
O O7 0.882904 0.593513 0.670185
O O8 0.000000 0.560372 0.578949
O O9 0.250000 0.190409 0.250000
O O10 0.335711 0.149070 0.121569
O O11 0.393121 0.219070 0.262658
O O12 0.332774 0.009891 0.256439
O O13 0.750000 0.829880 0.250000
O O14 0.613865 0.811422 0.207641
O O15 0.650026 0.850447 0.373408
O O16 0.867695 0.785165 0.458675
O O17 0.000000 0.797664 0.394323
O O18 0.763489 0.856775 0.995950
O O19 0.871943 0.000000 0.000000
O O20 0.343918 0.000000 0.000000
O O21 0.000000 0.374735 0.244548
#
# Coordination Sequence:
#
# PCOD9418804 Si02
#       8
#     8   8   8   8   8   8   8   8
#     4  10  23  42  63  91 127 166 210 266 324 370
#     4   9  19  37  59  84 120 163 200 245 310 371
#     4  11  21  37  62  89 121 157 205 245 308 373
#     4  11  21  40  61  87 125 161 198 256 318 372
#     4  11  23  38  61  93 123 160 210 255 314 384
#     4  11  22  40  68  89 122 167 216 258 313 378
#     4  11  20  39  60  88 126 166 201 254 318 375
#     4  10  21  39  61  85 120 161 202 253 310 367
#
# _framework density 19.611463000000001
#
# number of rings (size 3 to 8) (size 9 to 14) (size 15 to 20)
#    0.000    1.500    2.500    4.500    1.750    3.000 
#    0.000    3.750    0.000    0.000    0.000    0.000 
#    0.000    0.000    0.000    0.000    0.000    0.000 
#
# Total GULP energy -356904.172930 kJ/mol
# GULP energy per Si atom -5576.627702 kJ/mol
# Density = 1.956683 g / cm^3
# Si number density = 19.611463 Si / 1000 Ang^3
#
#
#
# Elastic Constant Matrix: (Units=GPa)
#
#
# Indices 1 2 3 4 5 6 
#
# 1 20.0533 20.3836 11.3188 0.0000 0.0000 0.0000
# 2 20.3836 81.2940 31.8483 0.0000 0.0000 0.0000
# 3 11.3188 31.8483 154.2504 0.0000 0.0000 0.0000
# 4 0.0000 0.0000 0.0000 31.2090 0.0000 0.0000
# 5 0.0000 0.0000 0.0000 0.0000 6.6788 0.0000
# 6 0.0000 0.0000 0.0000 0.0000 0.0000 32.3182
#
#
#
# Elastic Compliance Matrix: (Units=1/GPa)
#
#
# Indices 1 2 3 4 5 6 
#
# 1 0.067277 -0.016249 -0.001582 0.000000 0.000000 0.000000
# 2 -0.016249 0.017308 -0.002381 0.000000 0.000000 0.000000
# 3 -0.001582 -0.002381 0.007091 0.000000 0.000000 0.000000
# 4 0.000000 0.000000 0.000000 0.032042 0.000000 0.000000
# 5 0.000000 0.000000 0.000000 0.000000 0.149728 0.000000
# 6 0.000000 0.000000 0.000000 0.000000 0.000000 0.030942
#
#
# Mechanical properties :
#
#
# Convention : Reuss Voigt Hill
#
# Bulk Modulus (GPa) = 19.51175 42.52210 31.01693
# Shear Modulus (GPa) = 13.81612 26.84434 20.33023
#
# Velocity S-wave (km/s) = 2.65711 3.70376 3.22320
# Velocity P-wave (km/s) = 4.40277 6.32612 5.44996
#
# Compressibility (1/GPa) = 0.05125116
#
# Stress axis : x y z
#
# Youngs Moduli (GPa) = 14.86398 57.77582 141.02973
#
# Poissons Ratio (x) = 0.93881 0.22307
# Poissons Ratio (y) = 0.24153 0.33583
# Poissons Ratio (z) = 0.02351 0.13758
#
# Static dielectric constant tensor:
#      x y z
#    x 1.687290 0.000000 0.000000 
#    y 0.000000 1.717080 0.000000 
#    z 0.000000 0.000000 1.697580 
# 
# From -- ./inp_files/23917.got.cif
#   From: 2010.05.17/outbox.cif.g08.bks.cpg/sg53_12_cif.got.tgz:23917.got - 2010.06.03 12:45:16.
