data_PCOD9418903
_publ_section_title
;
Structure prediction by ZEFSAII (Michael W. Deem and Ramdas Pophale) SiO2 
 PCOD9418903
Probable space group: P M N A
;
_chemical_formula_sum "Si O2"
_cell_formula_units_Z 64
_cell_length_a 14.412925
_cell_length_b 9.787296
_cell_length_c 25.706128
_cell_angle_alpha 90.000000
_cell_angle_beta 90.000000
_cell_angle_gamma 90.000000
_cell_volume 3626.198012
_symmetry_space_group_name_H-M "P M N A"
_symmetry_group_IT_number 53
_symmetry_cell_setting 'orthorhombic'
loop_
_space_group_symop_operation_xyz
x,y,z
1/2-x,-y,1/2+z
x,-y,-z
1/2-x,y,1/2-z
-x,-y,-z
1/2+x,y,1/2-z
-x,y,z
1/2+x,-y,1/2+z
loop_
_atom_site_type_symbol
_atom_site_label
_atom_site_fract_x
_atom_site_fract_y
_atom_site_fract_z
Si Si1 0.110449 0.003737 0.836920
Si Si2 0.725828 0.502838 0.858636
Si Si3 0.895061 0.608702 0.546332
Si Si4 0.107885 0.316823 0.284479
Si Si5 0.106477 0.689095 0.840625
Si Si6 0.890765 0.851561 0.474608
Si Si7 0.722332 0.820475 0.132270
Si Si8 0.611182 0.994484 0.786885
O O1 0.130851 0.846760 0.852824
O O2 0.129542 0.015392 0.774620
O O3 0.000000 0.026635 0.843999
O O4 0.177222 0.107436 0.866551
O O5 0.666236 0.548859 0.908187
O O6 0.672751 0.570549 0.809853
O O7 0.824558 0.577146 0.862701
O O8 0.730637 0.340031 0.855533
O O9 0.899031 0.500000 0.500000
O O10 0.859694 0.745876 0.519099
O O11 0.000000 0.633741 0.565618
O O12 0.111339 0.320766 0.222155
O O13 0.137294 0.162694 0.300275
O O14 0.000000 0.335983 0.299615
O O15 0.000000 0.666293 0.856100
O O16 0.830703 0.838140 0.422555
O O17 0.000000 0.820814 0.462689
O O18 0.886039 0.000000 0.500000
O O19 0.663325 0.899561 0.176490
O O20 0.500000 0.005278 0.793923
#
# Coordination Sequence:
#
# PCOD9418903 Si02
#       8
#     8   8   8   8   8   8   8   8
#     4   9  20  39  58  77 107 148 188 228 272 315
#     4  12  23  33  55  85 112 146 182 219 275 332
#     4  10  21  40  58  77 113 148 173 212 271 331
#     4   9  19  35  55  81 112 148 187 222 262 320
#     4   9  20  39  58  78 108 146 190 230 263 315
#     4  10  23  40  58  83 111 140 178 224 271 322
#     4  12  23  34  54  85 115 142 180 226 275 330
#     4   9  19  35  55  80 112 148 185 224 266 318
#
# _framework density 17.649339999999999
#
# number of rings (size 3 to 8) (size 9 to 14) (size 15 to 20)
#    0.000    2.000    1.250    3.750    3.500    6.000 
#    0.000    2.500    0.000    1.500    0.000    0.000 
#    0.000    0.000    0.000    0.000    0.000    0.000 
#
# Total GULP energy -357333.921606 kJ/mol
# GULP energy per Si atom -5583.342525 kJ/mol
# Density = 1.760917 g / cm^3
# Si number density = 17.649340 Si / 1000 Ang^3
#
#
#
# Elastic Constant Matrix: (Units=GPa)
#
#
# Indices 1 2 3 4 5 6 
#
# 1 86.1637 58.4120 27.8363 0.0000 0.0000 0.0000
# 2 58.4120 129.2132 30.7396 0.0000 0.0000 0.0000
# 3 27.8363 30.7396 30.7470 0.0000 0.0000 0.0000
# 4 0.0000 0.0000 0.0000 25.0923 0.0000 0.0000
# 5 0.0000 0.0000 0.0000 0.0000 26.3892 0.0000
# 6 0.0000 0.0000 0.0000 0.0000 0.0000 29.9165
#
#
#
# Elastic Compliance Matrix: (Units=1/GPa)
#
#
# Indices 1 2 3 4 5 6 
#
# 1 0.019430 -0.006034 -0.011559 0.000000 0.000000 0.000000
# 2 -0.006034 0.012028 -0.006562 0.000000 0.000000 0.000000
# 3 -0.011559 -0.006562 0.049549 0.000000 0.000000 0.000000
# 4 0.000000 0.000000 0.000000 0.039853 0.000000 0.000000
# 5 0.000000 0.000000 0.000000 0.000000 0.037894 0.000000
# 6 0.000000 0.000000 0.000000 0.000000 0.000000 0.033426
#
#
# Mechanical properties :
#
#
# Convention : Reuss Voigt Hill
#
# Bulk Modulus (GPa) = 30.58348 53.34440 41.96394
# Shear Modulus (GPa) = 19.88943 24.88867 22.38905
#
# Velocity S-wave (km/s) = 3.36061 3.75930 3.56553
# Velocity P-wave (km/s) = 5.69423 7.00952 6.38583
#
# Compressibility (1/GPa) = 0.03269739
#
# Stress axis : x y z
#
# Youngs Moduli (GPa) = 51.46549 83.13904 20.18216
#
# Poissons Ratio (x) = 0.50166 0.23328
# Poissons Ratio (y) = 0.31054 0.13244
# Poissons Ratio (z) = 0.59487 0.54559
#
# Static dielectric constant tensor:
#      x y z
#    x 1.625420 0.000000 0.000000 
#    y 0.000000 1.721620 0.000000 
#    z 0.000000 0.000000 1.585550 
# 
# From -- ./inp_files/35365.got.cif
#   From: 2010.05.17/outbox.cif.g08.bks.cpg/sg53_18_cif.got.tgz:35365.got - 2010.06.03 12:45:16.
