data_PCOD9418707
_publ_section_title
;
Structure prediction by ZEFSAII (Michael W. Deem and Ramdas Pophale) SiO2 
 PCOD9418707
Probable space group: P M N A
;
_chemical_formula_sum "Si O2"
_cell_formula_units_Z 24
_cell_length_a 16.800235
_cell_length_b 4.800739
_cell_length_c 12.939367
_cell_angle_alpha 90.000000
_cell_angle_beta 90.000000
_cell_angle_gamma 90.000000
_cell_volume 1043.605798
_symmetry_space_group_name_H-M "P M N A"
_symmetry_group_IT_number 53
_symmetry_cell_setting 'orthorhombic'
loop_
_space_group_symop_operation_xyz
x,y,z
1/2-x,-y,1/2+z
x,-y,-z
1/2-x,y,1/2-z
-x,-y,-z
1/2+x,y,1/2-z
-x,y,z
1/2+x,-y,1/2+z
loop_
_atom_site_type_symbol
_atom_site_label
_atom_site_fract_x
_atom_site_fract_y
_atom_site_fract_z
Si Si1 0.339362 0.451026 0.271516
Si Si2 0.909940 0.078207 0.880144
Si Si3 0.089473 0.762940 0.426339
O O1 0.250000 0.357557 0.250000
O O2 0.390255 0.184178 0.306420
O O3 0.369316 0.635469 0.174490
O O4 0.347479 0.675747 0.362373
O O5 0.000000 0.179835 0.857663
O O6 0.907545 0.000000 0.000000
O O7 0.082202 0.500000 0.500000
O O8 0.000000 0.865110 0.398335
O O9 0.127907 0.000000 0.500000
#
# Coordination Sequence:
#
# PCOD9418707 Si02
#       3
#     8   8   8
#     4  12  25  41  64  97 134 168 210 271 336 390
#     4  11  24  44  69  94 126 173 224 270 321 391
#     4  10  21  38  61  87 118 161 208 252 304 373
#
# _framework density 22.99719
#
# number of rings (size 3 to 8) (size 9 to 14) (size 15 to 20)
#    0.000    1.000    0.000    7.000    0.000    9.333 
#    0.000    0.000    0.000    0.000    0.000    0.000 
#    0.000    0.000    0.000    0.000    0.000    0.000 
#
# Total GULP energy -134119.168302 kJ/mol
# GULP energy per Si atom -5588.298679 kJ/mol
# Density = 2.294485 g / cm^3
# Si number density = 22.997190 Si / 1000 Ang^3
#
#
#
# Elastic Constant Matrix: (Units=GPa)
#
#
# Indices 1 2 3 4 5 6 
#
# 1 65.6224 -4.1782 21.0352 0.0000 0.0000 0.0000
# 2 -4.1782 97.4008 1.0179 0.0000 0.0000 0.0000
# 3 21.0352 1.0179 77.7413 0.0000 0.0000 0.0000
# 4 0.0000 0.0000 0.0000 38.6289 0.0000 0.0000
# 5 0.0000 0.0000 0.0000 0.0000 -0.9752 0.0000
# 6 0.0000 0.0000 0.0000 0.0000 0.0000 24.1062
#
#
#
# Elastic Compliance Matrix: (Units=1/GPa)
#
#
# Indices 1 2 3 4 5 6 
#
# 1 0.016743 0.000766 -0.004540 0.000000 0.000000 0.000000
# 2 0.000766 0.010303 -0.000342 0.000000 0.000000 0.000000
# 3 -0.004540 -0.000342 0.014096 0.000000 0.000000 0.000000
# 4 0.000000 0.000000 0.000000 0.025887 0.000000 0.000000
# 5 0.000000 0.000000 0.000000 0.000000 -1.025473 0.000000
# 6 0.000000 0.000000 0.000000 0.000000 0.000000 0.041483
#
#
# Mechanical properties :
#
#
# Convention : Reuss Voigt Hill
#
# Bulk Modulus (GPa) = 30.38695 30.72381 30.55538
# Shear Modulus (GPa) = -5.56944 27.21130 10.82093
#
# Velocity S-wave (km/s) = -1.55790 3.44356 2.17153
# Velocity P-wave (km/s) = 3.16322 5.40367 4.42751
#
# Compressibility (1/GPa) = 0.03290887
#
# Stress axis : x y z
#
# Youngs Moduli (GPa) = 59.72711 97.05649 70.94132
#
# Poissons Ratio (x) = -0.07431 0.32209
# Poissons Ratio (y) = -0.04573 0.02427
# Poissons Ratio (z) = 0.27118 0.03320
#
# Static dielectric constant tensor:
#      x y z
#    x 1.856500 0.000000 0.000000 
#    y 0.000000 2.049980 0.000000 
#    z 0.000000 0.000000 2.116840 
# 
# From -- ./inp_files/16323.got.cif
#   From: 2010.05.17/outbox.cif.g08.bks.cpg/sg53_9_cif.got.tgz:16323.got - 2010.06.03 12:45:16.
