data_PCOD9418255
_publ_section_title
;
Structure prediction by ZEFSAII (Michael W. Deem and Ramdas Pophale) SiO2 
 PCOD9418255
Probable space group: P M N A
;
_chemical_formula_sum "Si O2"
_cell_formula_units_Z 58
_cell_length_a 15.090383
_cell_length_b 9.190743
_cell_length_c 22.212724
_cell_angle_alpha 90.000000
_cell_angle_beta 90.000000
_cell_angle_gamma 90.000000
_cell_volume 3080.723384
_symmetry_space_group_name_H-M "P M N A"
_symmetry_group_IT_number 53
_symmetry_cell_setting 'orthorhombic'
loop_
_space_group_symop_operation_xyz
x,y,z
1/2-x,-y,1/2+z
x,-y,-z
1/2-x,y,1/2-z
-x,-y,-z
1/2+x,y,1/2-z
-x,y,z
1/2+x,-y,1/2+z
loop_
_atom_site_type_symbol
_atom_site_label
_atom_site_fract_x
_atom_site_fract_y
_atom_site_fract_z
Si Si1 0.266970 0.039076 0.142530
Si Si2 0.605392 0.487985 0.571506
Si Si3 0.395409 0.529915 0.897019
Si Si4 0.000000 0.000000 0.500000
Si Si5 0.243832 0.273206 0.596420
Si Si6 0.836238 0.204314 0.475270
Si Si7 0.102341 0.241625 0.290432
Si Si8 0.102864 0.235637 0.152441
O O1 0.304727 0.106447 0.080493
O O2 0.329931 0.113064 0.192635
O O3 0.168119 0.100481 0.147529
O O4 0.266507 0.865829 0.139089
O O5 0.623559 0.500000 0.500000
O O6 0.500000 0.463630 0.579142
O O7 0.664966 0.361764 0.600102
O O8 0.628415 0.638260 0.605590
O O9 0.500000 0.500723 0.904345
O O10 0.336312 0.386632 0.894860
O O11 0.361189 0.637257 0.949470
O O12 0.382891 0.625491 0.836241
O O13 0.077031 0.873686 0.499497
O O14 0.234877 0.216673 0.527864
O O15 0.111738 0.289046 0.221420
O O16 0.000000 0.192419 0.299946
O O17 0.000000 0.198444 0.142184
#
# Coordination Sequence:
#
# PCOD9418255 Si02
#       8
#     8   8   8   2   8   8   8   8
#     4  11  22  35  56  83 115 149 191 240 284 338
#     4  10  21  39  62  86 113 148 191 244 301 356
#     4  10  21  34  55  83 116 152 189 230 279 345
#     4  12  20  36  58  84 118 168 194 236 270 338
#     4  12  23  34  52  86 120 151 188 233 291 347
#     4  11  22  36  55  82 120 158 195 227 278 339
#     4   9  20  39  61  82 107 148 197 239 285 346
#     4  10  21  41  65  82 104 148 199 242 290 352
#
# _framework density 18.826747999999998
#
# number of rings (size 3 to 8) (size 9 to 14) (size 15 to 20)
#    0.000    1.517    2.069    4.138    1.931    1.655 
#    0.000    2.759    0.000    7.448    0.000    0.000 
#    0.000    0.000    0.000    0.000    0.000    0.000 
#
# Total GULP energy -323434.351774 kJ/mol
# GULP energy per Si atom -5576.454341 kJ/mol
# Density = 1.878390 g / cm^3
# Si number density = 18.826748 Si / 1000 Ang^3
#
#
#
# Elastic Constant Matrix: (Units=GPa)
#
#
# Indices 1 2 3 4 5 6 
#
# 1 62.3489 47.6035 17.6207 0.0000 0.0000 0.0000
# 2 47.6035 126.0518 29.5249 0.0000 0.0000 0.0000
# 3 17.6207 29.5249 60.1223 0.0000 0.0000 0.0000
# 4 0.0000 0.0000 0.0000 15.1192 0.0000 0.0000
# 5 0.0000 0.0000 0.0000 0.0000 -3.6133 0.0000
# 6 0.0000 0.0000 0.0000 0.0000 0.0000 73.8317
#
#
#
# Elastic Compliance Matrix: (Units=1/GPa)
#
#
# Indices 1 2 3 4 5 6 
#
# 1 0.022944 -0.008011 -0.002790 0.000000 0.000000 0.000000
# 2 -0.008011 0.011762 -0.003428 0.000000 0.000000 0.000000
# 3 -0.002790 -0.003428 0.019134 0.000000 0.000000 0.000000
# 4 0.000000 0.000000 0.000000 0.066141 0.000000 0.000000
# 5 0.000000 0.000000 0.000000 0.000000 -0.276752 0.000000
# 6 0.000000 0.000000 0.000000 0.000000 0.000000 0.013544
#
#
# Mechanical properties :
#
#
# Convention : Reuss Voigt Hill
#
# Bulk Modulus (GPa) = 39.40023 48.66903 44.03463
# Shear Modulus (GPa) = -47.03335 27.31909 -9.85713
#
# Velocity S-wave (km/s) = -5.00364 3.81344 -2.29065
# Velocity P-wave (km/s) = 3.52260 6.73029 4.05513
#
# Compressibility (1/GPa) = 0.02538056
#
# Stress axis : x y z
#
# Youngs Moduli (GPa) = 43.58450 85.02236 52.26318
#
# Poissons Ratio (x) = 0.68113 0.14583
# Poissons Ratio (y) = 0.34917 0.17916
# Poissons Ratio (z) = 0.12161 0.29145
#
# Static dielectric constant tensor:
#      x y z
#    x 1.654210 0.000000 0.000000 
#    y 0.000000 1.637300 0.000000 
#    z 0.000000 0.000000 1.679380 
# 
# From -- ./inp_files/35276.got.cif
#   From: 2010.05.17/outbox.cif.g08.bks.cpg/sg53_18_cif.got.tgz:35276.got - 2010.06.03 12:45:16.
