data_PCOD9418864
_publ_section_title
;
Structure prediction by ZEFSAII (Michael W. Deem and Ramdas Pophale) SiO2 
 PCOD9418864
Probable space group: P M N A
;
_chemical_formula_sum "Si O2"
_cell_formula_units_Z 48
_cell_length_a 13.851912
_cell_length_b 15.917756
_cell_length_c 9.694429
_cell_angle_alpha 90.000000
_cell_angle_beta 90.000000
_cell_angle_gamma 90.000000
_cell_volume 2137.537790
_symmetry_space_group_name_H-M "P M N A"
_symmetry_group_IT_number 53
_symmetry_cell_setting 'orthorhombic'
loop_
_space_group_symop_operation_xyz
x,y,z
1/2-x,-y,1/2+z
x,-y,-z
1/2-x,y,1/2-z
-x,-y,-z
1/2+x,y,1/2-z
-x,y,z
1/2+x,-y,1/2+z
loop_
_atom_site_type_symbol
_atom_site_label
_atom_site_fract_x
_atom_site_fract_y
_atom_site_fract_z
Si Si1 0.250000 0.109424 0.250000
Si Si2 0.115154 0.023606 0.655428
Si Si3 0.287146 0.740738 0.561326
Si Si4 0.894029 0.528697 0.156967
Si Si5 0.250000 0.661379 0.250000
Si Si6 0.387721 0.352408 0.194492
Si Si7 0.114536 0.207578 0.771874
O O1 0.252800 0.171498 0.121016
O O2 0.340674 0.047646 0.252417
O O3 0.140401 0.115848 0.713094
O O4 0.000000 0.019305 0.654721
O O5 0.148796 0.000000 0.500000
O O6 0.197218 0.676044 0.590384
O O7 0.366875 0.703708 0.668771
O O8 0.170517 0.722697 0.317557
O O9 0.812637 0.598469 0.160156
O O10 0.875582 0.449250 0.256505
O O11 0.000000 0.563710 0.195105
O O12 0.899007 0.500000 0.000000
O O13 0.343118 0.767110 0.421890
O O14 0.500000 0.341347 0.149873
O O15 0.000000 0.215362 0.769745
#
# Coordination Sequence:
#
# PCOD9418864 Si02
#       7
#     4   8   8   8   4   8   8
#     4  10  23  37  68  96 130 166 220 271 331 394
#     4  10  24  45  67  93 131 173 214 269 346 416
#     4  10  22  38  63 100 133 178 231 281 335 405
#     4  10  21  39  64  94 134 185 232 277 333 402
#     4  12  23  37  66  98 132 160 226 275 333 376
#     4   9  18  37  62  94 141 186 230 284 343 401
#     4  11  25  44  67  95 131 174 221 281 341 411
#
# _framework density 22.455743999999999
#
# number of rings (size 3 to 8) (size 9 to 14) (size 15 to 20)
#    0.000    2.000    0.000    3.500    4.667    4.667 
#    0.000    3.333    0.000    4.000    0.000    0.000 
#    0.000    0.000    0.000    0.000    0.000    0.000 
#
# Total GULP energy -267757.446567 kJ/mol
# GULP energy per Si atom -5578.280137 kJ/mol
# Density = 2.240463 g / cm^3
# Si number density = 22.455744 Si / 1000 Ang^3
#
#
#
# Elastic Constant Matrix: (Units=GPa)
#
#
# Indices 1 2 3 4 5 6 
#
# 1 162.9268 73.7827 36.9501 0.0000 0.0000 0.0000
# 2 73.7827 159.6492 37.7015 0.0000 0.0000 0.0000
# 3 36.9501 37.7015 69.9263 0.0000 0.0000 0.0000
# 4 0.0000 0.0000 0.0000 22.6423 0.0000 0.0000
# 5 0.0000 0.0000 0.0000 0.0000 30.6452 0.0000
# 6 0.0000 0.0000 0.0000 0.0000 0.0000 310.2444
#
#
#
# Elastic Compliance Matrix: (Units=1/GPa)
#
#
# Indices 1 2 3 4 5 6 
#
# 1 0.008158 -0.003154 -0.002610 0.000000 0.000000 0.000000
# 2 -0.003154 0.008397 -0.002861 0.000000 0.000000 0.000000
# 3 -0.002610 -0.002861 0.017223 0.000000 0.000000 0.000000
# 4 0.000000 0.000000 0.000000 0.044165 0.000000 0.000000
# 5 0.000000 0.000000 0.000000 0.000000 0.032632 0.000000
# 6 0.000000 0.000000 0.000000 0.000000 0.000000 0.003223
#
#
# Mechanical properties :
#
#
# Convention : Reuss Voigt Hill
#
# Bulk Modulus (GPa) = 60.50522 76.59678 68.55100
# Shear Modulus (GPa) = 36.61494 88.97757 62.79626
#
# Velocity S-wave (km/s) = 4.04237 6.30155 5.29388
# Velocity P-wave (km/s) = 6.98501 9.33436 8.24380
#
# Compressibility (1/GPa) = 0.01652750
#
# Stress axis : x y z
#
# Youngs Moduli (GPa) = 122.57971 119.09235 58.06352
#
# Poissons Ratio (x) = 0.37559 0.15157
# Poissons Ratio (y) = 0.38659 0.16610
# Poissons Ratio (z) = 0.31998 0.34069
#
# Static dielectric constant tensor:
#      x y z
#    x 1.841320 0.000000 0.000000 
#    y 0.000000 1.833520 0.000000 
#    z 0.000000 0.000000 2.087890 
# 
# From -- ./inp_files/15988.got.cif
#   From: 2010.05.17/outbox.cif.g08.bks.cpg/sg53_8_cif.got.tgz:15988.got - 2010.06.03 12:45:16.
