data_PCOD9418744
_publ_section_title
;
Structure prediction by ZEFSAII (Michael W. Deem and Ramdas Pophale) SiO2 
 PCOD9418744
Probable space group: P M N A
;
_chemical_formula_sum "Si O2"
_cell_formula_units_Z 64
_cell_length_a 15.079217
_cell_length_b 11.421807
_cell_length_c 15.596648
_cell_angle_alpha 90.000000
_cell_angle_beta 90.000000
_cell_angle_gamma 90.000000
_cell_volume 2686.240417
_symmetry_space_group_name_H-M "P M N A"
_symmetry_group_IT_number 53
_symmetry_cell_setting 'orthorhombic'
loop_
_space_group_symop_operation_xyz
x,y,z
1/2-x,-y,1/2+z
x,-y,-z
1/2-x,y,1/2-z
-x,-y,-z
1/2+x,y,1/2-z
-x,y,z
1/2+x,-y,1/2+z
loop_
_atom_site_type_symbol
_atom_site_label
_atom_site_fract_x
_atom_site_fract_y
_atom_site_fract_z
Si Si1 0.893948 0.393828 0.058884
Si Si2 0.897359 0.521125 0.593464
Si Si3 0.355898 0.118583 0.234519
Si Si4 0.603049 0.865476 0.299452
Si Si5 0.898382 0.745386 0.370990
Si Si6 0.852746 0.868437 0.008833
Si Si7 0.345909 0.878564 0.962850
Si Si8 0.898116 0.370478 0.240605
O O1 0.856330 0.418879 0.154140
O O2 0.000000 0.407928 0.066152
O O3 0.860817 0.500000 0.000000
O O4 0.882985 0.259694 0.025734
O O5 0.856391 0.500000 0.500000
O O6 0.898033 0.393537 0.635788
O O7 0.857099 0.604366 0.666132
O O8 0.000000 0.561916 0.576527
O O9 0.250000 0.118461 0.250000
O O10 0.377869 0.131088 0.133759
O O11 0.396545 0.232843 0.276251
O O12 0.393817 0.001089 0.273972
O O13 0.500000 0.828834 0.314699
O O14 0.641291 0.800738 0.215273
O O15 0.654296 0.849917 0.388563
O O16 0.863771 0.781939 0.464671
O O17 0.000000 0.787663 0.370825
O O18 0.760252 0.887268 0.960213
O O19 0.897653 0.000000 0.000000
O O20 0.381972 0.000000 0.000000
O O21 0.000000 0.412223 0.247870
#
# Coordination Sequence:
#
# PCOD9418744 Si02
#       8
#     8   8   8   8   8   8   8   8
#     4  10  22  40  64  93 127 166 211 267 324 379
#     4   9  18  35  59  87 121 159 200 253 310 369
#     4  12  23  39  63  90 127 161 206 257 315 380
#     4  11  24  39  64  94 123 160 208 267 314 372
#     4  10  22  38  60  93 125 159 209 257 312 378
#     4  11  24  42  64  91 126 169 217 262 319 386
#     4  11  22  40  60  88 126 171 205 256 323 379
#     4  10  21  38  63  90 122 163 208 255 312 378
#
# _framework density 23.825119999999998
#
# number of rings (size 3 to 8) (size 9 to 14) (size 15 to 20)
#    0.000    1.500    1.250    4.500    1.750    4.250 
#    0.000    3.125    0.000    0.000    0.000    0.000 
#    0.000    0.000    0.000    0.000    0.000    0.000 
#
# Total GULP energy -357186.188079 kJ/mol
# GULP energy per Si atom -5581.034189 kJ/mol
# Density = 2.377089 g / cm^3
# Si number density = 23.825120 Si / 1000 Ang^3
#
#
#
# Elastic Constant Matrix: (Units=GPa)
#
#
# Indices 1 2 3 4 5 6 
#
# 1 46.1923 -8.6732 -5.1736 0.0000 0.0000 0.0000
# 2 -8.6732 86.7015 32.2526 0.0000 0.0000 0.0000
# 3 -5.1736 32.2526 191.8535 0.0000 0.0000 0.0000
# 4 0.0000 0.0000 0.0000 29.6449 0.0000 0.0000
# 5 0.0000 0.0000 0.0000 0.0000 4.1085 0.0000
# 6 0.0000 0.0000 0.0000 0.0000 0.0000 42.3126
#
#
#
# Elastic Compliance Matrix: (Units=1/GPa)
#
#
# Indices 1 2 3 4 5 6 
#
# 1 0.022073 0.002119 0.000239 0.000000 0.000000 0.000000
# 2 0.002119 0.012507 -0.002045 0.000000 0.000000 0.000000
# 3 0.000239 -0.002045 0.005563 0.000000 0.000000 0.000000
# 4 0.000000 0.000000 0.000000 0.033733 0.000000 0.000000
# 5 0.000000 0.000000 0.000000 0.000000 0.243400 0.000000
# 6 0.000000 0.000000 0.000000 0.000000 0.000000 0.023634
#
#
# Mechanical properties :
#
#
# Convention : Reuss Voigt Hill
#
# Bulk Modulus (GPa) = 24.52887 40.17318 32.35103
# Shear Modulus (GPa) = 14.12940 35.63598 24.88269
#
# Velocity S-wave (km/s) = 2.43790 3.87166 3.23521
# Velocity P-wave (km/s) = 4.27109 6.07328 5.25009
#
# Compressibility (1/GPa) = 0.04076829
#
# Stress axis : x y z
#
# Youngs Moduli (GPa) = 45.30357 79.95722 179.77205
#
# Poissons Ratio (x) = -0.16945 -0.04296
# Poissons Ratio (y) = -0.09601 0.36770
# Poissons Ratio (z) = -0.01083 0.16354
#
# Static dielectric constant tensor:
#      x y z
#    x 1.915600 0.000000 0.000000 
#    y 0.000000 1.899730 0.000000 
#    z 0.000000 0.000000 1.959640 
# 
# From -- ./inp_files/23918.got.cif
#   From: 2010.05.17/outbox.cif.g08.bks.cpg/sg53_12_cif.got.tgz:23918.got - 2010.06.03 12:45:16.
