data_PCOD9418257
_publ_section_title
;
Structure prediction by ZEFSAII (Michael W. Deem and Ramdas Pophale) SiO2 
 PCOD9418257
Probable space group: P M N A
;
_chemical_formula_sum "Si O2"
_cell_formula_units_Z 56
_cell_length_a 14.162369
_cell_length_b 11.233923
_cell_length_c 14.669536
_cell_angle_alpha 90.000000
_cell_angle_beta 90.000000
_cell_angle_gamma 90.000000
_cell_volume 2333.907963
_symmetry_space_group_name_H-M "P M N A"
_symmetry_group_IT_number 53
_symmetry_cell_setting 'orthorhombic'
loop_
_space_group_symop_operation_xyz
x,y,z
1/2-x,-y,1/2+z
x,-y,-z
1/2-x,y,1/2-z
-x,-y,-z
1/2+x,y,1/2-z
-x,y,z
1/2+x,-y,1/2+z
loop_
_atom_site_type_symbol
_atom_site_label
_atom_site_fract_x
_atom_site_fract_y
_atom_site_fract_z
Si Si1 0.607058 0.367078 0.751745
Si Si2 0.812069 0.203740 0.900592
Si Si3 0.698990 0.379578 0.454718
Si Si4 0.604330 0.725264 0.705645
Si Si5 0.108452 0.405427 0.380672
Si Si6 0.900437 0.855631 0.387753
Si Si7 0.358954 0.993136 0.721522
O O1 0.500000 0.384739 0.712988
O O2 0.676918 0.312680 0.674108
O O3 0.629992 0.482909 0.813003
O O4 0.599194 0.261587 0.824913
O O5 0.706956 0.152517 0.923642
O O6 0.868881 0.096255 0.854379
O O7 0.843231 0.267366 0.992300
O O8 0.662711 0.500000 0.500000
O O9 0.674225 0.357786 0.350357
O O10 0.813152 0.386370 0.457430
O O11 0.500000 0.682985 0.681002
O O12 0.614811 0.707173 0.813353
O O13 0.613390 0.864423 0.687115
O O14 0.000000 0.417808 0.412329
O O15 0.904140 0.963816 0.315876
O O16 0.000000 0.856309 0.442404
O O17 0.250000 0.989674 0.750000
#
# Coordination Sequence:
#
# PCOD9418257 Si02
#       7
#     8   8   8   8   8   8   8
#     4   9  17  33  57  82 111 149 194 238 280 333
#     4  10  21  34  55  89 122 153 189 240 300 352
#     4  12  25  38  58  87 123 158 190 234 291 353
#     4  11  24  42  63  85 113 152 198 243 287 343
#     4  10  22  40  63  87 113 153 199 241 288 344
#     4   9  17  31  55  85 116 151 193 239 283 335
#     4   9  18  36  61  85 113 151 200 246 288 342
#
# _framework density 23.994091999999998
#
# number of rings (size 3 to 8) (size 9 to 14) (size 15 to 20)
#    0.000    2.000    0.000    4.714    0.000    4.000 
#    0.000    0.714    0.000    0.000    0.000    8.000 
#    0.000    0.000    0.000    0.000    0.000    0.000 
#
# Total GULP energy -312395.805804 kJ/mol
# GULP energy per Si atom -5578.496532 kJ/mol
# Density = 2.393948 g / cm^3
# Si number density = 23.994092 Si / 1000 Ang^3
#
#
#
# Elastic Constant Matrix: (Units=GPa)
#
#
# Indices 1 2 3 4 5 6 
#
# 1 67.7737 1.1795 -15.2792 0.0000 0.0000 0.0000
# 2 1.1795 110.1810 19.7968 0.0000 0.0000 0.0000
# 3 -15.2792 19.7968 35.4397 0.0000 0.0000 0.0000
# 4 0.0000 0.0000 0.0000 19.6642 0.0000 0.0000
# 5 0.0000 0.0000 0.0000 0.0000 14.4182 0.0000
# 6 0.0000 0.0000 0.0000 0.0000 0.0000 35.6605
#
#
#
# Elastic Compliance Matrix: (Units=1/GPa)
#
#
# Indices 1 2 3 4 5 6 
#
# 1 0.016602 -0.001627 0.008066 0.000000 0.000000 0.000000
# 2 -0.001627 0.010248 -0.006426 0.000000 0.000000 0.000000
# 3 0.008066 -0.006426 0.035284 0.000000 0.000000 0.000000
# 4 0.000000 0.000000 0.000000 0.050854 0.000000 0.000000
# 5 0.000000 0.000000 0.000000 0.000000 0.069357 0.000000
# 6 0.000000 0.000000 0.000000 0.000000 0.000000 0.028042
#
#
# Mechanical properties :
#
#
# Convention : Reuss Voigt Hill
#
# Bulk Modulus (GPa) = 16.08730 24.97651 20.53190
# Shear Modulus (GPa) = 21.63748 27.79507 24.71628
#
# Velocity S-wave (km/s) = 3.00623 3.40724 3.21300
# Velocity P-wave (km/s) = 4.33234 5.09029 4.72653
#
# Compressibility (1/GPa) = 0.06216085
#
# Stress axis : x y z
#
# Youngs Moduli (GPa) = 60.23422 97.58012 28.34124
#
# Poissons Ratio (x) = 0.15877 -0.22861
# Poissons Ratio (y) = 0.09801 0.18212
# Poissons Ratio (z) = -0.48588 0.62705
#
# Static dielectric constant tensor:
#      x y z
#    x 2.095710 0.000000 0.000000 
#    y 0.000000 1.906010 0.000000 
#    z 0.000000 0.000000 1.880140 
# 
# From -- ./inp_files/22779.got.cif
#   From: 2010.05.17/outbox.cif.g08.bks.cpg/sg53_12_cif.got.tgz:22779.got - 2010.06.03 12:45:16.
