data_PCOD9418994
_publ_section_title
;
Structure prediction by ZEFSAII (Michael W. Deem and Ramdas Pophale) SiO2 
 PCOD9418994
Probable space group: P M N A
;
_chemical_formula_sum "Si O2"
_cell_formula_units_Z 64
_cell_length_a 15.192973
_cell_length_b 9.808116
_cell_length_c 21.912497
_cell_angle_alpha 90.000000
_cell_angle_beta 90.000000
_cell_angle_gamma 90.000000
_cell_volume 3265.278504
_symmetry_space_group_name_H-M "P M N A"
_symmetry_group_IT_number 53
_symmetry_cell_setting 'orthorhombic'
loop_
_space_group_symop_operation_xyz
x,y,z
1/2-x,-y,1/2+z
x,-y,-z
1/2-x,y,1/2-z
-x,-y,-z
1/2+x,y,1/2-z
-x,y,z
1/2+x,-y,1/2+z
loop_
_atom_site_type_symbol
_atom_site_label
_atom_site_fract_x
_atom_site_fract_y
_atom_site_fract_z
Si Si1 0.217517 0.877089 0.042563
Si Si2 0.899042 0.079202 0.602584
Si Si3 0.751776 0.629023 0.960131
Si Si4 0.397996 0.795810 0.347787
Si Si5 0.150505 0.413789 0.264092
Si Si6 0.104821 0.717185 0.284779
Si Si7 0.596486 0.527370 0.629161
Si Si8 0.599046 0.759984 0.879226
O O1 0.321693 0.893473 0.055059
O O2 0.165282 0.873968 0.106108
O O3 0.205757 0.737380 0.006196
O O4 0.187299 0.000000 0.000000
O O5 0.884459 0.186161 0.657402
O O6 0.000000 0.096380 0.580146
O O7 0.890109 0.923170 0.624990
O O8 0.824689 0.582983 0.911385
O O9 0.671660 0.698414 0.924249
O O10 0.722141 0.500000 0.000000
O O11 0.500000 0.842371 0.351167
O O12 0.367657 0.793593 0.277349
O O13 0.396487 0.636241 0.366247
O O14 0.250000 0.372624 0.250000
O O15 0.149993 0.569661 0.289682
O O16 0.103238 0.419857 0.198722
O O17 0.110155 0.314092 0.314123
O O18 0.000000 0.688576 0.277577
O O19 0.500000 0.562353 0.603969
O O20 0.500000 0.733502 0.901824
#
# Coordination Sequence:
#
# PCOD9418994 Si02
#       8
#     8   8   8   8   8   8   8   8
#     4  12  25  42  62  89 125 163 214 259 303 366
#     4  10  24  44  66  89 124 170 206 250 314 375
#     4  12  25  42  63  93 122 161 220 261 302 367
#     4   9  20  40  65  92 124 162 204 256 310 368
#     4  11  21  37  67  99 129 156 198 261 320 367
#     4   9  20  39  64  96 122 157 208 249 307 378
#     4  10  21  41  66  93 126 166 205 252 317 378
#     4  11  24  45  65  91 130 165 204 260 317 373
#
# _framework density 19.600166000000002
#
# number of rings (size 3 to 8) (size 9 to 14) (size 15 to 20)
#    0.000    1.500    3.750    1.875    5.250    2.000 
#    4.500    0.000    0.000    0.000    0.000    0.000 
#    0.000    0.000    0.000    0.000    0.000    0.000 
#
# Total GULP energy -357612.034558 kJ/mol
# GULP energy per Si atom -5587.688040 kJ/mol
# Density = 1.955555 g / cm^3
# Si number density = 19.600166 Si / 1000 Ang^3
#
#
#
# Elastic Constant Matrix: (Units=GPa)
#
#
# Indices 1 2 3 4 5 6 
#
# 1 68.1602 -3.4500 4.1876 0.0000 0.0000 0.0000
# 2 -3.4500 40.6788 4.5549 0.0000 0.0000 0.0000
# 3 4.1876 4.5549 45.4624 0.0000 0.0000 0.0000
# 4 0.0000 0.0000 0.0000 33.8447 0.0000 0.0000
# 5 0.0000 0.0000 0.0000 0.0000 70.8008 0.0000
# 6 0.0000 0.0000 0.0000 0.0000 0.0000 -153.7631
#
#
#
# Elastic Compliance Matrix: (Units=1/GPa)
#
#
# Indices 1 2 3 4 5 6 
#
# 1 0.014836 0.001427 -0.001510 0.000000 0.000000 0.000000
# 2 0.001427 0.024999 -0.002636 0.000000 0.000000 0.000000
# 3 -0.001510 -0.002636 0.022399 0.000000 0.000000 0.000000
# 4 0.000000 0.000000 0.000000 0.029547 0.000000 0.000000
# 5 0.000000 0.000000 0.000000 0.000000 0.014124 0.000000
# 6 0.000000 0.000000 0.000000 0.000000 0.000000 -0.006504
#
#
# Mechanical properties :
#
#
# Convention : Reuss Voigt Hill
#
# Bulk Modulus (GPa) = 17.60630 18.32072 17.96351
# Shear Modulus (GPa) = 40.39703 0.11041 20.25372
#
# Velocity S-wave (km/s) = 4.54481 0.23760 3.21805
# Velocity P-wave (km/s) = 6.04505 3.07291 4.79507
#
# Compressibility (1/GPa) = 0.05679786
#
# Stress axis : x y z
#
# Youngs Moduli (GPa) = 67.40220 40.00156 44.64413
#
# Poissons Ratio (x) = -0.05709 0.06739
# Poissons Ratio (y) = -0.09620 0.11769
# Poissons Ratio (z) = 0.10175 0.10545
#
# Static dielectric constant tensor:
#      x y z
#    x 1.693890 0.000000 0.000000 
#    y 0.000000 1.660940 0.000000 
#    z 0.000000 0.000000 1.679940 
# 
# From -- ./inp_files/35355.got.cif
#   From: 2010.05.17/outbox.cif.g08.bks.cpg/sg53_18_cif.got.tgz:35355.got - 2010.06.03 12:45:16.
