data_PCOD9418881
_publ_section_title
;
Structure prediction by ZEFSAII (Michael W. Deem and Ramdas Pophale) SiO2 
 PCOD9418881
Probable space group: P M N A
;
_chemical_formula_sum "Si O2"
_cell_formula_units_Z 32
_cell_length_a 15.371762
_cell_length_b 6.799665
_cell_length_c 13.322683
_cell_angle_alpha 90.000000
_cell_angle_beta 90.000000
_cell_angle_gamma 90.000000
_cell_volume 1392.524558
_symmetry_space_group_name_H-M "P M N A"
_symmetry_group_IT_number 53
_symmetry_cell_setting 'orthorhombic'
loop_
_space_group_symop_operation_xyz
x,y,z
1/2-x,-y,1/2+z
x,-y,-z
1/2-x,y,1/2-z
-x,-y,-z
1/2+x,y,1/2-z
-x,y,z
1/2+x,-y,1/2+z
loop_
_atom_site_type_symbol
_atom_site_label
_atom_site_fract_x
_atom_site_fract_y
_atom_site_fract_z
Si Si1 0.593754 0.123517 0.351320
Si Si2 0.324237 0.730542 0.316195
Si Si3 0.400869 0.396156 0.168250
Si Si4 0.260528 0.770360 0.978726
O O1 0.500000 0.179609 0.395736
O O2 0.595820 0.204243 0.238848
O O3 0.675602 0.212465 0.408622
O O4 0.605140 0.889621 0.348466
O O5 0.250000 0.837620 0.250000
O O6 0.361624 0.561742 0.243982
O O7 0.274352 0.673870 0.418203
O O8 0.500000 0.450056 0.140013
O O9 0.339698 0.336267 0.076314
O O10 0.284975 0.000000 0.000000
#
# Coordination Sequence:
#
# PCOD9418881 Si02
#       4
#     8   8   8   8
#     4  10  21  39  65  97 131 168 217 273 330 395
#     4  11  23  40  64  91 128 176 219 268 330 396
#     4  11  24  42  66  98 135 175 223 276 332 398
#     4  10  22  42  68  95 131 178 223 275 337 399
#
# _framework density 22.979849000000002
#
# number of rings (size 3 to 8) (size 9 to 14) (size 15 to 20)
#    0.000    1.500    0.000    6.000    0.000   10.000 
#    0.000    6.250    0.000    1.500    0.000    0.000 
#    0.000    0.000    0.000    0.000    0.000    0.000 
#
# Total GULP energy -178894.345468 kJ/mol
# GULP energy per Si atom -5590.448296 kJ/mol
# Density = 2.292755 g / cm^3
# Si number density = 22.979849 Si / 1000 Ang^3
#
#
#
# Elastic Constant Matrix: (Units=GPa)
#
#
# Indices 1 2 3 4 5 6 
#
# 1 187.2985 56.8734 94.6297 0.0000 0.0000 0.0000
# 2 56.8734 91.4608 32.7887 0.0000 0.0000 0.0000
# 3 94.6297 32.7887 116.1324 0.0000 0.0000 0.0000
# 4 0.0000 0.0000 0.0000 42.8962 0.0000 0.0000
# 5 0.0000 0.0000 0.0000 0.0000 23.7570 0.0000
# 6 0.0000 0.0000 0.0000 0.0000 0.0000 29.1075
#
#
#
# Elastic Compliance Matrix: (Units=1/GPa)
#
#
# Indices 1 2 3 4 5 6 
#
# 1 0.010088 -0.003701 -0.007175 0.000000 0.000000 0.000000
# 2 -0.003701 0.013523 -0.000802 0.000000 0.000000 0.000000
# 3 -0.007175 -0.000802 0.014684 0.000000 0.000000 0.000000
# 4 0.000000 0.000000 0.000000 0.023312 0.000000 0.000000
# 5 0.000000 0.000000 0.000000 0.000000 0.042093 0.000000
# 6 0.000000 0.000000 0.000000 0.000000 0.000000 0.034355
#
#
# Mechanical properties :
#
#
# Convention : Reuss Voigt Hill
#
# Bulk Modulus (GPa) = 66.94413 84.83060 75.88737
# Shear Modulus (GPa) = 30.04965 33.19212 31.62089
#
# Velocity S-wave (km/s) = 3.62007 3.80465 3.71351
# Velocity P-wave (km/s) = 6.83141 7.50306 7.17509
#
# Compressibility (1/GPa) = 0.01493783
#
# Stress axis : x y z
#
# Youngs Moduli (GPa) = 99.12760 73.95053 68.10060
#
# Poissons Ratio (x) = 0.27367 0.48864
# Poissons Ratio (y) = 0.36684 0.05465
# Poissons Ratio (z) = 0.71127 0.05934
#
# Static dielectric constant tensor:
#      x y z
#    x 1.882940 0.000000 0.000000 
#    y 0.000000 1.897030 0.000000 
#    z 0.000000 0.000000 1.853300 
# 
# From -- ./inp_files/15518.got.cif
#   From: 2010.05.17/outbox.cif.g08.bks.cpg/sg53_8_cif.got.tgz:15518.got - 2010.06.03 12:45:16.
