data_PCOD9418147
_publ_section_title
;
Structure prediction by ZEFSAII (Michael W. Deem and Ramdas Pophale) SiO2 
 PCOD9418147
Probable space group: P M N A
;
_chemical_formula_sum "Si O2"
_cell_formula_units_Z 56
_cell_length_a 14.272907
_cell_length_b 11.862439
_cell_length_c 17.900903
_cell_angle_alpha 90.000000
_cell_angle_beta 90.000000
_cell_angle_gamma 90.000000
_cell_volume 3030.828535
_symmetry_space_group_name_H-M "P M N A"
_symmetry_group_IT_number 53
_symmetry_cell_setting 'orthorhombic'
loop_
_space_group_symop_operation_xyz
x,y,z
1/2-x,-y,1/2+z
x,-y,-z
1/2-x,y,1/2-z
-x,-y,-z
1/2+x,y,1/2-z
-x,y,z
1/2+x,-y,1/2+z
loop_
_atom_site_type_symbol
_atom_site_label
_atom_site_fract_x
_atom_site_fract_y
_atom_site_fract_z
Si Si1 0.888085 0.687993 0.395795
Si Si2 0.609477 0.898333 0.361126
Si Si3 0.731459 0.948592 0.923969
Si Si4 0.740461 0.496734 0.163991
Si Si5 0.888259 0.922631 0.313015
Si Si6 0.258798 0.688398 0.959786
Si Si7 0.109809 0.357268 0.919620
O O1 0.841479 0.588745 0.347690
O O2 0.864104 0.807243 0.356870
O O3 0.839391 0.682167 0.476850
O O4 0.000000 0.678074 0.400094
O O5 0.500000 0.927063 0.369450
O O6 0.635717 0.910295 0.274007
O O7 0.620919 0.769089 0.386398
O O8 0.674493 0.980428 0.408639
O O9 0.750239 0.817419 0.934877
O O10 0.664226 0.976931 0.854830
O O11 0.688273 0.000000 0.000000
O O12 0.750000 0.464928 0.250000
O O13 0.721280 0.392389 0.109455
O O14 0.834736 0.557954 0.134233
O O15 0.000000 0.937112 0.317972
O O16 0.165106 0.645980 0.002034
O O17 0.000000 0.382313 0.926475
#
# Coordination Sequence:
#
# PCOD9418147 Si02
#       7
#     8   8   8   8   8   8   8
#     4  10  20  39  65  88 112 146 194 247 293 337
#     4  10  21  36  59  89 115 146 194 247 292 337
#     4  12  21  37  58  84 118 160 190 230 287 343
#     4  11  24  39  56  84 121 154 190 233 287 353
#     4  10  21  36  59  89 115 146 194 247 292 337
#     4  11  24  38  57  88 117 156 196 233 285 344
#     4  10  20  39  65  88 112 146 194 247 293 337
#
# _framework density 18.476796
#
# number of rings (size 3 to 8) (size 9 to 14) (size 15 to 20)
#    0.000    1.429    2.857    3.857    0.000    6.857 
#    0.000    0.000    0.000    0.000    0.000    0.000 
#    0.000    0.000    0.000    0.000    0.000    0.000 
#
# Total GULP energy -312993.953518 kJ/mol
# GULP energy per Si atom -5589.177741 kJ/mol
# Density = 1.843474 g / cm^3
# Si number density = 18.476796 Si / 1000 Ang^3
#
#
#
# Elastic Constant Matrix: (Units=GPa)
#
#
# Indices 1 2 3 4 5 6 
#
# 1 66.2144 3.2775 10.8470 0.0000 0.0000 0.0000
# 2 3.2775 45.9307 18.4349 0.0000 0.0000 0.0000
# 3 10.8470 18.4349 107.2250 0.0000 0.0000 0.0000
# 4 0.0000 0.0000 0.0000 28.0784 0.0000 0.0000
# 5 0.0000 0.0000 0.0000 0.0000 16.6715 0.0000
# 6 0.0000 0.0000 0.0000 0.0000 0.0000 4.7072
#
#
#
# Elastic Compliance Matrix: (Units=1/GPa)
#
#
# Indices 1 2 3 4 5 6 
#
# 1 0.015368 -0.000508 -0.001467 0.000000 0.000000 0.000000
# 2 -0.000508 0.023402 -0.003972 0.000000 0.000000 0.000000
# 3 -0.001467 -0.003972 0.010158 0.000000 0.000000 0.000000
# 4 0.000000 0.000000 0.000000 0.035615 0.000000 0.000000
# 5 0.000000 0.000000 0.000000 0.000000 0.059982 0.000000
# 6 0.000000 0.000000 0.000000 0.000000 0.000000 0.212441
#
#
# Mechanical properties :
#
#
# Convention : Reuss Voigt Hill
#
# Bulk Modulus (GPa) = 27.00254 31.60987 29.30620
# Shear Modulus (GPa) = 13.11631 22.34548 17.73089
#
# Velocity S-wave (km/s) = 2.66725 3.48139 3.10115
# Velocity P-wave (km/s) = 4.91240 5.77106 5.35895
#
# Compressibility (1/GPa) = 0.03703356
#
# Stress axis : x y z
#
# Youngs Moduli (GPa) = 65.07044 42.73058 98.44905
#
# Poissons Ratio (x) = 0.02169 0.14446
# Poissons Ratio (y) = 0.03304 0.39105
# Poissons Ratio (z) = 0.09548 0.16973
#
# Static dielectric constant tensor:
#      x y z
#    x 1.639750 0.000000 0.000000 
#    y 0.000000 1.610690 0.000000 
#    z 0.000000 0.000000 1.625340 
# 
# From -- ./inp_files/22761.got.cif
#   From: 2010.05.17/outbox.cif.g08.bks.cpg/sg53_12_cif.got.tgz:22761.got - 2010.06.03 12:45:16.
