data_PCOD9418223
_publ_section_title
;
Structure prediction by ZEFSAII (Michael W. Deem and Ramdas Pophale) SiO2 
 PCOD9418223
Probable space group: P M N A
;
_chemical_formula_sum "Si O2"
_cell_formula_units_Z 40
_cell_length_a 17.222539
_cell_length_b 12.395963
_cell_length_c 8.146538
_cell_angle_alpha 90.000000
_cell_angle_beta 90.000000
_cell_angle_gamma 90.000000
_cell_volume 1739.204041
_symmetry_space_group_name_H-M "P M N A"
_symmetry_group_IT_number 53
_symmetry_cell_setting 'orthorhombic'
loop_
_space_group_symop_operation_xyz
x,y,z
1/2-x,-y,1/2+z
x,-y,-z
1/2-x,y,1/2-z
-x,-y,-z
1/2+x,y,1/2-z
-x,y,z
1/2+x,-y,1/2+z
loop_
_atom_site_type_symbol
_atom_site_label
_atom_site_fract_x
_atom_site_fract_y
_atom_site_fract_z
Si Si1 0.590097 0.282363 0.753088
Si Si2 0.821964 0.095429 0.873839
Si Si3 0.837793 0.505486 0.803962
Si Si4 0.590077 0.052288 0.164069
Si Si5 0.092839 0.281049 0.358661
O O1 0.500000 0.260252 0.716329
O O2 0.646556 0.219063 0.625729
O O3 0.606000 0.409474 0.750041
O O4 0.605243 0.256907 0.946490
O O5 0.750000 0.100129 0.750000
O O6 0.897761 0.038372 0.796640
O O7 0.799314 0.000000 0.000000
O O8 0.750000 0.481572 0.750000
O O9 0.863746 0.617153 0.718415
O O10 0.840691 0.500000 0.000000
O O11 0.500000 0.073455 0.132507
O O12 0.621935 0.167921 0.219316
O O13 0.623715 0.000000 0.000000
O O14 0.000000 0.298609 0.334428
#
# Coordination Sequence:
#
# PCOD9418223 Si02
#       5
#     8   8   8   8   8
#     4  11  24  46  73 100 136 181 234 290 350 422
#     4  12  27  43  66 100 141 187 231 287 349 413
#     4  12  27  46  69 101 139 183 229 290 352 419
#     4  10  20  41  69 100 135 177 228 279 341 412
#     4  10  22  42  72 100 134 181 227 282 346 414
#
# _framework density 22.999026000000001
#
# number of rings (size 3 to 8) (size 9 to 14) (size 15 to 20)
#    0.000    1.000    2.000    4.200    2.800    5.600 
#    0.000    0.000    0.000    0.000    0.000    0.000 
#    0.000    0.000    0.000    0.000    0.000    0.000 
#
# Total GULP energy -223021.389123 kJ/mol
# GULP energy per Si atom -5575.534728 kJ/mol
# Density = 2.294668 g / cm^3
# Si number density = 22.999026 Si / 1000 Ang^3
#
#
#
# Elastic Constant Matrix: (Units=GPa)
#
#
# Indices 1 2 3 4 5 6 
#
# 1 79.5888 26.9251 21.8560 0.0000 0.0000 0.0000
# 2 26.9251 148.4020 5.1670 0.0000 0.0000 0.0000
# 3 21.8560 5.1670 18.7055 0.0000 0.0000 0.0000
# 4 0.0000 0.0000 0.0000 94.0523 0.0000 0.0000
# 5 0.0000 0.0000 0.0000 0.0000 18.1285 0.0000
# 6 0.0000 0.0000 0.0000 0.0000 0.0000 -36.7696
#
#
#
# Elastic Compliance Matrix: (Units=1/GPa)
#
#
# Indices 1 2 3 4 5 6 
#
# 1 0.019576 -0.002782 -0.022105 0.000000 0.000000 0.000000
# 2 -0.002782 0.007199 0.001262 0.000000 0.000000 0.000000
# 3 -0.022105 0.001262 0.078939 0.000000 0.000000 0.000000
# 4 0.000000 0.000000 0.000000 0.010632 0.000000 0.000000
# 5 0.000000 0.000000 0.000000 0.000000 0.055162 0.000000
# 6 0.000000 0.000000 0.000000 0.000000 0.000000 -0.027196
#
#
# Mechanical properties :
#
#
# Convention : Reuss Voigt Hill
#
# Bulk Modulus (GPa) = 17.10424 39.39917 28.25171
# Shear Modulus (GPa) = 23.69112 27.93212 25.81162
#
# Velocity S-wave (km/s) = 3.21299 3.48874 3.35370
# Velocity P-wave (km/s) = 4.60624 5.77896 5.22560
#
# Compressibility (1/GPa) = 0.05846503
#
# Stress axis : x y z
#
# Youngs Moduli (GPa) = 51.08309 138.90277 12.66801
#
# Poissons Ratio (x) = 0.38644 0.28002
# Poissons Ratio (y) = 0.14212 -0.01599
# Poissons Ratio (z) = 1.12917 -0.17530
#
# Static dielectric constant tensor:
#      x y z
#    x 1.775660 0.000000 0.000000 
#    y 0.000000 1.924250 0.000000 
#    z 0.000000 0.000000 1.973910 
# 
# From -- ./inp_files/9638.got.cif
#   From: 2010.05.17/outbox.cif.g08.bks.cpg/sg53_5_cif.got.tgz:9638.got - 2010.06.03 12:45:16.
