data_PCOD9418508
_publ_section_title
;
Structure prediction by ZEFSAII (Michael W. Deem and Ramdas Pophale) SiO2 
 PCOD9418508
Probable space group: P M N A
;
_chemical_formula_sum "Si O2"
_cell_formula_units_Z 52
_cell_length_a 9.242180
_cell_length_b 17.467931
_cell_length_c 14.787803
_cell_angle_alpha 90.000000
_cell_angle_beta 90.000000
_cell_angle_gamma 90.000000
_cell_volume 2387.368980
_symmetry_space_group_name_H-M "P M N A"
_symmetry_group_IT_number 53
_symmetry_cell_setting 'orthorhombic'
loop_
_space_group_symop_operation_xyz
x,y,z
1/2-x,-y,1/2+z
x,-y,-z
1/2-x,y,1/2-z
-x,-y,-z
1/2+x,y,1/2-z
-x,y,z
1/2+x,-y,1/2+z
loop_
_atom_site_type_symbol
_atom_site_label
_atom_site_fract_x
_atom_site_fract_y
_atom_site_fract_z
Si Si1 0.670679 0.517971 0.844515
Si Si2 0.669913 0.688354 0.919799
Si Si3 0.328135 0.164691 0.415936
Si Si4 0.250000 0.276219 0.750000
Si Si5 0.834277 0.848055 0.394083
Si Si6 0.335193 0.376515 0.586295
Si Si7 0.335143 0.984303 0.891272
O O1 0.750000 0.508387 0.750000
O O2 0.500000 0.499518 0.841106
O O3 0.685390 0.606459 0.871719
O O4 0.751718 0.456765 0.906901
O O5 0.500000 0.705226 0.929077
O O6 0.752032 0.759828 0.875692
O O7 0.744853 0.673922 0.016255
O O8 0.500000 0.170308 0.412698
O O9 0.271964 0.162656 0.520671
O O10 0.270814 0.085861 0.372545
O O11 0.172704 0.218186 0.680550
O O12 0.335059 0.332952 0.682747
O O13 0.000000 0.851973 0.428877
O O14 0.801075 0.931826 0.352730
O O15 0.500000 0.386460 0.555703
O O16 0.500000 0.963101 0.867749
O O17 0.330109 0.000000 0.000000
#
# Coordination Sequence:
#
# PCOD9418508 Si02
#       7
#     8   8   8   4   8   8   8
#     4  11  25  44  67  92 122 164 208 260 320 378
#     4  11  24  42  65  92 125 166 212 258 314 380
#     4  11  21  34  58  90 120 154 203 260 307 358
#     4  12  24  36  62  94 128 166 206 254 314 368
#     4  10  21  37  57  83 122 165 203 246 302 372
#     4  12  25  40  62  94 130 167 208 258 316 377
#     4   8  16  33  56  80 110 153 195 234 293 359
#
# _framework density 21.781300999999999
#
# number of rings (size 3 to 8) (size 9 to 14) (size 15 to 20)
#    0.000    1.385    2.308    4.615    0.000    8.923 
#    0.000    0.000    1.692    0.000    0.000    0.000 
#    0.000    0.000    0.000    0.000    0.000    0.000 
#
# Total GULP energy -290499.172613 kJ/mol
# GULP energy per Si atom -5586.522550 kJ/mol
# Density = 2.173173 g / cm^3
# Si number density = 21.781301 Si / 1000 Ang^3
#
#
#
# Elastic Constant Matrix: (Units=GPa)
#
#
# Indices 1 2 3 4 5 6 
#
# 1 159.6364 88.7531 5.8905 0.0000 0.0000 0.0000
# 2 88.7531 176.6886 10.3122 0.0000 0.0000 0.0000
# 3 5.8905 10.3122 29.6288 0.0000 0.0000 0.0000
# 4 0.0000 0.0000 0.0000 29.0830 0.0000 0.0000
# 5 0.0000 0.0000 0.0000 0.0000 12.4560 0.0000
# 6 0.0000 0.0000 0.0000 0.0000 0.0000 33.8723
#
#
#
# Elastic Compliance Matrix: (Units=1/GPa)
#
#
# Indices 1 2 3 4 5 6 
#
# 1 0.008693 -0.004354 -0.000213 0.000000 0.000000 0.000000
# 2 -0.004354 0.007958 -0.001904 0.000000 0.000000 0.000000
# 3 -0.000213 -0.001904 0.034456 0.000000 0.000000 0.000000
# 4 0.000000 0.000000 0.000000 0.034384 0.000000 0.000000
# 5 0.000000 0.000000 0.000000 0.000000 0.080283 0.000000
# 6 0.000000 0.000000 0.000000 0.000000 0.000000 0.029523
#
#
# Mechanical properties :
#
#
# Convention : Reuss Voigt Hill
#
# Bulk Modulus (GPa) = 26.20219 63.98504 45.09362
# Shear Modulus (GPa) = 22.62852 32.48212 27.55532
#
# Velocity S-wave (km/s) = 3.22669 3.86590 3.56067
# Velocity P-wave (km/s) = 5.09292 7.02616 6.13615
#
# Compressibility (1/GPa) = 0.03816475
#
# Stress axis : x y z
#
# Youngs Moduli (GPa) = 115.03714 125.66070 29.02254
#
# Poissons Ratio (x) = 0.54714 0.00618
# Poissons Ratio (y) = 0.50088 0.05526
# Poissons Ratio (z) = 0.02448 0.23927
#
# Static dielectric constant tensor:
#      x y z
#    x 1.905050 0.000000 0.000000 
#    y 0.000000 1.849220 0.000000 
#    z 0.000000 0.000000 1.782340 
# 
# From -- ./inp_files/26492.got.cif
#   From: 2010.05.17/outbox.cif.g08.bks.cpg/sg53_14_cif.got.tgz:26492.got - 2010.06.03 12:45:16.
