data_PCOD9418174
_publ_section_title
;
Structure prediction by ZEFSAII (Michael W. Deem and Ramdas Pophale) SiO2 
 PCOD9418174
Probable space group: P M N A
;
_chemical_formula_sum "Si O2"
_cell_formula_units_Z 56
_cell_length_a 8.505620
_cell_length_b 18.073533
_cell_length_c 18.689154
_cell_angle_alpha 90.000000
_cell_angle_beta 90.000000
_cell_angle_gamma 90.000000
_cell_volume 2873.020171
_symmetry_space_group_name_H-M "P M N A"
_symmetry_group_IT_number 53
_symmetry_cell_setting 'orthorhombic'
loop_
_space_group_symop_operation_xyz
x,y,z
1/2-x,-y,1/2+z
x,-y,-z
1/2-x,y,1/2-z
-x,-y,-z
1/2+x,y,1/2-z
-x,y,z
1/2+x,-y,1/2+z
loop_
_atom_site_type_symbol
_atom_site_label
_atom_site_fract_x
_atom_site_fract_y
_atom_site_fract_z
Si Si1 0.810143 0.463169 0.924683
Si Si2 0.808657 0.982059 0.419464
Si Si3 0.810618 0.402683 0.170577
Si Si4 0.311178 0.873360 0.830648
Si Si5 0.687645 0.297070 0.920556
Si Si6 0.311413 0.737668 0.575555
Si Si7 0.309705 0.840265 0.170151
O O1 0.758307 0.519061 0.862340
O O2 0.752461 0.379976 0.915162
O O3 0.000000 0.461435 0.925951
O O4 0.759450 0.500000 0.000000
O O5 0.757092 0.904570 0.384848
O O6 0.000000 0.979820 0.422452
O O7 0.753522 0.000000 0.500000
O O8 0.764760 0.048908 0.366766
O O9 0.750000 0.390458 0.250000
O O10 0.761615 0.336531 0.117904
O O11 0.000000 0.402489 0.171850
O O12 0.250000 0.867923 0.750000
O O13 0.500000 0.868556 0.830624
O O14 0.243399 0.807598 0.878842
O O15 0.500000 0.300513 0.917745
O O16 0.742231 0.239605 0.859771
O O17 0.738545 0.264250 0.997010
O O18 0.500000 0.736903 0.569522
O O19 0.250000 0.854221 0.250000
O O20 0.500000 0.841447 0.171187
#
# Coordination Sequence:
#
# PCOD9418174 Si02
#       7
#     8   8   8   8   8   8   8
#     4  10  20  40  62  82 114 155 196 238 293 355
#     4   9  18  36  61  85 115 155 198 246 298 352
#     4  10  22  38  58  83 113 151 191 235 290 352
#     4  11  22  36  57  86 118 154 195 240 293 349
#     4  11  23  38  61  91 118 150 198 249 297 352
#     4  11  22  39  60  84 117 157 197 239 295 356
#     4  10  22  40  61  87 121 161 202 246 300 357
#
# _framework density 19.491683999999999
#
# number of rings (size 3 to 8) (size 9 to 14) (size 15 to 20)
#    0.000    1.714    1.429    3.000    0.000    7.143 
#    0.000    3.571    0.000    3.000    0.000    0.000 
#    0.000    0.000    0.000    0.000    0.000    0.000 
#
# Total GULP energy -312924.461590 kJ/mol
# GULP energy per Si atom -5587.936814 kJ/mol
# Density = 1.944732 g / cm^3
# Si number density = 19.491684 Si / 1000 Ang^3
#
#
#
# Elastic Constant Matrix: (Units=GPa)
#
#
# Indices 1 2 3 4 5 6 
#
# 1 8.1632 12.5127 1.5064 0.0000 0.0000 0.0000
# 2 12.5127 132.4827 28.9067 0.0000 0.0000 0.0000
# 3 1.5064 28.9067 83.0726 0.0000 0.0000 0.0000
# 4 0.0000 0.0000 0.0000 33.5169 0.0000 0.0000
# 5 0.0000 0.0000 0.0000 0.0000 27.9688 0.0000
# 6 0.0000 0.0000 0.0000 0.0000 0.0000 19.3001
#
#
#
# Elastic Compliance Matrix: (Units=1/GPa)
#
#
# Indices 1 2 3 4 5 6 
#
# 1 0.143639 -0.014066 0.002290 0.000000 0.000000 0.000000
# 2 -0.014066 0.009546 -0.003067 0.000000 0.000000 0.000000
# 3 0.002290 -0.003067 0.013063 0.000000 0.000000 0.000000
# 4 0.000000 0.000000 0.000000 0.029836 0.000000 0.000000
# 5 0.000000 0.000000 0.000000 0.000000 0.035754 0.000000
# 6 0.000000 0.000000 0.000000 0.000000 0.000000 0.051813
#
#
# Mechanical properties :
#
#
# Convention : Reuss Voigt Hill
#
# Bulk Modulus (GPa) = 7.32267 34.39667 20.85967
# Shear Modulus (GPa) = 13.93314 28.21002 21.07158
#
# Velocity S-wave (km/s) = 2.67652 3.80845 3.29151
# Velocity P-wave (km/s) = 3.64920 6.08475 5.01701
#
# Compressibility (1/GPa) = 0.13656228
#
# Stress axis : x y z
#
# Youngs Moduli (GPa) = 6.96191 104.75861 76.55092
#
# Poissons Ratio (x) = 1.47353 -0.17529
# Poissons Ratio (y) = 0.09793 0.23475
# Poissons Ratio (z) = -0.01594 0.32125
#
# Static dielectric constant tensor:
#      x y z
#    x 1.672300 0.000000 0.000000 
#    y 0.000000 1.678100 0.000000 
#    z 0.000000 0.000000 1.649370 
# 
# From -- ./inp_files/30883.got.cif
#   From: 2010.05.17/outbox.cif.g08.bks.cpg/sg53_16_cif.got.tgz:30883.got - 2010.06.03 12:45:16.
