data_PCOD9418349
_publ_section_title
;
Structure prediction by ZEFSAII (Michael W. Deem and Ramdas Pophale) SiO2 
 PCOD9418349
Probable space group: P M N A
;
_chemical_formula_sum "Si O2"
_cell_formula_units_Z 64
_cell_length_a 8.759685
_cell_length_b 20.365883
_cell_length_c 20.598205
_cell_angle_alpha 90.000000
_cell_angle_beta 90.000000
_cell_angle_gamma 90.000000
_cell_volume 3674.693403
_symmetry_space_group_name_H-M "P M N A"
_symmetry_group_IT_number 53
_symmetry_cell_setting 'orthorhombic'
loop_
_space_group_symop_operation_xyz
x,y,z
1/2-x,-y,1/2+z
x,-y,-z
1/2-x,y,1/2-z
-x,-y,-z
1/2+x,y,1/2-z
-x,y,z
1/2+x,-y,1/2+z
loop_
_atom_site_type_symbol
_atom_site_label
_atom_site_fract_x
_atom_site_fract_y
_atom_site_fract_z
Si Si1 0.314980 0.306838 0.605721
Si Si2 0.682363 0.527869 0.928831
Si Si3 0.816038 0.334642 0.042709
Si Si4 0.682718 0.055032 0.820141
Si Si5 0.182518 0.902424 0.680027
Si Si6 0.316842 0.433230 0.680112
Si Si7 0.815377 0.839333 0.082981
Si Si8 0.816205 0.814164 0.933844
O O1 0.500000 0.305538 0.606837
O O2 0.272693 0.331399 0.533581
O O3 0.263787 0.360364 0.657639
O O4 0.265325 0.231414 0.612050
O O5 0.500000 0.523679 0.922681
O O6 0.736715 0.603078 0.925504
O O7 0.760357 0.483977 0.874014
O O8 0.725923 0.500000 0.000000
O O9 0.775949 0.263085 0.070970
O O10 0.000000 0.341963 0.046203
O O11 0.750000 0.074478 0.750000
O O12 0.500000 0.058911 0.817651
O O13 0.745372 0.101778 0.876270
O O14 0.726644 0.978790 0.831399
O O15 0.250000 0.882977 0.750000
O O16 0.243059 0.857317 0.622248
O O17 0.000000 0.899064 0.683000
O O18 0.250000 0.449438 0.750000
O O19 0.500000 0.433732 0.682182
O O20 0.000000 0.842652 0.086312
O O21 0.773543 0.837957 0.006602
O O22 0.000000 0.818481 0.929667
#
# Coordination Sequence:
#
# PCOD9418349 Si02
#       8
#     8   8   8   8   8   8   8   8
#     4   8  16  32  54  77 104 140 179 215 261 320
#     4  11  22  35  55  84 112 140 181 227 268 319
#     4   9  17  34  58  82 106 139 181 219 264 322
#     4  10  21  36  53  76 105 143 186 228 271 324
#     4  10  21  37  57  78 106 142 184 228 275 329
#     4  11  22  37  56  78 110 147 183 226 274 324
#     4   9  18  34  55  81 112 144 179 221 266 319
#     4   9  19  35  57  84 113 141 177 223 270 324
#
# _framework density 17.416419000000001
#
# number of rings (size 3 to 8) (size 9 to 14) (size 15 to 20)
#    0.000    2.375    1.250    3.000    0.000    4.000 
#    0.000    7.500    0.000    3.000    0.000    0.000 
#    0.000    0.000    0.000    0.000    0.000    0.000 
#
# Total GULP energy -357065.924776 kJ/mol
# GULP energy per Si atom -5579.155075 kJ/mol
# Density = 1.737678 g / cm^3
# Si number density = 17.416419 Si / 1000 Ang^3
#
#
#
# Elastic Constant Matrix: (Units=GPa)
#
#
# Indices 1 2 3 4 5 6 
#
# 1 38.2556 42.1976 48.1301 0.0000 0.0000 0.0000
# 2 42.1976 116.2948 92.5940 0.0000 0.0000 0.0000
# 3 48.1301 92.5940 133.3311 0.0000 0.0000 0.0000
# 4 0.0000 0.0000 0.0000 27.0835 0.0000 0.0000
# 5 0.0000 0.0000 0.0000 0.0000 28.3716 0.0000
# 6 0.0000 0.0000 0.0000 0.0000 0.0000 23.0673
#
#
#
# Elastic Compliance Matrix: (Units=1/GPa)
#
#
# Indices 1 2 3 4 5 6 
#
# 1 0.051543 -0.008697 -0.012566 0.000000 0.000000 0.000000
# 2 -0.008697 0.020702 -0.011237 0.000000 0.000000 0.000000
# 3 -0.012566 -0.011237 0.019840 0.000000 0.000000 0.000000
# 4 0.000000 0.000000 0.000000 0.036923 0.000000 0.000000
# 5 0.000000 0.000000 0.000000 0.000000 0.035247 0.000000
# 6 0.000000 0.000000 0.000000 0.000000 0.000000 0.043351
#
#
# Mechanical properties :
#
#
# Convention : Reuss Voigt Hill
#
# Bulk Modulus (GPa) = 36.92231 72.63610 54.77920
# Shear Modulus (GPa) = 17.75350 22.70178 20.22764
#
# Velocity S-wave (km/s) = 3.19620 3.61428 3.41165
# Velocity P-wave (km/s) = 5.90480 7.69502 6.85857
#
# Compressibility (1/GPa) = 0.02708390
#
# Stress axis : x y z
#
# Youngs Moduli (GPa) = 19.40116 48.30556 50.40321
#
# Poissons Ratio (x) = 0.42013 0.63338
# Poissons Ratio (y) = 0.16874 0.56638
# Poissons Ratio (z) = 0.24380 0.54281
#
# Static dielectric constant tensor:
#      x y z
#    x 1.584370 0.000000 0.000000 
#    y 0.000000 1.592000 0.000000 
#    z 0.000000 0.000000 1.564040 
# 
# From -- ./inp_files/26758.got.cif
#   From: 2010.05.17/outbox.cif.g08.bks.cpg/sg53_14_cif.got.tgz:26758.got - 2010.06.03 12:45:16.
