data_PCOD9418660
_publ_section_title
;
Structure prediction by ZEFSAII (Michael W. Deem and Ramdas Pophale) SiO2 
 PCOD9418660
Probable space group: P M N A
;
_chemical_formula_sum "Si O2"
_cell_formula_units_Z 64
_cell_length_a 17.954393
_cell_length_b 18.012897
_cell_length_c 11.220907
_cell_angle_alpha 90.000000
_cell_angle_beta 90.000000
_cell_angle_gamma 90.000000
_cell_volume 3628.960622
_symmetry_space_group_name_H-M "P M N A"
_symmetry_group_IT_number 53
_symmetry_cell_setting 'orthorhombic'
loop_
_space_group_symop_operation_xyz
x,y,z
1/2-x,-y,1/2+z
x,-y,-z
1/2-x,y,1/2-z
-x,-y,-z
1/2+x,y,1/2-z
-x,y,z
1/2+x,-y,1/2+z
loop_
_atom_site_type_symbol
_atom_site_label
_atom_site_fract_x
_atom_site_fract_y
_atom_site_fract_z
Si Si1 0.411509 0.589426 0.499367
Si Si2 0.661400 0.646290 0.257780
Si Si3 0.695042 0.082139 0.861816
Si Si4 0.086121 0.227772 0.372515
Si Si5 0.303790 0.907744 0.863975
Si Si6 0.585544 0.785940 0.152551
Si Si7 0.160881 0.368033 0.245529
Si Si8 0.584251 0.510710 0.140089
O O1 0.402675 0.500000 0.500000
O O2 0.500000 0.605168 0.498608
O O3 0.370684 0.621130 0.384161
O O4 0.371674 0.625011 0.613087
O O5 0.750000 0.641230 0.250000
O O6 0.633653 0.728295 0.227554
O O7 0.623882 0.587955 0.167578
O O8 0.750000 0.096627 0.750000
O O9 0.623302 0.133682 0.844949
O O10 0.675720 0.994808 0.857485
O O11 0.725070 0.100218 0.997210
O O12 0.129024 0.150439 0.351638
O O13 0.087386 0.240175 0.514893
O O14 0.127433 0.295522 0.308732
O O15 0.000000 0.224243 0.334645
O O16 0.250000 0.893773 0.750000
O O17 0.500000 0.786784 0.192095
O O18 0.250000 0.365804 0.250000
O O19 0.130901 0.442621 0.308176
O O20 0.500000 0.510369 0.192044
O O21 0.578867 0.500000 0.000000
#
# Coordination Sequence:
#
# PCOD9418660 Si02
#       8
#     8   8   8   8   8   8   8   8
#     4  11  24  42  62  82 115 157 197 242 298 362
#     4  12  25  38  60  84 116 150 195 245 291 349
#     4   9  18  35  60  89 120 153 191 235 288 346
#     4  10  21  38  59  83 116 151 191 241 292 346
#     4   9  18  35  60  89 120 153 191 235 288 346
#     4  10  21  38  59  83 116 151 191 241 292 346
#     4  12  25  38  60  84 116 150 195 245 291 349
#     4  11  23  39  61  83 111 147 187 235 295 353
#
# _framework density 17.635904
#
# number of rings (size 3 to 8) (size 9 to 14) (size 15 to 20)
#    0.000    1.500    1.250    4.125    3.500    2.500 
#    2.250    2.500    0.000    0.000    0.000    3.500 
#    0.000    0.000    0.000    0.000    0.000    0.000 
#
# Total GULP energy -357222.239527 kJ/mol
# GULP energy per Si atom -5581.597493 kJ/mol
# Density = 1.759576 g / cm^3
# Si number density = 17.635904 Si / 1000 Ang^3
#
#
#
# Elastic Constant Matrix: (Units=GPa)
#
#
# Indices 1 2 3 4 5 6 
#
# 1 140.4635 41.7132 33.3902 0.0000 0.0000 0.0000
# 2 41.7132 55.6235 8.5475 0.0000 0.0000 0.0000
# 3 33.3902 8.5475 57.6843 0.0000 0.0000 0.0000
# 4 0.0000 0.0000 0.0000 186.2237 0.0000 0.0000
# 5 0.0000 0.0000 0.0000 0.0000 45.5848 0.0000
# 6 0.0000 0.0000 0.0000 0.0000 0.0000 -23.4645
#
#
#
# Elastic Compliance Matrix: (Units=1/GPa)
#
#
# Indices 1 2 3 4 5 6 
#
# 1 0.010388 -0.007026 -0.004972 0.000000 0.000000 0.000000
# 2 -0.007026 0.023149 0.000637 0.000000 0.000000 0.000000
# 3 -0.004972 0.000637 0.020119 0.000000 0.000000 0.000000
# 4 0.000000 0.000000 0.000000 0.005370 0.000000 0.000000
# 5 0.000000 0.000000 0.000000 0.000000 0.021937 0.000000
# 6 0.000000 0.000000 0.000000 0.000000 0.000000 -0.042618
#
#
# Mechanical properties :
#
#
# Convention : Reuss Voigt Hill
#
# Bulk Modulus (GPa) = 32.32676 46.78591 39.55634
# Shear Modulus (GPa) = 70.04912 53.01015 61.52963
#
# Velocity S-wave (km/s) = 6.30919 5.48847 5.91309
# Velocity P-wave (km/s) = 8.45247 8.17012 8.31250
#
# Compressibility (1/GPa) = 0.03093412
#
# Stress axis : x y z
#
# Youngs Moduli (GPa) = 96.26863 43.19839 49.70361
#
# Poissons Ratio (x) = 0.30351 0.24711
# Poissons Ratio (y) = 0.67637 -0.03165
# Poissons Ratio (z) = 0.47862 -0.02751
#
# Static dielectric constant tensor:
#      x y z
#    x 1.574440 0.000000 0.000000 
#    y 0.000000 1.577270 0.000000 
#    z 0.000000 0.000000 1.710300 
# 
# From -- ./inp_files/16255.got.cif
#   From: 2010.05.17/outbox.cif.g08.bks.cpg/sg53_9_cif.got.tgz:16255.got - 2010.06.03 12:45:16.
