data_PCOD9418887
_publ_section_title
;
Structure prediction by ZEFSAII (Michael W. Deem and Ramdas Pophale) SiO2 
 PCOD9418887
Probable space group: P M N A
;
_chemical_formula_sum "Si O2"
_cell_formula_units_Z 56
_cell_length_a 16.417709
_cell_length_b 14.369953
_cell_length_c 11.357941
_cell_angle_alpha 90.000000
_cell_angle_beta 90.000000
_cell_angle_gamma 90.000000
_cell_volume 2679.584825
_symmetry_space_group_name_H-M "P M N A"
_symmetry_group_IT_number 53
_symmetry_cell_setting 'orthorhombic'
loop_
_space_group_symop_operation_xyz
x,y,z
1/2-x,-y,1/2+z
x,-y,-z
1/2-x,y,1/2-z
-x,-y,-z
1/2+x,y,1/2-z
-x,y,z
1/2+x,-y,1/2+z
loop_
_atom_site_type_symbol
_atom_site_label
_atom_site_fract_x
_atom_site_fract_y
_atom_site_fract_z
Si Si1 0.593109 0.873015 0.329647
Si Si2 0.097210 0.807210 0.546201
Si Si3 0.847259 0.332547 0.247211
Si Si4 0.905192 0.816133 0.922462
Si Si5 0.337143 0.278627 0.810494
Si Si6 0.843666 0.052372 0.278360
Si Si7 0.596838 0.520959 0.137705
O O1 0.500000 0.906052 0.337466
O O2 0.630510 0.861761 0.459500
O O3 0.598053 0.771410 0.273795
O O4 0.639852 0.944692 0.245870
O O5 0.115101 0.733730 0.651153
O O6 0.148488 0.771002 0.435785
O O7 0.128220 0.905566 0.597538
O O8 0.000000 0.809278 0.521281
O O9 0.750000 0.333863 0.250000
O O10 0.870012 0.280993 0.125337
O O11 0.880523 0.434351 0.278637
O O12 0.894528 0.891100 0.819431
O O13 0.000000 0.800590 0.946287
O O14 0.250000 0.263340 0.750000
O O15 0.355539 0.386889 0.825676
O O16 0.750000 0.074649 0.250000
O O17 0.500000 0.537906 0.143682
O O18 0.616012 0.500000 0.000000
#
# Coordination Sequence:
#
# PCOD9418887 Si02
#       7
#     8   8   8   8   8   8   8
#     4  11  24  43  64  92 134 178 218 264 332 410
#     4  11  22  42  70  97 130 175 229 276 333 403
#     4  11  22  38  67 103 134 166 220 283 333 393
#     4  10  21  39  66  93 129 175 218 262 327 405
#     4  12  27  42  65  96 133 173 217 285 346 398
#     4  11  23  40  65  98 132 170 227 280 327 387
#     4  11  22  42  70  96 128 173 229 280 335 404
#
# _framework density 20.898761
#
# number of rings (size 3 to 8) (size 9 to 14) (size 15 to 20)
#    0.000    1.000    1.429    7.714    4.000    1.714 
#    2.571    2.143    0.000    2.571    0.000    0.000 
#    0.000    0.000    0.000    0.000    0.000    0.000 
#
# Total GULP energy -312979.415114 kJ/mol
# GULP energy per Si atom -5588.918127 kJ/mol
# Density = 2.085119 g / cm^3
# Si number density = 20.898761 Si / 1000 Ang^3
#
#
#
# Elastic Constant Matrix: (Units=GPa)
#
#
# Indices 1 2 3 4 5 6 
#
# 1 109.7247 30.6252 35.5218 0.0000 0.0000 0.0000
# 2 30.6252 114.9494 54.8077 0.0000 0.0000 0.0000
# 3 35.5218 54.8077 54.3967 0.0000 0.0000 0.0000
# 4 0.0000 0.0000 0.0000 25.1860 0.0000 0.0000
# 5 0.0000 0.0000 0.0000 0.0000 26.7912 0.0000
# 6 0.0000 0.0000 0.0000 0.0000 0.0000 10.5901
#
#
#
# Elastic Compliance Matrix: (Units=1/GPa)
#
#
# Indices 1 2 3 4 5 6 
#
# 1 0.011617 0.001005 -0.008598 0.000000 0.000000 0.000000
# 2 0.001005 0.016830 -0.017613 0.000000 0.000000 0.000000
# 3 -0.008598 -0.017613 0.041744 0.000000 0.000000 0.000000
# 4 0.000000 0.000000 0.000000 0.039705 0.000000 0.000000
# 5 0.000000 0.000000 0.000000 0.000000 0.037326 0.000000
# 6 0.000000 0.000000 0.000000 0.000000 0.000000 0.094428
#
#
# Mechanical properties :
#
#
# Convention : Reuss Voigt Hill
#
# Bulk Modulus (GPa) = 50.56168 57.88669 54.22419
# Shear Modulus (GPa) = 16.74179 23.05453 19.89816
#
# Velocity S-wave (km/s) = 2.83342 3.32498 3.08899
# Velocity P-wave (km/s) = 5.91190 6.51916 6.22294
#
# Compressibility (1/GPa) = 0.01977782
#
# Stress axis : x y z
#
# Youngs Moduli (GPa) = 86.08186 59.41935 23.95560
#
# Poissons Ratio (x) = -0.05969 0.20597
# Poissons Ratio (y) = -0.08647 0.42192
# Poissons Ratio (z) = 0.74014 1.04653
#
# Static dielectric constant tensor:
#      x y z
#    x 1.723950 0.000000 0.000000 
#    y 0.000000 1.741350 0.000000 
#    z 0.000000 0.000000 1.787610 
# 
# From -- ./inp_files/16024.got.cif
#   From: 2010.05.17/outbox.cif.g08.bks.cpg/sg53_9_cif.got.tgz:16024.got - 2010.06.03 12:45:16.
