data_PCOD9418439
_publ_section_title
;
Structure prediction by ZEFSAII (Michael W. Deem and Ramdas Pophale) SiO2 
 PCOD9418439
Probable space group: P M N A
;
_chemical_formula_sum "Si O2"
_cell_formula_units_Z 40
_cell_length_a 19.147435
_cell_length_b 9.060574
_cell_length_c 11.675907
_cell_angle_alpha 90.000000
_cell_angle_beta 90.000000
_cell_angle_gamma 90.000000
_cell_volume 2025.615179
_symmetry_space_group_name_H-M "P M N A"
_symmetry_group_IT_number 53
_symmetry_cell_setting 'orthorhombic'
loop_
_space_group_symop_operation_xyz
x,y,z
1/2-x,-y,1/2+z
x,-y,-z
1/2-x,y,1/2-z
-x,-y,-z
1/2+x,y,1/2-z
-x,y,z
1/2+x,-y,1/2+z
loop_
_atom_site_type_symbol
_atom_site_label
_atom_site_fract_x
_atom_site_fract_y
_atom_site_fract_z
Si Si1 0.176490 0.928523 0.313273
Si Si2 0.918527 0.738923 0.182801
Si Si3 0.166515 0.460687 0.273769
Si Si4 0.308876 0.224716 0.049418
Si Si5 0.655436 0.333633 0.458589
O O1 0.250000 0.895652 0.250000
O O2 0.114873 0.890660 0.226407
O O3 0.165254 0.827308 0.426037
O O4 0.178176 0.094247 0.360190
O O5 0.875302 0.610326 0.249513
O O6 0.000000 0.726042 0.205020
O O7 0.901721 0.720198 0.048162
O O8 0.250000 0.483468 0.250000
O O9 0.163118 0.376046 0.394569
O O10 0.138062 0.351367 0.174413
O O11 0.225597 0.239873 0.033607
O O12 0.673589 0.500000 0.500000
#
# Coordination Sequence:
#
# PCOD9418439 Si02
#       5
#     8   8   8   8   8
#     4  11  21  37  62  88 118 157 206 247 297 357
#     4  11  23  38  59  90 126 164 199 240 302 368
#     4   9  19  36  60  89 120 154 201 253 301 348
#     4  10  21  36  61  91 115 150 203 258 299 346
#     4   9  18  34  61  90 120 151 198 258 300 347
#
# _framework density 19.747088000000002
#
# number of rings (size 3 to 8) (size 9 to 14) (size 15 to 20)
#    0.000    2.000    2.000    2.400    5.600    3.600 
#    0.000    5.000    0.000    8.400    0.000    0.000 
#    0.000    0.000    0.000    0.000    0.000    0.000 
#
# Total GULP energy -223149.473393 kJ/mol
# GULP energy per Si atom -5578.736835 kJ/mol
# Density = 1.970214 g / cm^3
# Si number density = 19.747088 Si / 1000 Ang^3
#
#
#
# Elastic Constant Matrix: (Units=GPa)
#
#
# Indices 1 2 3 4 5 6 
#
# 1 90.1703 38.1046 29.2978 0.0000 0.0000 0.0000
# 2 38.1046 33.8558 38.2111 0.0000 0.0000 0.0000
# 3 29.2978 38.2111 91.1172 0.0000 0.0000 0.0000
# 4 0.0000 0.0000 0.0000 17.2438 0.0000 0.0000
# 5 0.0000 0.0000 0.0000 0.0000 19.7515 0.0000
# 6 0.0000 0.0000 0.0000 0.0000 0.0000 -44.6217
#
#
#
# Elastic Compliance Matrix: (Units=1/GPa)
#
#
# Indices 1 2 3 4 5 6 
#
# 1 0.023059 -0.033386 0.006587 0.000000 0.000000 0.000000
# 2 -0.033386 0.104420 -0.033055 0.000000 0.000000 0.000000
# 3 0.006587 -0.033055 0.022719 0.000000 0.000000 0.000000
# 4 0.000000 0.000000 0.000000 0.057992 0.000000 0.000000
# 5 0.000000 0.000000 0.000000 0.000000 0.050629 0.000000
# 6 0.000000 0.000000 0.000000 0.000000 0.000000 -0.022411
#
#
# Mechanical properties :
#
#
# Convention : Reuss Voigt Hill
#
# Bulk Modulus (GPa) = 32.79891 47.37447 40.08669
# Shear Modulus (GPa) = 13.65077 5.77672 9.71375
#
# Velocity S-wave (km/s) = 2.63207 1.71222 2.22031
# Velocity P-wave (km/s) = 5.08750 5.28693 5.18817
#
# Compressibility (1/GPa) = 0.03048882
#
# Stress axis : x y z
#
# Youngs Moduli (GPa) = 43.36789 9.57669 44.01620
#
# Poissons Ratio (x) = 0.31973 -0.28992
# Poissons Ratio (y) = 1.44789 1.45495
# Poissons Ratio (z) = -0.28565 0.31656
#
# Static dielectric constant tensor:
#      x y z
#    x 1.629210 0.000000 0.000000 
#    y 0.000000 1.753740 0.000000 
#    z 0.000000 0.000000 1.706080 
# 
# From -- ./inp_files/16703.got.cif
#   From: 2010.05.17/outbox.cif.g08.bks.cpg/sg53_9_cif.got.tgz:16703.got - 2010.06.03 12:45:16.
