data_PCOD9418264
_publ_section_title
;
Structure prediction by ZEFSAII (Michael W. Deem and Ramdas Pophale) SiO2 
 PCOD9418264
Probable space group: P M N A
;
_chemical_formula_sum "Si O2"
_cell_formula_units_Z 64
_cell_length_a 18.683436
_cell_length_b 23.171086
_cell_length_c 7.196067
_cell_angle_alpha 90.000000
_cell_angle_beta 90.000000
_cell_angle_gamma 90.000000
_cell_volume 3115.288960
_symmetry_space_group_name_H-M "P M N A"
_symmetry_group_IT_number 53
_symmetry_cell_setting 'orthorhombic'
loop_
_space_group_symop_operation_xyz
x,y,z
1/2-x,-y,1/2+z
x,-y,-z
1/2-x,y,1/2-z
-x,-y,-z
1/2+x,y,1/2-z
-x,y,z
1/2+x,-y,1/2+z
loop_
_atom_site_type_symbol
_atom_site_label
_atom_site_fract_x
_atom_site_fract_y
_atom_site_fract_z
Si Si1 0.418419 0.431262 0.518378
Si Si2 0.413259 0.654697 0.824761
Si Si3 0.666204 0.015646 0.717908
Si Si4 0.581397 0.752070 0.300928
Si Si5 0.581798 0.093168 0.198799
Si Si6 0.918936 0.219377 0.363399
Si Si7 0.334168 0.641926 0.216972
Si Si8 0.919129 0.877487 0.130311
O O1 0.415983 0.500000 0.500000
O O2 0.500000 0.415175 0.571729
O O3 0.402423 0.393816 0.332597
O O4 0.364944 0.413289 0.679137
O O5 0.500000 0.655415 0.868100
O O6 0.394101 0.721164 0.766434
O O7 0.365084 0.642190 0.006733
O O8 0.750000 0.021333 0.750000
O O9 0.631048 0.962538 0.829481
O O10 0.657996 0.000000 0.500000
O O11 0.625688 0.076363 0.745939
O O12 0.500000 0.741199 0.366130
O O13 0.629913 0.696615 0.320397
O O14 0.609562 0.812321 0.381560
O O15 0.578615 0.763575 0.079347
O O16 0.500000 0.084922 0.127695
O O17 0.614294 0.155522 0.142646
O O18 0.575923 0.099507 0.421846
O O19 0.000000 0.209037 0.293695
O O20 0.250000 0.645454 0.250000
O O21 0.000000 0.872430 0.206382
#
# Coordination Sequence:
#
# PCOD9418264 Si02
#       8
#     8   8   8   8   8   8   8   8
#     4  10  22  41  67  96 120 156 213 259 294 352
#     4   9  19  38  64  91 123 158 201 260 305 347
#     4  10  21  35  48  68 102 140 177 219 277 344
#     4   9  18  34  56  81 111 144 188 239 286 340
#     4   9  17  31  52  75  98 130 179 233 283 334
#     4   8  15  29  52  81 106 134 175 231 291 336
#     4  11  23  39  58  90 129 169 199 241 304 367
#     4   9  18  32  54  78  98 132 182 236 282 327
#
# _framework density 20.543841
#
# number of rings (size 3 to 8) (size 9 to 14) (size 15 to 20)
#    0.000    2.625    0.000    2.250    1.750    4.000 
#    2.250    5.625    0.000    3.750    0.000    0.000 
#    0.000    0.000    0.000    0.000    0.000    0.000 
#
# Total GULP energy -356926.771112 kJ/mol
# GULP energy per Si atom -5576.980799 kJ/mol
# Density = 2.049708 g / cm^3
# Si number density = 20.543841 Si / 1000 Ang^3
#
#
#
# Elastic Constant Matrix: (Units=GPa)
#
#
# Indices 1 2 3 4 5 6 
#
# 1 76.9742 52.2843 14.1330 0.0000 0.0000 0.0000
# 2 52.2843 123.3318 10.4788 0.0000 0.0000 0.0000
# 3 14.1330 10.4788 44.5945 0.0000 0.0000 0.0000
# 4 0.0000 0.0000 0.0000 31.4147 0.0000 0.0000
# 5 0.0000 0.0000 0.0000 0.0000 13.9737 0.0000
# 6 0.0000 0.0000 0.0000 0.0000 0.0000 -14.9325
#
#
#
# Elastic Compliance Matrix: (Units=1/GPa)
#
#
# Indices 1 2 3 4 5 6 
#
# 1 0.018990 -0.007693 -0.004211 0.000000 0.000000 0.000000
# 2 -0.007693 0.011390 -0.000238 0.000000 0.000000 0.000000
# 3 -0.004211 -0.000238 0.023815 0.000000 0.000000 0.000000
# 4 0.000000 0.000000 0.000000 0.031832 0.000000 0.000000
# 5 0.000000 0.000000 0.000000 0.000000 0.071563 0.000000
# 6 0.000000 0.000000 0.000000 0.000000 0.000000 -0.066968
#
#
# Mechanical properties :
#
#
# Convention : Reuss Voigt Hill
#
# Bulk Modulus (GPa) = 33.43275 44.29921 38.86598
# Shear Modulus (GPa) = 40.04032 17.29149 28.66590
#
# Velocity S-wave (km/s) = 4.41956 2.90433 3.73949
# Velocity P-wave (km/s) = 6.50788 5.73210 6.13227
#
# Compressibility (1/GPa) = 0.02991079
#
# Stress axis : x y z
#
# Youngs Moduli (GPa) = 52.66045 87.79964 41.99075
#
# Poissons Ratio (x) = 0.67540 0.17681
# Poissons Ratio (y) = 0.40509 0.01001
# Poissons Ratio (z) = 0.22173 0.02093
#
# Static dielectric constant tensor:
#      x y z
#    x 1.708680 0.000000 0.000000 
#    y 0.000000 1.770460 0.000000 
#    z 0.000000 0.000000 1.803530 
# 
# From -- ./inp_files/8929.got.cif
#   From: 2010.05.17/outbox.cif.g08.bks.cpg/sg53_5_cif.got.tgz:8929.got - 2010.06.03 12:45:16.
