data_PCOD9418160
_publ_section_title
;
Structure prediction by ZEFSAII (Michael W. Deem and Ramdas Pophale) SiO2 
 PCOD9418160
Probable space group: P M N A
;
_chemical_formula_sum "Si O2"
_cell_formula_units_Z 40
_cell_length_a 14.607423
_cell_length_b 5.256844
_cell_length_c 22.840032
_cell_angle_alpha 90.000000
_cell_angle_beta 90.000000
_cell_angle_gamma 90.000000
_cell_volume 1753.861937
_symmetry_space_group_name_H-M "P M N A"
_symmetry_group_IT_number 53
_symmetry_cell_setting 'orthorhombic'
loop_
_space_group_symop_operation_xyz
x,y,z
1/2-x,-y,1/2+z
x,-y,-z
1/2-x,y,1/2-z
-x,-y,-z
1/2+x,y,1/2-z
-x,y,z
1/2+x,-y,1/2+z
loop_
_atom_site_type_symbol
_atom_site_label
_atom_site_fract_x
_atom_site_fract_y
_atom_site_fract_z
Si Si1 0.891429 0.669189 0.838875
Si Si2 0.284675 0.895284 0.557356
Si Si3 0.597991 0.302602 0.073065
Si Si4 0.610290 0.831516 0.264486
Si Si5 0.656905 0.185557 0.865928
O O1 0.839289 0.712632 0.899636
O O2 0.866970 0.900765 0.794985
O O3 0.000000 0.686129 0.849503
O O4 0.871980 0.403935 0.807474
O O5 0.249823 0.124829 0.598845
O O6 0.333483 0.000000 0.500000
O O7 0.189687 0.758747 0.536762
O O8 0.500000 0.287460 0.042157
O O9 0.610395 0.568998 0.105613
O O10 0.601985 0.074667 0.120382
O O11 0.500000 0.830966 0.252397
O O12 0.661487 0.789943 0.203350
#
# Coordination Sequence:
#
# PCOD9418160 Si02
#       5
#     8   8   8   8   8
#     4  10  23  42  67  96 126 171 216 269 331 380
#     4  10  26  45  63  95 135 172 226 271 312 389
#     4  10  21  39  62  92 127 168 214 256 318 384
#     4  10  20  39  66  95 129 161 211 271 326 394
#     4  10  22  39  65  93 129 170 206 263 333 374
#
# _framework density 22.806812000000001
#
# number of rings (size 3 to 8) (size 9 to 14) (size 15 to 20)
#    1.200    0.800    0.000    3.000    2.800    4.000 
#    0.000    1.000    0.000    3.600    0.000    0.000 
#    0.000    0.000    0.000    0.000    0.000    0.000 
#
# Total GULP energy -223473.147602 kJ/mol
# GULP energy per Si atom -5586.828690 kJ/mol
# Density = 2.275490 g / cm^3
# Si number density = 22.806812 Si / 1000 Ang^3
#
#
#
# Elastic Constant Matrix: (Units=GPa)
#
#
# Indices 1 2 3 4 5 6 
#
# 1 48.6521 21.2640 28.0865 0.0000 0.0000 0.0000
# 2 21.2640 136.3606 19.2517 0.0000 0.0000 0.0000
# 3 28.0865 19.2517 109.0260 0.0000 0.0000 0.0000
# 4 0.0000 0.0000 0.0000 32.3445 0.0000 0.0000
# 5 0.0000 0.0000 0.0000 0.0000 -29.1007 0.0000
# 6 0.0000 0.0000 0.0000 0.0000 0.0000 -44.1958
#
#
#
# Elastic Compliance Matrix: (Units=1/GPa)
#
#
# Indices 1 2 3 4 5 6 
#
# 1 0.025370 -0.003111 -0.005986 0.000000 0.000000 0.000000
# 2 -0.003111 0.007902 -0.000594 0.000000 0.000000 0.000000
# 3 -0.005986 -0.000594 0.010819 0.000000 0.000000 0.000000
# 4 0.000000 0.000000 0.000000 0.030917 0.000000 0.000000
# 5 0.000000 0.000000 0.000000 0.000000 -0.034363 0.000000
# 6 0.000000 0.000000 0.000000 0.000000 0.000000 -0.022627
#
#
# Mechanical properties :
#
#
# Convention : Reuss Voigt Hill
#
# Bulk Modulus (GPa) = 40.47127 47.91589 44.19358
# Shear Modulus (GPa) = 109.56030 6.83870 58.19950
#
# Velocity S-wave (km/s) = 6.93849 1.73351 5.05706
# Velocity P-wave (km/s) = 9.05395 5.00618 7.31559
#
# Compressibility (1/GPa) = 0.02470888
#
# Stress axis : x y z
#
# Youngs Moduli (GPa) = 39.41729 126.54252 92.42891
#
# Poissons Ratio (x) = 0.39367 0.55330
# Poissons Ratio (y) = 0.12263 0.05490
# Poissons Ratio (z) = 0.23596 0.07516
#
# Static dielectric constant tensor:
#      x y z
#    x 1.945580 0.000000 0.000000 
#    y 0.000000 1.838880 0.000000 
#    z 0.000000 0.000000 1.798130 
# 
# From -- ./inp_files/32681.got.cif
#   From: 2010.05.17/outbox.cif.g08.bks.cpg/sg53_17_cif.got.tgz:32681.got - 2010.06.03 12:45:16.
