data_PCOD9418479
_publ_section_title
;
Structure prediction by ZEFSAII (Michael W. Deem and Ramdas Pophale) SiO2 
 PCOD9418479
Probable space group: P M N A
;
_chemical_formula_sum "Si O2"
_cell_formula_units_Z 40
_cell_length_a 13.884746
_cell_length_b 8.475831
_cell_length_c 14.849082
_cell_angle_alpha 90.000000
_cell_angle_beta 90.000000
_cell_angle_gamma 90.000000
_cell_volume 1747.510660
_symmetry_space_group_name_H-M "P M N A"
_symmetry_group_IT_number 53
_symmetry_cell_setting 'orthorhombic'
loop_
_space_group_symop_operation_xyz
x,y,z
1/2-x,-y,1/2+z
x,-y,-z
1/2-x,y,1/2-z
-x,-y,-z
1/2+x,y,1/2-z
-x,y,z
1/2+x,-y,1/2+z
loop_
_atom_site_type_symbol
_atom_site_label
_atom_site_fract_x
_atom_site_fract_y
_atom_site_fract_z
Si Si1 0.390051 0.648245 0.061537
Si Si2 0.735978 0.145806 0.626450
Si Si3 0.615562 0.681620 0.523701
Si Si4 0.887265 0.876676 0.802315
Si Si5 0.606560 0.886563 0.895672
O O1 0.500000 0.624424 0.096226
O O2 0.311658 0.706524 0.135188
O O3 0.360969 0.500000 0.000000
O O4 0.394139 0.776737 0.981468
O O5 0.665050 0.206709 0.549304
O O6 0.667092 0.046438 0.694290
O O7 0.808767 0.009346 0.598139
O O8 0.639894 0.500000 0.500000
O O9 0.500000 0.692952 0.517880
O O10 0.644877 0.752753 0.621122
O O11 0.878689 0.806314 0.701962
O O12 0.000000 0.907817 0.819120
O O13 0.500000 0.963322 0.889784
#
# Coordination Sequence:
#
# PCOD9418479 Si02
#       5
#     8   8   8   8   8
#     4  10  21  37  58  84 114 150 191 233 280 338
#     4  12  21  34  58  84 109 142 188 236 280 332
#     4  10  21  37  58  84 114 150 191 233 280 338
#     4  10  21  37  56  80 113 151 189 233 286 339
#     4  10  21  37  56  80 113 151 189 233 286 339
#
# _framework density 22.889703000000001
#
# number of rings (size 3 to 8) (size 9 to 14) (size 15 to 20)
#    0.000    1.600    0.000    6.000    0.000    3.200 
#    0.000    4.000    0.000    9.600    0.000    0.000 
#    0.000    0.000    0.000    0.000    0.000    0.000 
#
# Total GULP energy -223019.055278 kJ/mol
# GULP energy per Si atom -5575.476382 kJ/mol
# Density = 2.283761 g / cm^3
# Si number density = 22.889703 Si / 1000 Ang^3
#
#
#
# Elastic Constant Matrix: (Units=GPa)
#
#
# Indices 1 2 3 4 5 6 
#
# 1 100.1849 33.9486 14.0766 0.0000 0.0000 0.0000
# 2 33.9486 73.1985 14.7592 0.0000 0.0000 0.0000
# 3 14.0766 14.7592 89.8088 0.0000 0.0000 0.0000
# 4 0.0000 0.0000 0.0000 15.6151 0.0000 0.0000
# 5 0.0000 0.0000 0.0000 0.0000 23.4166 0.0000
# 6 0.0000 0.0000 0.0000 0.0000 0.0000 4.0285
#
#
#
# Elastic Compliance Matrix: (Units=1/GPa)
#
#
# Indices 1 2 3 4 5 6 
#
# 1 0.011928 -0.005332 -0.000993 0.000000 0.000000 0.000000
# 2 -0.005332 0.016513 -0.001878 0.000000 0.000000 0.000000
# 3 -0.000993 -0.001878 0.011599 0.000000 0.000000 0.000000
# 4 0.000000 0.000000 0.000000 0.064040 0.000000 0.000000
# 5 0.000000 0.000000 0.000000 0.000000 0.042705 0.000000
# 6 0.000000 0.000000 0.000000 0.000000 0.000000 0.248232
#
#
# Mechanical properties :
#
#
# Convention : Reuss Voigt Hill
#
# Bulk Modulus (GPa) = 42.31251 43.19565 42.75408
# Shear Modulus (GPa) = 11.92461 21.97257 16.94859
#
# Velocity S-wave (km/s) = 2.28493 3.10164 2.72407
# Velocity P-wave (km/s) = 5.04844 5.63374 5.34910
#
# Compressibility (1/GPa) = 0.02363367
#
# Stress axis : x y z
#
# Youngs Moduli (GPa) = 83.83768 60.55858 86.21359
#
# Poissons Ratio (x) = 0.32288 0.08564
# Poissons Ratio (y) = 0.44700 0.16191
# Poissons Ratio (z) = 0.08328 0.11373
#
# Static dielectric constant tensor:
#      x y z
#    x 1.916590 0.000000 0.000000 
#    y 0.000000 1.934940 0.000000 
#    z 0.000000 0.000000 1.933600 
# 
# From -- ./inp_files/22446.got.cif
#   From: 2010.05.17/outbox.cif.g08.bks.cpg/sg53_12_cif.got.tgz:22446.got - 2010.06.03 12:45:16.
