data_PCOD9418647
_publ_section_title
;
Structure prediction by ZEFSAII (Michael W. Deem and Ramdas Pophale) SiO2 
 PCOD9418647
Probable space group: P M N A
;
_chemical_formula_sum "Si O2"
_cell_formula_units_Z 48
_cell_length_a 18.841119
_cell_length_b 13.490116
_cell_length_c 9.080269
_cell_angle_alpha 90.000000
_cell_angle_beta 90.000000
_cell_angle_gamma 90.000000
_cell_volume 2307.921810
_symmetry_space_group_name_H-M "P M N A"
_symmetry_group_IT_number 53
_symmetry_cell_setting 'orthorhombic'
loop_
_space_group_symop_operation_xyz
x,y,z
1/2-x,-y,1/2+z
x,-y,-z
1/2-x,y,1/2-z
-x,-y,-z
1/2+x,y,1/2-z
-x,y,z
1/2+x,-y,1/2+z
loop_
_atom_site_type_symbol
_atom_site_label
_atom_site_fract_x
_atom_site_fract_y
_atom_site_fract_z
Si Si1 0.577871 0.763759 0.586810
Si Si2 0.180085 0.268894 0.333743
Si Si3 0.913896 0.123229 0.818751
Si Si4 0.821403 0.969466 0.669346
Si Si5 0.419585 0.575244 0.376154
Si Si6 0.672370 0.303120 0.824826
O O1 0.500000 0.796291 0.633798
O O2 0.615334 0.713080 0.724222
O O3 0.610380 0.852841 0.487778
O O4 0.573880 0.678543 0.463824
O O5 0.250000 0.304777 0.250000
O O6 0.180063 0.148993 0.332627
O O7 0.177621 0.306634 0.499340
O O8 0.874962 0.206628 0.718471
O O9 0.000000 0.130872 0.813670
O O10 0.886574 0.019381 0.755696
O O11 0.750000 0.005912 0.750000
O O12 0.822716 0.000000 0.500000
O O13 0.392290 0.500000 0.500000
O O14 0.500000 0.544734 0.331965
O O15 0.367621 0.601238 0.242939
O O16 0.750000 0.293658 0.750000
#
# Coordination Sequence:
#
# PCOD9418647 Si02
#       6
#     8   8   8   8   8   8
#     4   9  20  37  58  83 114 152 193 244 307 372
#     4  11  23  36  56  85 120 160 205 256 308 365
#     4  10  21  38  58  82 118 163 211 261 315 367
#     4  11  24  37  56  83 117 165 214 267 308 363
#     4   9  19  40  67  91 118 155 197 245 308 379
#     4  11  21  38  63  89 119 160 202 252 310 374
#
# _framework density 20.797930999999998
#
# number of rings (size 3 to 8) (size 9 to 14) (size 15 to 20)
#    0.000    1.833    1.667    4.000    4.667    2.333 
#    0.000    5.000    0.000    3.000    0.000    0.000 
#    0.000    0.000    0.000    0.000    0.000    0.000 
#
# Total GULP energy -267736.443574 kJ/mol
# GULP energy per Si atom -5577.842574 kJ/mol
# Density = 2.075059 g / cm^3
# Si number density = 20.797931 Si / 1000 Ang^3
#
#
#
# Elastic Constant Matrix: (Units=GPa)
#
#
# Indices 1 2 3 4 5 6 
#
# 1 96.2273 8.4519 69.7442 0.0000 0.0000 0.0000
# 2 8.4519 37.2797 27.2703 0.0000 0.0000 0.0000
# 3 69.7442 27.2703 182.1502 0.0000 0.0000 0.0000
# 4 0.0000 0.0000 0.0000 31.1901 0.0000 0.0000
# 5 0.0000 0.0000 0.0000 0.0000 -5.1384 0.0000
# 6 0.0000 0.0000 0.0000 0.0000 0.0000 -4.3747
#
#
#
# Elastic Compliance Matrix: (Units=1/GPa)
#
#
# Indices 1 2 3 4 5 6 
#
# 1 0.014409 0.000864 -0.005646 0.000000 0.000000 0.000000
# 2 0.000864 0.030175 -0.004848 0.000000 0.000000 0.000000
# 3 -0.005646 -0.004848 0.008378 0.000000 0.000000 0.000000
# 4 0.000000 0.000000 0.000000 0.032061 0.000000 0.000000
# 5 0.000000 0.000000 0.000000 0.000000 -0.194612 0.000000
# 6 0.000000 0.000000 0.000000 0.000000 0.000000 -0.228587
#
#
# Mechanical properties :
#
#
# Convention : Reuss Voigt Hill
#
# Bulk Modulus (GPa) = 29.67406 58.51000 44.09203
# Shear Modulus (GPa) = -16.25058 18.34811 1.04876
#
# Velocity S-wave (km/s) = -2.79831 2.97342 0.71089
# Velocity P-wave (km/s) = 1.96420 6.32313 4.68188
#
# Compressibility (1/GPa) = 0.03369947
#
# Stress axis : x y z
#
# Youngs Moduli (GPa) = 69.40345 33.14000 119.36416
#
# Poissons Ratio (x) = -0.02862 0.67396
# Poissons Ratio (y) = -0.05994 0.57871
# Poissons Ratio (z) = 0.39187 0.16067
#
# Static dielectric constant tensor:
#      x y z
#    x 1.790820 0.000000 0.000000 
#    y 0.000000 1.898250 0.000000 
#    z 0.000000 0.000000 1.769710 
# 
# From -- ./inp_files/9923.got.cif
#   From: 2010.05.17/outbox.cif.g08.bks.cpg/sg53_5_cif.got.tgz:9923.got - 2010.06.03 12:45:16.
