data_PCOD9418702
_publ_section_title
;
Structure prediction by ZEFSAII (Michael W. Deem and Ramdas Pophale) SiO2 
 PCOD9418702
Probable space group: P M N A
;
_chemical_formula_sum "Si O2"
_cell_formula_units_Z 64
_cell_length_a 15.287531
_cell_length_b 8.706110
_cell_length_c 23.839879
_cell_angle_alpha 90.000000
_cell_angle_beta 90.000000
_cell_angle_gamma 90.000000
_cell_volume 3172.966944
_symmetry_space_group_name_H-M "P M N A"
_symmetry_group_IT_number 53
_symmetry_cell_setting 'orthorhombic'
loop_
_space_group_symop_operation_xyz
x,y,z
1/2-x,-y,1/2+z
x,-y,-z
1/2-x,y,1/2-z
-x,-y,-z
1/2+x,y,1/2-z
-x,y,z
1/2+x,-y,1/2+z
loop_
_atom_site_type_symbol
_atom_site_label
_atom_site_fract_x
_atom_site_fract_y
_atom_site_fract_z
Si Si1 0.395650 0.900665 0.274148
Si Si2 0.604255 0.932669 0.841448
Si Si3 0.099219 0.430573 0.116547
Si Si4 0.766544 0.569811 0.438942
Si Si5 0.151737 0.555028 0.235763
Si Si6 0.902360 0.429442 0.351190
Si Si7 0.224293 0.065123 0.559704
Si Si8 0.601444 0.934785 0.607939
O O1 0.500000 0.870738 0.271292
O O2 0.350170 0.735779 0.278261
O O3 0.370476 0.988951 0.217459
O O4 0.381246 0.003163 0.329106
O O5 0.500000 0.960703 0.850473
O O6 0.616564 0.749293 0.838873
O O7 0.662901 0.000503 0.890986
O O8 0.169529 0.524170 0.081074
O O9 0.115305 0.466157 0.182120
O O10 0.110370 0.249071 0.106605
O O11 0.000000 0.474325 0.102437
O O12 0.783245 0.500000 0.500000
O O13 0.831930 0.497207 0.393509
O O14 0.777661 0.751733 0.439991
O O15 0.250000 0.505796 0.250000
O O16 0.100213 0.520531 0.292642
O O17 0.000000 0.440273 0.375423
O O18 0.194229 0.000000 0.500000
O O19 0.323751 0.009351 0.570202
O O20 0.500000 0.973262 0.593768
#
# Coordination Sequence:
#
# PCOD9418702 Si02
#       8
#     8   8   8   8   8   8   8   8
#     4  10  21  38  60  93 130 165 207 253 309 377
#     4  10  23  42  66  94 126 165 209 257 313 370
#     4  11  23  43  67  94 129 168 209 260 315 374
#     4  12  26  45  66  95 126 162 216 260 314 374
#     4  12  23  36  60  98 133 168 207 256 314 375
#     4  11  23  43  67  94 129 168 209 260 315 374
#     4  12  26  43  66  91 124 166 208 262 310 368
#     4  10  23  42  66  94 126 165 209 257 313 370
#
# _framework density 20.170396
#
# number of rings (size 3 to 8) (size 9 to 14) (size 15 to 20)
#    0.000    1.000    1.250    5.625    1.750    6.000 
#    0.000    0.000    0.000    0.000    0.000    0.000 
#    0.000    0.000    0.000    0.000    0.000    0.000 
#
# Total GULP energy -358168.223575 kJ/mol
# GULP energy per Si atom -5596.378493 kJ/mol
# Density = 2.012449 g / cm^3
# Si number density = 20.170396 Si / 1000 Ang^3
#
#
#
# Elastic Constant Matrix: (Units=GPa)
#
#
# Indices 1 2 3 4 5 6 
#
# 1 51.2029 18.7543 -9.5001 0.0000 0.0000 0.0000
# 2 18.7543 67.4324 -13.1085 0.0000 0.0000 0.0000
# 3 -9.5001 -13.1085 39.6968 0.0000 0.0000 0.0000
# 4 0.0000 0.0000 0.0000 36.8275 0.0000 0.0000
# 5 0.0000 0.0000 0.0000 0.0000 -16.0399 0.0000
# 6 0.0000 0.0000 0.0000 0.0000 0.0000 33.9727
#
#
#
# Elastic Compliance Matrix: (Units=1/GPa)
#
#
# Indices 1 2 3 4 5 6 
#
# 1 0.022191 -0.005492 0.003497 0.000000 0.000000 0.000000
# 2 -0.005492 0.017206 0.004367 0.000000 0.000000 0.000000
# 3 0.003497 0.004367 0.027470 0.000000 0.000000 0.000000
# 4 0.000000 0.000000 0.000000 0.027154 0.000000 0.000000
# 5 0.000000 0.000000 0.000000 0.000000 -0.062345 0.000000
# 6 0.000000 0.000000 0.000000 0.000000 0.000000 0.029435
#
#
# Mechanical properties :
#
#
# Convention : Reuss Voigt Hill
#
# Bulk Modulus (GPa) = 13.96415 16.73595 15.35005
# Shear Modulus (GPa) = 62.31596 21.76449 42.04023
#
# Velocity S-wave (km/s) = 5.56434 3.28843 4.57032
# Velocity P-wave (km/s) = 6.94410 4.76798 5.95626
#
# Compressibility (1/GPa) = 0.07161195
#
# Stress axis : x y z
#
# Youngs Moduli (GPa) = 45.06432 58.11902 36.40327
#
# Poissons Ratio (x) = 0.31918 -0.12730
# Poissons Ratio (y) = 0.24749 -0.15899
# Poissons Ratio (z) = -0.15759 -0.25383
#
# Static dielectric constant tensor:
#      x y z
#    x 1.725990 0.000000 0.000000 
#    y 0.000000 1.672660 0.000000 
#    z 0.000000 0.000000 1.677170 
# 
# From -- ./inp_files/35390.got.cif
#   From: 2010.05.17/outbox.cif.g08.bks.cpg/sg53_18_cif.got.tgz:35390.got - 2010.06.03 12:45:16.
