data_PCOD9418640
_publ_section_title
;
Structure prediction by ZEFSAII (Michael W. Deem and Ramdas Pophale) SiO2 
 PCOD9418640
Probable space group: P M N A
;
_chemical_formula_sum "Si O2"
_cell_formula_units_Z 48
_cell_length_a 15.820603
_cell_length_b 14.240296
_cell_length_c 9.483972
_cell_angle_alpha 90.000000
_cell_angle_beta 90.000000
_cell_angle_gamma 90.000000
_cell_volume 2136.644712
_symmetry_space_group_name_H-M "P M N A"
_symmetry_group_IT_number 53
_symmetry_cell_setting 'orthorhombic'
loop_
_space_group_symop_operation_xyz
x,y,z
1/2-x,-y,1/2+z
x,-y,-z
1/2-x,y,1/2-z
-x,-y,-z
1/2+x,y,1/2-z
-x,y,z
1/2+x,-y,1/2+z
loop_
_atom_site_type_symbol
_atom_site_label
_atom_site_fract_x
_atom_site_fract_y
_atom_site_fract_z
Si Si1 0.670181 0.339548 0.839386
Si Si2 0.404383 0.139598 0.876972
Si Si3 0.232812 0.857205 0.602558
Si Si4 0.403312 0.493889 0.341753
Si Si5 0.173089 0.351204 0.340224
Si Si6 0.403478 0.892558 0.450538
O O1 0.750000 0.301247 0.750000
O O2 0.607123 0.252352 0.860621
O O3 0.638732 0.425946 0.750085
O O4 0.682879 0.377147 0.997385
O O5 0.500000 0.117737 0.924560
O O6 0.392525 0.105235 0.717638
O O7 0.332328 0.105811 0.985220
O O8 0.250000 0.910550 0.750000
O O9 0.185348 0.761302 0.653566
O O10 0.323836 0.841639 0.526293
O O11 0.367163 0.500000 0.500000
O O12 0.500000 0.522304 0.355754
O O13 0.400492 0.396643 0.252577
O O14 0.250000 0.391112 0.250000
O O15 0.500000 0.856248 0.479955
O O16 0.399924 0.000000 0.500000
#
# Coordination Sequence:
#
# PCOD9418640 Si02
#       6
#     8   8   8   8   8   8
#     4  11  21  36  61  87 121 164 211 264 322 391
#     4  10  21  39  65  96 130 170 218 268 325 397
#     4  10  22  39  63  94 129 169 214 269 333 395
#     4  11  24  39  56  81 116 160 211 270 333 396
#     4  10  21  38  57  82 116 154 203 258 317 383
#     4  10  22  42  68  98 134 177 225 277 333 402
#
# _framework density 22.465129000000001
#
# number of rings (size 3 to 8) (size 9 to 14) (size 15 to 20)
#    0.000    1.667    0.000    5.000    0.000    7.333 
#    0.000    5.833    0.000    3.500    0.000    0.000 
#    0.000    0.000    0.000    0.000    0.000    0.000 
#
# Total GULP energy -267622.422045 kJ/mol
# GULP energy per Si atom -5575.467126 kJ/mol
# Density = 2.241400 g / cm^3
# Si number density = 22.465129 Si / 1000 Ang^3
#
#
#
# Elastic Constant Matrix: (Units=GPa)
#
#
# Indices 1 2 3 4 5 6 
#
# 1 119.3101 10.8779 64.0042 0.0000 0.0000 0.0000
# 2 10.8779 78.3973 33.8046 0.0000 0.0000 0.0000
# 3 64.0042 33.8046 216.2291 0.0000 0.0000 0.0000
# 4 0.0000 0.0000 0.0000 20.0505 0.0000 0.0000
# 5 0.0000 0.0000 0.0000 0.0000 5.2777 0.0000
# 6 0.0000 0.0000 0.0000 0.0000 0.0000 12.5634
#
#
#
# Elastic Compliance Matrix: (Units=1/GPa)
#
#
# Indices 1 2 3 4 5 6 
#
# 1 0.009965 -0.000119 -0.002931 0.000000 0.000000 0.000000
# 2 -0.000119 0.013679 -0.002103 0.000000 0.000000 0.000000
# 3 -0.002931 -0.002103 0.005821 0.000000 0.000000 0.000000
# 4 0.000000 0.000000 0.000000 0.049874 0.000000 0.000000
# 5 0.000000 0.000000 0.000000 0.000000 0.189476 0.000000
# 6 0.000000 0.000000 0.000000 0.000000 0.000000 0.079596
#
#
# Mechanical properties :
#
#
# Convention : Reuss Voigt Hill
#
# Bulk Modulus (GPa) = 52.19616 70.14556 61.17086
# Shear Modulus (GPa) = 13.69475 27.92831 20.81153
#
# Velocity S-wave (km/s) = 2.47169 3.52971 3.04697
# Velocity P-wave (km/s) = 5.60628 6.92125 6.29818
#
# Compressibility (1/GPa) = 0.01915850
#
# Stress axis : x y z
#
# Youngs Moduli (GPa) = 100.35435 73.10476 171.78770
#
# Poissons Ratio (x) = 0.00868 0.50351
# Poissons Ratio (y) = 0.01192 0.36133
# Poissons Ratio (z) = 0.29414 0.15377
#
# Static dielectric constant tensor:
#      x y z
#    x 1.935630 0.000000 0.000000 
#    y 0.000000 1.854680 0.000000 
#    z 0.000000 0.000000 1.421460 
# 
# From -- ./inp_files/8657.got.cif
#   From: 2010.05.17/outbox.cif.g08.bks.cpg/sg53_5_cif.got.tgz:8657.got - 2010.06.03 12:45:16.
