data_PCOD9418965
_publ_section_title
;
Structure prediction by ZEFSAII (Michael W. Deem and Ramdas Pophale) SiO2 
 PCOD9418965
Probable space group: P M N A
;
_chemical_formula_sum "Si O2"
_cell_formula_units_Z 48
_cell_length_a 28.442428
_cell_length_b 9.140948
_cell_length_c 8.584274
_cell_angle_alpha 90.000000
_cell_angle_beta 90.000000
_cell_angle_gamma 90.000000
_cell_volume 2231.831881
_symmetry_space_group_name_H-M "P M N A"
_symmetry_group_IT_number 53
_symmetry_cell_setting 'orthorhombic'
loop_
_space_group_symop_operation_xyz
x,y,z
1/2-x,-y,1/2+z
x,-y,-z
1/2-x,y,1/2-z
-x,-y,-z
1/2+x,y,1/2-z
-x,y,z
1/2+x,-y,1/2+z
loop_
_atom_site_type_symbol
_atom_site_label
_atom_site_fract_x
_atom_site_fract_y
_atom_site_fract_z
Si Si1 0.206069 0.631116 0.674926
Si Si2 0.372952 0.078832 0.728581
Si Si3 0.877828 0.500000 0.500000
Si Si4 0.720065 0.857216 0.093712
Si Si5 0.054056 0.316857 0.704765
Si Si6 0.084653 0.500000 0.000000
Si Si7 0.644160 0.218129 0.403388
O O1 0.250000 0.546824 0.750000
O O2 0.158719 0.544842 0.634940
O O3 0.219575 0.716696 0.518273
O O4 0.190967 0.746220 0.807753
O O5 0.334220 0.109972 0.859379
O O6 0.421515 0.164060 0.750770
O O7 0.349721 0.148104 0.572788
O O8 0.380906 0.907518 0.698354
O O9 0.912439 0.620921 0.430824
O O10 0.750000 0.837570 0.250000
O O11 0.737345 0.000000 0.000000
O O12 0.057641 0.425899 0.854536
O O13 0.000000 0.303745 0.658397
O O14 0.115789 0.633067 0.932627
#
# Coordination Sequence:
#
# PCOD9418965 Si02
#       7
#     8   8   4   8   8   4   8
#     4  12  25  42  64  94 136 180 228 277 336 409
#     4  10  22  40  66  98 132 176 220 285 336 405
#     4  12  25  45  66  99 135 184 226 286 350 408
#     4  12  24  38  64  96 134 177 228 273 336 413
#     4  11  23  44  70  98 132 179 230 286 349 412
#     4  10  21  41  70  97 129 170 223 280 345 408
#     4  10  21  40  67  94 136 176 220 276 346 398
#
# _framework density 21.506995
#
# number of rings (size 3 to 8) (size 9 to 14) (size 15 to 20)
#    0.000    1.000    5.000    2.000    2.333    1.333 
#    0.000    7.500    0.000    1.500    0.000    0.000 
#    0.000    0.000    0.000    0.000    0.000    0.000 
#
# Total GULP energy -268188.436894 kJ/mol
# GULP energy per Si atom -5587.259102 kJ/mol
# Density = 2.145804 g / cm^3
# Si number density = 21.506995 Si / 1000 Ang^3
#
#
#
# Elastic Constant Matrix: (Units=GPa)
#
#
# Indices 1 2 3 4 5 6 
#
# 1 147.1804 54.4568 61.2652 0.0000 0.0000 0.0000
# 2 54.4568 94.3516 16.6734 0.0000 0.0000 0.0000
# 3 61.2652 16.6734 66.5603 0.0000 0.0000 0.0000
# 4 0.0000 0.0000 0.0000 26.4817 0.0000 0.0000
# 5 0.0000 0.0000 0.0000 0.0000 22.4814 0.0000
# 6 0.0000 0.0000 0.0000 0.0000 0.0000 14.4833
#
#
#
# Elastic Compliance Matrix: (Units=1/GPa)
#
#
# Indices 1 2 3 4 5 6 
#
# 1 0.013545 -0.005875 -0.010996 0.000000 0.000000 0.000000
# 2 -0.005875 0.013637 0.001991 0.000000 0.000000 0.000000
# 3 -0.010996 0.001991 0.024646 0.000000 0.000000 0.000000
# 4 0.000000 0.000000 0.000000 0.037762 0.000000 0.000000
# 5 0.000000 0.000000 0.000000 0.000000 0.044481 0.000000
# 6 0.000000 0.000000 0.000000 0.000000 0.000000 0.069045
#
#
# Mechanical properties :
#
#
# Convention : Reuss Voigt Hill
#
# Bulk Modulus (GPa) = 45.31042 63.65366 54.48204
# Shear Modulus (GPa) = 20.81310 24.40240 22.60775
#
# Velocity S-wave (km/s) = 3.11422 3.37208 3.24571
# Velocity P-wave (km/s) = 5.83478 6.69494 6.27960
#
# Compressibility (1/GPa) = 0.02206998
#
# Stress axis : x y z
#
# Youngs Moduli (GPa) = 73.82674 73.32728 40.57384
#
# Poissons Ratio (x) = 0.43078 0.44615
# Poissons Ratio (y) = 0.43371 -0.08079
# Poissons Ratio (z) = 0.81180 -0.14601
#
# Static dielectric constant tensor:
#      x y z
#    x 1.760090 0.000000 0.000000 
#    y 0.000000 1.812890 0.000000 
#    z 0.000000 0.000000 1.840110 
# 
# From -- ./inp_files/13088.got.cif
#   From: 2010.05.17/outbox.cif.g08.bks.cpg/sg53_7_cif.got.tgz:13088.got - 2010.06.03 12:45:16.
