data_PCOD9418805
_publ_section_title
;
Structure prediction by ZEFSAII (Michael W. Deem and Ramdas Pophale) SiO2 
 PCOD9418805
Probable space group: P M N A
;
_chemical_formula_sum "Si O2"
_cell_formula_units_Z 48
_cell_length_a 16.511067
_cell_length_b 16.086485
_cell_length_c 8.683802
_cell_angle_alpha 90.000000
_cell_angle_beta 90.000000
_cell_angle_gamma 90.000000
_cell_volume 2306.461505
_symmetry_space_group_name_H-M "P M N A"
_symmetry_group_IT_number 53
_symmetry_cell_setting 'orthorhombic'
loop_
_space_group_symop_operation_xyz
x,y,z
1/2-x,-y,1/2+z
x,-y,-z
1/2-x,y,1/2-z
-x,-y,-z
1/2+x,y,1/2-z
-x,y,z
1/2+x,-y,1/2+z
loop_
_atom_site_type_symbol
_atom_site_label
_atom_site_fract_x
_atom_site_fract_y
_atom_site_fract_z
Si Si1 0.658612 0.837951 0.314109
Si Si2 0.840011 0.508893 0.315044
Si Si3 0.340822 0.010625 0.182511
Si Si4 0.407025 0.318719 0.860360
Si Si5 0.092138 0.835264 0.857989
Si Si6 0.843371 0.674966 0.697619
O O1 0.750000 0.832300 0.250000
O O2 0.624171 0.925097 0.251670
O O3 0.612549 0.757590 0.250694
O O4 0.652649 0.841444 0.497696
O O5 0.836104 0.500000 0.500000
O O6 0.750000 0.520129 0.250000
O O7 0.889747 0.592104 0.282146
O O8 0.871365 0.418823 0.260849
O O9 0.250000 0.019115 0.250000
O O10 0.389007 0.091128 0.238536
O O11 0.337399 0.000000 0.000000
O O12 0.500000 0.315886 0.910888
O O13 0.352084 0.313607 0.013688
O O14 0.106430 0.747038 0.778005
O O15 0.000000 0.842504 0.914073
O O16 0.750000 0.681875 0.750000
#
# Coordination Sequence:
#
# PCOD9418805 Si02
#       6
#     8   8   8   8   8   8
#     4  11  23  41  63  87 120 163 205 247 296 360
#     4   9  20  37  60  86 115 155 202 248 295 355
#     4  11  23  42  67  92 119 159 207 249 297 360
#     4  11  22  37  60  89 122 157 198 251 305 357
#     4  12  25  40  62  93 128 160 198 254 309 359
#     4  10  21  39  61  86 117 160 206 246 295 361
#
# _framework density 20.811101000000001
#
# number of rings (size 3 to 8) (size 9 to 14) (size 15 to 20)
#    0.000    1.333    0.000    6.500    0.000    8.667 
#    0.000    0.000    0.000    2.500    0.000    0.000 
#    0.000    0.000    0.000    0.000    0.000    0.000 
#
# Total GULP energy -268337.769418 kJ/mol
# GULP energy per Si atom -5590.370196 kJ/mol
# Density = 2.076373 g / cm^3
# Si number density = 20.811101 Si / 1000 Ang^3
#
#
#
# Elastic Constant Matrix: (Units=GPa)
#
#
# Indices 1 2 3 4 5 6 
#
# 1 55.6791 48.6553 12.4369 0.0000 0.0000 0.0000
# 2 48.6553 155.9154 54.3315 0.0000 0.0000 0.0000
# 3 12.4369 54.3315 90.6413 0.0000 0.0000 0.0000
# 4 0.0000 0.0000 0.0000 17.9963 0.0000 0.0000
# 5 0.0000 0.0000 0.0000 0.0000 14.8153 0.0000
# 6 0.0000 0.0000 0.0000 0.0000 0.0000 -34.0886
#
#
#
# Elastic Compliance Matrix: (Units=1/GPa)
#
#
# Indices 1 2 3 4 5 6 
#
# 1 0.024869 -0.008307 0.001567 0.000000 0.000000 0.000000
# 2 -0.008307 0.010882 -0.005383 0.000000 0.000000 0.000000
# 3 0.001567 -0.005383 0.014044 0.000000 0.000000 0.000000
# 4 0.000000 0.000000 0.000000 0.055567 0.000000 0.000000
# 5 0.000000 0.000000 0.000000 0.000000 0.067498 0.000000
# 6 0.000000 0.000000 0.000000 0.000000 0.000000 -0.029335
#
#
# Mechanical properties :
#
#
# Convention : Reuss Voigt Hill
#
# Bulk Modulus (GPa) = 39.14003 59.23146 49.18575
# Shear Modulus (GPa) = 28.36302 12.19874 20.28088
#
# Velocity S-wave (km/s) = 3.69572 2.42371 3.12512
# Velocity P-wave (km/s) = 6.08763 6.02957 6.05867
#
# Compressibility (1/GPa) = 0.02554929
#
# Stress axis : x y z
#
# Youngs Moduli (GPa) = 40.21100 91.89775 71.20453
#
# Poissons Ratio (x) = 0.76336 -0.11157
# Poissons Ratio (y) = 0.33402 0.38328
# Poissons Ratio (z) = -0.06300 0.49467
#
# Static dielectric constant tensor:
#      x y z
#    x 1.721960 0.000000 0.000000 
#    y 0.000000 1.760810 0.000000 
#    z 0.000000 0.000000 1.722080 
# 
# From -- ./inp_files/9906.got.cif
#   From: 2010.05.17/outbox.cif.g08.bks.cpg/sg53_5_cif.got.tgz:9906.got - 2010.06.03 12:45:16.
