data_PCOD9418671
_publ_section_title
;
Structure prediction by ZEFSAII (Michael W. Deem and Ramdas Pophale) SiO2 
 PCOD9418671
Probable space group: P M N A
;
_chemical_formula_sum "Si O2"
_cell_formula_units_Z 48
_cell_length_a 8.687462
_cell_length_b 31.373652
_cell_length_c 9.480807
_cell_angle_alpha 90.000000
_cell_angle_beta 90.000000
_cell_angle_gamma 90.000000
_cell_volume 2584.064196
_symmetry_space_group_name_H-M "P M N A"
_symmetry_group_IT_number 53
_symmetry_cell_setting 'orthorhombic'
loop_
_space_group_symop_operation_xyz
x,y,z
1/2-x,-y,1/2+z
x,-y,-z
1/2-x,y,1/2-z
-x,-y,-z
1/2+x,y,1/2-z
-x,y,z
1/2+x,-y,1/2+z
loop_
_atom_site_type_symbol
_atom_site_label
_atom_site_fract_x
_atom_site_fract_y
_atom_site_fract_z
Si Si1 0.816144 0.290131 0.093241
Si Si2 0.684298 0.618973 0.908518
Si Si3 0.315457 0.542003 0.407706
Si Si4 0.184550 0.958946 0.907165
Si Si5 0.315564 0.214524 0.906971
Si Si6 0.315886 0.883056 0.092400
O O1 0.750000 0.284567 0.250000
O O2 0.746466 0.335049 0.041378
O O3 0.000000 0.293138 0.096826
O O4 0.761530 0.250224 0.002424
O O5 0.750000 0.612072 0.750000
O O6 0.500000 0.619535 0.901674
O O7 0.742953 0.582186 0.011622
O O8 0.280107 0.500000 0.500000
O O9 0.250000 0.537982 0.250000
O O10 0.500000 0.546751 0.401478
O O11 0.250000 0.962195 0.750000
O O12 0.000000 0.957667 0.900938
O O13 0.245654 0.917026 0.985798
O O14 0.230869 0.000000 0.000000
O O15 0.250000 0.219223 0.750000
O O16 0.500000 0.219667 0.907290
O O17 0.280380 0.165754 0.951106
O O18 0.250000 0.889712 0.250000
O O19 0.500000 0.887731 0.097592
#
# Coordination Sequence:
#
# PCOD9418671 Si02
#       6
#     8   8   8   8   8   8
#     4  11  22  38  60  86 117 154 195 239 289 343
#     4  11  22  39  62  87 118 154 194 240 290 344
#     4  11  24  41  62  89 120 154 194 239 288 343
#     4  11  24  40  60  86 116 151 191 236 286 341
#     4  10  21  38  59  86 117 152 193 237 288 342
#     4  10  21  38  61  86 116 152 191 237 287 342
#
# _framework density 18.575388
#
# number of rings (size 3 to 8) (size 9 to 14) (size 15 to 20)
#    0.000    1.333    0.000    7.000    0.000    8.667 
#    0.000    3.333    0.000    0.000    0.000    0.000 
#    0.000    0.000    0.000    0.000    0.000    0.000 
#
# Total GULP energy -268413.817934 kJ/mol
# GULP energy per Si atom -5591.954540 kJ/mol
# Density = 1.853311 g / cm^3
# Si number density = 18.575388 Si / 1000 Ang^3
#
#
#
# Elastic Constant Matrix: (Units=GPa)
#
#
# Indices 1 2 3 4 5 6 
#
# 1 132.4159 97.5506 72.1598 0.0000 0.0000 0.0000
# 2 97.5506 189.3534 119.9053 0.0000 0.0000 0.0000
# 3 72.1598 119.9053 128.9957 0.0000 0.0000 0.0000
# 4 0.0000 0.0000 0.0000 44.9633 0.0000 0.0000
# 5 0.0000 0.0000 0.0000 0.0000 38.2209 0.0000
# 6 0.0000 0.0000 0.0000 0.0000 0.0000 37.6676
#
#
#
# Elastic Compliance Matrix: (Units=1/GPa)
#
#
# Indices 1 2 3 4 5 6 
#
# 1 0.012480 -0.004883 -0.002443 0.000000 0.000000 0.000000
# 2 -0.004883 0.014748 -0.010977 0.000000 0.000000 0.000000
# 3 -0.002443 -0.010977 0.019322 0.000000 0.000000 0.000000
# 4 0.000000 0.000000 0.000000 0.022240 0.000000 0.000000
# 5 0.000000 0.000000 0.000000 0.000000 0.026164 0.000000
# 6 0.000000 0.000000 0.000000 0.000000 0.000000 0.026548
#
#
# Mechanical properties :
#
#
# Convention : Reuss Voigt Hill
#
# Bulk Modulus (GPa) = 100.55276 114.44404 107.49840
# Shear Modulus (GPa) = 30.97476 34.91365 32.94421
#
# Velocity S-wave (km/s) = 4.08795 4.34010 4.21591
# Velocity P-wave (km/s) = 8.74823 9.31985 9.03856
#
# Compressibility (1/GPa) = 0.00994503
#
# Stress axis : x y z
#
# Youngs Moduli (GPa) = 80.12683 67.80794 51.75422
#
# Poissons Ratio (x) = 0.33108 0.12643
# Poissons Ratio (y) = 0.39123 0.56810
# Poissons Ratio (z) = 0.19574 0.74432
#
# Static dielectric constant tensor:
#      x y z
#    x 1.620110 0.000000 0.000000 
#    y 0.000000 1.635200 0.000000 
#    z 0.000000 0.000000 1.592240 
# 
# From -- ./inp_files/6709.got.cif
#   From: 2010.05.17/outbox.cif.g08.bks.cpg/sg53_4_cif.got.tgz:6709.got - 2010.06.03 12:45:16.
