data_PCOD9418703
_publ_section_title
;
Structure prediction by ZEFSAII (Michael W. Deem and Ramdas Pophale) SiO2 
 PCOD9418703
Probable space group: P M N A
;
_chemical_formula_sum "Si O2"
_cell_formula_units_Z 60
_cell_length_a 20.039428
_cell_length_b 23.922919
_cell_length_c 5.631146
_cell_angle_alpha 90.000000
_cell_angle_beta 90.000000
_cell_angle_gamma 90.000000
_cell_volume 2699.580475
_symmetry_space_group_name_H-M "P M N A"
_symmetry_group_IT_number 53
_symmetry_cell_setting 'orthorhombic'
loop_
_space_group_symop_operation_xyz
x,y,z
1/2-x,-y,1/2+z
x,-y,-z
1/2-x,y,1/2-z
-x,-y,-z
1/2+x,y,1/2-z
-x,y,z
1/2+x,-y,1/2+z
loop_
_atom_site_type_symbol
_atom_site_label
_atom_site_fract_x
_atom_site_fract_y
_atom_site_fract_z
Si Si1 0.076936 0.980325 0.256614
Si Si2 0.679131 0.558874 0.109145
Si Si3 0.750000 0.633255 0.750000
Si Si4 0.074466 0.752115 0.526042
Si Si5 0.284656 0.843203 0.495347
Si Si6 0.333983 0.726269 0.566355
Si Si7 0.073000 0.145940 0.849524
Si Si8 0.075423 0.353320 0.790735
O O1 0.072765 0.913502 0.279741
O O2 0.000000 0.002739 0.254940
O O3 0.110725 0.000000 0.500000
O O4 0.104901 0.000000 0.000000
O O5 0.750000 0.551171 0.250000
O O6 0.625080 0.594297 0.257918
O O7 0.656129 0.500000 0.000000
O O8 0.696475 0.596174 0.881053
O O9 0.782709 0.675439 0.932646
O O10 0.138500 0.753995 0.692792
O O11 0.080787 0.800019 0.322395
O O12 0.075397 0.687738 0.437183
O O13 0.000000 0.761219 0.628748
O O14 0.250000 0.854005 0.750000
O O15 0.294571 0.776864 0.452208
O O16 0.362437 0.860348 0.512531
O O17 0.250000 0.865362 0.250000
O O18 0.398932 0.693518 0.474337
O O19 0.000000 0.151452 0.966275
O O20 0.000000 0.371522 0.840799
#
# Coordination Sequence:
#
# PCOD9418703 Si02
#       8
#     8   8   4   8   8   8   8   8
#     4   9  19  37  63  97 135 179 237 296 345 400
#     4  12  25  43  68  93 122 162 226 276 331 399
#     4  12  24  38  64  92 118 170 212 278 318 392
#     4  10  21  38  60  94 134 172 215 269 340 413
#     4  12  27  42  64 101 144 179 227 283 347 419
#     4  12  23  37  65  91 130 176 221 268 336 412
#     4  10  22  42  69 101 140 185 236 294 356 420
#     4  11  24  41  63  94 133 169 211 269 337 410
#
# _framework density 22.225676
#
# number of rings (size 3 to 8) (size 9 to 14) (size 15 to 20)
#    0.000    1.067    5.333    1.200    1.867    2.933 
#    0.000    4.667    0.000    2.800    0.000    0.000 
#    0.000    0.000    0.000    0.000    0.000    0.000 
#
# Total GULP energy -334229.348610 kJ/mol
# GULP energy per Si atom -5570.489144 kJ/mol
# Density = 2.217509 g / cm^3
# Si number density = 22.225676 Si / 1000 Ang^3
#
#
#
# Elastic Constant Matrix: (Units=GPa)
#
#
# Indices 1 2 3 4 5 6 
#
# 1 114.2053 14.0606 42.7730 0.0000 0.0000 0.0000
# 2 14.0606 90.5169 18.7060 0.0000 0.0000 0.0000
# 3 42.7730 18.7060 79.1645 0.0000 0.0000 0.0000
# 4 0.0000 0.0000 0.0000 23.6818 0.0000 0.0000
# 5 0.0000 0.0000 0.0000 0.0000 18.4571 0.0000
# 6 0.0000 0.0000 0.0000 0.0000 0.0000 31.9745
#
#
#
# Elastic Compliance Matrix: (Units=1/GPa)
#
#
# Indices 1 2 3 4 5 6 
#
# 1 0.011000 -0.000505 -0.005824 0.000000 0.000000 0.000000
# 2 -0.000505 0.011638 -0.002477 0.000000 0.000000 0.000000
# 3 -0.005824 -0.002477 0.016364 0.000000 0.000000 0.000000
# 4 0.000000 0.000000 0.000000 0.042227 0.000000 0.000000
# 5 0.000000 0.000000 0.000000 0.000000 0.054180 0.000000
# 6 0.000000 0.000000 0.000000 0.000000 0.000000 0.031275
#
#
# Mechanical properties :
#
#
# Convention : Reuss Voigt Hill
#
# Bulk Modulus (GPa) = 46.75184 48.32955 47.54070
# Shear Modulus (GPa) = 26.12001 28.71249 27.41625
#
# Velocity S-wave (km/s) = 3.43186 3.59815 3.51599
# Velocity P-wave (km/s) = 6.06501 6.24935 6.15787
#
# Compressibility (1/GPa) = 0.02138953
#
# Stress axis : x y z
#
# Youngs Moduli (GPa) = 90.91322 85.92522 61.11036
#
# Poissons Ratio (x) = 0.04340 0.35589
# Poissons Ratio (y) = 0.04592 0.15137
# Poissons Ratio (z) = 0.52945 0.21284
#
# Static dielectric constant tensor:
#      x y z
#    x 1.914270 0.000000 0.000000 
#    y 0.000000 1.808960 0.000000 
#    z 0.000000 0.000000 1.980690 
# 
# From -- ./inp_files/3093.got.cif
#   From: 2010.05.17/outbox.cif.g08.bks.cpg/sg53_2_cif.got.tgz:3093.got - 2010.06.03 12:45:16.
