data_PCOD9418484
_publ_section_title
;
Structure prediction by ZEFSAII (Michael W. Deem and Ramdas Pophale) SiO2 
 PCOD9418484
Probable space group: P M N A
;
_chemical_formula_sum "Si O2"
_cell_formula_units_Z 40
_cell_length_a 24.711593
_cell_length_b 15.639679
_cell_length_c 5.257542
_cell_angle_alpha 90.000000
_cell_angle_beta 90.000000
_cell_angle_gamma 90.000000
_cell_volume 2031.942099
_symmetry_space_group_name_H-M "P M N A"
_symmetry_group_IT_number 53
_symmetry_cell_setting 'orthorhombic'
loop_
_space_group_symop_operation_xyz
x,y,z
1/2-x,-y,1/2+z
x,-y,-z
1/2-x,y,1/2-z
-x,-y,-z
1/2+x,y,1/2-z
-x,y,z
1/2+x,-y,1/2+z
loop_
_atom_site_type_symbol
_atom_site_label
_atom_site_fract_x
_atom_site_fract_y
_atom_site_fract_z
Si Si1 0.787080 0.405228 0.497305
Si Si2 0.061849 0.766281 0.077072
Si Si3 0.129030 0.747634 0.553698
Si Si4 0.937344 0.036942 0.759514
Si Si5 0.285904 0.102068 0.000022
O O1 0.813433 0.500000 0.500000
O O2 0.750000 0.393088 0.750000
O O3 0.827700 0.328048 0.450501
O O4 0.750000 0.407028 0.250000
O O5 0.089713 0.723447 0.319577
O O6 0.060043 0.863740 0.182359
O O7 0.000000 0.739766 0.028865
O O8 0.096516 0.758076 0.818849
O O9 0.162015 0.835973 0.502542
O O10 0.000000 0.003598 0.759326
O O11 0.915313 0.000000 0.500000
O O12 0.906108 0.000000 0.000000
O O13 0.250000 0.121071 0.250000
O O14 0.250000 0.120824 0.750000
O O15 0.296959 0.000000 0.000000
#
# Coordination Sequence:
#
# PCOD9418484 Si02
#       5
#     8   8   8   8   8
#     4  10  21  39  65  96 123 145 182 243 309 369
#     4  11  24  38  54  81 117 158 202 248 289 333
#     4  12  22  37  62  85 115 157 198 238 293 358
#     4   9  17  31  49  68  97 141 193 246 289 319
#     4  10  21  37  56  82 116 149 186 234 289 356
#
# _framework density 19.685600000000001
#
# number of rings (size 3 to 8) (size 9 to 14) (size 15 to 20)
#    0.000    1.600    0.000    5.400    0.000    5.600 
#    0.000    0.000    0.000    4.200    0.000    0.000 
#    0.000    0.000    0.000    0.000    0.000    0.000 
#
# Total GULP energy -223202.373703 kJ/mol
# GULP energy per Si atom -5580.059343 kJ/mol
# Density = 1.964079 g / cm^3
# Si number density = 19.685600 Si / 1000 Ang^3
#
#
#
# Elastic Constant Matrix: (Units=GPa)
#
#
# Indices 1 2 3 4 5 6 
#
# 1 100.9413 44.4679 63.6397 0.0000 0.0000 0.0000
# 2 44.4679 91.7847 30.4249 0.0000 0.0000 0.0000
# 3 63.6397 30.4249 196.2451 0.0000 0.0000 0.0000
# 4 0.0000 0.0000 0.0000 13.7412 0.0000 0.0000
# 5 0.0000 0.0000 0.0000 0.0000 8.7263 0.0000
# 6 0.0000 0.0000 0.0000 0.0000 0.0000 -8.0625
#
#
#
# Elastic Compliance Matrix: (Units=1/GPa)
#
#
# Indices 1 2 3 4 5 6 
#
# 1 0.015026 -0.005971 -0.003947 0.000000 0.000000 0.000000
# 2 -0.005971 0.013858 -0.000212 0.000000 0.000000 0.000000
# 3 -0.003947 -0.000212 0.006408 0.000000 0.000000 0.000000
# 4 0.000000 0.000000 0.000000 0.072774 0.000000 0.000000
# 5 0.000000 0.000000 0.000000 0.000000 0.114596 0.000000
# 6 0.000000 0.000000 0.000000 0.000000 0.000000 -0.124031
#
#
# Mechanical properties :
#
#
# Convention : Reuss Voigt Hill
#
# Bulk Modulus (GPa) = 66.52519 74.00399 70.26459
# Shear Modulus (GPa) = 40.35425 19.57691 29.96558
#
# Velocity S-wave (km/s) = 4.53254 3.15696 3.90578
# Velocity P-wave (km/s) = 7.82682 7.13884 7.49073
#
# Compressibility (1/GPa) = 0.01503190
#
# Stress axis : x y z
#
# Youngs Moduli (GPa) = 66.55280 72.15853 156.04359
#
# Poissons Ratio (x) = 0.43088 0.61588
# Poissons Ratio (y) = 0.39741 0.03310
# Poissons Ratio (z) = 0.26267 0.01531
#
# Static dielectric constant tensor:
#      x y z
#    x 1.737460 0.000000 0.000000 
#    y 0.000000 1.719670 0.000000 
#    z 0.000000 0.000000 1.722350 
# 
# From -- ./inp_files/3638.got.cif
#   From: 2010.05.17/outbox.cif.g08.bks.cpg/sg53_2_cif.got.tgz:3638.got - 2010.06.03 12:45:16.
