data_PCOD9418591
_publ_section_title
;
Structure prediction by ZEFSAII (Michael W. Deem and Ramdas Pophale) SiO2 
 PCOD9418591
Probable space group: P M N A
;
_chemical_formula_sum "Si O2"
_cell_formula_units_Z 32
_cell_length_a 10.894285
_cell_length_b 7.253862
_cell_length_c 17.546173
_cell_angle_alpha 90.000000
_cell_angle_beta 90.000000
_cell_angle_gamma 90.000000
_cell_volume 1386.597551
_symmetry_space_group_name_H-M "P M N A"
_symmetry_group_IT_number 53
_symmetry_cell_setting 'orthorhombic'
loop_
_space_group_symop_operation_xyz
x,y,z
1/2-x,-y,1/2+z
x,-y,-z
1/2-x,y,1/2-z
-x,-y,-z
1/2+x,y,1/2-z
-x,y,z
1/2+x,-y,1/2+z
loop_
_atom_site_type_symbol
_atom_site_label
_atom_site_fract_x
_atom_site_fract_y
_atom_site_fract_z
Si Si1 0.137305 0.771988 0.940829
Si Si2 0.633051 0.302499 0.958917
Si Si3 0.714972 0.441705 0.668871
Si Si4 0.631931 0.043456 0.699532
O O1 0.157911 0.586921 0.889987
O O2 0.142290 0.936679 0.880183
O O3 0.000000 0.766399 0.975302
O O4 0.248354 0.784932 0.000457
O O5 0.500000 0.209513 0.965342
O O6 0.666735 0.351327 0.872347
O O7 0.623512 0.500000 0.000000
O O8 0.750000 0.529307 0.750000
O O9 0.634320 0.262501 0.685918
O O10 0.750000 0.997875 0.750000
O O11 0.500000 0.989262 0.734144
#
# Coordination Sequence:
#
# PCOD9418591 Si02
#       4
#     8   8   8   8
#     4  10  21  38  60  84 113 151 191 233 282 334
#     4   9  20  38  59  85 116 150 190 234 281 337
#     4  10  21  37  60  86 114 148 187 234 285 336
#     4  10  22  38  57  86 118 149 191 237 281 336
#
# _framework density 23.078074999999998
#
# number of rings (size 3 to 8) (size 9 to 14) (size 15 to 20)
#    0.000    2.250    0.000    1.500    0.000   12.500 
#    0.000    8.750    0.000    0.000    0.000    0.000 
#    0.000    0.000    0.000    0.000    0.000    0.000 
#
# Total GULP energy -178779.067895 kJ/mol
# GULP energy per Si atom -5586.845872 kJ/mol
# Density = 2.302555 g / cm^3
# Si number density = 23.078075 Si / 1000 Ang^3
#
#
#
# Elastic Constant Matrix: (Units=GPa)
#
#
# Indices 1 2 3 4 5 6 
#
# 1 238.4346 22.9073 79.1317 0.0000 0.0000 0.0000
# 2 22.9073 77.0850 10.8035 0.0000 0.0000 0.0000
# 3 79.1317 10.8035 97.0609 0.0000 0.0000 0.0000
# 4 0.0000 0.0000 0.0000 29.3308 0.0000 0.0000
# 5 0.0000 0.0000 0.0000 0.0000 13.9128 0.0000
# 6 0.0000 0.0000 0.0000 0.0000 0.0000 -7.0501
#
#
#
# Elastic Compliance Matrix: (Units=1/GPa)
#
#
# Indices 1 2 3 4 5 6 
#
# 1 0.005838 -0.001085 -0.004639 0.000000 0.000000 0.000000
# 2 -0.001085 0.013380 -0.000605 0.000000 0.000000 0.000000
# 3 -0.004639 -0.000605 0.014152 0.000000 0.000000 0.000000
# 4 0.000000 0.000000 0.000000 0.034094 0.000000 0.000000
# 5 0.000000 0.000000 0.000000 0.000000 0.071876 0.000000
# 6 0.000000 0.000000 0.000000 0.000000 0.000000 -0.141842
#
#
# Mechanical properties :
#
#
# Convention : Reuss Voigt Hill
#
# Bulk Modulus (GPa) = 48.27904 70.91839 59.59871
# Shear Modulus (GPa) = 293.10480 27.22122 160.16301
#
# Velocity S-wave (km/s) = 11.28191 3.43815 8.33973
# Velocity P-wave (km/s) = 13.80847 6.82332 10.89109
#
# Compressibility (1/GPa) = 0.02071292
#
# Stress axis : x y z
#
# Youngs Moduli (GPa) = 171.30052 74.73950 70.66190
#
# Poissons Ratio (x) = 0.08107 0.32777
# Poissons Ratio (y) = 0.18581 0.04275
# Poissons Ratio (z) = 0.79460 0.04521
#
# Static dielectric constant tensor:
#      x y z
#    x 1.900620 0.000000 0.000000 
#    y 0.000000 1.856960 0.000000 
#    z 0.000000 0.000000 1.868690 
# 
# From -- ./inp_files/21361.got.cif
#   From: 2010.05.17/outbox.cif.g08.bks.cpg/sg53_11_cif.got.tgz:21361.got - 2010.06.03 12:45:16.
