data_PCOD9418381
_publ_section_title
;
Structure prediction by ZEFSAII (Michael W. Deem and Ramdas Pophale) SiO2 
 PCOD9418381
Probable space group: P M N A
;
_chemical_formula_sum "Si O2"
_cell_formula_units_Z 36
_cell_length_a 22.256060
_cell_length_b 7.436447
_cell_length_c 9.943083
_cell_angle_alpha 90.000000
_cell_angle_beta 90.000000
_cell_angle_gamma 90.000000
_cell_volume 1645.640001
_symmetry_space_group_name_H-M "P M N A"
_symmetry_group_IT_number 53
_symmetry_cell_setting 'orthorhombic'
loop_
_space_group_symop_operation_xyz
x,y,z
1/2-x,-y,1/2+z
x,-y,-z
1/2-x,y,1/2-z
-x,-y,-z
1/2+x,y,1/2-z
-x,y,z
1/2+x,-y,1/2+z
loop_
_atom_site_type_symbol
_atom_site_label
_atom_site_fract_x
_atom_site_fract_y
_atom_site_fract_z
Si Si1 0.372459 0.000000 0.000000
Si Si2 0.838229 0.726664 0.164823
Si Si3 0.434281 0.565179 0.653977
Si Si4 0.284988 0.297222 0.957479
Si Si5 0.431103 0.986720 0.712839
O O1 0.414696 0.978271 0.130204
O O2 0.326223 0.839614 0.959749
O O3 0.876722 0.548124 0.196749
O O4 0.787417 0.717510 0.049968
O O5 0.805922 0.754628 0.307378
O O6 0.885186 0.884148 0.136370
O O7 0.438648 0.500000 0.500000
O O8 0.500000 0.521427 0.717262
O O9 0.424966 0.776869 0.676036
O O10 0.298741 0.500000 0.000000
O O11 0.500000 0.038292 0.685004
#
# Coordination Sequence:
#
# PCOD9418381 Si02
#       5
#     4   8   8   8   8
#     4  10  21  38  60  86 113 148 196 246 300 354
#     4  10  21  36  55  81 111 146 188 233 287 350
#     4  10  21  36  55  80 110 146 187 231 284 346
#     4  10  21  36  55  80 111 146 186 234 287 348
#     4  10  21  38  60  85 115 151 194 246 299 354
#
# _framework density 21.875986999999999
#
# number of rings (size 3 to 8) (size 9 to 14) (size 15 to 20)
#    0.000    2.000    0.000    3.000    0.000    4.444 
#    0.000    7.778    0.000   10.667    0.000    0.000 
#    0.000    0.000    0.000    0.000    0.000    0.000 
#
# Total GULP energy -200738.501120 kJ/mol
# GULP energy per Si atom -5576.069476 kJ/mol
# Density = 2.182620 g / cm^3
# Si number density = 21.875987 Si / 1000 Ang^3
#
#
#
# Elastic Constant Matrix: (Units=GPa)
#
#
# Indices 1 2 3 4 5 6 
#
# 1 144.1198 57.5520 1.6797 0.0000 0.0000 0.0000
# 2 57.5520 117.6716 -6.6967 0.0000 0.0000 0.0000
# 3 1.6797 -6.6967 36.5683 0.0000 0.0000 0.0000
# 4 0.0000 0.0000 0.0000 26.4408 0.0000 0.0000
# 5 0.0000 0.0000 0.0000 0.0000 -26.0820 0.0000
# 6 0.0000 0.0000 0.0000 0.0000 0.0000 -116.4974
#
#
#
# Elastic Compliance Matrix: (Units=1/GPa)
#
#
# Indices 1 2 3 4 5 6 
#
# 1 0.008674 -0.004310 -0.001188 0.000000 0.000000 0.000000
# 2 -0.004310 0.010729 0.002163 0.000000 0.000000 0.000000
# 3 -0.001188 0.002163 0.027797 0.000000 0.000000 0.000000
# 4 0.000000 0.000000 0.000000 0.037820 0.000000 0.000000
# 5 0.000000 0.000000 0.000000 0.000000 -0.038341 0.000000
# 6 0.000000 0.000000 0.000000 0.000000 0.000000 -0.008584
#
#
# Mechanical properties :
#
#
# Convention : Reuss Voigt Hill
#
# Bulk Modulus (GPa) = 24.67295 44.82551 34.74923
# Shear Modulus (GPa) = 85.80083 -6.83940 39.48072
#
# Velocity S-wave (km/s) = 6.26950 -1.77009 4.25285
# Velocity P-wave (km/s) = 7.98197 4.04445 6.32730
#
# Compressibility (1/GPa) = 0.04053022
#
# Stress axis : x y z
#
# Youngs Moduli (GPa) = 115.29322 93.20401 35.97548
#
# Poissons Ratio (x) = 0.40168 0.04273
# Poissons Ratio (y) = 0.49688 -0.07781
# Poissons Ratio (z) = 0.13693 -0.20158
#
# Static dielectric constant tensor:
#      x y z
#    x 1.901350 0.000000 0.000000 
#    y 0.000000 1.805410 0.000000 
#    z 0.000000 0.000000 1.887610 
# 
# From -- ./inp_files/18110.got.cif
#   From: 2010.05.17/outbox.cif.g08.bks.cpg/sg53_10_cif.got.tgz:18110.got - 2010.06.03 12:45:16.
