data_PCOD9418469
_publ_section_title
;
Structure prediction by ZEFSAII (Michael W. Deem and Ramdas Pophale) SiO2 
 PCOD9418469
Probable space group: P M N A
;
_chemical_formula_sum "Si O2"
_cell_formula_units_Z 64
_cell_length_a 8.575103
_cell_length_b 24.974812
_cell_length_c 14.857977
_cell_angle_alpha 90.000000
_cell_angle_beta 90.000000
_cell_angle_gamma 90.000000
_cell_volume 3182.007909
_symmetry_space_group_name_H-M "P M N A"
_symmetry_group_IT_number 53
_symmetry_cell_setting 'orthorhombic'
loop_
_space_group_symop_operation_xyz
x,y,z
1/2-x,-y,1/2+z
x,-y,-z
1/2-x,y,1/2-z
-x,-y,-z
1/2+x,y,1/2-z
-x,y,z
1/2+x,-y,1/2+z
loop_
_atom_site_type_symbol
_atom_site_label
_atom_site_fract_x
_atom_site_fract_y
_atom_site_fract_z
Si Si1 0.311771 0.538387 0.350184
Si Si2 0.312554 0.151210 0.647838
Si Si3 0.187761 0.805321 0.649315
Si Si4 0.687928 0.582877 0.650671
Si Si5 0.813349 0.751700 0.470784
Si Si6 0.686498 0.075681 0.147509
Si Si7 0.313397 0.966287 0.352965
Si Si8 0.688507 0.637320 0.472907
O O1 0.250000 0.547252 0.250000
O O2 0.500000 0.538805 0.350178
O O3 0.264334 0.477875 0.376497
O O4 0.259772 0.586563 0.413711
O O5 0.250000 0.154900 0.750000
O O6 0.500000 0.153311 0.649555
O O7 0.247551 0.200067 0.590467
O O8 0.266164 0.092107 0.610197
O O9 0.250000 0.796706 0.750000
O O10 0.239580 0.763715 0.573504
O O11 0.232800 0.865155 0.614759
O O12 0.000000 0.804426 0.654686
O O13 0.750000 0.593898 0.750000
O O14 0.500000 0.583478 0.653413
O O15 0.739565 0.624290 0.574842
O O16 0.752642 0.693949 0.441209
O O17 0.000000 0.752189 0.468929
O O18 0.750000 0.075865 0.250000
O O19 0.500000 0.072061 0.148260
O O20 0.752104 0.021417 0.104253
O O21 0.250000 0.965741 0.250000
O O22 0.500000 0.969058 0.350872
O O23 0.500000 0.639069 0.470614
#
# Coordination Sequence:
#
# PCOD9418469 Si02
#       8
#     8   8   8   8   8   8   8   8
#     4   9  18  34  57  84 112 142 177 216 262 318
#     4  10  21  38  59  81 107 142 181 223 274 327
#     4   9  20  37  56  78 105 141 182 226 275 325
#     4   9  18  34  57  84 113 144 177 217 265 318
#     4  11  24  40  56  78 109 144 188 234 272 318
#     4   9  15  26  47  74 102 132 169 213 266 325
#     4   9  16  27  47  76 105 132 167 212 265 325
#     4  10  21  37  56  78 108 146 184 221 266 319
#
# _framework density 20.113085999999999
#
# number of rings (size 3 to 8) (size 9 to 14) (size 15 to 20)
#    0.000    2.500    0.000    2.625    0.000    6.500 
#    0.000    4.375    0.000    7.500    0.000    0.000 
#    0.000    0.000    0.000    0.000    0.000    0.000 
#
# Total GULP energy -357066.840443 kJ/mol
# GULP energy per Si atom -5579.169382 kJ/mol
# Density = 2.006731 g / cm^3
# Si number density = 20.113086 Si / 1000 Ang^3
#
#
#
# Elastic Constant Matrix: (Units=GPa)
#
#
# Indices 1 2 3 4 5 6 
#
# 1 24.6509 12.2464 -0.1855 0.0000 0.0000 0.0000
# 2 12.2464 64.9133 10.5575 0.0000 0.0000 0.0000
# 3 -0.1855 10.5575 32.5298 0.0000 0.0000 0.0000
# 4 0.0000 0.0000 0.0000 25.2667 0.0000 0.0000
# 5 0.0000 0.0000 0.0000 0.0000 19.5974 0.0000
# 6 0.0000 0.0000 0.0000 0.0000 0.0000 19.5494
#
#
#
# Elastic Compliance Matrix: (Units=1/GPa)
#
#
# Indices 1 2 3 4 5 6 
#
# 1 0.045072 -0.009021 0.003185 0.000000 0.000000 0.000000
# 2 -0.009021 0.018069 -0.005916 0.000000 0.000000 0.000000
# 3 0.003185 -0.005916 0.032679 0.000000 0.000000 0.000000
# 4 0.000000 0.000000 0.000000 0.039578 0.000000 0.000000
# 5 0.000000 0.000000 0.000000 0.000000 0.051027 0.000000
# 6 0.000000 0.000000 0.000000 0.000000 0.000000 0.051153
#
#
# Mechanical properties :
#
#
# Convention : Reuss Voigt Hill
#
# Bulk Modulus (GPa) = 13.82815 18.59232 16.21024
# Shear Modulus (GPa) = 17.53232 19.51441 18.52336
#
# Velocity S-wave (km/s) = 2.95564 3.11824 3.03803
# Velocity P-wave (km/s) = 4.30556 4.71471 4.51477
#
# Compressibility (1/GPa) = 0.07231625
#
# Stress axis : x y z
#
# Youngs Moduli (GPa) = 22.18664 55.34267 30.60058
#
# Poissons Ratio (x) = 0.49926 -0.09746
# Poissons Ratio (y) = 0.20015 0.18103
# Poissons Ratio (z) = -0.07066 0.32740
#
# Static dielectric constant tensor:
#      x y z
#    x 1.678680 0.000000 0.000000 
#    y 0.000000 1.734820 0.000000 
#    z 0.000000 0.000000 1.704990 
# 
# From -- ./inp_files/20856.got.cif
#   From: 2010.05.17/outbox.cif.g08.bks.cpg/sg53_11_cif.got.tgz:20856.got - 2010.06.03 12:45:16.
