data_PCOD9418999
_publ_section_title
;
Structure prediction by ZEFSAII (Michael W. Deem and Ramdas Pophale) SiO2 
 PCOD9418999
Probable space group: P M N A
;
_chemical_formula_sum "Si O2"
_cell_formula_units_Z 34
_cell_length_a 24.635225
_cell_length_b 8.224570
_cell_length_c 7.880766
_cell_angle_alpha 90.000000
_cell_angle_beta 90.000000
_cell_angle_gamma 90.000000
_cell_volume 1596.754566
_symmetry_space_group_name_H-M "P M N A"
_symmetry_group_IT_number 53
_symmetry_cell_setting 'orthorhombic'
loop_
_space_group_symop_operation_xyz
x,y,z
1/2-x,-y,1/2+z
x,-y,-z
1/2-x,y,1/2-z
-x,-y,-z
1/2+x,y,1/2-z
-x,y,z
1/2+x,-y,1/2+z
loop_
_atom_site_type_symbol
_atom_site_label
_atom_site_fract_x
_atom_site_fract_y
_atom_site_fract_z
Si Si1 0.750000 0.318124 0.750000
Si Si2 0.000000 0.500000 0.000000
Si Si3 0.665857 0.500000 0.000000
Si Si4 0.150437 0.824196 0.082239
Si Si5 0.439048 0.027238 0.799561
Si Si6 0.594341 0.337651 0.290264
O O1 0.792544 0.414479 0.631519
O O2 0.789505 0.207561 0.858485
O O3 0.047458 0.454613 0.142248
O O4 0.626174 0.392593 0.121093
O O5 0.104811 0.844672 0.228864
O O6 0.135867 0.688312 0.945416
O O7 0.148516 0.000000 0.000000
O O8 0.500000 0.083395 0.753782
O O9 0.430385 0.844963 0.728161
O O10 0.434733 0.000000 0.000000
#
# Coordination Sequence:
#
# PCOD9418999 Si02
#       6
#     4   2   4   8   8   8
#     4  12  24  44  66  96 130 184 218 286 332 402
#     4  12  24  40  64  92 142 176 216 264 336 416
#     4  12  26  44  68  94 143 177 236 276 340 418
#     4  10  24  41  68  97 131 171 226 282 344 400
#     4  10  21  41  68  97 131 170 222 284 340 400
#     4  11  24  43  63 101 128 182 220 274 341 413
#
# _framework density 21.293189999999999
#
# number of rings (size 3 to 8) (size 9 to 14) (size 15 to 20)
#    0.000    1.176    1.176    4.235    1.647    6.588 
#    4.235    0.000    0.000    0.000    0.000    0.000 
#    0.000    0.000    0.000    0.000    0.000    0.000 
#
# Total GULP energy -189286.126510 kJ/mol
# GULP energy per Si atom -5567.239015 kJ/mol
# Density = 2.124473 g / cm^3
# Si number density = 21.293190 Si / 1000 Ang^3
#
#
#
# Elastic Constant Matrix: (Units=GPa)
#
#
# Indices 1 2 3 4 5 6 
#
# 1 113.1462 13.3567 42.1445 0.0000 0.0000 0.0000
# 2 13.3567 40.2924 16.7138 0.0000 0.0000 0.0000
# 3 42.1445 16.7138 85.4580 0.0000 0.0000 0.0000
# 4 0.0000 0.0000 0.0000 34.5106 0.0000 0.0000
# 5 0.0000 0.0000 0.0000 0.0000 -39.9579 0.0000
# 6 0.0000 0.0000 0.0000 0.0000 0.0000 -546.8813
#
#
#
# Elastic Compliance Matrix: (Units=1/GPa)
#
#
# Indices 1 2 3 4 5 6 
#
# 1 0.010910 -0.001507 -0.005086 0.000000 0.000000 0.000000
# 2 -0.001507 0.027218 -0.004580 0.000000 0.000000 0.000000
# 3 -0.005086 -0.004580 0.015106 0.000000 0.000000 0.000000
# 4 0.000000 0.000000 0.000000 0.028977 0.000000 0.000000
# 5 0.000000 0.000000 0.000000 0.000000 -0.025026 0.000000
# 6 0.000000 0.000000 0.000000 0.000000 0.000000 -0.001829
#
#
# Mechanical properties :
#
#
# Convention : Reuss Voigt Hill
#
# Bulk Modulus (GPa) = 32.37497 42.59184 37.48340
# Shear Modulus (GPa) = 56.81975 -99.35362 -21.26693
#
# Velocity S-wave (km/s) = 5.17131 -6.83821 -3.16376
# Velocity P-wave (km/s) = 7.13400 6.50401 2.07265
#
# Compressibility (1/GPa) = 0.03088806
#
# Stress axis : x y z
#
# Youngs Moduli (GPa) = 91.65575 36.74038 66.20080
#
# Poissons Ratio (x) = 0.05537 0.33669
# Poissons Ratio (y) = 0.13813 0.30320
# Poissons Ratio (z) = 0.46615 0.16827
#
# Static dielectric constant tensor:
#      x y z
#    x 1.726510 0.000000 0.000000 
#    y 0.000000 1.803140 0.000000 
#    z 0.000000 0.000000 1.919730 
# 
# From -- ./inp_files/10614.got.cif
#   From: 2010.05.17/outbox.cif.g08.bks.cpg/sg53_6_cif.got.tgz:10614.got - 2010.06.03 12:45:16.
