data_PCOD9418360
_publ_section_title
;
Structure prediction by ZEFSAII (Michael W. Deem and Ramdas Pophale) SiO2 
 PCOD9418360
Probable space group: P M N A
;
_chemical_formula_sum "Si O2"
_cell_formula_units_Z 48
_cell_length_a 8.639725
_cell_length_b 19.170992
_cell_length_c 15.721657
_cell_angle_alpha 90.000000
_cell_angle_beta 90.000000
_cell_angle_gamma 90.000000
_cell_volume 2604.011046
_symmetry_space_group_name_H-M "P M N A"
_symmetry_group_IT_number 53
_symmetry_cell_setting 'orthorhombic'
loop_
_space_group_symop_operation_xyz
x,y,z
1/2-x,-y,1/2+z
x,-y,-z
1/2-x,y,1/2-z
-x,-y,-z
1/2+x,y,1/2-z
-x,y,z
1/2+x,-y,1/2+z
loop_
_atom_site_type_symbol
_atom_site_label
_atom_site_fract_x
_atom_site_fract_y
_atom_site_fract_z
Si Si1 0.314481 0.169125 0.509712
Si Si2 0.314316 0.915875 0.658154
Si Si3 0.686622 0.411970 0.157627
Si Si4 0.187759 0.324650 0.506129
Si Si5 0.186653 0.427488 0.657473
Si Si6 0.684820 0.071076 0.842552
O O1 0.500000 0.166665 0.517024
O O2 0.271422 0.135176 0.418735
O O3 0.256037 0.247987 0.514642
O O4 0.242130 0.122826 0.584585
O O5 0.250000 0.893310 0.750000
O O6 0.500000 0.920620 0.662985
O O7 0.247983 0.993065 0.640596
O O8 0.750000 0.392034 0.250000
O O9 0.500000 0.411200 0.160412
O O10 0.734777 0.492295 0.140068
O O11 0.736235 0.361252 0.082023
O O12 0.235835 0.374784 0.583809
O O13 0.000000 0.320657 0.506758
O O14 0.250000 0.407768 0.750000
O O15 0.000000 0.426846 0.660093
O O16 0.750000 0.092024 0.750000
O O17 0.500000 0.069271 0.839374
#
# Coordination Sequence:
#
# PCOD9418360 Si02
#       6
#     8   8   8   8   8   8
#     4  11  24  39  55  80 115 150 184 225 273 325
#     4  10  21  38  60  84 111 144 183 228 274 322
#     4   9  18  34  56  80 106 138 179 225 272 324
#     4  10  21  36  54  77 108 146 183 220 269 328
#     4   9  18  34  56  80 105 137 178 224 272 322
#     4  11  22  38  62  87 111 142 182 227 273 324
#
# _framework density 18.433102000000002
#
# number of rings (size 3 to 8) (size 9 to 14) (size 15 to 20)
#    0.000    2.000    0.000    4.500    0.000    9.333 
#    0.000    5.000    0.000    5.000    0.000    0.000 
#    0.000    0.000    0.000    0.000    0.000    0.000 
#
# Total GULP energy -268131.963777 kJ/mol
# GULP energy per Si atom -5586.082579 kJ/mol
# Density = 1.839115 g / cm^3
# Si number density = 18.433102 Si / 1000 Ang^3
#
#
#
# Elastic Constant Matrix: (Units=GPa)
#
#
# Indices 1 2 3 4 5 6 
#
# 1 33.9090 -6.4640 0.1707 0.0000 0.0000 0.0000
# 2 -6.4640 -22.3667 -31.3945 0.0000 0.0000 0.0000
# 3 0.1707 -31.3945 8.1575 0.0000 0.0000 0.0000
# 4 0.0000 0.0000 0.0000 -16.0667 0.0000 0.0000
# 5 0.0000 0.0000 0.0000 0.0000 33.2017 0.0000
# 6 0.0000 0.0000 0.0000 0.0000 0.0000 35.2074
#
#
#
# Elastic Compliance Matrix: (Units=1/GPa)
#
#
# Indices 1 2 3 4 5 6 
#
# 1 0.029290 -0.001188 -0.005184 0.000000 0.000000 0.000000
# 2 -0.001188 -0.006936 -0.026667 0.000000 0.000000 0.000000
# 3 -0.005184 -0.026667 0.020066 0.000000 0.000000 0.000000
# 4 0.000000 0.000000 0.000000 -0.062241 0.000000 0.000000
# 5 0.000000 0.000000 0.000000 0.000000 0.030119 0.000000
# 6 0.000000 0.000000 0.000000 0.000000 0.000000 0.028403
#
#
# Mechanical properties :
#
#
# Convention : Reuss Voigt Hill
#
# Bulk Modulus (GPa) = -42.26946 -6.18617 -24.22782
# Shear Modulus (GPa) = 51.60224 14.29432 32.94828
#
# Velocity S-wave (km/s) = 5.29671 2.78775 4.23241
# Velocity P-wave (km/s) = 3.79812 2.64552 3.27296
#
# Compressibility (1/GPa) = -0.02365774
#
# Stress axis : x y z
#
# Youngs Moduli (GPa) = 34.14096 -144.18422 49.83523
#
# Poissons Ratio (x) = -0.17127 0.25837
# Poissons Ratio (y) = 0.04055 1.32896
# Poissons Ratio (z) = 0.17700 -3.84496
#
# Static dielectric constant tensor:
#      x y z
#    x 1.625110 0.000000 0.000000 
#    y 0.000000 1.603750 0.000000 
#    z 0.000000 0.000000 1.618860 
# 
# From -- ./inp_files/20188.got.cif
#   From: 2010.05.17/outbox.cif.g08.bks.cpg/sg53_11_cif.got.tgz:20188.got - 2010.06.03 12:45:16.
