data_PCOD9418329
_publ_section_title
;
Structure prediction by ZEFSAII (Michael W. Deem and Ramdas Pophale) SiO2 
 PCOD9418329
Probable space group: P M N A
;
_chemical_formula_sum "Si O2"
_cell_formula_units_Z 48
_cell_length_a 15.851174
_cell_length_b 8.774950
_cell_length_c 18.162866
_cell_angle_alpha 90.000000
_cell_angle_beta 90.000000
_cell_angle_gamma 90.000000
_cell_volume 2526.332230
_symmetry_space_group_name_H-M "P M N A"
_symmetry_group_IT_number 53
_symmetry_cell_setting 'orthorhombic'
loop_
_space_group_symop_operation_xyz
x,y,z
1/2-x,-y,1/2+z
x,-y,-z
1/2-x,y,1/2-z
-x,-y,-z
1/2+x,y,1/2-z
-x,y,z
1/2+x,-y,1/2+z
loop_
_atom_site_type_symbol
_atom_site_label
_atom_site_fract_x
_atom_site_fract_y
_atom_site_fract_z
Si Si1 0.000000 0.332735 0.625777
Si Si2 0.341961 0.829937 0.756937
Si Si3 0.857313 0.414362 0.379933
Si Si4 0.401084 0.231789 0.548957
Si Si5 0.000000 0.218838 0.458283
Si Si6 0.281780 0.500000 0.500000
Si Si7 0.597400 0.924524 0.610524
Si Si8 0.500000 0.001392 0.831000
O O1 0.083389 0.437977 0.634656
O O2 0.000000 0.262511 0.543531
O O3 0.000000 0.182904 0.675954
O O4 0.250000 0.905123 0.750000
O O5 0.335425 0.676244 0.805074
O O6 0.366202 0.813952 0.671809
O O7 0.416148 0.929993 0.793890
O O8 0.918479 0.302183 0.425168
O O9 0.779071 0.443333 0.433959
O O10 0.500000 0.268193 0.564940
O O11 0.341578 0.375520 0.538858
O O12 0.398959 0.152830 0.468686
O O13 0.368334 0.097555 0.603325
O O14 0.000000 0.055658 0.416864
O O15 0.500000 0.946776 0.629173
#
# Coordination Sequence:
#
# PCOD9418329 Si02
#       8
#     4   8   8   8   4   4   8   4
#     4  11  19  39  59  89 127 149 197 255 309 362
#     4  11  22  40  61  83 119 164 211 243 303 373
#     4  10  21  35  60  86 117 164 192 242 301 372
#     4   9  20  35  60  89 111 152 199 256 310 357
#     4   9  17  39  59  81 116 152 191 238 302 357
#     4  12  19  35  56  90 130 146 198 253 309 370
#     4   9  18  39  62  80 112 152 205 254 301 362
#     4  10  23  36  62  91 113 161 206 252 310 365
#
# _framework density 18.999877000000001
#
# number of rings (size 3 to 8) (size 9 to 14) (size 15 to 20)
#    0.000    2.000    2.500    3.500    0.000    1.333 
#    0.000    5.833    0.000    0.000    0.000    0.000 
#    0.000    0.000    0.000    0.000    0.000    0.000 
#
# Total GULP energy -267232.548831 kJ/mol
# GULP energy per Si atom -5567.344767 kJ/mol
# Density = 1.895663 g / cm^3
# Si number density = 18.999877 Si / 1000 Ang^3
#
#
#
# Elastic Constant Matrix: (Units=GPa)
#
#
# Indices 1 2 3 4 5 6 
#
# 1 102.8559 48.0202 30.2484 0.0000 0.0000 0.0000
# 2 48.0202 100.4585 26.5189 0.0000 0.0000 0.0000
# 3 30.2484 26.5189 85.6594 0.0000 0.0000 0.0000
# 4 0.0000 0.0000 0.0000 22.4320 0.0000 0.0000
# 5 0.0000 0.0000 0.0000 0.0000 -7.8795 0.0000
# 6 0.0000 0.0000 0.0000 0.0000 0.0000 -6.1351
#
#
#
# Elastic Compliance Matrix: (Units=1/GPa)
#
#
# Indices 1 2 3 4 5 6 
#
# 1 0.013162 -0.005515 -0.002940 0.000000 0.000000 0.000000
# 2 -0.005515 0.013151 -0.002124 0.000000 0.000000 0.000000
# 3 -0.002940 -0.002124 0.013370 0.000000 0.000000 0.000000
# 4 0.000000 0.000000 0.000000 0.044579 0.000000 0.000000
# 5 0.000000 0.000000 0.000000 0.000000 -0.126911 0.000000
# 6 0.000000 0.000000 0.000000 0.000000 0.000000 -0.162997
#
#
# Mechanical properties :
#
#
# Convention : Reuss Voigt Hill
#
# Bulk Modulus (GPa) = 53.98345 55.39433 54.68889
# Shear Modulus (GPa) = -28.04077 13.96257 -7.03910
#
# Velocity S-wave (km/s) = -3.84583 2.71380 -1.92688
# Velocity P-wave (km/s) = 2.95865 6.24804 4.88834
#
# Compressibility (1/GPa) = 0.01852419
#
# Stress axis : x y z
#
# Youngs Moduli (GPa) = 75.97616 76.03733 74.79447
#
# Poissons Ratio (x) = 0.41938 0.21992
# Poissons Ratio (y) = 0.41904 0.15885
# Poissons Ratio (z) = 0.22340 0.16149
#
# Static dielectric constant tensor:
#      x y z
#    x 1.511750 0.000000 0.000000 
#    y 0.000000 1.696690 0.000000 
#    z 0.000000 0.000000 1.708540 
# 
# From -- ./inp_files/28349.got.cif
#   From: 2010.05.17/outbox.cif.g08.bks.cpg/sg53_15_cif.got.tgz:28349.got - 2010.06.03 12:45:16.
