data_PCOD9418194
_publ_section_title
;
Structure prediction by ZEFSAII (Michael W. Deem and Ramdas Pophale) SiO2 
 PCOD9418194
Probable space group: P M N A
;
_chemical_formula_sum "Si O2"
_cell_formula_units_Z 48
_cell_length_a 8.691800
_cell_length_b 15.378892
_cell_length_c 19.368224
_cell_angle_alpha 90.000000
_cell_angle_beta 90.000000
_cell_angle_gamma 90.000000
_cell_volume 2588.955412
_symmetry_space_group_name_H-M "P M N A"
_symmetry_group_IT_number 53
_symmetry_cell_setting 'orthorhombic'
loop_
_space_group_symop_operation_xyz
x,y,z
1/2-x,-y,1/2+z
x,-y,-z
1/2-x,y,1/2-z
-x,-y,-z
1/2+x,y,1/2-z
-x,y,z
1/2+x,-y,1/2+z
loop_
_atom_site_type_symbol
_atom_site_label
_atom_site_fract_x
_atom_site_fract_y
_atom_site_fract_z
Si Si1 0.814800 0.964822 0.077001
Si Si2 0.814702 0.874613 0.826733
Si Si3 0.684127 0.527320 0.920820
Si Si4 0.814692 0.717812 0.927514
Si Si5 0.683790 0.374078 0.673096
Si Si6 0.816636 0.225771 0.576211
O O1 0.732682 0.873458 0.088657
O O2 0.000000 0.952178 0.080905
O O3 0.768556 0.038600 0.131675
O O4 0.781252 0.000000 0.000000
O O5 0.750000 0.872500 0.750000
O O6 0.768517 0.790633 0.871706
O O7 0.000000 0.874613 0.823842
O O8 0.500000 0.527116 0.912244
O O9 0.750278 0.623278 0.909097
O O10 0.758506 0.457224 0.870137
O O11 0.717905 0.500000 0.000000
O O12 0.000000 0.715430 0.931361
O O13 0.749716 0.745458 0.001958
O O14 0.750000 0.377356 0.750000
O O15 0.500000 0.372535 0.674637
O O16 0.746231 0.289351 0.633424
O O17 0.000000 0.234916 0.575582
#
# Coordination Sequence:
#
# PCOD9418194 Si02
#       6
#     8   8   8   8   8   8
#     4  10  20  40  65  90 123 166 213 260 311 377
#     4  10  23  41  63  91 126 164 206 258 315 373
#     4  11  23  40  65  98 131 164 209 263 314 377
#     4  11  22  40  65  93 124 170 217 258 312 377
#     4  12  26  45  68  94 129 170 211 263 321 381
#     4  12  24  39  63  97 129 164 211 265 317 378
#
# _framework density 18.540296999999999
#
# number of rings (size 3 to 8) (size 9 to 14) (size 15 to 20)
#    0.000    1.000    3.333    4.000    0.000    4.333 
#    0.000    3.333    0.000    0.000    0.000    0.000 
#    0.000    0.000    0.000    0.000    0.000    0.000 
#
# Total GULP energy -268519.327492 kJ/mol
# GULP energy per Si atom -5594.152656 kJ/mol
# Density = 1.849810 g / cm^3
# Si number density = 18.540297 Si / 1000 Ang^3
#
#
#
# Elastic Constant Matrix: (Units=GPa)
#
#
# Indices 1 2 3 4 5 6 
#
# 1 100.9774 77.0520 76.0241 0.0000 0.0000 0.0000
# 2 77.0520 196.5369 103.6556 0.0000 0.0000 0.0000
# 3 76.0241 103.6556 179.9945 0.0000 0.0000 0.0000
# 4 0.0000 0.0000 0.0000 30.5430 0.0000 0.0000
# 5 0.0000 0.0000 0.0000 0.0000 30.9502 0.0000
# 6 0.0000 0.0000 0.0000 0.0000 0.0000 31.4667
#
#
#
# Elastic Compliance Matrix: (Units=1/GPa)
#
#
# Indices 1 2 3 4 5 6 
#
# 1 0.016453 -0.004000 -0.004646 0.000000 0.000000 0.000000
# 2 -0.004000 0.008280 -0.003079 0.000000 0.000000 0.000000
# 3 -0.004646 -0.003079 0.009291 0.000000 0.000000 0.000000
# 4 0.000000 0.000000 0.000000 0.032741 0.000000 0.000000
# 5 0.000000 0.000000 0.000000 0.000000 0.032310 0.000000
# 6 0.000000 0.000000 0.000000 0.000000 0.000000 0.031780
#
#
# Mechanical properties :
#
#
# Convention : Reuss Voigt Hill
#
# Bulk Modulus (GPa) = 94.56365 110.10803 102.33584
# Shear Modulus (GPa) = 31.67976 33.31045 32.49511
#
# Velocity S-wave (km/s) = 4.13812 4.24329 4.19104
# Velocity P-wave (km/s) = 8.59926 9.13919 8.87333
#
# Compressibility (1/GPa) = 0.01057489
#
# Stress axis : x y z
#
# Youngs Moduli (GPa) = 60.77783 120.76957 107.63167
#
# Poissons Ratio (x) = 0.48312 0.50002
# Poissons Ratio (y) = 0.24313 0.33138
# Poissons Ratio (z) = 0.28235 0.37183
#
# Static dielectric constant tensor:
#      x y z
#    x 1.621640 0.000000 0.000000 
#    y 0.000000 1.618750 0.000000 
#    z 0.000000 0.000000 1.604990 
# 
# From -- ./inp_files/26280.got.cif
#   From: 2010.05.17/outbox.cif.g08.bks.cpg/sg53_14_cif.got.tgz:26280.got - 2010.06.03 12:45:16.
