data_PCOD9418624
_publ_section_title
;
Structure prediction by ZEFSAII (Michael W. Deem and Ramdas Pophale) SiO2 
 PCOD9418624
Probable space group: P M N A
;
_chemical_formula_sum "Si O2"
_cell_formula_units_Z 48
_cell_length_a 9.257924
_cell_length_b 9.903789
_cell_length_c 28.376203
_cell_angle_alpha 90.000000
_cell_angle_beta 90.000000
_cell_angle_gamma 90.000000
_cell_volume 2601.772223
_symmetry_space_group_name_H-M "P M N A"
_symmetry_group_IT_number 53
_symmetry_cell_setting 'orthorhombic'
loop_
_space_group_symop_operation_xyz
x,y,z
1/2-x,-y,1/2+z
x,-y,-z
1/2-x,y,1/2-z
-x,-y,-z
1/2+x,y,1/2-z
-x,y,z
1/2+x,-y,1/2+z
loop_
_atom_site_type_symbol
_atom_site_label
_atom_site_fract_x
_atom_site_fract_y
_atom_site_fract_z
Si Si1 0.829661 0.986881 0.148194
Si Si2 0.824608 0.094590 0.957140
Si Si3 0.166614 0.504110 0.638770
Si Si4 0.664783 0.757793 0.203736
Si Si5 0.171953 0.590519 0.046376
Si Si6 0.828946 0.728171 0.800283
O O1 0.783669 0.965852 0.093857
O O2 0.741249 0.886088 0.180905
O O3 0.000000 0.951862 0.150588
O O4 0.812987 0.136637 0.168514
O O5 0.782532 0.252598 0.960530
O O6 0.000000 0.092993 0.959173
O O7 0.772500 0.000000 0.000000
O O8 0.167080 0.362340 0.666287
O O9 0.241920 0.476892 0.589004
O O10 0.255936 0.608752 0.670195
O O11 0.000000 0.548230 0.633554
O O12 0.750000 0.714264 0.250000
O O13 0.500000 0.789794 0.216244
O O14 0.000000 0.591650 0.057470
O O15 0.192042 0.500000 0.000000
O O16 0.750000 0.742865 0.750000
O O17 0.000000 0.703682 0.792936
#
# Coordination Sequence:
#
# PCOD9418624 Si02
#       6
#     8   8   8   8   8   8
#     4  10  21  38  62  90 121 158 197 247 302 356
#     4   9  18  34  59  90 122 153 194 245 296 353
#     4  11  24  41  61  87 123 163 202 249 303 358
#     4  11  23  38  60  87 117 154 199 245 297 360
#     4  10  21  37  63  93 121 157 202 250 301 360
#     4  11  24  40  61  89 122 159 206 250 302 364
#
# _framework density 18.448964
#
# number of rings (size 3 to 8) (size 9 to 14) (size 15 to 20)
#    0.000    1.667    1.667    2.500    2.333    6.333 
#    0.000    0.000    0.000    1.000    0.000    0.000 
#    0.000    0.000    0.000    0.000    0.000    0.000 
#
# Total GULP energy -268103.320182 kJ/mol
# GULP energy per Si atom -5585.485837 kJ/mol
# Density = 1.840697 g / cm^3
# Si number density = 18.448964 Si / 1000 Ang^3
#
#
#
# Elastic Constant Matrix: (Units=GPa)
#
#
# Indices 1 2 3 4 5 6 
#
# 1 74.6070 42.8450 43.5430 0.0000 0.0000 0.0000
# 2 42.8450 78.8610 26.0528 0.0000 0.0000 0.0000
# 3 43.5430 26.0528 105.1398 0.0000 0.0000 0.0000
# 4 0.0000 0.0000 0.0000 35.8190 0.0000 0.0000
# 5 0.0000 0.0000 0.0000 0.0000 44.9683 0.0000
# 6 0.0000 0.0000 0.0000 0.0000 0.0000 26.3117
#
#
#
# Elastic Compliance Matrix: (Units=1/GPa)
#
#
# Indices 1 2 3 4 5 6 
#
# 1 0.023595 -0.010446 -0.007183 0.000000 0.000000 0.000000
# 2 -0.010446 0.018436 -0.000242 0.000000 0.000000 0.000000
# 3 -0.007183 -0.000242 0.012546 0.000000 0.000000 0.000000
# 4 0.000000 0.000000 0.000000 0.027918 0.000000 0.000000
# 5 0.000000 0.000000 0.000000 0.000000 0.022238 0.000000
# 6 0.000000 0.000000 0.000000 0.000000 0.000000 0.038006
#
#
# Mechanical properties :
#
#
# Convention : Reuss Voigt Hill
#
# Bulk Modulus (GPa) = 53.09529 53.72103 53.40816
# Shear Modulus (GPa) = 27.06227 31.16425 29.11326
#
# Velocity S-wave (km/s) = 3.83413 4.11446 3.97677
# Velocity P-wave (km/s) = 6.96008 7.19400 7.07801
#
# Compressibility (1/GPa) = 0.01883406
#
# Stress axis : x y z
#
# Youngs Moduli (GPa) = 42.38229 54.24241 79.70645
#
# Poissons Ratio (x) = 0.56661 0.57255
# Poissons Ratio (y) = 0.44272 0.01930
# Poissons Ratio (z) = 0.30444 0.01313
#
# Static dielectric constant tensor:
#      x y z
#    x 1.635160 0.000000 0.000000 
#    y 0.000000 1.598210 0.000000 
#    z 0.000000 0.000000 1.612800 
# 
# From -- ./inp_files/37724.got.cif
#   From: 2010.05.17/outbox.cif.g08.bks.cpg/sg53_19_cif.got.tgz:37724.got - 2010.06.03 12:45:16.
