data_PCOD9418813
_publ_section_title
;
Structure prediction by ZEFSAII (Michael W. Deem and Ramdas Pophale) SiO2 
 PCOD9418813
Probable space group: P M N A
;
_chemical_formula_sum "Si O2"
_cell_formula_units_Z 32
_cell_length_a 21.003946
_cell_length_b 8.057821
_cell_length_c 9.199177
_cell_angle_alpha 90.000000
_cell_angle_beta 90.000000
_cell_angle_gamma 90.000000
_cell_volume 1556.924252
_symmetry_space_group_name_H-M "P M N A"
_symmetry_group_IT_number 53
_symmetry_cell_setting 'orthorhombic'
loop_
_space_group_symop_operation_xyz
x,y,z
1/2-x,-y,1/2+z
x,-y,-z
1/2-x,y,1/2-z
-x,-y,-z
1/2+x,y,1/2-z
-x,y,z
1/2+x,-y,1/2+z
loop_
_atom_site_type_symbol
_atom_site_label
_atom_site_fract_x
_atom_site_fract_y
_atom_site_fract_z
Si Si1 0.110156 0.759459 0.407457
Si Si2 0.280692 0.000000 0.000000
Si Si3 0.112685 0.391334 0.283639
Si Si4 0.750000 0.228675 0.250000
Si Si5 0.500000 0.895616 0.283181
Si Si6 0.000000 0.265764 0.089955
O O1 0.173832 0.867948 0.418724
O O2 0.115664 0.584265 0.325475
O O3 0.090397 0.710227 0.572117
O O4 0.059988 0.866230 0.319492
O O5 0.242023 0.108543 0.112557
O O6 0.185215 0.332685 0.259504
O O7 0.063037 0.354254 0.154796
O O8 0.500000 0.763221 0.416570
O O9 0.500000 0.079217 0.346809
#
# Coordination Sequence:
#
# PCOD9418813 Si02
#       6
#     8   4   8   4   4   4
#     4  10  21  39  62  86 115 156 202 242 296 361
#     4  10  22  39  62  87 116 158 204 248 296 356
#     4  10  22  40  61  89 120 154 198 248 297 354
#     4  10  22  40  62  88 122 158 198 244 298 358
#     4  11  22  37  60  88 120 159 198 243 300 356
#     4  11  24  39  58  89 124 154 196 251 300 349
#
# _framework density 20.553343000000002
#
# number of rings (size 3 to 8) (size 9 to 14) (size 15 to 20)
#    0.000    1.750    0.000    4.500    0.000   10.500 
#    0.000    7.500    0.000    0.000    0.000    0.000 
#    0.000    0.000    0.000    0.000    0.000    0.000 
#
# Total GULP energy -178857.535356 kJ/mol
# GULP energy per Si atom -5589.297980 kJ/mol
# Density = 2.050656 g / cm^3
# Si number density = 20.553343 Si / 1000 Ang^3
#
#
#
# Elastic Constant Matrix: (Units=GPa)
#
#
# Indices 1 2 3 4 5 6 
#
# 1 61.5798 12.2129 34.5958 0.0000 0.0000 0.0000
# 2 12.2129 81.3882 11.9170 0.0000 0.0000 0.0000
# 3 34.5958 11.9170 60.3127 0.0000 0.0000 0.0000
# 4 0.0000 0.0000 0.0000 33.4001 0.0000 0.0000
# 5 0.0000 0.0000 0.0000 0.0000 43.2083 0.0000
# 6 0.0000 0.0000 0.0000 0.0000 0.0000 -57.3941
#
#
#
# Elastic Compliance Matrix: (Units=1/GPa)
#
#
# Indices 1 2 3 4 5 6 
#
# 1 0.024172 -0.001645 -0.013540 0.000000 0.000000 0.000000
# 2 -0.001645 0.012765 -0.001579 0.000000 0.000000 0.000000
# 3 -0.013540 -0.001579 0.024659 0.000000 0.000000 0.000000
# 4 0.000000 0.000000 0.000000 0.029940 0.000000 0.000000
# 5 0.000000 0.000000 0.000000 0.000000 0.023144 0.000000
# 6 0.000000 0.000000 0.000000 0.000000 0.000000 -0.017423
#
#
# Mechanical properties :
#
#
# Convention : Reuss Voigt Hill
#
# Bulk Modulus (GPa) = 35.62715 35.63687 35.63201
# Shear Modulus (GPa) = 35.67849 13.47986 24.57918
#
# Velocity S-wave (km/s) = 4.17093 2.56373 3.46189
# Velocity P-wave (km/s) = 6.36924 5.11273 5.77526
#
# Compressibility (1/GPa) = 0.02806848
#
# Stress axis : x y z
#
# Youngs Moduli (GPa) = 41.36956 78.34073 40.55299
#
# Poissons Ratio (x) = 0.12884 0.54911
# Poissons Ratio (y) = 0.06804 0.06402
# Poissons Ratio (z) = 0.56016 0.12368
#
# Static dielectric constant tensor:
#      x y z
#    x 1.074830 0.000000 0.000000 
#    y 0.000000 1.722820 0.000000 
#    z 0.000000 0.000000 1.760080 
# 
# From -- ./inp_files/10543.got.cif
#   From: 2010.05.17/outbox.cif.g08.bks.cpg/sg53_6_cif.got.tgz:10543.got - 2010.06.03 12:45:16.
