data_PCOD9418898
_publ_section_title
;
Structure prediction by ZEFSAII (Michael W. Deem and Ramdas Pophale) SiO2 
 PCOD9418898
Probable space group: P M N A
;
_chemical_formula_sum "Si O2"
_cell_formula_units_Z 56
_cell_length_a 30.847350
_cell_length_b 5.899841
_cell_length_c 13.885552
_cell_angle_alpha 90.000000
_cell_angle_beta 90.000000
_cell_angle_gamma 90.000000
_cell_volume 2527.093542
_symmetry_space_group_name_H-M "P M N A"
_symmetry_group_IT_number 53
_symmetry_cell_setting 'orthorhombic'
loop_
_space_group_symop_operation_xyz
x,y,z
1/2-x,-y,1/2+z
x,-y,-z
1/2-x,y,1/2-z
-x,-y,-z
1/2+x,y,1/2-z
-x,y,z
1/2+x,-y,1/2+z
loop_
_atom_site_type_symbol
_atom_site_label
_atom_site_fract_x
_atom_site_fract_y
_atom_site_fract_z
Si Si1 0.451599 0.244206 0.217967
Si Si2 0.151997 0.408342 0.099661
Si Si3 0.908940 0.964383 0.892904
Si Si4 0.724178 0.107641 0.148516
Si Si5 0.128170 0.002157 0.613862
Si Si6 0.099996 0.634508 0.257398
Si Si7 0.746473 0.397735 0.633341
O O1 0.500000 0.174116 0.193658
O O2 0.440525 0.193807 0.329945
O O3 0.414431 0.125079 0.154042
O O4 0.443257 0.511309 0.208973
O O5 0.139774 0.142204 0.096811
O O6 0.131588 0.466388 0.202545
O O7 0.197514 0.538282 0.103582
O O8 0.130701 0.500000 0.000000
O O9 0.907492 0.183098 0.826114
O O10 0.925247 0.000000 0.000000
O O11 0.750000 0.117820 0.250000
O O12 0.672694 0.086523 0.158986
O O13 0.730908 0.361065 0.103257
O O14 0.739254 0.860618 0.103106
O O15 0.131075 0.000000 0.500000
O O16 0.123175 0.255961 0.652476
O O17 0.750000 0.388133 0.750000
#
# Coordination Sequence:
#
# PCOD9418898 Si02
#       7
#     8   8   8   8   8   8   8
#     4  10  25  45  71 106 138 183 239 301 381 455
#     4  11  22  36  64 100 137 188 240 289 352 433
#     4  10  21  39  68 105 141 182 234 288 360 443
#     4  10  23  41  65  99 142 191 239 296 362 432
#     4  11  26  46  73 101 139 188 246 302 371 436
#     4  10  22  41  68  95 141 180 227 299 359 436
#     4  10  23  37  61  94 142 190 240 294 355 417
#
# _framework density 22.159844
#
# number of rings (size 3 to 8) (size 9 to 14) (size 15 to 20)
#    0.000    1.714    1.429    1.714   16.000    4.571 
#    0.000    1.429    0.000    0.000    0.000    0.000 
#    0.000    0.000    0.000    0.000    0.000    0.000 
#
# Total GULP energy -311821.752947 kJ/mol
# GULP energy per Si atom -5568.245588 kJ/mol
# Density = 2.210941 g / cm^3
# Si number density = 22.159844 Si / 1000 Ang^3
#
#
#
# Elastic Constant Matrix: (Units=GPa)
#
#
# Indices 1 2 3 4 5 6 
#
# 1 135.4685 38.5812 27.2926 0.0000 0.0000 0.0000
# 2 38.5812 120.4351 10.7887 0.0000 0.0000 0.0000
# 3 27.2926 10.7887 115.5073 0.0000 0.0000 0.0000
# 4 0.0000 0.0000 0.0000 14.8517 0.0000 0.0000
# 5 0.0000 0.0000 0.0000 0.0000 12.7401 0.0000
# 6 0.0000 0.0000 0.0000 0.0000 0.0000 31.6708
#
#
#
# Elastic Compliance Matrix: (Units=1/GPa)
#
#
# Indices 1 2 3 4 5 6 
#
# 1 0.008464 -0.002554 -0.001761 0.000000 0.000000 0.000000
# 2 -0.002554 0.009144 -0.000251 0.000000 0.000000 0.000000
# 3 -0.001761 -0.000251 0.009097 0.000000 0.000000 0.000000
# 4 0.000000 0.000000 0.000000 0.067332 0.000000 0.000000
# 5 0.000000 0.000000 0.000000 0.000000 0.078492 0.000000
# 6 0.000000 0.000000 0.000000 0.000000 0.000000 0.031575
#
#
# Mechanical properties :
#
#
# Convention : Reuss Voigt Hill
#
# Bulk Modulus (GPa) = 56.90425 58.30398 57.60412
# Shear Modulus (GPa) = 22.82132 31.50243 27.16188
#
# Velocity S-wave (km/s) = 3.21261 3.77450 3.50483
# Velocity P-wave (km/s) = 6.28458 6.73525 6.51381
#
# Compressibility (1/GPa) = 0.01757338
#
# Stress axis : x y z
#
# Youngs Moduli (GPa) = 118.14869 109.36456 109.92566
#
# Poissons Ratio (x) = 0.27927 0.19362
# Poissons Ratio (y) = 0.30171 0.02756
# Poissons Ratio (z) = 0.20810 0.02741
#
# Static dielectric constant tensor:
#      x y z
#    x 1.850030 0.000000 0.000000 
#    y 0.000000 2.024810 0.000000 
#    z 0.000000 0.000000 1.815410 
# 
# From -- ./inp_files/25125.got.cif
#   From: 2010.05.17/outbox.cif.g08.bks.cpg/sg53_13_cif.got.tgz:25125.got - 2010.06.03 12:45:16.
