data_PCOD9418309
_publ_section_title
;
Structure prediction by ZEFSAII (Michael W. Deem and Ramdas Pophale) SiO2 
 PCOD9418309
Probable space group: P M N A
;
_chemical_formula_sum "Si O2"
_cell_formula_units_Z 64
_cell_length_a 8.402460
_cell_length_b 20.898170
_cell_length_c 19.946504
_cell_angle_alpha 90.000000
_cell_angle_beta 90.000000
_cell_angle_gamma 90.000000
_cell_volume 3502.527064
_symmetry_space_group_name_H-M "P M N A"
_symmetry_group_IT_number 53
_symmetry_cell_setting 'orthorhombic'
loop_
_space_group_symop_operation_xyz
x,y,z
1/2-x,-y,1/2+z
x,-y,-z
1/2-x,y,1/2-z
-x,-y,-z
1/2+x,y,1/2-z
-x,y,z
1/2+x,-y,1/2+z
loop_
_atom_site_type_symbol
_atom_site_label
_atom_site_fract_x
_atom_site_fract_y
_atom_site_fract_z
Si Si1 0.805692 0.119795 0.396559
Si Si2 0.690018 0.403454 0.674275
Si Si3 0.807862 0.293411 0.924263
Si Si4 0.185423 0.016766 0.579724
Si Si5 0.309779 0.653841 0.569328
Si Si6 0.190873 0.755592 0.676621
Si Si7 0.192716 0.153321 0.548732
Si Si8 0.810293 0.486473 0.424121
O O1 0.745031 0.047254 0.387015
O O2 0.757575 0.172270 0.342603
O O3 0.759232 0.145722 0.470445
O O4 0.000000 0.116502 0.397294
O O5 0.750000 0.408136 0.750000
O O6 0.500000 0.401381 0.675685
O O7 0.747376 0.339158 0.635997
O O8 0.740385 0.463579 0.628721
O O9 0.749981 0.220479 0.922550
O O10 0.000000 0.292748 0.924471
O O11 0.755294 0.325214 0.994806
O O12 0.000000 0.020857 0.600007
O O13 0.186622 0.000000 0.500000
O O14 0.252240 0.088420 0.585368
O O15 0.500000 0.647268 0.567851
O O16 0.260209 0.708271 0.621195
O O17 0.235279 0.586485 0.590431
O O18 0.250000 0.738147 0.750000
O O19 0.000000 0.752747 0.673670
O O20 0.000000 0.152284 0.549889
O O21 0.751131 0.500000 0.500000
O O22 0.000000 0.493804 0.423616
#
# Coordination Sequence:
#
# PCOD9418309 Si02
#       8
#     8   8   8   8   8   8   8   8
#     4   8  14  26  46  72 103 137 177 228 276 322
#     4  11  24  43  63  87 117 151 187 226 277 331
#     4  10  21  35  55  82 116 149 178 222 282 332
#     4   7  11  21  41  72 103 130 169 222 272 317
#     4  11  22  38  59  83 112 148 186 229 279 332
#     4  11  22  36  53  77 109 147 190 235 283 336
#     4   9  15  26  50  80 105 135 181 228 270 322
#     4  11  23  39  63  92 118 147 185 228 272 327
#
# _framework density 18.272521999999999
#
# number of rings (size 3 to 8) (size 9 to 14) (size 15 to 20)
#    0.000    2.250    2.500    3.000    0.000    2.500 
#    0.000    2.500    0.000    5.625    0.000    3.500 
#    0.000    0.000    0.000    0.000    0.000    0.000 
#
# Total GULP energy -356899.363292 kJ/mol
# GULP energy per Si atom -5576.552551 kJ/mol
# Density = 1.823093 g / cm^3
# Si number density = 18.272522 Si / 1000 Ang^3
#
#
#
# Elastic Constant Matrix: (Units=GPa)
#
#
# Indices 1 2 3 4 5 6 
#
# 1 19.0249 14.1245 19.9979 0.0000 0.0000 0.0000
# 2 14.1245 159.5071 59.7876 0.0000 0.0000 0.0000
# 3 19.9979 59.7876 108.2752 0.0000 0.0000 0.0000
# 4 0.0000 0.0000 0.0000 21.8191 0.0000 0.0000
# 5 0.0000 0.0000 0.0000 0.0000 19.9875 0.0000
# 6 0.0000 0.0000 0.0000 0.0000 0.0000 494.2346
#
#
#
# Elastic Compliance Matrix: (Units=1/GPa)
#
#
# Indices 1 2 3 4 5 6 
#
# 1 0.065547 -0.001597 -0.011224 0.000000 0.000000 0.000000
# 2 -0.001597 0.007944 -0.004092 0.000000 0.000000 0.000000
# 3 -0.011224 -0.004092 0.013568 0.000000 0.000000 0.000000
# 4 0.000000 0.000000 0.000000 0.045831 0.000000 0.000000
# 5 0.000000 0.000000 0.000000 0.000000 0.050031 0.000000
# 6 0.000000 0.000000 0.000000 0.000000 0.000000 0.002023
#
#
# Mechanical properties :
#
#
# Convention : Reuss Voigt Hill
#
# Bulk Modulus (GPa) = 18.78528 52.73635 35.76082
# Shear Modulus (GPa) = 21.14019 120.06806 70.60412
#
# Velocity S-wave (km/s) = 3.40507 8.11494 6.22281
# Velocity P-wave (km/s) = 5.07565 10.80401 8.44064
#
# Compressibility (1/GPa) = 0.05323317
#
# Stress axis : x y z
#
# Youngs Moduli (GPa) = 15.25626 125.87393 73.70160
#
# Poissons Ratio (x) = 0.20103 0.82725
# Poissons Ratio (y) = 0.02436 0.30157
# Poissons Ratio (z) = 0.17124 0.51505
#
# Static dielectric constant tensor:
#      x y z
#    x 1.628780 0.000000 0.000000 
#    y 0.000000 1.651980 0.000000 
#    z 0.000000 0.000000 1.609300 
# 
# From -- ./inp_files/26969.got.cif
#   From: 2010.05.17/outbox.cif.g08.bks.cpg/sg53_14_cif.got.tgz:26969.got - 2010.06.03 12:45:16.
