data_PCOD9418533
_publ_section_title
;
Structure prediction by ZEFSAII (Michael W. Deem and Ramdas Pophale) SiO2 
 PCOD9418533
Probable space group: P M N A
;
_chemical_formula_sum "Si O2"
_cell_formula_units_Z 64
_cell_length_a 17.073623
_cell_length_b 14.394502
_cell_length_c 12.514543
_cell_angle_alpha 90.000000
_cell_angle_beta 90.000000
_cell_angle_gamma 90.000000
_cell_volume 3075.652935
_symmetry_space_group_name_H-M "P M N A"
_symmetry_group_IT_number 53
_symmetry_cell_setting 'orthorhombic'
loop_
_space_group_symop_operation_xyz
x,y,z
1/2-x,-y,1/2+z
x,-y,-z
1/2-x,y,1/2-z
-x,-y,-z
1/2+x,y,1/2-z
-x,y,z
1/2+x,-y,1/2+z
loop_
_atom_site_type_symbol
_atom_site_label
_atom_site_fract_x
_atom_site_fract_y
_atom_site_fract_z
Si Si1 0.335908 0.419971 0.076246
Si Si2 0.167017 0.362014 0.122692
Si Si3 0.412990 0.748503 0.448081
Si Si4 0.404318 0.195232 0.233032
Si Si5 0.407624 0.761622 0.007151
Si Si6 0.911084 0.066878 0.087986
Si Si7 0.841914 0.737565 0.267590
Si Si8 0.908116 0.529868 0.233829
O O1 0.260340 0.371421 0.127694
O O2 0.386777 0.345966 0.012684
O O3 0.390983 0.469451 0.161018
O O4 0.303689 0.500000 0.000000
O O5 0.131653 0.285653 0.206375
O O6 0.130221 0.463087 0.144873
O O7 0.144073 0.324405 0.005262
O O8 0.500000 0.707677 0.441540
O O9 0.416429 0.836027 0.525599
O O10 0.385448 0.782696 0.333055
O O11 0.500000 0.203033 0.240389
O O12 0.384205 0.192893 0.106982
O O13 0.379262 0.102347 0.297878
O O14 0.500000 0.775347 0.021401
O O15 0.365197 0.781727 0.118964
O O16 0.000000 0.030165 0.107043
O O17 0.871785 0.000000 0.000000
O O18 0.750000 0.742550 0.250000
O O19 0.868745 0.629692 0.254143
O O20 0.000000 0.540925 0.216619
#
# Coordination Sequence:
#
# PCOD9418533 Si02
#       8
#     8   8   8   8   8   8   8   8
#     4  12  24  36  52  78 111 150 209 252 298 354
#     4  11  22  36  54  81 115 151 190 253 308 355
#     4  10  21  37  58  84 115 149 187 231 292 366
#     4   9  18  34  58  87 117 150 194 242 298 361
#     4  11  22  37  57  78 110 155 203 255 301 350
#     4   8  15  32  61  95 122 142 175 229 288 352
#     4  12  25  40  53  77 109 155 210 251 304 354
#     4  12  24  37  55  75 106 153 205 259 306 351
#
# _framework density 20.808589999999999
#
# number of rings (size 3 to 8) (size 9 to 14) (size 15 to 20)
#    0.000    1.375    2.500    5.250    1.750    0.500 
#    0.000    1.250    0.000    0.750    9.750    4.375 
#    0.000    0.000    0.000    0.000    0.000    7.000 
#
# Total GULP energy -357100.047907 kJ/mol
# GULP energy per Si atom -5579.688249 kJ/mol
# Density = 2.076123 g / cm^3
# Si number density = 20.808590 Si / 1000 Ang^3
#
#
#
# Elastic Constant Matrix: (Units=GPa)
#
#
# Indices 1 2 3 4 5 6 
#
# 1 30.2603 21.0929 22.6439 0.0000 0.0000 0.0000
# 2 21.0929 27.9993 25.5034 0.0000 0.0000 0.0000
# 3 22.6439 25.5034 154.3879 0.0000 0.0000 0.0000
# 4 0.0000 0.0000 0.0000 33.7586 0.0000 0.0000
# 5 0.0000 0.0000 0.0000 0.0000 32.6239 0.0000
# 6 0.0000 0.0000 0.0000 0.0000 0.0000 8.4775
#
#
#
# Elastic Compliance Matrix: (Units=1/GPa)
#
#
# Indices 1 2 3 4 5 6 
#
# 1 0.070025 -0.051084 -0.001832 0.000000 0.000000 0.000000
# 2 -0.051084 0.079307 -0.005608 0.000000 0.000000 0.000000
# 3 -0.001832 -0.005608 0.007672 0.000000 0.000000 0.000000
# 4 0.000000 0.000000 0.000000 0.029622 0.000000 0.000000
# 5 0.000000 0.000000 0.000000 0.000000 0.030652 0.000000
# 6 0.000000 0.000000 0.000000 0.000000 0.000000 0.117959
#
#
# Mechanical properties :
#
#
# Convention : Reuss Voigt Hill
#
# Bulk Modulus (GPa) = 25.02745 39.01423 32.02084
# Shear Modulus (GPa) = 10.73871 24.53248 17.63559
#
# Velocity S-wave (km/s) = 2.27418 3.43732 2.91437
# Velocity P-wave (km/s) = 4.35310 5.87736 5.17169
#
# Compressibility (1/GPa) = 0.03995613
#
# Stress axis : x y z
#
# Youngs Moduli (GPa) = 14.28054 12.60923 130.33854
#
# Poissons Ratio (x) = 0.64413 0.23878
# Poissons Ratio (y) = 0.72951 0.73098
# Poissons Ratio (z) = 0.02616 0.07072
#
# Static dielectric constant tensor:
#      x y z
#    x 1.729040 0.000000 0.000000 
#    y 0.000000 1.730970 0.000000 
#    z 0.000000 0.000000 1.846790 
# 
# From -- ./inp_files/17087.got.cif
#   From: 2010.05.17/outbox.cif.g08.bks.cpg/sg53_9_cif.got.tgz:17087.got - 2010.06.03 12:45:16.
