data_PCOD9418993
_publ_section_title
;
Structure prediction by ZEFSAII (Michael W. Deem and Ramdas Pophale) SiO2 
 PCOD9418993
Probable space group: P M N A
;
_chemical_formula_sum "Si O2"
_cell_formula_units_Z 48
_cell_length_a 14.586932
_cell_length_b 17.634152
_cell_length_c 9.133683
_cell_angle_alpha 90.000000
_cell_angle_beta 90.000000
_cell_angle_gamma 90.000000
_cell_volume 2349.440619
_symmetry_space_group_name_H-M "P M N A"
_symmetry_group_IT_number 53
_symmetry_cell_setting 'orthorhombic'
loop_
_space_group_symop_operation_xyz
x,y,z
1/2-x,-y,1/2+z
x,-y,-z
1/2-x,y,1/2-z
-x,-y,-z
1/2+x,y,1/2-z
-x,y,z
1/2+x,-y,1/2+z
loop_
_atom_site_type_symbol
_atom_site_label
_atom_site_fract_x
_atom_site_fract_y
_atom_site_fract_z
Si Si1 0.389775 0.918767 0.927338
Si Si2 0.395348 0.920359 0.584124
Si Si3 0.897299 0.421202 0.585003
Si Si4 0.241498 0.665641 0.905903
Si Si5 0.255532 0.813284 0.424195
Si Si6 0.603624 0.528209 0.663442
O O1 0.500000 0.910368 0.942908
O O2 0.367228 0.924131 0.754538
O O3 0.337128 0.848876 0.004093
O O4 0.363900 0.000000 0.000000
O O5 0.500000 0.893228 0.584055
O O6 0.332964 0.866101 0.490568
O O7 0.392321 0.000000 0.500000
O O8 0.904626 0.500000 0.500000
O O9 0.829623 0.372291 0.484970
O O10 0.864183 0.455355 0.741049
O O11 0.000000 0.387899 0.601870
O O12 0.250000 0.708595 0.750000
O O13 0.171722 0.599105 0.854179
O O14 0.217081 0.729137 0.023547
O O15 0.250000 0.816817 0.250000
O O16 0.595242 0.500000 0.500000
O O17 0.500000 0.549467 0.715724
#
# Coordination Sequence:
#
# PCOD9418993 Si02
#       6
#     8   8   8   8   8   8
#     4  10  21  41  70  98 128 170 218 264 314 377
#     4  10  21  41  70  98 128 170 217 264 314 376
#     4  10  21  41  66  92 119 159 209 261 320 383
#     4  12  25  39  63  93 126 169 213 265 326 386
#     4  12  27  42  59  93 136 174 214 266 326 385
#     4  10  23  41  65  93 122 158 207 262 317 383
#
# _framework density 20.430395000000001
#
# number of rings (size 3 to 8) (size 9 to 14) (size 15 to 20)
#    0.000    1.333    1.667    3.500    2.333    3.333 
#    0.000    0.000    0.000    0.000    0.000    0.000 
#    0.000    0.000    0.000    0.000    0.000    0.000 
#
# Total GULP energy -267621.190226 kJ/mol
# GULP energy per Si atom -5575.441463 kJ/mol
# Density = 2.038389 g / cm^3
# Si number density = 20.430395 Si / 1000 Ang^3
#
#
#
# Elastic Constant Matrix: (Units=GPa)
#
#
# Indices 1 2 3 4 5 6 
#
# 1 101.6709 42.1768 47.0481 0.0000 0.0000 0.0000
# 2 42.1768 48.6692 33.6023 0.0000 0.0000 0.0000
# 3 47.0481 33.6023 194.5715 0.0000 0.0000 0.0000
# 4 0.0000 0.0000 0.0000 38.8819 0.0000 0.0000
# 5 0.0000 0.0000 0.0000 0.0000 41.5011 0.0000
# 6 0.0000 0.0000 0.0000 0.0000 0.0000 -47.9534
#
#
#
# Elastic Compliance Matrix: (Units=1/GPa)
#
#
# Indices 1 2 3 4 5 6 
#
# 1 0.015812 -0.012560 -0.001654 0.000000 0.000000 0.000000
# 2 -0.012560 0.033306 -0.002715 0.000000 0.000000 0.000000
# 3 -0.001654 -0.002715 0.006008 0.000000 0.000000 0.000000
# 4 0.000000 0.000000 0.000000 0.025719 0.000000 0.000000
# 5 0.000000 0.000000 0.000000 0.000000 0.024096 0.000000
# 6 0.000000 0.000000 0.000000 0.000000 0.000000 -0.020854
#
#
# Mechanical properties :
#
#
# Convention : Reuss Voigt Hill
#
# Bulk Modulus (GPa) = 47.02019 65.61844 56.31931
# Shear Modulus (GPa) = 39.98895 21.29154 30.64025
#
# Velocity S-wave (km/s) = 4.42897 3.23174 3.87685
# Velocity P-wave (km/s) = 7.01563 6.79068 6.90407
#
# Compressibility (1/GPa) = 0.02126746
#
# Stress axis : x y z
#
# Youngs Moduli (GPa) = 63.24487 30.02462 166.43590
#
# Poissons Ratio (x) = 0.37712 0.27531
# Poissons Ratio (y) = 0.79437 0.45184
# Poissons Ratio (z) = 0.10462 0.08151
#
# Static dielectric constant tensor:
#      x y z
#    x 1.832380 0.000000 0.000000 
#    y 0.000000 3.926820 0.000000 
#    z 0.000000 0.000000 1.952760 
# 
# From -- ./inp_files/8690.got.cif
#   From: 2010.05.17/outbox.cif.g08.bks.cpg/sg53_5_cif.got.tgz:8690.got - 2010.06.03 12:45:16.
