data_PCOD9418848
_publ_section_title
;
Structure prediction by ZEFSAII (Michael W. Deem and Ramdas Pophale) SiO2 
 PCOD9418848
Probable space group: P M N A
;
_chemical_formula_sum "Si O2"
_cell_formula_units_Z 44
_cell_length_a 15.737741
_cell_length_b 16.915478
_cell_length_c 8.761789
_cell_angle_alpha 90.000000
_cell_angle_beta 90.000000
_cell_angle_gamma 90.000000
_cell_volume 2332.488218
_symmetry_space_group_name_H-M "P M N A"
_symmetry_group_IT_number 53
_symmetry_cell_setting 'orthorhombic'
loop_
_space_group_symop_operation_xyz
x,y,z
1/2-x,-y,1/2+z
x,-y,-z
1/2-x,y,1/2-z
-x,-y,-z
1/2+x,y,1/2-z
-x,y,z
1/2+x,-y,1/2+z
loop_
_atom_site_type_symbol
_atom_site_label
_atom_site_fract_x
_atom_site_fract_y
_atom_site_fract_z
Si Si1 0.817719 0.930166 0.887997
Si Si2 0.750000 0.347327 0.250000
Si Si3 0.873597 0.266918 0.660467
Si Si4 0.500000 0.965661 0.758972
Si Si5 0.906519 0.410764 0.440195
Si Si6 0.000000 0.130971 0.571095
Si Si7 0.187700 0.243002 0.977496
O O1 0.750000 0.922516 0.750000
O O2 0.912240 0.951092 0.829592
O O3 0.824218 0.847728 0.977201
O O4 0.788055 0.000000 0.000000
O O5 0.822887 0.395314 0.338974
O O6 0.696477 0.293816 0.368912
O O7 0.903598 0.346775 0.577685
O O8 0.778710 0.254251 0.601110
O O9 0.876838 0.269588 0.844378
O O10 0.922211 0.189529 0.601826
O O11 0.500000 0.055676 0.818248
O O12 0.500000 0.905883 0.902739
O O13 0.902945 0.500000 0.500000
O O14 0.000000 0.399660 0.364235
#
# Coordination Sequence:
#
# PCOD9418848 Si02
#       7
#     8   4   8   4   8   4   8
#     4  12  26  41  62  89 127 167 215 273 323 376
#     4  10  22  42  64  96 130 166 206 268 320 378
#     4  10  21  39  64  89 123 169 208 259 315 388
#     4  11  27  40  60  92 125 163 224 267 326 376
#     4  10  22  42  68  98 129 167 213 259 323 393
#     4  11  22  40  63  86 122 165 215 263 327 381
#     4  10  22  39  61  90 125 164 220 250 322 384
#
# _framework density 18.863976000000001
#
# number of rings (size 3 to 8) (size 9 to 14) (size 15 to 20)
#    0.000    1.455    1.818    2.455   10.182    3.636 
#    1.636    0.000    0.000    2.727    0.000    0.000 
#    0.000    0.000    0.000    0.000    0.000    0.000 
#
# Total GULP energy -245488.150665 kJ/mol
# GULP energy per Si atom -5579.276151 kJ/mol
# Density = 1.882104 g / cm^3
# Si number density = 18.863976 Si / 1000 Ang^3
#
#
#
# Elastic Constant Matrix: (Units=GPa)
#
#
# Indices 1 2 3 4 5 6 
#
# 1 73.2342 39.1097 28.3991 0.0000 0.0000 0.0000
# 2 39.1097 135.8438 55.9008 0.0000 0.0000 0.0000
# 3 28.3991 55.9008 94.6026 0.0000 0.0000 0.0000
# 4 0.0000 0.0000 0.0000 13.6029 0.0000 0.0000
# 5 0.0000 0.0000 0.0000 0.0000 36.5639 0.0000
# 6 0.0000 0.0000 0.0000 0.0000 0.0000 28.9119
#
#
#
# Elastic Compliance Matrix: (Units=1/GPa)
#
#
# Indices 1 2 3 4 5 6 
#
# 1 0.016706 -0.003628 -0.002871 0.000000 0.000000 0.000000
# 2 -0.003628 0.010514 -0.005124 0.000000 0.000000 0.000000
# 3 -0.002871 -0.005124 0.014460 0.000000 0.000000 0.000000
# 4 0.000000 0.000000 0.000000 0.073514 0.000000 0.000000
# 5 0.000000 0.000000 0.000000 0.000000 0.027349 0.000000
# 6 0.000000 0.000000 0.000000 0.000000 0.000000 0.034588
#
#
# Mechanical properties :
#
#
# Convention : Reuss Voigt Hill
#
# Bulk Modulus (GPa) = 54.24716 61.16664 57.70690
# Shear Modulus (GPa) = 24.21050 27.83381 26.02216
#
# Velocity S-wave (km/s) = 3.58638 3.84539 3.71814
# Velocity P-wave (km/s) = 6.78004 7.22576 7.00644
#
# Compressibility (1/GPa) = 0.01843414
#
# Stress axis : x y z
#
# Youngs Moduli (GPa) = 59.85962 95.10719 69.15580
#
# Poissons Ratio (x) = 0.34506 0.19855
# Poissons Ratio (y) = 0.21718 0.35434
# Poissons Ratio (z) = 0.17186 0.48732
#
# Static dielectric constant tensor:
#      x y z
#    x 1.437960 0.000000 0.000000 
#    y 0.000000 1.604400 0.000000 
#    z 0.000000 0.000000 1.700440 
# 
# From -- ./inp_files/9870.got.cif
#   From: 2010.05.17/outbox.cif.g08.bks.cpg/sg53_5_cif.got.tgz:9870.got - 2010.06.03 12:45:16.
