data_PCOD9418243
_publ_section_title
;
Structure prediction by ZEFSAII (Michael W. Deem and Ramdas Pophale) SiO2 
 PCOD9418243
Probable space group: P M N A
;
_chemical_formula_sum "Si O2"
_cell_formula_units_Z 64
_cell_length_a 23.862287
_cell_length_b 9.400159
_cell_length_c 14.237029
_cell_angle_alpha 90.000000
_cell_angle_beta 90.000000
_cell_angle_gamma 90.000000
_cell_volume 3193.497894
_symmetry_space_group_name_H-M "P M N A"
_symmetry_group_IT_number 53
_symmetry_cell_setting 'orthorhombic'
loop_
_space_group_symop_operation_xyz
x,y,z
1/2-x,-y,1/2+z
x,-y,-z
1/2-x,y,1/2-z
-x,-y,-z
1/2+x,y,1/2-z
-x,y,z
1/2+x,-y,1/2+z
loop_
_atom_site_type_symbol
_atom_site_label
_atom_site_fract_x
_atom_site_fract_y
_atom_site_fract_z
Si Si1 0.316323 0.237311 0.239272
Si Si2 0.437003 0.751988 0.195128
Si Si3 0.661372 0.357234 0.555036
Si Si4 0.062316 0.832668 0.089789
Si Si5 0.662714 0.977620 0.608073
Si Si6 0.746155 0.800324 0.121539
Si Si7 0.165446 0.572881 0.277528
Si Si8 0.861673 0.007776 0.605833
O O1 0.250000 0.216672 0.250000
O O2 0.326251 0.403584 0.218155
O O3 0.335657 0.171646 0.339343
O O4 0.345548 0.136939 0.160607
O O5 0.500000 0.737108 0.156373
O O6 0.442357 0.762934 0.307522
O O7 0.393190 0.624609 0.176974
O O8 0.405617 0.895602 0.162810
O O9 0.658704 0.500000 0.500000
O O10 0.606612 0.264052 0.534026
O O11 0.720163 0.277663 0.538353
O O12 0.663521 0.388289 0.666864
O O13 0.098001 0.974482 0.107072
O O14 0.000000 0.847572 0.050836
O O15 0.703392 0.094579 0.661879
O O16 0.681323 0.000000 0.500000
O O17 0.713513 0.672212 0.175643
O O18 0.696620 0.906374 0.097067
O O19 0.883871 0.000000 0.500000
#
# Coordination Sequence:
#
# PCOD9418243 Si02
#       8
#     8   8   8   8   8   8   8   8
#     4  12  24  37  61  93 132 160 197 260 320 366
#     4   9  19  42  68  86 114 164 214 252 304 379
#     4  10  21  33  58  86 117 157 210 253 296 363
#     4   9  19  37  60  84 117 167 212 245 301 368
#     4  11  23  37  63  91 127 166 210 253 309 374
#     4  10  21  38  58  81 120 166 201 240 308 381
#     4  10  23  38  59  87 124 162 205 253 315 362
#     4  11  23  38  62  92 122 156 204 256 315 380
#
# _framework density 20.040721999999999
#
# number of rings (size 3 to 8) (size 9 to 14) (size 15 to 20)
#    0.000    1.750    2.500    1.500    7.000    1.750 
#    0.000    3.125    0.000    0.750    0.000    0.000 
#    0.000    0.000    0.000    0.000    0.000    0.000 
#
# Total GULP energy -356595.611096 kJ/mol
# GULP energy per Si atom -5571.806423 kJ/mol
# Density = 1.999511 g / cm^3
# Si number density = 20.040722 Si / 1000 Ang^3
#
#
#
# Elastic Constant Matrix: (Units=GPa)
#
#
# Indices 1 2 3 4 5 6 
#
# 1 158.3677 45.9682 15.9992 0.0000 0.0000 0.0000
# 2 45.9682 136.0717 34.5514 0.0000 0.0000 0.0000
# 3 15.9992 34.5514 63.3218 0.0000 0.0000 0.0000
# 4 0.0000 0.0000 0.0000 24.6313 0.0000 0.0000
# 5 0.0000 0.0000 0.0000 0.0000 12.1992 0.0000
# 6 0.0000 0.0000 0.0000 0.0000 0.0000 3.2389
#
#
#
# Elastic Compliance Matrix: (Units=1/GPa)
#
#
# Indices 1 2 3 4 5 6 
#
# 1 0.007018 -0.002229 -0.000557 0.000000 0.000000 0.000000
# 2 -0.002229 0.009239 -0.004478 0.000000 0.000000 0.000000
# 3 -0.000557 -0.004478 0.018376 0.000000 0.000000 0.000000
# 4 0.000000 0.000000 0.000000 0.040599 0.000000 0.000000
# 5 0.000000 0.000000 0.000000 0.000000 0.081973 0.000000
# 6 0.000000 0.000000 0.000000 0.000000 0.000000 0.308751
#
#
# Mechanical properties :
#
#
# Convention : Reuss Voigt Hill
#
# Bulk Modulus (GPa) = 49.73850 61.19986 55.46918
# Shear Modulus (GPa) = 10.26302 25.43003 17.84653
#
# Velocity S-wave (km/s) = 2.26544 3.56605 2.98738
# Velocity P-wave (km/s) = 5.63165 6.89635 6.29584
#
# Compressibility (1/GPa) = 0.02010515
#
# Stress axis : x y z
#
# Youngs Moduli (GPa) = 142.49541 108.23342 54.41748
#
# Poissons Ratio (x) = 0.24130 0.03029
# Poissons Ratio (y) = 0.31768 0.24369
# Poissons Ratio (z) = 0.07932 0.48468
#
# Static dielectric constant tensor:
#      x y z
#    x 1.741060 0.000000 0.000000 
#    y 0.000000 1.746060 0.000000 
#    z 0.000000 0.000000 1.805290 
# 
# From -- ./inp_files/24746.got.cif
#   From: 2010.05.17/outbox.cif.g08.bks.cpg/sg53_13_cif.got.tgz:24746.got - 2010.06.03 12:45:16.
