data_PCOD9418044
_publ_section_title
;
Structure prediction by ZEFSAII (Michael W. Deem and Ramdas Pophale) SiO2 
 PCOD9418044
Probable space group: P M N A
;
_chemical_formula_sum "Si O2"
_cell_formula_units_Z 56
_cell_length_a 17.094180
_cell_length_b 19.759693
_cell_length_c 8.759528
_cell_angle_alpha 90.000000
_cell_angle_beta 90.000000
_cell_angle_gamma 90.000000
_cell_volume 2958.756130
_symmetry_space_group_name_H-M "P M N A"
_symmetry_group_IT_number 53
_symmetry_cell_setting 'orthorhombic'
loop_
_space_group_symop_operation_xyz
x,y,z
1/2-x,-y,1/2+z
x,-y,-z
1/2-x,y,1/2-z
-x,-y,-z
1/2+x,y,1/2-z
-x,y,z
1/2+x,-y,1/2+z
loop_
_atom_site_type_symbol
_atom_site_label
_atom_site_fract_x
_atom_site_fract_y
_atom_site_fract_z
Si Si1 0.837301 0.793456 0.565657
Si Si2 0.766141 0.425523 0.070765
Si Si3 0.905619 0.928445 0.069153
Si Si4 0.405918 0.072599 0.926266
Si Si5 0.850407 0.209412 0.084822
Si Si6 0.173671 0.674874 0.353075
Si Si7 0.410100 0.653053 0.445313
O O1 0.862042 0.867552 0.512476
O O2 0.743362 0.785305 0.570675
O O3 0.869114 0.782040 0.736016
O O4 0.862781 0.738362 0.441073
O O5 0.750000 0.426133 0.250000
O O6 0.762366 0.500000 0.000000
O O7 0.705928 0.377712 0.977961
O O8 0.851075 0.393191 0.040825
O O9 0.884716 0.925415 0.247641
O O10 0.000000 0.927188 0.058887
O O11 0.874515 0.863792 0.978067
O O12 0.878429 0.000000 0.000000
O O13 0.500000 0.082430 0.939234
O O14 0.387644 0.000000 0.000000
O O15 0.891108 0.269191 0.990490
O O16 0.250000 0.694724 0.250000
O O17 0.113714 0.644345 0.231617
O O18 0.500000 0.637996 0.472676
#
# Coordination Sequence:
#
# PCOD9418044 Si02
#       7
#     8   8   8   8   8   8   8
#     4  11  22  36  59  84 115 157 203 251 300 368
#     4  11  22  42  70  96 126 171 211 248 304 367
#     4  10  21  37  56  76 106 150 195 244 307 371
#     4  10  22  38  56  81 113 150 198 257 315 368
#     4  11  22  37  57  85 119 155 201 251 304 365
#     4  10  20  38  62  89 122 161 203 250 297 366
#     4  11  23  39  63  95 130 165 205 259 313 362
#
# _framework density 18.926870999999998
#
# number of rings (size 3 to 8) (size 9 to 14) (size 15 to 20)
#    0.000    1.429    2.857    4.286    0.000    4.857 
#    0.000    2.143    0.000    1.714    0.000    0.000 
#    0.000    0.000    0.000    0.000    0.000    0.000 
#
# Total GULP energy -312947.278255 kJ/mol
# GULP energy per Si atom -5588.344255 kJ/mol
# Density = 1.888379 g / cm^3
# Si number density = 18.926871 Si / 1000 Ang^3
#
#
#
# Elastic Constant Matrix: (Units=GPa)
#
#
# Indices 1 2 3 4 5 6 
#
# 1 52.5247 26.8452 37.6455 0.0000 0.0000 0.0000
# 2 26.8452 107.1082 50.8382 0.0000 0.0000 0.0000
# 3 37.6455 50.8382 145.7633 0.0000 0.0000 0.0000
# 4 0.0000 0.0000 0.0000 39.2925 0.0000 0.0000
# 5 0.0000 0.0000 0.0000 0.0000 11.2234 0.0000
# 6 0.0000 0.0000 0.0000 0.0000 0.0000 14.6329
#
#
#
# Elastic Compliance Matrix: (Units=1/GPa)
#
#
# Indices 1 2 3 4 5 6 
#
# 1 0.024572 -0.003771 -0.005031 0.000000 0.000000 0.000000
# 2 -0.003771 0.011767 -0.003130 0.000000 0.000000 0.000000
# 3 -0.005031 -0.003130 0.009251 0.000000 0.000000 0.000000
# 4 0.000000 0.000000 0.000000 0.025450 0.000000 0.000000
# 5 0.000000 0.000000 0.000000 0.000000 0.089100 0.000000
# 6 0.000000 0.000000 0.000000 0.000000 0.000000 0.068339
#
#
# Mechanical properties :
#
#
# Convention : Reuss Voigt Hill
#
# Bulk Modulus (GPa) = 46.02635 59.56156 52.79396
# Shear Modulus (GPa) = 19.26151 25.70089 22.48120
#
# Velocity S-wave (km/s) = 3.19357 3.68897 3.45018
# Velocity P-wave (km/s) = 6.16192 7.04857 6.62011
#
# Compressibility (1/GPa) = 0.02172668
#
# Stress axis : x y z
#
# Youngs Moduli (GPa) = 40.69741 84.98224 108.09086
#
# Poissons Ratio (x) = 0.32044 0.54379
# Poissons Ratio (y) = 0.15346 0.33835
# Poissons Ratio (z) = 0.20474 0.26601
#
# Static dielectric constant tensor:
#      x y z
#    x 1.648760 0.000000 0.000000 
#    y 0.000000 1.639030 0.000000 
#    z 0.000000 0.000000 1.659130 
# 
# From -- ./inp_files/10191.got.cif
#   From: 2010.05.17/outbox.cif.g08.bks.cpg/sg53_6_cif.got.tgz:10191.got - 2010.06.03 12:45:16.
