data_PCOD9418013
_publ_section_title
;
Structure prediction by ZEFSAII (Michael W. Deem and Ramdas Pophale) SiO2 
 PCOD9418013
Probable space group: P M N A
;
_chemical_formula_sum "Si O2"
_cell_formula_units_Z 38
_cell_length_a 22.631642
_cell_length_b 14.748118
_cell_length_c 5.091836
_cell_angle_alpha 90.000000
_cell_angle_beta 90.000000
_cell_angle_gamma 90.000000
_cell_volume 1699.523114
_symmetry_space_group_name_H-M "P M N A"
_symmetry_group_IT_number 53
_symmetry_cell_setting 'orthorhombic'
loop_
_space_group_symop_operation_xyz
x,y,z
1/2-x,-y,1/2+z
x,-y,-z
1/2-x,y,1/2-z
-x,-y,-z
1/2+x,y,1/2-z
-x,y,z
1/2+x,-y,1/2+z
loop_
_atom_site_type_symbol
_atom_site_label
_atom_site_fract_x
_atom_site_fract_y
_atom_site_fract_z
Si Si1 0.813836 0.179222 0.831027
Si Si2 0.815411 0.602164 0.180221
Si Si3 0.500000 0.500000 0.500000
Si Si4 0.113904 0.182189 0.332520
Si Si5 0.391268 0.399636 0.186542
Si Si6 0.500000 0.936201 0.748486
O O1 0.750000 0.142285 0.750000
O O2 0.810952 0.288432 0.807205
O O3 0.863759 0.154105 0.620146
O O4 0.834156 0.160903 0.125608
O O5 0.750000 0.568266 0.250000
O O6 0.867123 0.581065 0.392004
O O7 0.836787 0.583258 0.885359
O O8 0.448000 0.448895 0.315382
O O9 0.099523 0.289984 0.315763
O O10 0.056910 0.127214 0.252788
O O11 0.500000 0.000000 0.500000
O O12 0.500000 0.000000 0.000000
#
# Coordination Sequence:
#
# PCOD9418013 Si02
#       6
#     8   8   2   8   8   4
#     4   9  17  32  61  92 116 145 189 242 294 358
#     4   9  18  36  60  88 114 148 199 247 298 352
#     4  12  26  42  56  86 128 162 208 240 298 358
#     4  10  20  38  60  87 117 153 197 238 296 351
#     4  10  22  37  61  87 119 158 192 247 297 356
#     4  12  25  40  60  83 116 159 202 246 283 340
#
# _framework density 22.359214000000001
#
# number of rings (size 3 to 8) (size 9 to 14) (size 15 to 20)
#    0.000    2.105    0.000    3.158    0.000    7.579 
#    0.000    8.421    0.000   12.632    0.000    0.000 
#    0.000    0.000    0.000    0.000    0.000    0.000 
#
# Total GULP energy -211887.506092 kJ/mol
# GULP energy per Si atom -5575.987002 kJ/mol
# Density = 2.230832 g / cm^3
# Si number density = 22.359214 Si / 1000 Ang^3
#
#
#
# Elastic Constant Matrix: (Units=GPa)
#
#
# Indices 1 2 3 4 5 6 
#
# 1 142.1366 28.2504 30.0922 0.0000 0.0000 0.0000
# 2 28.2504 53.6090 23.9097 0.0000 0.0000 0.0000
# 3 30.0922 23.9097 125.7740 0.0000 0.0000 0.0000
# 4 0.0000 0.0000 0.0000 32.0216 0.0000 0.0000
# 5 0.0000 0.0000 0.0000 0.0000 12.0799 0.0000
# 6 0.0000 0.0000 0.0000 0.0000 0.0000 98.4274
#
#
#
# Elastic Compliance Matrix: (Units=1/GPa)
#
#
# Indices 1 2 3 4 5 6 
#
# 1 0.008026 -0.003686 -0.001220 0.000000 0.000000 0.000000
# 2 -0.003686 0.022074 -0.003314 0.000000 0.000000 0.000000
# 3 -0.001220 -0.003314 0.008873 0.000000 0.000000 0.000000
# 4 0.000000 0.000000 0.000000 0.031229 0.000000 0.000000
# 5 0.000000 0.000000 0.000000 0.000000 0.082782 0.000000
# 6 0.000000 0.000000 0.000000 0.000000 0.000000 0.010160
#
#
# Mechanical properties :
#
#
# Convention : Reuss Voigt Hill
#
# Bulk Modulus (GPa) = 44.37859 54.00269 49.19064
# Shear Modulus (GPa) = 26.72442 44.45693 35.59067
#
# Velocity S-wave (km/s) = 3.46096 4.46388 3.99402
# Velocity P-wave (km/s) = 5.98850 7.12552 6.58161
#
# Compressibility (1/GPa) = 0.02253339
#
# Stress axis : x y z
#
# Youngs Moduli (GPa) = 124.59126 45.30207 112.70561
#
# Poissons Ratio (x) = 0.16697 0.13747
# Poissons Ratio (y) = 0.45919 0.37356
# Poissons Ratio (z) = 0.15196 0.15015
#
# Static dielectric constant tensor:
#      x y z
#    x 1.788500 0.000000 0.000000 
#    y 0.000000 1.931120 0.000000 
#    z 0.000000 0.000000 1.806430 
# 
# From -- ./inp_files/2143.got.cif
#   From: 2010.05.17/outbox.cif.g08.bks.cpg/sg53_2_cif.got.tgz:2143.got - 2010.06.03 12:45:16.
