data_PCOD9418192
_publ_section_title
;
Structure prediction by ZEFSAII (Michael W. Deem and Ramdas Pophale) SiO2 
 PCOD9418192
Probable space group: P M N A
;
_chemical_formula_sum "Si O2"
_cell_formula_units_Z 48
_cell_length_a 17.040575
_cell_length_b 8.669158
_cell_length_c 14.249449
_cell_angle_alpha 90.000000
_cell_angle_beta 90.000000
_cell_angle_gamma 90.000000
_cell_volume 2105.034581
_symmetry_space_group_name_H-M "P M N A"
_symmetry_group_IT_number 53
_symmetry_cell_setting 'orthorhombic'
loop_
_space_group_symop_operation_xyz
x,y,z
1/2-x,-y,1/2+z
x,-y,-z
1/2-x,y,1/2-z
-x,-y,-z
1/2+x,y,1/2-z
-x,y,z
1/2+x,-y,1/2+z
loop_
_atom_site_type_symbol
_atom_site_label
_atom_site_fract_x
_atom_site_fract_y
_atom_site_fract_z
Si Si1 0.413476 0.848792 0.934499
Si Si2 0.360746 0.561755 0.410212
Si Si3 0.583266 0.590182 0.206010
Si Si4 0.631374 0.935855 0.209916
Si Si5 0.795615 0.094829 0.903349
Si Si6 0.782663 0.355733 0.351713
O O1 0.500000 0.780877 0.957320
O O2 0.334504 0.746568 0.924487
O O3 0.415168 0.920958 0.830620
O O4 0.403878 0.000000 0.000000
O O5 0.405669 0.500000 0.500000
O O6 0.411962 0.571168 0.317547
O O7 0.318506 0.727395 0.420028
O O8 0.293145 0.433845 0.395548
O O9 0.500000 0.533350 0.168691
O O10 0.591991 0.771715 0.188370
O O11 0.657120 0.494284 0.170699
O O12 0.645323 0.956421 0.320276
O O13 0.712686 0.924205 0.150620
O O14 0.798978 0.000000 0.000000
O O15 0.750000 0.288734 0.250000
#
# Coordination Sequence:
#
# PCOD9418192 Si02
#       6
#     8   8   8   8   8   8
#     4  11  25  41  60  92 130 167 210 257 316 379
#     4  10  22  37  58  92 124 153 206 263 304 371
#     4  10  20  40  65  87 121 166 206 251 318 376
#     4  10  21  38  61  90 123 160 205 256 306 374
#     4  10  21  37  63  92 122 159 205 254 316 365
#     4  10  22  40  62  91 120 161 212 262 311 366
#
# _framework density 22.802475999999999
#
# number of rings (size 3 to 8) (size 9 to 14) (size 15 to 20)
#    0.000    1.833    1.667    1.500    7.000    1.667 
#    0.000    0.000    0.000   18.500    0.000    0.000 
#    0.000    2.667    0.000    0.000    0.000    0.000 
#
# Total GULP energy -267901.140696 kJ/mol
# GULP energy per Si atom -5581.273765 kJ/mol
# Density = 2.275058 g / cm^3
# Si number density = 22.802476 Si / 1000 Ang^3
#
#
#
# Elastic Constant Matrix: (Units=GPa)
#
#
# Indices 1 2 3 4 5 6 
#
# 1 102.1650 14.3019 3.7585 0.0000 0.0000 0.0000
# 2 14.3019 52.9500 22.5049 0.0000 0.0000 0.0000
# 3 3.7585 22.5049 96.1312 0.0000 0.0000 0.0000
# 4 0.0000 0.0000 0.0000 43.5811 0.0000 0.0000
# 5 0.0000 0.0000 0.0000 0.0000 12.1845 0.0000
# 6 0.0000 0.0000 0.0000 0.0000 0.0000 8.5810
#
#
#
# Elastic Compliance Matrix: (Units=1/GPa)
#
#
# Indices 1 2 3 4 5 6 
#
# 1 0.010179 -0.002865 0.000273 0.000000 0.000000 0.000000
# 2 -0.002865 0.021779 -0.004987 0.000000 0.000000 0.000000
# 3 0.000273 -0.004987 0.011559 0.000000 0.000000 0.000000
# 4 0.000000 0.000000 0.000000 0.022946 0.000000 0.000000
# 5 0.000000 0.000000 0.000000 0.000000 0.082071 0.000000
# 6 0.000000 0.000000 0.000000 0.000000 0.000000 0.116537
#
#
# Mechanical properties :
#
#
# Convention : Reuss Voigt Hill
#
# Bulk Modulus (GPa) = 35.26198 36.93075 36.09637
# Shear Modulus (GPa) = 17.26024 26.91471 22.08748
#
# Velocity S-wave (km/s) = 2.75425 3.43934 3.11568
# Velocity P-wave (km/s) = 5.06085 5.65713 5.36728
#
# Compressibility (1/GPa) = 0.02835916
#
# Stress axis : x y z
#
# Youngs Moduli (GPa) = 98.23990 45.91564 86.51141
#
# Poissons Ratio (x) = 0.13156 -0.02360
# Poissons Ratio (y) = 0.28149 0.43140
# Poissons Ratio (z) = -0.02680 0.22896
#
# Static dielectric constant tensor:
#      x y z
#    x 1.929280 0.000000 0.000000 
#    y 0.000000 1.859880 0.000000 
#    z 0.000000 0.000000 1.905940 
# 
# From -- ./inp_files/23679.got.cif
#   From: 2010.05.17/outbox.cif.g08.bks.cpg/sg53_12_cif.got.tgz:23679.got - 2010.06.03 12:45:16.
