data_PCOD9418720
_publ_section_title
;
Structure prediction by ZEFSAII (Michael W. Deem and Ramdas Pophale) SiO2 
 PCOD9418720
Probable space group: P M N A
;
_chemical_formula_sum "Si O2"
_cell_formula_units_Z 48
_cell_length_a 8.709299
_cell_length_b 11.960334
_cell_length_c 25.793732
_cell_angle_alpha 90.000000
_cell_angle_beta 90.000000
_cell_angle_gamma 90.000000
_cell_volume 2686.833110
_symmetry_space_group_name_H-M "P M N A"
_symmetry_group_IT_number 53
_symmetry_cell_setting 'orthorhombic'
loop_
_space_group_symop_operation_xyz
x,y,z
1/2-x,-y,1/2+z
x,-y,-z
1/2-x,y,1/2-z
-x,-y,-z
1/2+x,y,1/2-z
-x,y,z
1/2+x,-y,1/2+z
loop_
_atom_site_type_symbol
_atom_site_label
_atom_site_fract_x
_atom_site_fract_y
_atom_site_fract_z
Si Si1 0.815913 0.731527 0.095000
Si Si2 0.683585 0.124728 0.192915
Si Si3 0.317007 0.263332 0.400650
Si Si4 0.315896 0.880750 0.306569
Si Si5 0.182499 0.867144 0.501646
Si Si6 0.184009 0.503491 0.561362
O O1 0.779203 0.789435 0.149850
O O2 0.744146 0.609534 0.087571
O O3 0.000000 0.724676 0.090122
O O4 0.750184 0.809210 0.049340
O O5 0.750000 0.148660 0.250000
O O6 0.500000 0.123022 0.194465
O O7 0.743155 0.212843 0.151136
O O8 0.744806 0.000898 0.178476
O O9 0.500000 0.261519 0.396654
O O10 0.262430 0.186410 0.448447
O O11 0.258538 0.387608 0.413160
O O12 0.250000 0.851777 0.250000
O O13 0.500000 0.892854 0.303227
O O14 0.000000 0.844578 0.504480
O O15 0.206000 0.000000 0.500000
O O16 0.223772 0.500000 0.500000
O O17 0.000000 0.510294 0.565241
#
# Coordination Sequence:
#
# PCOD9418720 Si02
#       6
#     8   8   8   8   8   8
#     4  11  23  38  59  87 118 154 198 245 295 354
#     4  11  22  39  63  90 122 158 199 243 296 352
#     4  12  24  39  61  87 119 155 198 245 296 353
#     4  10  21  38  61  90 122 157 199 242 294 352
#     4  11  23  37  56  85 119 154 193 240 296 354
#     4  11  23  40  62  86 116 156 202 246 296 357
#
# _framework density 17.864899000000001
#
# number of rings (size 3 to 8) (size 9 to 14) (size 15 to 20)
#    0.000    1.000    1.667    7.000    0.000    7.333 
#    0.000    0.833    0.000    2.000    0.000    0.000 
#    0.000    0.000    0.000    0.000    0.000    0.000 
#
# Total GULP energy -268504.751766 kJ/mol
# GULP energy per Si atom -5593.848995 kJ/mol
# Density = 1.782424 g / cm^3
# Si number density = 17.864899 Si / 1000 Ang^3
#
#
#
# Elastic Constant Matrix: (Units=GPa)
#
#
# Indices 1 2 3 4 5 6 
#
# 1 123.7826 80.1653 72.4753 0.0000 0.0000 0.0000
# 2 80.1653 132.0274 97.5934 0.0000 0.0000 0.0000
# 3 72.4753 97.5934 122.7130 0.0000 0.0000 0.0000
# 4 0.0000 0.0000 0.0000 -16.4771 0.0000 0.0000
# 5 0.0000 0.0000 0.0000 0.0000 97.2799 0.0000
# 6 0.0000 0.0000 0.0000 0.0000 0.0000 47.1269
#
#
#
# Elastic Compliance Matrix: (Units=1/GPa)
#
#
# Indices 1 2 3 4 5 6 
#
# 1 0.013956 -0.005778 -0.003648 0.000000 0.000000 0.000000
# 2 -0.005778 0.020770 -0.013106 0.000000 0.000000 0.000000
# 3 -0.003648 -0.013106 0.020727 0.000000 0.000000 0.000000
# 4 0.000000 0.000000 0.000000 -0.060690 0.000000 0.000000
# 5 0.000000 0.000000 0.000000 0.000000 0.010280 0.000000
# 6 0.000000 0.000000 0.000000 0.000000 0.000000 0.021219
#
#
# Mechanical properties :
#
#
# Convention : Reuss Voigt Hill
#
# Bulk Modulus (GPa) = 96.24513 97.66565 96.95539
# Shear Modulus (GPa) = 66.85503 34.13853 50.49678
#
# Velocity S-wave (km/s) = 6.12403 4.37616 5.32234
# Velocity P-wave (km/s) = 10.19784 8.96226 9.59995
#
# Compressibility (1/GPa) = 0.01039014
#
# Stress axis : x y z
#
# Youngs Moduli (GPa) = 71.65261 48.14556 48.24676
#
# Poissons Ratio (x) = 0.27817 0.17599
# Poissons Ratio (y) = 0.41399 0.63233
# Poissons Ratio (z) = 0.26136 0.63101
#
# Static dielectric constant tensor:
#      x y z
#    x 1.597090 0.000000 0.000000 
#    y 0.000000 1.582680 0.000000 
#    z 0.000000 0.000000 1.587830 
# 
# From -- ./inp_files/33849.got.cif
#   From: 2010.05.17/outbox.cif.g08.bks.cpg/sg53_17_cif.got.tgz:33849.got - 2010.06.03 12:45:16.
