data_PCOD9418755
_publ_section_title
;
Structure prediction by ZEFSAII (Michael W. Deem and Ramdas Pophale) SiO2 
 PCOD9418755
Probable space group: P M N A
;
_chemical_formula_sum "Si O2"
_cell_formula_units_Z 32
_cell_length_a 18.538660
_cell_length_b 7.365135
_cell_length_c 10.143987
_cell_angle_alpha 90.000000
_cell_angle_beta 90.000000
_cell_angle_gamma 90.000000
_cell_volume 1385.057283
_symmetry_space_group_name_H-M "P M N A"
_symmetry_group_IT_number 53
_symmetry_cell_setting 'orthorhombic'
loop_
_space_group_symop_operation_xyz
x,y,z
1/2-x,-y,1/2+z
x,-y,-z
1/2-x,y,1/2-z
-x,-y,-z
1/2+x,y,1/2-z
-x,y,z
1/2+x,-y,1/2+z
loop_
_atom_site_type_symbol
_atom_site_label
_atom_site_fract_x
_atom_site_fract_y
_atom_site_fract_z
Si Si1 0.080446 0.710205 0.545096
Si Si2 0.806477 0.084288 0.131272
Si Si3 0.085644 0.807468 0.253402
Si Si4 0.831439 0.558487 0.779821
O O1 0.073665 0.500000 0.500000
O O2 0.100515 0.816756 0.411850
O O3 0.137633 0.687411 0.661394
O O4 0.000000 0.769804 0.590043
O O5 0.750000 0.073565 0.250000
O O6 0.826106 0.294496 0.104698
O O7 0.875096 0.965119 0.173960
O O8 0.774343 0.000000 0.000000
O O9 0.117546 0.613333 0.208739
O O10 0.000000 0.809891 0.237615
O O11 0.750000 0.495027 0.750000
#
# Coordination Sequence:
#
# PCOD9418755 Si02
#       4
#     8   8   8   8
#     4   8  16  34  62  95 128 166 217 265 312 387
#     4  11  27  45  66  98 135 175 224 273 329 396
#     4  10  22  42  69  98 134 175 218 273 330 394
#     4  10  21  38  63  97 133 174 217 273 329 382
#
# _framework density 23.103739999999998
#
# number of rings (size 3 to 8) (size 9 to 14) (size 15 to 20)
#    0.000    2.250    0.000    3.000    7.000    3.500 
#    9.000    3.750    0.000    0.000    0.000    0.000 
#    0.000    0.000    0.000    0.000    0.000    0.000 
#
# Total GULP energy -178854.414585 kJ/mol
# GULP energy per Si atom -5589.200456 kJ/mol
# Density = 2.305115 g / cm^3
# Si number density = 23.103740 Si / 1000 Ang^3
#
#
#
# Elastic Constant Matrix: (Units=GPa)
#
#
# Indices 1 2 3 4 5 6 
#
# 1 122.6669 36.8424 24.6928 0.0000 0.0000 0.0000
# 2 36.8424 117.0055 7.2553 0.0000 0.0000 0.0000
# 3 24.6928 7.2553 44.6322 0.0000 0.0000 0.0000
# 4 0.0000 0.0000 0.0000 27.6156 0.0000 0.0000
# 5 0.0000 0.0000 0.0000 0.0000 22.2346 0.0000
# 6 0.0000 0.0000 0.0000 0.0000 0.0000 38.5193
#
#
#
# Elastic Compliance Matrix: (Units=1/GPa)
#
#
# Indices 1 2 3 4 5 6 
#
# 1 0.010030 -0.002843 -0.005087 0.000000 0.000000 0.000000
# 2 -0.002843 0.009439 0.000038 0.000000 0.000000 0.000000
# 3 -0.005087 0.000038 0.025213 0.000000 0.000000 0.000000
# 4 0.000000 0.000000 0.000000 0.036211 0.000000 0.000000
# 5 0.000000 0.000000 0.000000 0.000000 0.044975 0.000000
# 6 0.000000 0.000000 0.000000 0.000000 0.000000 0.025961
#
#
# Mechanical properties :
#
#
# Convention : Reuss Voigt Hill
#
# Bulk Modulus (GPa) = 34.60209 46.87617 40.73913
# Shear Modulus (GPa) = 28.20932 32.04151 30.12541
#
# Velocity S-wave (km/s) = 3.49805 3.72809 3.61490
# Velocity P-wave (km/s) = 5.59683 6.23418 5.92408
#
# Compressibility (1/GPa) = 0.02889998
#
# Stress axis : x y z
#
# Youngs Moduli (GPa) = 99.70115 105.93946 39.66130
#
# Poissons Ratio (x) = 0.30116 0.20176
# Poissons Ratio (y) = 0.28343 -0.00152
# Poissons Ratio (z) = 0.50718 -0.00406
#
# Static dielectric constant tensor:
#      x y z
#    x 1.843060 0.000000 0.000000 
#    y 0.000000 1.907510 0.000000 
#    z 0.000000 0.000000 1.935240 
# 
# From -- ./inp_files/15420.got.cif
#   From: 2010.05.17/outbox.cif.g08.bks.cpg/sg53_8_cif.got.tgz:15420.got - 2010.06.03 12:45:16.
