data_PCOD9418114
_publ_section_title
;
Structure prediction by ZEFSAII (Michael W. Deem and Ramdas Pophale) SiO2 
 PCOD9418114
Probable space group: P M N A
;
_chemical_formula_sum "Si O2"
_cell_formula_units_Z 44
_cell_length_a 25.781022
_cell_length_b 14.385231
_cell_length_c 6.034001
_cell_angle_alpha 90.000000
_cell_angle_beta 90.000000
_cell_angle_gamma 90.000000
_cell_volume 2237.805555
_symmetry_space_group_name_H-M "P M N A"
_symmetry_group_IT_number 53
_symmetry_cell_setting 'orthorhombic'
loop_
_space_group_symop_operation_xyz
x,y,z
1/2-x,-y,1/2+z
x,-y,-z
1/2-x,y,1/2-z
-x,-y,-z
1/2+x,y,1/2-z
-x,y,z
1/2+x,-y,1/2+z
loop_
_atom_site_type_symbol
_atom_site_label
_atom_site_fract_x
_atom_site_fract_y
_atom_site_fract_z
Si Si1 0.856189 0.231738 0.298119
Si Si2 0.104037 0.395319 0.057792
Si Si3 0.201462 0.899008 0.397617
Si Si4 0.898815 0.900564 0.081030
Si Si5 0.000000 0.452386 0.253919
Si Si6 0.941095 0.733874 0.325881
O O1 0.852467 0.327916 0.161943
O O2 0.809375 0.182130 0.425094
O O3 0.900590 0.250752 0.479002
O O4 0.876741 0.154964 0.128102
O O5 0.055336 0.401972 0.227984
O O6 0.120759 0.500000 0.000000
O O7 0.081003 0.344798 0.839590
O O8 0.250000 0.871480 0.250000
O O9 0.149423 0.911993 0.250558
O O10 0.212855 0.000000 0.500000
O O11 0.939551 0.831435 0.192830
O O12 0.918320 0.000000 0.000000
O O13 0.000000 0.500000 0.500000
O O14 0.000000 0.500000 0.000000
O O15 0.000000 0.712412 0.390914
#
# Coordination Sequence:
#
# PCOD9418114 Si02
#       6
#     8   8   8   8   4   8
#     4  10  23  36  57  85 130 157 198 265 304 383
#     4  10  22  36  57  85 125 169 216 263 315 372
#     4  11  22  37  64  93 119 148 187 251 330 394
#     4  10  20  39  56  81 121 158 203 246 301 377
#     4  10  22  34  58  92 122 169 230 283 324 372
#     4  10  22  36  53  85 122 166 215 256 308 361
#
# _framework density 19.662120000000002
#
# number of rings (size 3 to 8) (size 9 to 14) (size 15 to 20)
#    0.000    1.818    2.727    0.545    6.364    1.091 
#    0.000    0.909    0.000    0.000    0.000    0.000 
#  196.364    0.000    0.000    0.000    0.000    0.000 
#
# Total GULP energy -245401.334744 kJ/mol
# GULP energy per Si atom -5577.303062 kJ/mol
# Density = 1.961737 g / cm^3
# Si number density = 19.662120 Si / 1000 Ang^3
#
#
#
# Elastic Constant Matrix: (Units=GPa)
#
#
# Indices 1 2 3 4 5 6 
#
# 1 37.3756 11.7072 -1.4709 0.0000 0.0000 0.0000
# 2 11.7072 157.6428 25.6129 0.0000 0.0000 0.0000
# 3 -1.4709 25.6129 60.4712 0.0000 0.0000 0.0000
# 4 0.0000 0.0000 0.0000 33.3974 0.0000 0.0000
# 5 0.0000 0.0000 0.0000 0.0000 25.3215 0.0000
# 6 0.0000 0.0000 0.0000 0.0000 0.0000 4.3234
#
#
#
# Elastic Compliance Matrix: (Units=1/GPa)
#
#
# Indices 1 2 3 4 5 6 
#
# 1 0.027545 -0.002314 0.001650 0.000000 0.000000 0.000000
# 2 -0.002314 0.007007 -0.003024 0.000000 0.000000 0.000000
# 3 0.001650 -0.003024 0.017858 0.000000 0.000000 0.000000
# 4 0.000000 0.000000 0.000000 0.029942 0.000000 0.000000
# 5 0.000000 0.000000 0.000000 0.000000 0.039492 0.000000
# 6 0.000000 0.000000 0.000000 0.000000 0.000000 0.231301
#
#
# Mechanical properties :
#
#
# Convention : Reuss Voigt Hill
#
# Bulk Modulus (GPa) = 22.20537 36.35420 29.27979
# Shear Modulus (GPa) = 13.31446 27.25114 20.28280
#
# Velocity S-wave (km/s) = 2.60506 3.72690 3.21529
# Velocity P-wave (km/s) = 4.51292 6.08682 5.35797
#
# Compressibility (1/GPa) = 0.04503414
#
# Stress axis : x y z
#
# Youngs Moduli (GPa) = 36.30410 142.72271 55.99809
#
# Poissons Ratio (x) = 0.33022 -0.09240
# Poissons Ratio (y) = 0.08400 0.16934
# Poissons Ratio (z) = -0.05990 0.43159
#
# Static dielectric constant tensor:
#      x y z
#    x 1.656660 0.000000 0.000000 
#    y 0.000000 1.747290 0.000000 
#    z 0.000000 0.000000 1.747880 
# 
# From -- ./inp_files/4416.got.cif
#   From: 2010.05.17/outbox.cif.g08.bks.cpg/sg53_3_cif.got.tgz:4416.got - 2010.06.03 12:45:16.
