data_PCOD9418024
_publ_section_title
;
Structure prediction by ZEFSAII (Michael W. Deem and Ramdas Pophale) SiO2 
 PCOD9418024
Probable space group: P M N A
;
_chemical_formula_sum "Si O2"
_cell_formula_units_Z 64
_cell_length_a 8.258337
_cell_length_b 12.270492
_cell_length_c 31.752604
_cell_angle_alpha 90.000000
_cell_angle_beta 90.000000
_cell_angle_gamma 90.000000
_cell_volume 3217.613868
_symmetry_space_group_name_H-M "P M N A"
_symmetry_group_IT_number 53
_symmetry_cell_setting 'orthorhombic'
loop_
_space_group_symop_operation_xyz
x,y,z
1/2-x,-y,1/2+z
x,-y,-z
1/2-x,y,1/2-z
-x,-y,-z
1/2+x,y,1/2-z
-x,y,z
1/2+x,-y,1/2+z
loop_
_atom_site_type_symbol
_atom_site_label
_atom_site_fract_x
_atom_site_fract_y
_atom_site_fract_z
Si Si1 0.690774 0.494475 0.179401
Si Si2 0.306494 0.869745 0.876346
Si Si3 0.309371 0.501674 0.415243
Si Si4 0.698142 0.117628 0.874410
Si Si5 0.195360 0.264674 0.704106
Si Si6 0.696318 0.721880 0.953518
Si Si7 0.811165 0.260944 0.204085
Si Si8 0.696035 0.730873 0.048541
O O1 0.500000 0.484122 0.188748
O O2 0.716067 0.494766 0.129124
O O3 0.751308 0.610833 0.196414
O O4 0.778091 0.389570 0.198209
O O5 0.500000 0.877051 0.881371
O O6 0.244953 0.802934 0.916843
O O7 0.272619 0.802509 0.834098
O O8 0.244386 0.993213 0.873527
O O9 0.500000 0.498073 0.406316
O O10 0.260490 0.398332 0.443229
O O11 0.264259 0.613947 0.437891
O O12 0.500000 0.116861 0.873555
O O13 0.751514 0.187281 0.833847
O O14 0.746655 0.180239 0.916931
O O15 0.250000 0.227130 0.750000
O O16 0.000000 0.266903 0.702619
O O17 0.500000 0.717881 0.951841
O O18 0.743170 0.756471 0.000612
O O19 0.750000 0.227089 0.250000
O O20 0.000000 0.239900 0.200963
O O21 0.500000 0.723877 0.050067
#
# Coordination Sequence:
#
# PCOD9418024 Si02
#       8
#     8   8   8   8   8   8   8   8
#     4  11  21  38  63  88 119 154 193 241 298 357
#     4  10  21  39  62  87 118 156 201 249 295 348
#     4  12  23  35  57  88 122 157 194 241 299 359
#     4   9  19  38  61  85 116 155 201 249 293 342
#     4  10  21  37  59  86 117 151 187 237 291 346
#     4  10  21  36  60  89 118 157 199 244 298 353
#     4  12  25  41  62  90 122 158 198 242 294 351
#     4  10  20  38  61  86 119 157 199 246 297 356
#
# _framework density 19.890516000000002
#
# number of rings (size 3 to 8) (size 9 to 14) (size 15 to 20)
#    0.000    1.500    2.500    3.375    0.000    5.000 
#    0.000    5.000    0.000    0.000    0.000    2.625 
#    0.000    0.000    0.000    0.000    0.000    0.000 
#
# Total GULP energy -357740.941757 kJ/mol
# GULP energy per Si atom -5589.702215 kJ/mol
# Density = 1.984524 g / cm^3
# Si number density = 19.890516 Si / 1000 Ang^3
#
#
#
# Elastic Constant Matrix: (Units=GPa)
#
#
# Indices 1 2 3 4 5 6 
#
# 1 4.9176 -0.7319 -10.6508 0.0000 0.0000 0.0000
# 2 -0.7319 136.1912 57.0760 0.0000 0.0000 0.0000
# 3 -10.6508 57.0760 138.6349 0.0000 0.0000 0.0000
# 4 0.0000 0.0000 0.0000 1.3176 0.0000 0.0000
# 5 0.0000 0.0000 0.0000 0.0000 16.1893 0.0000
# 6 0.0000 0.0000 0.0000 0.0000 0.0000 4.6589
#
#
#
# Elastic Compliance Matrix: (Units=1/GPa)
#
#
# Indices 1 2 3 4 5 6 
#
# 1 0.251201 -0.008143 0.022651 0.000000 0.000000 0.000000
# 2 -0.008143 0.009138 -0.004388 0.000000 0.000000 0.000000
# 3 0.022651 -0.004388 0.010760 0.000000 0.000000 0.000000
# 4 0.000000 0.000000 0.000000 0.758935 0.000000 0.000000
# 5 0.000000 0.000000 0.000000 0.000000 0.061769 0.000000
# 6 0.000000 0.000000 0.000000 0.000000 0.000000 0.214644
#
#
# Mechanical properties :
#
#
# Convention : Reuss Voigt Hill
#
# Bulk Modulus (GPa) = 3.43242 41.23670 22.33456
# Shear Modulus (GPa) = 3.61450 20.03651 11.82550
#
# Velocity S-wave (km/s) = 1.34950 3.17731 2.44094
# Velocity P-wave (km/s) = 2.03902 5.85126 4.38148
#
# Compressibility (1/GPa) = 0.29133972
#
# Stress axis : x y z
#
# Youngs Moduli (GPa) = 3.98088 109.43759 92.93877
#
# Poissons Ratio (x) = 0.89115 -2.10519
# Poissons Ratio (y) = 0.03242 0.40777
# Poissons Ratio (z) = -0.09017 0.48016
#
# Static dielectric constant tensor:
#      x y z
#    x 1.686220 0.000000 0.000000 
#    y 0.000000 1.676070 0.000000 
#    z 0.000000 0.000000 1.672130 
# 
# From -- ./inp_files/38108.got.cif
#   From: 2010.05.17/outbox.cif.g08.bks.cpg/sg53_20_cif.got.tgz:38108.got - 2010.06.03 12:45:16.
