data_PCOD9418789
_publ_section_title
;
Structure prediction by ZEFSAII (Michael W. Deem and Ramdas Pophale) SiO2 
 PCOD9418789
Probable space group: P M N A
;
_chemical_formula_sum "Si O2"
_cell_formula_units_Z 56
_cell_length_a 7.907346
_cell_length_b 15.580698
_cell_length_c 21.575963
_cell_angle_alpha 90.000000
_cell_angle_beta 90.000000
_cell_angle_gamma 90.000000
_cell_volume 2658.201146
_symmetry_space_group_name_H-M "P M N A"
_symmetry_group_IT_number 53
_symmetry_cell_setting 'orthorhombic'
loop_
_space_group_symop_operation_xyz
x,y,z
1/2-x,-y,1/2+z
x,-y,-z
1/2-x,y,1/2-z
-x,-y,-z
1/2+x,y,1/2-z
-x,y,z
1/2+x,-y,1/2+z
loop_
_atom_site_type_symbol
_atom_site_label
_atom_site_fract_x
_atom_site_fract_y
_atom_site_fract_z
Si Si1 0.200018 0.580918 0.457857
Si Si2 0.698713 0.211402 0.110410
Si Si3 0.203901 0.437381 0.681975
Si Si4 0.702498 0.367635 0.183904
Si Si5 0.298256 0.949181 0.681160
Si Si6 0.207114 0.945201 0.060554
Si Si7 0.192295 0.231063 0.981847
O O1 0.266762 0.500000 0.500000
O O2 0.263654 0.591894 0.386417
O O3 0.222025 0.675902 0.486073
O O4 0.000000 0.563077 0.452309
O O5 0.500000 0.215682 0.094930
O O6 0.763424 0.304191 0.131575
O O7 0.800557 0.187464 0.049581
O O8 0.722790 0.143804 0.165027
O O9 0.250000 0.399627 0.750000
O O10 0.267958 0.535964 0.682384
O O11 0.000000 0.435650 0.681180
O O12 0.750000 0.329680 0.250000
O O13 0.500000 0.371764 0.178666
O O14 0.250000 0.977664 0.750000
O O15 0.500000 0.942516 0.677925
O O16 0.241361 0.009504 0.624397
O O17 0.000000 0.942740 0.058427
O O18 0.266309 0.845917 0.059352
O O19 0.262646 0.000000 0.000000
O O20 0.000000 0.247646 0.963135
#
# Coordination Sequence:
#
# PCOD9418789 Si02
#       7
#     8   8   8   8   8   8   8
#     4  10  21  39  60  84 119 158 195 244 304 360
#     4  11  21  34  53  81 116 152 190 234 294 362
#     4   9  18  34  55  76 104 147 191 234 287 344
#     4   9  18  31  48  72 104 143 184 225 277 343
#     4  11  22  38  59  84 117 153 195 243 299 356
#     4   9  18  38  62  82 111 154 193 233 291 350
#     4  11  22  37  60  87 112 148 198 248 297 351
#
# _framework density 21.066877999999999
#
# number of rings (size 3 to 8) (size 9 to 14) (size 15 to 20)
#    0.000    2.000    1.429    2.571    0.000    5.429 
#    0.000    7.143    0.000    3.429    0.000    0.000 
#    0.000    0.000    0.000    0.000    0.000    0.000 
#
# Total GULP energy -312084.964027 kJ/mol
# GULP energy per Si atom -5572.945786 kJ/mol
# Density = 2.101893 g / cm^3
# Si number density = 21.066878 Si / 1000 Ang^3
#
#
#
# Elastic Constant Matrix: (Units=GPa)
#
#
# Indices 1 2 3 4 5 6 
#
# 1 27.7549 1.3594 6.2589 0.0000 0.0000 0.0000
# 2 1.3594 73.3670 39.3817 0.0000 0.0000 0.0000
# 3 6.2589 39.3817 143.7547 0.0000 0.0000 0.0000
# 4 0.0000 0.0000 0.0000 37.4960 0.0000 0.0000
# 5 0.0000 0.0000 0.0000 0.0000 24.7491 0.0000
# 6 0.0000 0.0000 0.0000 0.0000 0.0000 16.5348
#
#
#
# Elastic Compliance Matrix: (Units=1/GPa)
#
#
# Indices 1 2 3 4 5 6 
#
# 1 0.036390 0.000207 -0.001641 0.000000 0.000000 0.000000
# 2 0.000207 0.015981 -0.004387 0.000000 0.000000 0.000000
# 3 -0.001641 -0.004387 0.008230 0.000000 0.000000 0.000000
# 4 0.000000 0.000000 0.000000 0.026670 0.000000 0.000000
# 5 0.000000 0.000000 0.000000 0.000000 0.040406 0.000000
# 6 0.000000 0.000000 0.000000 0.000000 0.000000 0.060478
#
#
# Mechanical properties :
#
#
# Convention : Reuss Voigt Hill
#
# Bulk Modulus (GPa) = 20.42586 37.65295 29.03941
# Shear Modulus (GPa) = 23.13574 28.94774 26.04174
#
# Velocity S-wave (km/s) = 3.31751 3.71089 3.51970
# Velocity P-wave (km/s) = 4.93875 6.02269 5.50745
#
# Compressibility (1/GPa) = 0.04895754
#
# Stress axis : x y z
#
# Youngs Moduli (GPa) = 27.48034 62.57371 121.51298
#
# Poissons Ratio (x) = -0.01293 0.19940
# Poissons Ratio (y) = -0.00568 0.53308
# Poissons Ratio (z) = 0.04509 0.27451
#
# Static dielectric constant tensor:
#      x y z
#    x 1.765570 0.000000 0.000000 
#    y 0.000000 1.768190 0.000000 
#    z 0.000000 0.000000 1.827980 
# 
# From -- ./inp_files/30807.got.cif
#   From: 2010.05.17/outbox.cif.g08.bks.cpg/sg53_16_cif.got.tgz:30807.got - 2010.06.03 12:45:16.
