data_PCOD9418910
_publ_section_title
;
Structure prediction by ZEFSAII (Michael W. Deem and Ramdas Pophale) SiO2 
 PCOD9418910
Probable space group: P M N A
;
_chemical_formula_sum "Si O2"
_cell_formula_units_Z 56
_cell_length_a 8.680924
_cell_length_b 22.060121
_cell_length_c 15.293525
_cell_angle_alpha 90.000000
_cell_angle_beta 90.000000
_cell_angle_gamma 90.000000
_cell_volume 2928.744201
_symmetry_space_group_name_H-M "P M N A"
_symmetry_group_IT_number 53
_symmetry_cell_setting 'orthorhombic'
loop_
_space_group_symop_operation_xyz
x,y,z
1/2-x,-y,1/2+z
x,-y,-z
1/2-x,y,1/2-z
-x,-y,-z
1/2+x,y,1/2-z
-x,y,z
1/2+x,-y,1/2+z
loop_
_atom_site_type_symbol
_atom_site_label
_atom_site_fract_x
_atom_site_fract_y
_atom_site_fract_z
Si Si1 0.313504 0.498583 0.650813
Si Si2 0.682037 0.187787 0.661865
Si Si3 0.184143 0.267836 0.008999
Si Si4 0.316911 0.064368 0.906276
Si Si5 0.818092 0.187220 0.338379
Si Si6 0.683238 0.060979 0.397664
Si Si7 0.312926 0.592678 0.501382
O O1 0.250000 0.498398 0.750000
O O2 0.500000 0.498388 0.656790
O O3 0.267149 0.555894 0.589141
O O4 0.265838 0.442103 0.587861
O O5 0.750000 0.214900 0.750000
O O6 0.500000 0.176623 0.669458
O O7 0.708105 0.232802 0.581621
O O8 0.765873 0.123949 0.644728
O O9 0.272058 0.230024 0.082020
O O10 0.000000 0.266187 0.027844
O O11 0.234787 0.337534 0.004032
O O12 0.500000 0.063018 0.918224
O O13 0.260879 0.001102 0.865045
O O14 0.235272 0.067685 0.001093
O O15 0.750000 0.214499 0.250000
O O16 0.740926 0.121519 0.351578
O O17 0.000000 0.179592 0.333055
O O18 0.500000 0.055917 0.392589
O O19 0.500000 0.591215 0.500455
#
# Coordination Sequence:
#
# PCOD9418910 Si02
#       7
#     8   8   8   8   8   8   8
#     4   9  17  33  58  87 120 154 194 237 282 335
#     4  11  23  38  58  83 114 152 197 246 299 356
#     4  10  21  40  62  83 115 156 199 243 292 347
#     4  11  21  36  59  86 115 149 192 242 299 356
#     4  12  25  41  61  86 116 152 196 244 298 355
#     4  11  21  37  60  86 115 149 191 239 298 358
#     4   8  17  35  58  83 115 159 196 230 284 347
#
# _framework density 19.120823000000001
#
# number of rings (size 3 to 8) (size 9 to 14) (size 15 to 20)
#    0.000    1.714    1.429    6.000    0.000    2.286 
#    0.000    7.143    0.000    0.000    0.000    0.000 
#    0.000    0.000    0.000    0.000    0.000    0.000 
#
# Total GULP energy -312798.453548 kJ/mol
# GULP energy per Si atom -5585.686670 kJ/mol
# Density = 1.907730 g / cm^3
# Si number density = 19.120823 Si / 1000 Ang^3
#
#
#
# Elastic Constant Matrix: (Units=GPa)
#
#
# Indices 1 2 3 4 5 6 
#
# 1 67.2682 31.0498 30.4950 0.0000 0.0000 0.0000
# 2 31.0498 109.7946 28.2480 0.0000 0.0000 0.0000
# 3 30.4950 28.2480 103.8764 0.0000 0.0000 0.0000
# 4 0.0000 0.0000 0.0000 -53.4358 0.0000 0.0000
# 5 0.0000 0.0000 0.0000 0.0000 31.9691 0.0000
# 6 0.0000 0.0000 0.0000 0.0000 0.0000 13.5475
#
#
#
# Elastic Compliance Matrix: (Units=1/GPa)
#
#
# Indices 1 2 3 4 5 6 
#
# 1 0.018781 -0.004186 -0.004375 0.000000 0.000000 0.000000
# 2 -0.004186 0.010726 -0.001688 0.000000 0.000000 0.000000
# 3 -0.004375 -0.001688 0.011370 0.000000 0.000000 0.000000
# 4 0.000000 0.000000 0.000000 -0.018714 0.000000 0.000000
# 5 0.000000 0.000000 0.000000 0.000000 0.031280 0.000000
# 6 0.000000 0.000000 0.000000 0.000000 0.000000 0.073814
#
#
# Mechanical properties :
#
#
# Convention : Reuss Voigt Hill
#
# Bulk Modulus (GPa) = 49.06888 51.16941 50.11914
# Shear Modulus (GPa) = 32.35211 11.15925 21.75568
#
# Velocity S-wave (km/s) = 4.11783 2.41844 3.37679
# Velocity P-wave (km/s) = 6.95176 5.88368 6.43990
#
# Compressibility (1/GPa) = 0.02037952
#
# Stress axis : x y z
#
# Youngs Moduli (GPa) = 53.24411 93.23228 87.94796
#
# Poissons Ratio (x) = 0.39024 0.38481
# Poissons Ratio (y) = 0.22286 0.14846
# Poissons Ratio (z) = 0.23297 0.15738
#
# Static dielectric constant tensor:
#      x y z
#    x 1.645690 0.000000 0.000000 
#    y 0.000000 1.663160 0.000000 
#    z 0.000000 0.000000 1.685210 
# 
# From -- ./inp_files/20560.got.cif
#   From: 2010.05.17/outbox.cif.g08.bks.cpg/sg53_11_cif.got.tgz:20560.got - 2010.06.03 12:45:16.
