data_PCOD9418867
_publ_section_title
;
Structure prediction by ZEFSAII (Michael W. Deem and Ramdas Pophale) SiO2 
 PCOD9418867
Probable space group: P M N A
;
_chemical_formula_sum "Si O2"
_cell_formula_units_Z 32
_cell_length_a 14.955139
_cell_length_b 19.953118
_cell_length_c 4.976792
_cell_angle_alpha 90.000000
_cell_angle_beta 90.000000
_cell_angle_gamma 90.000000
_cell_volume 1485.082960
_symmetry_space_group_name_H-M "P M N A"
_symmetry_group_IT_number 53
_symmetry_cell_setting 'orthorhombic'
loop_
_space_group_symop_operation_xyz
x,y,z
1/2-x,-y,1/2+z
x,-y,-z
1/2-x,y,1/2-z
-x,-y,-z
1/2+x,y,1/2-z
-x,y,z
1/2+x,-y,1/2+z
loop_
_atom_site_type_symbol
_atom_site_label
_atom_site_fract_x
_atom_site_fract_y
_atom_site_fract_z
Si Si1 0.351715 0.352466 0.313948
Si Si2 0.854792 0.048487 0.747281
Si Si3 0.500000 0.244505 0.431677
Si Si4 0.500000 0.844025 0.084889
Si Si5 0.896783 0.438799 0.677762
O O1 0.250000 0.334618 0.250000
O O2 0.412650 0.290171 0.393749
O O3 0.354766 0.409920 0.548002
O O4 0.393537 0.380275 0.040104
O O5 0.750000 0.067347 0.750000
O O6 0.915704 0.112206 0.685352
O O7 0.870135 0.000000 0.500000
O O8 0.875171 0.000000 0.000000
O O9 0.500000 0.221813 0.737340
O O10 0.500000 0.181225 0.223870
O O11 0.856518 0.500000 0.500000
O O12 0.000000 0.456265 0.741034
#
# Coordination Sequence:
#
# PCOD9418867 Si02
#       5
#     8   8   4   4   8
#     4  12  25  44  67  94 133 176 217 273 332 395
#     4  10  21  39  64  95 129 162 207 269 331 383
#     4  12  26  43  61  92 132 176 227 266 311 386
#     4  12  24  39  66  90 127 174 219 266 313 390
#     4  11  22  42  71  98 128 164 213 278 342 398
#
# _framework density 21.547619999999998
#
# number of rings (size 3 to 8) (size 9 to 14) (size 15 to 20)
#    0.000    0.750    2.500    5.250    0.000    6.000 
#    0.000    0.000    0.000    0.000    0.000    0.000 
#    0.000    0.000    0.000    0.000    0.000    0.000 
#
# Total GULP energy -178823.876737 kJ/mol
# GULP energy per Si atom -5588.246148 kJ/mol
# Density = 2.149858 g / cm^3
# Si number density = 21.547620 Si / 1000 Ang^3
#
#
#
# Elastic Constant Matrix: (Units=GPa)
#
#
# Indices 1 2 3 4 5 6 
#
# 1 108.4229 44.5521 19.4746 0.0000 0.0000 0.0000
# 2 44.5521 62.8093 6.7092 0.0000 0.0000 0.0000
# 3 19.4746 6.7092 124.3253 0.0000 0.0000 0.0000
# 4 0.0000 0.0000 0.0000 73.8883 0.0000 0.0000
# 5 0.0000 0.0000 0.0000 0.0000 22.0070 0.0000
# 6 0.0000 0.0000 0.0000 0.0000 0.0000 -157.6763
#
#
#
# Elastic Compliance Matrix: (Units=1/GPa)
#
#
# Indices 1 2 3 4 5 6 
#
# 1 0.013321 -0.009280 -0.001586 0.000000 0.000000 0.000000
# 2 -0.009280 0.022478 0.000241 0.000000 0.000000 0.000000
# 3 -0.001586 0.000241 0.008279 0.000000 0.000000 0.000000
# 4 0.000000 0.000000 0.000000 0.013534 0.000000 0.000000
# 5 0.000000 0.000000 0.000000 0.000000 0.045440 0.000000
# 6 0.000000 0.000000 0.000000 0.000000 0.000000 -0.006342
#
#
# Mechanical properties :
#
#
# Convention : Reuss Voigt Hill
#
# Bulk Modulus (GPa) = 43.80603 48.55882 46.18243
# Shear Modulus (GPa) = 39.81890 2.63192 21.22541
#
# Velocity S-wave (km/s) = 4.30344 1.10639 3.14195
# Velocity P-wave (km/s) = 6.71318 4.92104 5.88572
#
# Compressibility (1/GPa) = 0.02282791
#
# Stress axis : x y z
#
# Youngs Moduli (GPa) = 75.06926 44.48860 120.78976
#
# Poissons Ratio (x) = 0.41283 0.19156
# Poissons Ratio (y) = 0.69661 -0.02906
# Poissons Ratio (z) = 0.11905 -0.01070
#
# Static dielectric constant tensor:
#      x y z
#    x 1.766040 0.000000 0.000000 
#    y 0.000000 1.769200 0.000000 
#    z 0.000000 0.000000 1.744350 
# 
# From -- ./inp_files/1284.got.cif
#   From: 2010.05.17/outbox.cif.g08.bks.cpg/sg53_1_cif.got.tgz:1284.got - 2010.06.03 12:45:16.
