data_PCOD9418513
_publ_section_title
;
Structure prediction by ZEFSAII (Michael W. Deem and Ramdas Pophale) SiO2 
 PCOD9418513
Probable space group: P M N A
;
_chemical_formula_sum "Si O2"
_cell_formula_units_Z 56
_cell_length_a 13.772862
_cell_length_b 9.994315
_cell_length_c 15.324961
_cell_angle_alpha 90.000000
_cell_angle_beta 90.000000
_cell_angle_gamma 90.000000
_cell_volume 2109.485805
_symmetry_space_group_name_H-M "P M N A"
_symmetry_group_IT_number 53
_symmetry_cell_setting 'orthorhombic'
loop_
_space_group_symop_operation_xyz
x,y,z
1/2-x,-y,1/2+z
x,-y,-z
1/2-x,y,1/2-z
-x,-y,-z
1/2+x,y,1/2-z
-x,y,z
1/2+x,-y,1/2+z
loop_
_atom_site_type_symbol
_atom_site_label
_atom_site_fract_x
_atom_site_fract_y
_atom_site_fract_z
Si Si1 0.676266 0.846347 0.999270
Si Si2 0.884369 0.035090 0.192378
Si Si3 0.612486 0.830099 0.471601
Si Si4 0.384965 0.402956 0.656642
Si Si5 0.382148 0.334956 0.274587
Si Si6 0.888474 0.413618 0.417156
Si Si7 0.382505 0.796847 0.189616
O O1 0.789720 0.846122 0.973196
O O2 0.666488 0.786769 0.096540
O O3 0.616457 0.742838 0.942423
O O4 0.641738 0.000000 0.000000
O O5 0.847136 0.185685 0.205084
O O6 0.000000 0.046680 0.201836
O O7 0.877211 0.940737 0.105801
O O8 0.853193 0.940369 0.271748
O O9 0.500000 0.839229 0.505747
O O10 0.625055 0.685256 0.428852
O O11 0.500000 0.410514 0.670249
O O12 0.352285 0.555369 0.653528
O O13 0.353501 0.314071 0.739626
O O14 0.500000 0.326126 0.272177
O O15 0.352650 0.404559 0.182870
O O16 0.847128 0.500000 0.500000
O O17 0.000000 0.462390 0.409790
O O18 0.500000 0.792470 0.179272
#
# Coordination Sequence:
#
# PCOD9418513 Si02
#       7
#     8   8   8   8   8   8   8
#     4  12  24  35  54  81 110 151 196 228 263 323
#     4   8  15  29  51  77 105 135 172 229 289 328
#     4   9  20  39  57  76 106 145 193 243 283 318
#     4   8  15  30  55  82 105 137 181 227 281 339
#     4   9  15  27  52  84 111 136 171 219 281 345
#     4  10  21  37  57  84 122 156 175 208 270 345
#     4   9  17  31  50  75 108 139 169 213 273 339
#
# _framework density 26.546754
#
# number of rings (size 3 to 8) (size 9 to 14) (size 15 to 20)
#    0.000    2.714    0.000    3.857    0.000    7.143 
#    0.000    1.429    0.000    3.857    0.000    0.000 
#    0.000    2.286    0.000    0.000    0.000    0.000 
#
# Total GULP energy -312994.542202 kJ/mol
# GULP energy per Si atom -5589.188254 kJ/mol
# Density = 2.648633 g / cm^3
# Si number density = 26.546754 Si / 1000 Ang^3
#
#
#
# Elastic Constant Matrix: (Units=GPa)
#
#
# Indices 1 2 3 4 5 6 
#
# 1 122.8468 -0.7993 -4.8586 0.0000 0.0000 0.0000
# 2 -0.7993 184.8056 11.1447 0.0000 0.0000 0.0000
# 3 -4.8586 11.1447 57.7658 0.0000 0.0000 0.0000
# 4 0.0000 0.0000 0.0000 36.0974 0.0000 0.0000
# 5 0.0000 0.0000 0.0000 0.0000 4.4280 0.0000
# 6 0.0000 0.0000 0.0000 0.0000 0.0000 3.8042
#
#
#
# Elastic Compliance Matrix: (Units=1/GPa)
#
#
# Indices 1 2 3 4 5 6 
#
# 1 0.008167 -0.000006 0.000688 0.000000 0.000000 0.000000
# 2 -0.000006 0.005475 -0.001057 0.000000 0.000000 0.000000
# 3 0.000688 -0.001057 0.017573 0.000000 0.000000 0.000000
# 4 0.000000 0.000000 0.000000 0.027703 0.000000 0.000000
# 5 0.000000 0.000000 0.000000 0.000000 0.225834 0.000000
# 6 0.000000 0.000000 0.000000 0.000000 0.000000 0.262868
#
#
# Mechanical properties :
#
#
# Convention : Reuss Voigt Hill
#
# Bulk Modulus (GPa) = 32.82386 41.82131 37.32259
# Shear Modulus (GPa) = 8.95215 32.86135 20.90675
#
# Velocity S-wave (km/s) = 1.83835 3.52215 2.80937
# Velocity P-wave (km/s) = 4.11065 5.68584 4.96116
#
# Compressibility (1/GPa) = 0.03046564
#
# Stress axis : x y z
#
# Youngs Moduli (GPa) = 122.43809 182.65533 56.90531
#
# Poissons Ratio (x) = 0.00113 -0.03916
# Poissons Ratio (y) = 0.00076 0.06014
# Poissons Ratio (z) = -0.08425 0.19302
#
# Static dielectric constant tensor:
#      x y z
#    x 2.062850 0.000000 0.000000 
#    y 0.000000 2.083830 0.000000 
#    z 0.000000 0.000000 2.053810 
# 
# From -- ./inp_files/32409.got.cif
#   From: 2010.05.17/outbox.cif.g08.bks.cpg/sg53_17_cif.got.tgz:32409.got - 2010.06.03 12:45:16.
