data_PCOD9418366
_publ_section_title
;
Structure prediction by ZEFSAII (Michael W. Deem and Ramdas Pophale) SiO2 
 PCOD9418366
Probable space group: P M N A
;
_chemical_formula_sum "Si O2"
_cell_formula_units_Z 48
_cell_length_a 8.478730
_cell_length_b 31.866950
_cell_length_c 9.170273
_cell_angle_alpha 90.000000
_cell_angle_beta 90.000000
_cell_angle_gamma 90.000000
_cell_volume 2477.727662
_symmetry_space_group_name_H-M "P M N A"
_symmetry_group_IT_number 53
_symmetry_cell_setting 'orthorhombic'
loop_
_space_group_symop_operation_xyz
x,y,z
1/2-x,-y,1/2+z
x,-y,-z
1/2-x,y,1/2-z
-x,-y,-z
1/2+x,y,1/2-z
-x,y,z
1/2+x,-y,1/2+z
loop_
_atom_site_type_symbol
_atom_site_label
_atom_site_fract_x
_atom_site_fract_y
_atom_site_fract_z
Si Si1 0.189316 0.623521 0.415048
Si Si2 0.809335 0.125433 0.415009
Si Si3 0.690670 0.958189 0.084998
Si Si4 0.690693 0.209077 0.915037
Si Si5 0.809410 0.292681 0.415052
Si Si6 0.689287 0.542044 0.584915
O O1 0.250000 0.623269 0.250000
O O2 0.242366 0.665755 0.498230
O O3 0.249292 0.582876 0.500969
O O4 0.000000 0.623001 0.413516
O O5 0.750000 0.125568 0.250000
O O6 0.756765 0.083580 0.499748
O O7 0.756844 0.167154 0.500581
O O8 0.000000 0.125431 0.412993
O O9 0.750000 0.958150 0.250000
O O10 0.500000 0.958185 0.086988
O O11 0.743220 0.000000 0.000000
O O12 0.750000 0.209325 0.750000
O O13 0.500000 0.209116 0.913015
O O14 0.743432 0.250702 0.001084
O O15 0.750000 0.293216 0.250000
O O16 0.000000 0.292557 0.412840
O O17 0.740827 0.500000 0.500000
O O18 0.750000 0.541516 0.750000
O O19 0.500000 0.542980 0.586304
#
# Coordination Sequence:
#
# PCOD9418366 Si02
#       6
#     8   8   8   8   8   8
#     4  11  23  39  60  86 116 150 189 232 280 333
#     4  10  21  36  55  80 109 142 182 226 272 326
#     4  10  21  36  54  79 109 141 181 226 272 326
#     4  10  21  37  56  81 111 143 183 227 273 327
#     4  10  22  38  57  83 113 146 185 229 276 329
#     4  11  24  41  62  88 118 152 190 233 280 331
#
# _framework density 19.372589000000001
#
# number of rings (size 3 to 8) (size 9 to 14) (size 15 to 20)
#    0.000    1.667    0.000    4.000    0.000    7.667 
#    0.000    0.000    0.000    0.000    0.000    0.000 
#    0.000    0.000    0.000    0.000    0.000    0.000 
#
# Total GULP energy -268395.689314 kJ/mol
# GULP energy per Si atom -5591.576861 kJ/mol
# Density = 1.932850 g / cm^3
# Si number density = 19.372589 Si / 1000 Ang^3
#
#
#
# Elastic Constant Matrix: (Units=GPa)
#
#
# Indices 1 2 3 4 5 6 
#
# 1 16.2628 38.0362 29.7927 0.0000 0.0000 0.0000
# 2 38.0362 247.7142 150.8834 0.0000 0.0000 0.0000
# 3 29.7927 150.8834 241.5025 0.0000 0.0000 0.0000
# 4 0.0000 0.0000 0.0000 47.6855 0.0000 0.0000
# 5 0.0000 0.0000 0.0000 0.0000 43.6495 0.0000
# 6 0.0000 0.0000 0.0000 0.0000 0.0000 -5.6922
#
#
#
# Elastic Compliance Matrix: (Units=1/GPa)
#
#
# Indices 1 2 3 4 5 6 
#
# 1 0.098727 -0.012496 -0.004372 0.000000 0.000000 0.000000
# 2 -0.012496 0.008099 -0.003518 0.000000 0.000000 0.000000
# 3 -0.004372 -0.003518 0.006878 0.000000 0.000000 0.000000
# 4 0.000000 0.000000 0.000000 0.020971 0.000000 0.000000
# 5 0.000000 0.000000 0.000000 0.000000 0.022910 0.000000
# 6 0.000000 0.000000 0.000000 0.000000 0.000000 -0.175678
#
#
# Mechanical properties :
#
#
# Convention : Reuss Voigt Hill
#
# Bulk Modulus (GPa) = 13.71169 104.76713 59.23941
# Shear Modulus (GPa) = 106.40593 36.24635 71.32614
#
# Velocity S-wave (km/s) = 7.41925 4.33021 6.07437
# Velocity P-wave (km/s) = 8.97145 8.89935 8.93547
#
# Compressibility (1/GPa) = 0.07293047
#
# Stress axis : x y z
#
# Youngs Moduli (GPa) = 10.12896 123.47724 145.38810
#
# Poissons Ratio (x) = 1.54302 0.63563
# Poissons Ratio (y) = 0.12658 0.51150
# Poissons Ratio (z) = 0.04428 0.43442
#
# Static dielectric constant tensor:
#      x y z
#    x 1.665420 0.000000 0.000000 
#    y 0.000000 1.671210 0.000000 
#    z 0.000000 0.000000 1.611810 
# 
# From -- ./inp_files/6583.got.cif
#   From: 2010.05.17/outbox.cif.g08.bks.cpg/sg53_4_cif.got.tgz:6583.got - 2010.06.03 12:45:16.
