data_PCOD9418009
_publ_section_title
;
Structure prediction by ZEFSAII (Michael W. Deem and Ramdas Pophale) SiO2 
 PCOD9418009
Probable space group: P M N A
;
_chemical_formula_sum "Si O2"
_cell_formula_units_Z 48
_cell_length_a 27.510371
_cell_length_b 7.316869
_cell_length_c 10.165659
_cell_angle_alpha 90.000000
_cell_angle_beta 90.000000
_cell_angle_gamma 90.000000
_cell_volume 2046.243271
_symmetry_space_group_name_H-M "P M N A"
_symmetry_group_IT_number 53
_symmetry_cell_setting 'orthorhombic'
loop_
_space_group_symop_operation_xyz
x,y,z
1/2-x,-y,1/2+z
x,-y,-z
1/2-x,y,1/2-z
-x,-y,-z
1/2+x,y,1/2-z
-x,y,z
1/2+x,-y,1/2+z
loop_
_atom_site_type_symbol
_atom_site_label
_atom_site_fract_x
_atom_site_fract_y
_atom_site_fract_z
Si Si1 0.636531 0.373277 0.775875
Si Si2 0.187380 0.804082 0.506960
Si Si3 0.554755 0.495683 0.641252
Si Si4 0.554285 0.932924 0.652987
Si Si5 0.153372 0.799118 0.781920
Si Si6 0.205588 0.713460 0.042835
O O1 0.653610 0.329459 0.922140
O O2 0.580656 0.348252 0.735684
O O3 0.636543 0.589053 0.740420
O O4 0.674423 0.281800 0.675539
O O5 0.192389 0.795869 0.664017
O O6 0.240488 0.792191 0.443989
O O7 0.162777 0.000000 0.500000
O O8 0.581692 0.500000 0.500000
O O9 0.500000 0.425669 0.622903
O O10 0.549815 0.711527 0.667066
O O11 0.500000 0.999164 0.696516
O O12 0.608104 0.941640 0.722483
O O13 0.559752 0.000000 0.500000
O O14 0.177816 0.810401 0.923593
O O15 0.211740 0.500000 0.000000
#
# Coordination Sequence:
#
# PCOD9418009 Si02
#       6
#     8   8   8   8   8   8
#     4  10  20  38  60  83 112 150 191 233 285 347
#     4  12  26  38  53  81 116 151 190 239 292 343
#     4   9  17  32  57  88 116 145 188 237 285 342
#     4   9  18  33  56  87 118 148 186 236 291 342
#     4  10  21  38  60  83 112 152 192 232 284 347
#     4  10  21  39  62  84 107 144 192 236 284 346
#
# _framework density 23.457621
#
# number of rings (size 3 to 8) (size 9 to 14) (size 15 to 20)
#    0.000    2.000    0.000    5.000    0.000    8.667 
#    0.000    0.833    0.000    5.000    0.000    0.000 
#    0.000    0.000    0.000    0.000    0.000    0.000 
#
# Total GULP energy -267215.210158 kJ/mol
# GULP energy per Si atom -5566.983545 kJ/mol
# Density = 2.340423 g / cm^3
# Si number density = 23.457621 Si / 1000 Ang^3
#
#
#
# Elastic Constant Matrix: (Units=GPa)
#
#
# Indices 1 2 3 4 5 6 
#
# 1 123.4646 40.5103 35.8662 0.0000 0.0000 0.0000
# 2 40.5103 64.4405 40.4657 0.0000 0.0000 0.0000
# 3 35.8662 40.4657 85.3055 0.0000 0.0000 0.0000
# 4 0.0000 0.0000 0.0000 19.4150 0.0000 0.0000
# 5 0.0000 0.0000 0.0000 0.0000 9.8184 0.0000
# 6 0.0000 0.0000 0.0000 0.0000 0.0000 21.9095
#
#
#
# Elastic Compliance Matrix: (Units=1/GPa)
#
#
# Indices 1 2 3 4 5 6 
#
# 1 0.010397 -0.005399 -0.001810 0.000000 0.000000 0.000000
# 2 -0.005399 0.024906 -0.009544 0.000000 0.000000 0.000000
# 3 -0.001810 -0.009544 0.017011 0.000000 0.000000 0.000000
# 4 0.000000 0.000000 0.000000 0.051507 0.000000 0.000000
# 5 0.000000 0.000000 0.000000 0.000000 0.101850 0.000000
# 6 0.000000 0.000000 0.000000 0.000000 0.000000 0.045642
#
#
# Mechanical properties :
#
#
# Convention : Reuss Voigt Hill
#
# Bulk Modulus (GPa) = 53.17331 56.32166 54.74749
# Shear Modulus (GPa) = 17.17692 20.65315 18.91503
#
# Velocity S-wave (km/s) = 2.70895 2.97045 2.84271
# Velocity P-wave (km/s) = 5.70102 5.98555 5.84502
#
# Compressibility (1/GPa) = 0.01880643
#
# Stress axis : x y z
#
# Youngs Moduli (GPa) = 96.18250 40.15127 58.78533
#
# Poissons Ratio (x) = 0.21679 0.10641
# Poissons Ratio (y) = 0.51932 0.56106
# Poissons Ratio (z) = 0.17410 0.38321
#
# Static dielectric constant tensor:
#      x y z
#    x 2.281400 0.000000 0.000000 
#    y 0.000000 2.080620 0.000000 
#    z 0.000000 0.000000 2.553010 
# 
# From -- ./inp_files/13024.got.cif
#   From: 2010.05.17/outbox.cif.g08.bks.cpg/sg53_7_cif.got.tgz:13024.got - 2010.06.03 12:45:16.
