data_PCOD9418563
_publ_section_title
;
Structure prediction by ZEFSAII (Michael W. Deem and Ramdas Pophale) SiO2 
 PCOD9418563
Probable space group: P M N A
;
_chemical_formula_sum "Si O2"
_cell_formula_units_Z 56
_cell_length_a 8.794408
_cell_length_b 21.770424
_cell_length_c 14.783138
_cell_angle_alpha 90.000000
_cell_angle_beta 90.000000
_cell_angle_gamma 90.000000
_cell_volume 2830.349902
_symmetry_space_group_name_H-M "P M N A"
_symmetry_group_IT_number 53
_symmetry_cell_setting 'orthorhombic'
loop_
_space_group_symop_operation_xyz
x,y,z
1/2-x,-y,1/2+z
x,-y,-z
1/2-x,y,1/2-z
-x,-y,-z
1/2+x,y,1/2-z
-x,y,z
1/2+x,-y,1/2+z
loop_
_atom_site_type_symbol
_atom_site_label
_atom_site_fract_x
_atom_site_fract_y
_atom_site_fract_z
Si Si1 0.681829 0.780605 0.529295
Si Si2 0.682257 0.025768 0.851470
Si Si3 0.819255 0.349069 0.476278
Si Si4 0.318678 0.596082 0.349129
Si Si5 0.818658 0.152753 0.849826
Si Si6 0.181433 0.546665 0.849606
Si Si7 0.317214 0.110196 0.148417
O O1 0.500000 0.778242 0.538493
O O2 0.753845 0.715920 0.556263
O O3 0.717993 0.796001 0.424278
O O4 0.747020 0.835863 0.589193
O O5 0.750000 0.023395 0.750000
O O6 0.500000 0.032608 0.849246
O O7 0.754684 0.088082 0.888392
O O8 0.717141 0.958351 0.890492
O O9 0.758836 0.361240 0.577171
O O10 0.755832 0.404858 0.416464
O O11 0.000000 0.348501 0.473855
O O12 0.250000 0.605822 0.250000
O O13 0.500000 0.605298 0.348200
O O14 0.289306 0.524541 0.374763
O O15 0.750000 0.163423 0.750000
O O16 0.000000 0.147863 0.840855
O O17 0.250000 0.555617 0.750000
O O18 0.000000 0.555246 0.848306
O O19 0.250000 0.113437 0.250000
O O20 0.500000 0.115669 0.152512
#
# Coordination Sequence:
#
# PCOD9418563 Si02
#       7
#     8   8   8   8   8   8   8
#     4  11  25  42  58  81 114 154 199 241 285 343
#     4   9  17  31  55  84 113 144 182 231 287 345
#     4  12  25  40  60  86 119 158 198 241 288 343
#     4  10  21  39  64  93 123 155 192 237 288 340
#     4  10  21  37  59  84 112 147 188 237 289 342
#     4  10  21  39  64  93 123 154 192 238 287 341
#     4  10  21  38  60  86 115 149 189 236 290 345
#
# _framework density 19.785539
#
# number of rings (size 3 to 8) (size 9 to 14) (size 15 to 20)
#    0.000    1.714    0.000    5.143    0.000    9.143 
#    0.000    7.143    0.000    0.000    0.000    0.000 
#    0.000    0.000    0.000    0.000    0.000    0.000 
#
# Total GULP energy -312967.425031 kJ/mol
# GULP energy per Si atom -5588.704018 kJ/mol
# Density = 1.974051 g / cm^3
# Si number density = 19.785539 Si / 1000 Ang^3
#
#
#
# Elastic Constant Matrix: (Units=GPa)
#
#
# Indices 1 2 3 4 5 6 
#
# 1 78.1191 27.7080 15.8848 0.0000 0.0000 0.0000
# 2 27.7080 48.8452 12.1461 0.0000 0.0000 0.0000
# 3 15.8848 12.1461 41.4848 0.0000 0.0000 0.0000
# 4 0.0000 0.0000 0.0000 21.9985 0.0000 0.0000
# 5 0.0000 0.0000 0.0000 0.0000 29.9857 0.0000
# 6 0.0000 0.0000 0.0000 0.0000 0.0000 45.6350
#
#
#
# Elastic Compliance Matrix: (Units=1/GPa)
#
#
# Indices 1 2 3 4 5 6 
#
# 1 0.016584 -0.008443 -0.003878 0.000000 0.000000 0.000000
# 2 -0.008443 0.026379 -0.004490 0.000000 0.000000 0.000000
# 3 -0.003878 -0.004490 0.026905 0.000000 0.000000 0.000000
# 4 0.000000 0.000000 0.000000 0.045458 0.000000 0.000000
# 5 0.000000 0.000000 0.000000 0.000000 0.033349 0.000000
# 6 0.000000 0.000000 0.000000 0.000000 0.000000 0.021913
#
#
# Mechanical properties :
#
#
# Convention : Reuss Voigt Hill
#
# Bulk Modulus (GPa) = 27.59034 31.10298 29.34666
# Shear Modulus (GPa) = 23.11677 27.03785 25.07731
#
# Velocity S-wave (km/s) = 3.42185 3.70069 3.56400
# Velocity P-wave (km/s) = 5.43940 5.83218 5.63921
#
# Compressibility (1/GPa) = 0.03624456
#
# Stress axis : x y z
#
# Youngs Moduli (GPa) = 60.29803 37.90903 37.16790
#
# Poissons Ratio (x) = 0.32008 0.14414
# Poissons Ratio (y) = 0.50911 0.16690
# Poissons Ratio (z) = 0.23385 0.17023
#
# Static dielectric constant tensor:
#      x y z
#    x 1.652730 0.000000 0.000000 
#    y 0.000000 1.699690 0.000000 
#    z 0.000000 0.000000 1.686300 
# 
# From -- ./inp_files/20490.got.cif
#   From: 2010.05.17/outbox.cif.g08.bks.cpg/sg53_11_cif.got.tgz:20490.got - 2010.06.03 12:45:16.
