data_PCOD9418401
_publ_section_title
;
Structure prediction by ZEFSAII (Michael W. Deem and Ramdas Pophale) SiO2 
 PCOD9418401
Probable space group: P M N A
;
_chemical_formula_sum "Si O2"
_cell_formula_units_Z 28
_cell_length_a 33.152030
_cell_length_b 7.142088
_cell_length_c 5.112588
_cell_angle_alpha 90.000000
_cell_angle_beta 90.000000
_cell_angle_gamma 90.000000
_cell_volume 1210.531570
_symmetry_space_group_name_H-M "P M N A"
_symmetry_group_IT_number 53
_symmetry_cell_setting 'orthorhombic'
loop_
_space_group_symop_operation_xyz
x,y,z
1/2-x,-y,1/2+z
x,-y,-z
1/2-x,y,1/2-z
-x,-y,-z
1/2+x,y,1/2-z
-x,y,z
1/2+x,-y,1/2+z
loop_
_atom_site_type_symbol
_atom_site_label
_atom_site_fract_x
_atom_site_fract_y
_atom_site_fract_z
Si Si1 0.374995 0.227774 0.038820
Si Si2 0.332572 0.221618 0.537292
Si Si3 0.250000 0.624342 0.250000
Si Si4 0.955417 0.133565 0.247824
O O1 0.364911 0.295026 0.748858
O O2 0.341549 0.293230 0.246644
O O3 0.418262 0.265168 0.171777
O O4 0.373124 0.000000 0.000000
O O5 0.288599 0.260389 0.651701
O O6 0.337305 0.000000 0.500000
O O7 0.238672 0.500000 0.500000
O O8 0.000000 0.217640 0.198859
O O9 0.959111 0.000000 0.500000
O O10 0.945326 0.000000 0.000000
#
# Coordination Sequence:
#
# PCOD9418401 Si02
#       4
#     8   8   4   8
#     4   9  16  29  48  73 102 136 177 216 256 313
#     4  10  21  36  56  77 103 140 182 221 265 322
#     4  12  26  42  58  82 114 142 180 234 288 334
#     4   9  15  23  38  65 104 142 169 204 262 318
#
# _framework density 23.130333
#
# number of rings (size 3 to 8) (size 9 to 14) (size 15 to 20)
#    0.000    2.286    0.000    6.000    0.000    4.571 
#    0.000    0.000    0.000    0.000    0.000    0.000 
#    0.000   22.857    0.000    0.000    0.000    0.000 
#
# Total GULP energy -156213.445967 kJ/mol
# GULP energy per Si atom -5579.051642 kJ/mol
# Density = 2.307769 g / cm^3
# Si number density = 23.130333 Si / 1000 Ang^3
#
#
#
# Elastic Constant Matrix: (Units=GPa)
#
#
# Indices 1 2 3 4 5 6 
#
# 1 165.9333 4.6753 65.1346 0.0000 0.0000 0.0000
# 2 4.6753 51.9460 27.2261 0.0000 0.0000 0.0000
# 3 65.1346 27.2261 168.3293 0.0000 0.0000 0.0000
# 4 0.0000 0.0000 0.0000 4.0602 0.0000 0.0000
# 5 0.0000 0.0000 0.0000 0.0000 40.7816 0.0000
# 6 0.0000 0.0000 0.0000 0.0000 0.0000 -25.5680
#
#
#
# Elastic Compliance Matrix: (Units=1/GPa)
#
#
# Indices 1 2 3 4 5 6 
#
# 1 0.007142 0.000880 -0.002906 0.000000 0.000000 0.000000
# 2 0.000880 0.021142 -0.003760 0.000000 0.000000 0.000000
# 3 -0.002906 -0.003760 0.007673 0.000000 0.000000 0.000000
# 4 0.000000 0.000000 0.000000 0.246292 0.000000 0.000000
# 5 0.000000 0.000000 0.000000 0.000000 0.024521 0.000000
# 6 0.000000 0.000000 0.000000 0.000000 0.000000 -0.039111
#
#
# Mechanical properties :
#
#
# Convention : Reuss Voigt Hill
#
# Bulk Modulus (GPa) = 41.00690 64.47562 52.74126
# Shear Modulus (GPa) = 17.39975 23.13293 20.26634
#
# Velocity S-wave (km/s) = 2.74569 3.16589 2.96325
# Velocity P-wave (km/s) = 5.27436 6.42645 5.87869
#
# Compressibility (1/GPa) = 0.02438614
#
# Stress axis : x y z
#
# Youngs Moduli (GPa) = 140.00741 47.29834 130.31926
#
# Poissons Ratio (x) = -0.04164 0.37873
# Poissons Ratio (y) = -0.12325 0.49004
# Poissons Ratio (z) = 0.40688 0.17786
#
# Static dielectric constant tensor:
#      x y z
#    x 1.958990 0.000000 0.000000 
#    y 0.000000 1.895980 0.000000 
#    z 0.000000 0.000000 1.871060 
# 
# From -- ./inp_files/4879.got.cif
#   From: 2010.05.17/outbox.cif.g08.bks.cpg/sg53_3_cif.got.tgz:4879.got - 2010.06.03 12:45:16.
