data_PCOD9418603
_publ_section_title
;
Structure prediction by ZEFSAII (Michael W. Deem and Ramdas Pophale) SiO2 
 PCOD9418603
Probable space group: P M N A
;
_chemical_formula_sum "Si O2"
_cell_formula_units_Z 56
_cell_length_a 14.587007
_cell_length_b 11.709886
_cell_length_c 14.898695
_cell_angle_alpha 90.000000
_cell_angle_beta 90.000000
_cell_angle_gamma 90.000000
_cell_volume 2544.878707
_symmetry_space_group_name_H-M "P M N A"
_symmetry_group_IT_number 53
_symmetry_cell_setting 'orthorhombic'
loop_
_space_group_symop_operation_xyz
x,y,z
1/2-x,-y,1/2+z
x,-y,-z
1/2-x,y,1/2-z
-x,-y,-z
1/2+x,y,1/2-z
-x,y,z
1/2+x,-y,1/2+z
loop_
_atom_site_type_symbol
_atom_site_label
_atom_site_fract_x
_atom_site_fract_y
_atom_site_fract_z
Si Si1 0.732366 0.116414 0.047769
Si Si2 0.198999 0.549200 0.399872
Si Si3 0.607446 0.003128 0.199086
Si Si4 0.098177 0.441855 0.901858
Si Si5 0.605577 0.826962 0.655645
Si Si6 0.602592 0.391246 0.231564
Si Si7 0.894000 0.777547 0.396684
O O1 0.818926 0.188748 0.080275
O O2 0.670539 0.072955 0.130555
O O3 0.668761 0.185543 0.979832
O O4 0.764814 0.000000 0.000000
O O5 0.187498 0.500000 0.500000
O O6 0.299604 0.606775 0.391901
O O7 0.178122 0.444408 0.333360
O O8 0.127614 0.647518 0.374148
O O9 0.500000 0.025625 0.178012
O O10 0.624159 0.869336 0.182030
O O11 0.621478 0.049432 0.299098
O O12 0.097906 0.536389 0.823401
O O13 0.000000 0.377685 0.893453
O O14 0.097653 0.500000 0.000000
O O15 0.500000 0.815512 0.625835
O O16 0.619912 0.736667 0.735569
O O17 0.500000 0.396193 0.189625
O O18 0.000000 0.789803 0.421986
#
# Coordination Sequence:
#
# PCOD9418603 Si02
#       7
#     8   8   8   8   8   8   8
#     4  10  21  37  60  92 123 162 205 259 322 383
#     4  11  24  38  62  95 131 171 213 265 322 380
#     4   9  19  38  62  87 117 156 204 256 314 381
#     4   9  20  39  61  86 122 167 213 257 309 383
#     4  10  22  38  65  96 123 163 211 265 320 379
#     4  10  22  40  62  91 128 166 212 266 320 378
#     4  10  22  40  62  90 127 164 207 260 326 388
#
# _framework density 22.004978999999999
#
# number of rings (size 3 to 8) (size 9 to 14) (size 15 to 20)
#    0.000    2.143    0.000    1.714    6.000    4.286 
#    0.000    5.714    0.000    4.286    0.000    0.000 
#    0.000    0.000    0.000    0.000    0.000    0.000 
#
# Total GULP energy -312739.255691 kJ/mol
# GULP energy per Si atom -5584.629566 kJ/mol
# Density = 2.195489 g / cm^3
# Si number density = 22.004979 Si / 1000 Ang^3
#
#
#
# Elastic Constant Matrix: (Units=GPa)
#
#
# Indices 1 2 3 4 5 6 
#
# 1 118.5366 27.6616 40.7027 0.0000 0.0000 0.0000
# 2 27.6616 50.4872 3.3583 0.0000 0.0000 0.0000
# 3 40.7027 3.3583 52.6105 0.0000 0.0000 0.0000
# 4 0.0000 0.0000 0.0000 11.9462 0.0000 0.0000
# 5 0.0000 0.0000 0.0000 0.0000 28.4939 0.0000
# 6 0.0000 0.0000 0.0000 0.0000 0.0000 14.1143
#
#
#
# Elastic Compliance Matrix: (Units=1/GPa)
#
#
# Indices 1 2 3 4 5 6 
#
# 1 0.013414 -0.006687 -0.009951 0.000000 0.000000 0.000000
# 2 -0.006687 0.023225 0.003691 0.000000 0.000000 0.000000
# 3 -0.009951 0.003691 0.026470 0.000000 0.000000 0.000000
# 4 0.000000 0.000000 0.000000 0.083708 0.000000 0.000000
# 5 0.000000 0.000000 0.000000 0.000000 0.035095 0.000000
# 6 0.000000 0.000000 0.000000 0.000000 0.000000 0.070850
#
#
# Mechanical properties :
#
#
# Convention : Reuss Voigt Hill
#
# Bulk Modulus (GPa) = 26.87038 40.56438 33.71738
# Shear Modulus (GPa) = 17.17846 20.90499 19.04173
#
# Velocity S-wave (km/s) = 2.79706 3.08557 2.94485
# Velocity P-wave (km/s) = 4.76120 5.58288 5.18833
#
# Compressibility (1/GPa) = 0.03721570
#
# Stress axis : x y z
#
# Youngs Moduli (GPa) = 74.55128 43.05635 37.77799
#
# Poissons Ratio (x) = 0.28793 0.37592
# Poissons Ratio (y) = 0.49855 -0.13944
# Poissons Ratio (z) = 0.74184 -0.15893
#
# Static dielectric constant tensor:
#      x y z
#    x 1.840320 0.000000 0.000000 
#    y 0.000000 1.812860 0.000000 
#    z 0.000000 0.000000 1.782400 
# 
# From -- ./inp_files/22846.got.cif
#   From: 2010.05.17/outbox.cif.g08.bks.cpg/sg53_12_cif.got.tgz:22846.got - 2010.06.03 12:45:16.
