data_PCOD9418411
_publ_section_title
;
Structure prediction by ZEFSAII (Michael W. Deem and Ramdas Pophale) SiO2 
 PCOD9418411
Probable space group: P M N A
;
_chemical_formula_sum "Si O2"
_cell_formula_units_Z 24
_cell_length_a 11.169020
_cell_length_b 10.923051
_cell_length_c 8.051626
_cell_angle_alpha 90.000000
_cell_angle_beta 90.000000
_cell_angle_gamma 90.000000
_cell_volume 982.296561
_symmetry_space_group_name_H-M "P M N A"
_symmetry_group_IT_number 53
_symmetry_cell_setting 'orthorhombic'
loop_
_space_group_symop_operation_xyz
x,y,z
1/2-x,-y,1/2+z
x,-y,-z
1/2-x,y,1/2-z
-x,-y,-z
1/2+x,y,1/2-z
-x,y,z
1/2+x,-y,1/2+z
loop_
_atom_site_type_symbol
_atom_site_label
_atom_site_fract_x
_atom_site_fract_y
_atom_site_fract_z
Si Si1 0.867337 0.608128 0.637204
Si Si2 0.128705 0.230518 0.666923
Si Si3 0.129619 0.040158 0.193028
O O1 0.861794 0.500000 0.500000
O O2 0.750000 0.601504 0.750000
O O3 0.866910 0.728828 0.522106
O O4 0.000000 0.599144 0.719280
O O5 0.250000 0.278464 0.750000
O O6 0.127619 0.085060 0.698797
O O7 0.000000 0.275729 0.736133
O O8 0.250000 0.105267 0.250000
O O9 0.000000 0.101481 0.210254
O O10 0.139163 0.000000 0.000000
#
# Coordination Sequence:
#
# PCOD9418411 Si02
#       3
#     8   8   8
#     4  10  21  36  56  84 116 151 190 232 281 337
#     4   9  18  34  55  80 111 145 185 232 280 334
#     4   9  18  34  56  80 107 143 186 232 284 338
#
# _framework density 24.432539999999999
#
# number of rings (size 3 to 8) (size 9 to 14) (size 15 to 20)
#    0.000    2.667    0.000    1.000    0.000    2.667 
#    0.000    6.667    0.000   36.000    0.000    0.000 
#    0.000    0.000    0.000    0.000    0.000    0.000 
#
# Total GULP energy -134024.988229 kJ/mol
# GULP energy per Si atom -5584.374510 kJ/mol
# Density = 2.437693 g / cm^3
# Si number density = 24.432540 Si / 1000 Ang^3
#
#
#
# Elastic Constant Matrix: (Units=GPa)
#
#
# Indices 1 2 3 4 5 6 
#
# 1 371.9728 3.7231 90.2511 0.0000 0.0000 0.0000
# 2 3.7231 78.0191 43.8502 0.0000 0.0000 0.0000
# 3 90.2511 43.8502 68.3009 0.0000 0.0000 0.0000
# 4 0.0000 0.0000 0.0000 40.3623 0.0000 0.0000
# 5 0.0000 0.0000 0.0000 0.0000 42.2480 0.0000
# 6 0.0000 0.0000 0.0000 0.0000 0.0000 -0.2736
#
#
#
# Elastic Compliance Matrix: (Units=1/GPa)
#
#
# Indices 1 2 3 4 5 6 
#
# 1 0.005161 0.005611 -0.010422 0.000000 0.000000 0.000000
# 2 0.005611 0.026155 -0.024206 0.000000 0.000000 0.000000
# 3 -0.010422 -0.024206 0.043953 0.000000 0.000000 0.000000
# 4 0.000000 0.000000 0.000000 0.024776 0.000000 0.000000
# 5 0.000000 0.000000 0.000000 0.000000 0.023670 0.000000
# 6 0.000000 0.000000 0.000000 0.000000 0.000000 -3.655196
#
#
# Mechanical properties :
#
#
# Convention : Reuss Voigt Hill
#
# Bulk Modulus (GPa) = 58.02216 88.21570 73.11893
# Shear Modulus (GPa) = -1.44188 41.83190 20.19501
#
# Velocity S-wave (km/s) = -0.76904 4.14229 2.87812
# Velocity P-wave (km/s) = 4.79697 7.68520 6.40598
#
# Compressibility (1/GPa) = 0.01723479
#
# Stress axis : x y z
#
# Youngs Moduli (GPa) = 193.76488 38.23404 22.75133
#
# Poissons Ratio (x) = -0.21455 0.23712
# Poissons Ratio (y) = -1.08729 0.55073
# Poissons Ratio (z) = 2.01943 0.92551
#
# Static dielectric constant tensor:
#      x y z
#    x 2.045830 0.000000 0.000000 
#    y 0.000000 1.987580 0.000000 
#    z 0.000000 0.000000 1.904140 
# 
# From -- ./inp_files/482.got.cif
#   From: 2010.05.17/outbox.cif.g08.bks.cpg/sg53_1_cif.got.tgz:482.got - 2010.06.03 12:45:16.
