data_PCOD9418545
_publ_section_title
;
Structure prediction by ZEFSAII (Michael W. Deem and Ramdas Pophale) SiO2 
 PCOD9418545
Probable space group: P M N A
;
_chemical_formula_sum "Si O2"
_cell_formula_units_Z 56
_cell_length_a 21.028846
_cell_length_b 8.753337
_cell_length_c 14.580194
_cell_angle_alpha 90.000000
_cell_angle_beta 90.000000
_cell_angle_gamma 90.000000
_cell_volume 2683.813865
_symmetry_space_group_name_H-M "P M N A"
_symmetry_group_IT_number 53
_symmetry_cell_setting 'orthorhombic'
loop_
_space_group_symop_operation_xyz
x,y,z
1/2-x,-y,1/2+z
x,-y,-z
1/2-x,y,1/2-z
-x,-y,-z
1/2+x,y,1/2-z
-x,y,z
1/2+x,-y,1/2+z
loop_
_atom_site_type_symbol
_atom_site_label
_atom_site_fract_x
_atom_site_fract_y
_atom_site_fract_z
Si Si1 0.746564 0.102288 0.930057
Si Si2 0.204447 0.627721 0.561676
Si Si3 0.500000 0.237164 0.946558
Si Si4 0.817829 0.718472 0.218465
Si Si5 0.115813 0.266329 0.272352
Si Si6 0.650577 0.449528 0.398658
Si Si7 0.000000 0.575718 0.637096
Si Si8 0.115253 0.939368 0.354855
O O1 0.790502 0.149282 0.846998
O O2 0.682552 0.015366 0.900977
O O3 0.720894 0.246448 0.985483
O O4 0.785339 0.000000 0.000000
O O5 0.167764 0.500000 0.500000
O O6 0.170444 0.684760 0.653815
O O7 0.273539 0.566690 0.589452
O O8 0.500000 0.397309 0.890084
O O9 0.439099 0.130461 0.920728
O O10 0.500000 0.306479 0.049436
O O11 0.750000 0.647313 0.250000
O O12 0.858369 0.596613 0.164682
O O13 0.860297 0.796699 0.294764
O O14 0.130559 0.305629 0.165585
O O15 0.060015 0.378095 0.303176
O O16 0.097443 0.089912 0.295965
O O17 0.625675 0.500000 0.500000
#
# Coordination Sequence:
#
# PCOD9418545 Si02
#       8
#     8   8   4   8   8   8   4   8
#     4  11  21  36  58  94 132 168 210 252 326 384
#     4  11  22  36  63  95 130 169 208 261 315 385
#     4  11  25  45  67  94 128 166 219 253 332 390
#     4  10  21  37  58  86 128 166 207 255 313 374
#     4  12  25  41  63  93 129 166 220 264 324 383
#     4  11  23  40  62  93 123 171 217 270 314 373
#     4  11  27  43  70  94 123 169 210 272 313 392
#     4  11  25  39  61  92 131 174 204 266 321 392
#
# _framework density 20.865829000000002
#
# number of rings (size 3 to 8) (size 9 to 14) (size 15 to 20)
#    0.000    1.000    4.286    3.429    8.000    1.714 
#    0.000    0.357    0.000    0.000    0.000    3.500 
#    0.000    0.000    0.000    0.000    0.000    0.000 
#
# Total GULP energy -312130.126861 kJ/mol
# GULP energy per Si atom -5573.752265 kJ/mol
# Density = 2.081834 g / cm^3
# Si number density = 20.865829 Si / 1000 Ang^3
#
#
#
# Elastic Constant Matrix: (Units=GPa)
#
#
# Indices 1 2 3 4 5 6 
#
# 1 50.5977 8.8424 15.9059 0.0000 0.0000 0.0000
# 2 8.8424 84.0743 34.3724 0.0000 0.0000 0.0000
# 3 15.9059 34.3724 106.8060 0.0000 0.0000 0.0000
# 4 0.0000 0.0000 0.0000 40.7207 0.0000 0.0000
# 5 0.0000 0.0000 0.0000 0.0000 22.7785 0.0000
# 6 0.0000 0.0000 0.0000 0.0000 0.0000 6.6189
#
#
#
# Elastic Compliance Matrix: (Units=1/GPa)
#
#
# Indices 1 2 3 4 5 6 
#
# 1 0.020816 -0.001062 -0.002758 0.000000 0.000000 0.000000
# 2 -0.001062 0.013750 -0.004267 0.000000 0.000000 0.000000
# 3 -0.002758 -0.004267 0.011147 0.000000 0.000000 0.000000
# 4 0.000000 0.000000 0.000000 0.024558 0.000000 0.000000
# 5 0.000000 0.000000 0.000000 0.000000 0.043901 0.000000
# 6 0.000000 0.000000 0.000000 0.000000 0.000000 0.151082
#
#
# Mechanical properties :
#
#
# Convention : Reuss Voigt Hill
#
# Bulk Modulus (GPa) = 33.85304 39.96883 36.91093
# Shear Modulus (GPa) = 17.16593 26.18078 21.67336
#
# Velocity S-wave (km/s) = 2.87135 3.54605 3.22638
# Velocity P-wave (km/s) = 5.22037 5.99689 5.62205
#
# Compressibility (1/GPa) = 0.02953945
#
# Stress axis : x y z
#
# Youngs Moduli (GPa) = 48.03903 72.72511 89.71198
#
# Poissons Ratio (x) = 0.07721 0.24746
# Poissons Ratio (y) = 0.05100 0.38281
# Poissons Ratio (z) = 0.13251 0.31032
#
# Static dielectric constant tensor:
#      x y z
#    x 1.760460 0.000000 0.000000 
#    y 0.000000 1.817410 0.000000 
#    z 0.000000 0.000000 1.833230 
# 
# From -- ./inp_files/24386.got.cif
#   From: 2010.05.17/outbox.cif.g08.bks.cpg/sg53_13_cif.got.tgz:24386.got - 2010.06.03 12:45:16.
