data_PCOD9418493
_publ_section_title
;
Structure prediction by ZEFSAII (Michael W. Deem and Ramdas Pophale) SiO2 
 PCOD9418493
Probable space group: P M N A
;
_chemical_formula_sum "Si O2"
_cell_formula_units_Z 48
_cell_length_a 8.676931
_cell_length_b 31.696778
_cell_length_c 9.349314
_cell_angle_alpha 90.000000
_cell_angle_beta 90.000000
_cell_angle_gamma 90.000000
_cell_volume 2571.348894
_symmetry_space_group_name_H-M "P M N A"
_symmetry_group_IT_number 53
_symmetry_cell_setting 'orthorhombic'
loop_
_space_group_symop_operation_xyz
x,y,z
1/2-x,-y,1/2+z
x,-y,-z
1/2-x,y,1/2-z
-x,-y,-z
1/2+x,y,1/2-z
-x,y,z
1/2+x,-y,1/2+z
loop_
_atom_site_type_symbol
_atom_site_label
_atom_site_fract_x
_atom_site_fract_y
_atom_site_fract_z
Si Si1 0.815088 0.041788 0.089625
Si Si2 0.184645 0.541535 0.090400
Si Si3 0.315732 0.629705 0.089272
Si Si4 0.315605 0.292753 0.410171
Si Si5 0.685023 0.796992 0.909788
Si Si6 0.684688 0.880045 0.089956
O O1 0.750000 0.039908 0.250000
O O2 0.000000 0.044127 0.096350
O O3 0.751362 0.082214 0.005701
O O4 0.772107 0.000000 0.000000
O O5 0.250000 0.536342 0.250000
O O6 0.257702 0.584610 0.029877
O O7 0.000000 0.546490 0.096371
O O8 0.221795 0.500000 0.000000
O O9 0.250000 0.632102 0.250000
O O10 0.500000 0.630655 0.091620
O O11 0.249588 0.668904 0.002136
O O12 0.250000 0.296908 0.250000
O O13 0.500000 0.293361 0.408273
O O14 0.256208 0.247121 0.462539
O O15 0.750000 0.804827 0.750000
O O16 0.500000 0.792918 0.900681
O O17 0.723679 0.835825 0.012891
O O18 0.750000 0.881899 0.250000
O O19 0.500000 0.883707 0.094916
#
# Coordination Sequence:
#
# PCOD9418493 Si02
#       6
#     8   8   8   8   8   8
#     4  11  24  41  63  90 121 157 197 242 291 345
#     4  10  21  37  57  82 112 146 187 233 282 338
#     4  11  22  38  59  83 114 150 189 234 285 341
#     4  11  22  38  60  86 116 151 192 237 286 340
#     4  10  21  38  59  85 115 150 192 237 288 342
#     4  11  24  40  61  88 120 156 196 242 290 344
#
# _framework density 18.667245000000001
#
# number of rings (size 3 to 8) (size 9 to 14) (size 15 to 20)
#    0.000    1.333    0.000    8.000    0.000    9.333 
#    0.000    3.333    0.000    0.000    0.000    0.000 
#    0.000    0.000    0.000    0.000    0.000    0.000 
#
# Total GULP energy -268392.092038 kJ/mol
# GULP energy per Si atom -5591.501917 kJ/mol
# Density = 1.862476 g / cm^3
# Si number density = 18.667245 Si / 1000 Ang^3
#
#
#
# Elastic Constant Matrix: (Units=GPa)
#
#
# Indices 1 2 3 4 5 6 
#
# 1 124.1862 98.1712 58.4767 0.0000 0.0000 0.0000
# 2 98.1712 217.2742 109.4754 0.0000 0.0000 0.0000
# 3 58.4767 109.4754 114.6955 0.0000 0.0000 0.0000
# 4 0.0000 0.0000 0.0000 39.5560 0.0000 0.0000
# 5 0.0000 0.0000 0.0000 0.0000 36.6356 0.0000
# 6 0.0000 0.0000 0.0000 0.0000 0.0000 35.7250
#
#
#
# Elastic Compliance Matrix: (Units=1/GPa)
#
#
# Indices 1 2 3 4 5 6 
#
# 1 0.012745 -0.004786 -0.001929 0.000000 0.000000 0.000000
# 2 -0.004786 0.010664 -0.007739 0.000000 0.000000 0.000000
# 3 -0.001929 -0.007739 0.017089 0.000000 0.000000 0.000000
# 4 0.000000 0.000000 0.000000 0.025281 0.000000 0.000000
# 5 0.000000 0.000000 0.000000 0.000000 0.027296 0.000000
# 6 0.000000 0.000000 0.000000 0.000000 0.000000 0.027992
#
#
# Mechanical properties :
#
#
# Convention : Reuss Voigt Hill
#
# Bulk Modulus (GPa) = 86.28725 109.82251 98.05488
# Shear Modulus (GPa) = 32.50193 35.05217 33.77705
#
# Velocity S-wave (km/s) = 4.17720 4.33799 4.25835
# Velocity P-wave (km/s) = 8.34204 9.16789 8.76470
#
# Compressibility (1/GPa) = 0.01158920
#
# Stress axis : x y z
#
# Youngs Moduli (GPa) = 78.46514 93.77116 58.51792
#
# Poissons Ratio (x) = 0.44882 0.11289
# Poissons Ratio (y) = 0.37556 0.45285
# Poissons Ratio (z) = 0.15138 0.72566
#
# Static dielectric constant tensor:
#      x y z
#    x 1.624320 0.000000 0.000000 
#    y 0.000000 1.644650 0.000000 
#    z 0.000000 0.000000 1.568860 
# 
# From -- ./inp_files/6682.got.cif
#   From: 2010.05.17/outbox.cif.g08.bks.cpg/sg53_4_cif.got.tgz:6682.got - 2010.06.03 12:45:16.
