data_PCOD9418195
_publ_section_title
;
Structure prediction by ZEFSAII (Michael W. Deem and Ramdas Pophale) SiO2 
 PCOD9418195
Probable space group: P M N A
;
_chemical_formula_sum "Si O2"
_cell_formula_units_Z 44
_cell_length_a 9.483562
_cell_length_b 12.568318
_cell_length_c 18.020321
_cell_angle_alpha 90.000000
_cell_angle_beta 90.000000
_cell_angle_gamma 90.000000
_cell_volume 2147.885723
_symmetry_space_group_name_H-M "P M N A"
_symmetry_group_IT_number 53
_symmetry_cell_setting 'orthorhombic'
loop_
_space_group_symop_operation_xyz
x,y,z
1/2-x,-y,1/2+z
x,-y,-z
1/2-x,y,1/2-z
-x,-y,-z
1/2+x,y,1/2-z
-x,y,z
1/2+x,-y,1/2+z
loop_
_atom_site_type_symbol
_atom_site_label
_atom_site_fract_x
_atom_site_fract_y
_atom_site_fract_z
Si Si1 0.658254 0.430675 0.425177
Si Si2 0.668028 0.575473 0.172339
Si Si3 0.750000 0.089134 0.750000
Si Si4 0.661167 0.821171 0.545297
Si Si5 0.656796 0.881700 0.817135
Si Si6 0.338480 0.770034 0.384423
O O1 0.669402 0.500000 0.500000
O O2 0.500000 0.449820 0.394021
O O3 0.777581 0.470301 0.369370
O O4 0.668638 0.306578 0.443871
O O5 0.750000 0.582609 0.250000
O O6 0.500000 0.580119 0.180777
O O7 0.728295 0.674468 0.124561
O O8 0.672108 0.160927 0.689918
O O9 0.653441 0.006094 0.794729
O O10 0.500000 0.855787 0.560569
O O11 0.764702 0.870458 0.605144
O O12 0.691854 0.838058 0.458398
O O13 0.750000 0.832107 0.750000
O O14 0.500000 0.837240 0.818866
O O15 0.500000 0.729573 0.392893
#
# Coordination Sequence:
#
# PCOD9418195 Si02
#       6
#     8   8   4   8   8   8
#     4  10  20  40  65  91 126 166 205 251 308 370
#     4  12  25  39  61  94 131 169 213 258 312 377
#     4  10  24  40  70  94 122 170 210 270 318 386
#     4  10  22  40  68  97 127 168 211 259 317 382
#     4  10  23  43  65  90 126 165 209 263 319 378
#     4  11  22  41  67  96 129 167 212 264 322 382
#
# _framework density 20.485263
#
# number of rings (size 3 to 8) (size 9 to 14) (size 15 to 20)
#    0.545    0.909    2.727    2.727    0.000    4.000 
#    0.000    2.727    0.000    0.000    0.000    0.000 
#    0.000    0.000    0.000    0.000    0.000    0.000 
#
# Total GULP energy -245655.034261 kJ/mol
# GULP energy per Si atom -5583.068960 kJ/mol
# Density = 2.043864 g / cm^3
# Si number density = 20.485263 Si / 1000 Ang^3
#
#
#
# Elastic Constant Matrix: (Units=GPa)
#
#
# Indices 1 2 3 4 5 6 
#
# 1 157.2563 15.3268 76.6521 0.0000 0.0000 0.0000
# 2 15.3268 35.2736 19.4590 0.0000 0.0000 0.0000
# 3 76.6521 19.4590 126.9764 0.0000 0.0000 0.0000
# 4 0.0000 0.0000 0.0000 36.7473 0.0000 0.0000
# 5 0.0000 0.0000 0.0000 0.0000 26.1183 0.0000
# 6 0.0000 0.0000 0.0000 0.0000 0.0000 -590.3724
#
#
#
# Elastic Compliance Matrix: (Units=1/GPa)
#
#
# Indices 1 2 3 4 5 6 
#
# 1 0.009043 -0.001003 -0.005305 0.000000 0.000000 0.000000
# 2 -0.001003 0.031079 -0.004158 0.000000 0.000000 0.000000
# 3 -0.005305 -0.004158 0.011715 0.000000 0.000000 0.000000
# 4 0.000000 0.000000 0.000000 0.027213 0.000000 0.000000
# 5 0.000000 0.000000 0.000000 0.000000 0.038287 0.000000
# 6 0.000000 0.000000 0.000000 0.000000 0.000000 -0.001694
#
#
# Mechanical properties :
#
#
# Convention : Reuss Voigt Hill
#
# Bulk Modulus (GPa) = 32.35588 60.26468 46.31028
# Shear Modulus (GPa) = 34.04228 -91.63016 -28.79394
#
# Velocity S-wave (km/s) = 4.08093 -6.69529 -3.75319
# Velocity P-wave (km/s) = 6.16720 5.50334 1.96819
#
# Compressibility (1/GPa) = 0.03090628
#
# Stress axis : x y z
#
# Youngs Moduli (GPa) = 110.58671 32.17600 85.35899
#
# Poissons Ratio (x) = 0.03226 0.45284
# Poissons Ratio (y) = 0.11086 0.35489
# Poissons Ratio (z) = 0.58668 0.13378
#
# Static dielectric constant tensor:
#      x y z
#    x 1.711990 0.000000 0.000000 
#    y 0.000000 1.752630 0.000000 
#    z 0.000000 0.000000 1.732810 
# 
# From -- ./inp_files/26071.got.cif
#   From: 2010.05.17/outbox.cif.g08.bks.cpg/sg53_14_cif.got.tgz:26071.got - 2010.06.03 12:45:16.
