data_PCOD9418272
_publ_section_title
;
Structure prediction by ZEFSAII (Michael W. Deem and Ramdas Pophale) SiO2 
 PCOD9418272
Probable space group: P M N A
;
_chemical_formula_sum "Si O2"
_cell_formula_units_Z 40
_cell_length_a 7.474394
_cell_length_b 27.692368
_cell_length_c 9.097200
_cell_angle_alpha 90.000000
_cell_angle_beta 90.000000
_cell_angle_gamma 90.000000
_cell_volume 1882.971836
_symmetry_space_group_name_H-M "P M N A"
_symmetry_group_IT_number 53
_symmetry_cell_setting 'orthorhombic'
loop_
_space_group_symop_operation_xyz
x,y,z
1/2-x,-y,1/2+z
x,-y,-z
1/2-x,y,1/2-z
-x,-y,-z
1/2+x,y,1/2-z
-x,y,z
1/2+x,-y,1/2+z
loop_
_atom_site_type_symbol
_atom_site_label
_atom_site_fract_x
_atom_site_fract_y
_atom_site_fract_z
Si Si1 0.285945 0.152655 0.425329
Si Si2 0.714350 0.548600 0.577171
Si Si3 0.785325 0.742517 0.924247
Si Si4 0.714389 0.645715 0.422520
Si Si5 0.785422 0.951775 0.923800
O O1 0.250000 0.152595 0.250000
O O2 0.500000 0.152608 0.446831
O O3 0.216821 0.204862 0.477193
O O4 0.217222 0.100601 0.479539
O O5 0.783977 0.500000 0.500000
O O6 0.750000 0.547845 0.750000
O O7 0.500000 0.548747 0.556269
O O8 0.783887 0.597842 0.503836
O O9 0.750000 0.737722 0.750000
O O10 0.000000 0.743651 0.942190
O O11 0.715461 0.695670 0.008694
O O12 0.750000 0.643010 0.250000
O O13 0.500000 0.646351 0.443954
O O14 0.750000 0.954562 0.750000
O O15 0.000000 0.951226 0.944516
O O16 0.714163 0.000000 0.000000
#
# Coordination Sequence:
#
# PCOD9418272 Si02
#       5
#     8   8   8   8   8
#     4   8  14  26  44  64  87 115 148 187 228 271
#     4  10  21  36  54  77 102 128 161 198 235 277
#     4   9  17  30  49  71  92 117 153 194 233 275
#     4  10  21  35  50  71  99 129 160 193 231 277
#     4   9  17  29  45  65  89 118 151 187 229 275
#
# _framework density 21.243016999999998
#
# number of rings (size 3 to 8) (size 9 to 14) (size 15 to 20)
#    0.000    2.800    0.000    1.200    0.000    2.400 
#    0.000    1.000    0.000    0.000    0.000    0.000 
#    0.000    0.000    0.000    0.000    0.000    0.000 
#
# Total GULP energy -223072.348698 kJ/mol
# GULP energy per Si atom -5576.808717 kJ/mol
# Density = 2.119467 g / cm^3
# Si number density = 21.243017 Si / 1000 Ang^3
#
#
#
# Elastic Constant Matrix: (Units=GPa)
#
#
# Indices 1 2 3 4 5 6 
#
# 1 66.3222 16.3259 -10.8347 0.0000 0.0000 0.0000
# 2 16.3259 308.1055 108.3063 0.0000 0.0000 0.0000
# 3 -10.8347 108.3063 93.3662 0.0000 0.0000 0.0000
# 4 0.0000 0.0000 0.0000 -688.4260 0.0000 0.0000
# 5 0.0000 0.0000 0.0000 0.0000 21.1277 0.0000
# 6 0.0000 0.0000 0.0000 0.0000 0.0000 12.4599
#
#
#
# Elastic Compliance Matrix: (Units=1/GPa)
#
#
# Indices 1 2 3 4 5 6 
#
# 1 0.016532 -0.002618 0.004955 0.000000 0.000000 0.000000
# 2 -0.002618 0.005895 -0.007142 0.000000 0.000000 0.000000
# 3 0.004955 -0.007142 0.019570 0.000000 0.000000 0.000000
# 4 0.000000 0.000000 0.000000 -0.001453 0.000000 0.000000
# 5 0.000000 0.000000 0.000000 0.000000 0.047331 0.000000
# 6 0.000000 0.000000 0.000000 0.000000 0.000000 0.080258
#
#
# Mechanical properties :
#
#
# Convention : Reuss Voigt Hill
#
# Bulk Modulus (GPa) = 30.87583 77.26542 54.07062
# Shear Modulus (GPa) = 26.51977 -107.36791 -40.42407
#
# Velocity S-wave (km/s) = 3.53710 -7.11705 -4.36700
# Velocity P-wave (km/s) = 5.58995 5.57543 0.28475
#
# Compressibility (1/GPa) = 0.03238780
#
# Stress axis : x y z
#
# Youngs Moduli (GPa) = 60.48943 169.63691 51.09758
#
# Poissons Ratio (x) = 0.44408 -0.25320
# Poissons Ratio (y) = 0.15835 0.36494
# Poissons Ratio (z) = -0.29974 1.21155
#
# Static dielectric constant tensor:
#      x y z
#    x 1.772740 0.000000 0.000000 
#    y 0.000000 1.841600 0.000000 
#    z 0.000000 0.000000 1.683800 
# 
# From -- ./inp_files/746.got.cif
#   From: 2010.05.17/outbox.cif.g08.bks.cpg/sg53_1_cif.got.tgz:746.got - 2010.06.03 12:45:16.
