data_PCOD9418291
_publ_section_title
;
Structure prediction by ZEFSAII (Michael W. Deem and Ramdas Pophale) SiO2 
 PCOD9418291
Probable space group: P M N A
;
_chemical_formula_sum "Si O2"
_cell_formula_units_Z 40
_cell_length_a 8.467493
_cell_length_b 26.382405
_cell_length_c 9.414248
_cell_angle_alpha 90.000000
_cell_angle_beta 90.000000
_cell_angle_gamma 90.000000
_cell_volume 2103.075500
_symmetry_space_group_name_H-M "P M N A"
_symmetry_group_IT_number 53
_symmetry_cell_setting 'orthorhombic'
loop_
_space_group_symop_operation_xyz
x,y,z
1/2-x,-y,1/2+z
x,-y,-z
1/2-x,y,1/2-z
-x,-y,-z
1/2+x,y,1/2-z
-x,y,z
1/2+x,-y,1/2+z
loop_
_atom_site_type_symbol
_atom_site_label
_atom_site_fract_x
_atom_site_fract_y
_atom_site_fract_z
Si Si1 0.690880 0.951202 0.909678
Si Si2 0.809266 0.740881 0.409187
Si Si3 0.189542 0.644990 0.589868
Si Si4 0.809198 0.855485 0.408916
Si Si5 0.810450 0.549608 0.088854
O O1 0.750000 0.954550 0.750000
O O2 0.500000 0.951062 0.909176
O O3 0.745169 0.899321 0.985075
O O4 0.743253 0.000000 0.000000
O O5 0.750000 0.729655 0.250000
O O6 0.756270 0.697878 0.518607
O O7 0.757604 0.798192 0.446597
O O8 0.000000 0.740412 0.406358
O O9 0.250000 0.639667 0.750000
O O10 0.248583 0.599119 0.492064
O O11 0.000000 0.644422 0.591504
O O12 0.750000 0.866234 0.250000
O O13 0.000000 0.855896 0.407331
O O14 0.750000 0.547518 0.250000
O O15 0.000000 0.550879 0.091051
O O16 0.759712 0.500000 0.000000
#
# Coordination Sequence:
#
# PCOD9418291 Si02
#       5
#     8   8   8   8   8
#     4  10  21  35  52  76 105 137 175 219 265 316
#     4   9  19  35  55  79 107 141 179 221 268 319
#     4  11  23  38  57  82 113 147 185 228 273 322
#     4   9  18  34  54  77 106 138 176 220 266 318
#     4  11  24  41  62  87 115 147 183 224 271 323
#
# _framework density 19.019765
#
# number of rings (size 3 to 8) (size 9 to 14) (size 15 to 20)
#    0.000    2.000    0.000    3.000    0.000    8.400 
#    0.000    0.000    0.000    0.000    0.000    0.000 
#    0.000    0.000    0.000    0.000    0.000    0.000 
#
# Total GULP energy -223445.600482 kJ/mol
# GULP energy per Si atom -5586.140012 kJ/mol
# Density = 1.897648 g / cm^3
# Si number density = 19.019765 Si / 1000 Ang^3
#
#
#
# Elastic Constant Matrix: (Units=GPa)
#
#
# Indices 1 2 3 4 5 6 
#
# 1 18.3172 32.5554 28.0041 0.0000 0.0000 0.0000
# 2 32.5554 168.7569 133.5862 0.0000 0.0000 0.0000
# 3 28.0041 133.5862 189.7906 0.0000 0.0000 0.0000
# 4 0.0000 0.0000 0.0000 44.2850 0.0000 0.0000
# 5 0.0000 0.0000 0.0000 0.0000 37.1062 0.0000
# 6 0.0000 0.0000 0.0000 0.0000 0.0000 -12.1553
#
#
#
# Elastic Compliance Matrix: (Units=1/GPa)
#
#
# Indices 1 2 3 4 5 6 
#
# 1 0.083490 -0.014350 -0.002219 0.000000 0.000000 0.000000
# 2 -0.014350 0.015848 -0.009037 0.000000 0.000000 0.000000
# 3 -0.002219 -0.009037 0.011957 0.000000 0.000000 0.000000
# 4 0.000000 0.000000 0.000000 0.022581 0.000000 0.000000
# 5 0.000000 0.000000 0.000000 0.000000 0.026950 0.000000
# 6 0.000000 0.000000 0.000000 0.000000 0.000000 -0.082268
#
#
# Mechanical properties :
#
#
# Convention : Reuss Voigt Hill
#
# Bulk Modulus (GPa) = 16.64362 85.01735 50.83049
# Shear Modulus (GPa) = 33.37846 26.02842 29.70344
#
# Velocity S-wave (km/s) = 4.19374 3.70333 3.95614
# Velocity P-wave (km/s) = 5.67623 7.94246 6.90298
#
# Compressibility (1/GPa) = 0.06008308
#
# Stress axis : x y z
#
# Youngs Moduli (GPa) = 11.97749 63.10031 83.63068
#
# Poissons Ratio (x) = 0.90548 0.18556
# Poissons Ratio (y) = 0.17188 0.75579
# Poissons Ratio (z) = 0.02658 0.57025
#
# Static dielectric constant tensor:
#      x y z
#    x 1.649780 0.000000 0.000000 
#    y 0.000000 1.674460 0.000000 
#    z 0.000000 0.000000 1.606690 
# 
# From -- ./inp_files/6278.got.cif
#   From: 2010.05.17/outbox.cif.g08.bks.cpg/sg53_4_cif.got.tgz:6278.got - 2010.06.03 12:45:16.
