data_PCOD9418315
_publ_section_title
;
Structure prediction by ZEFSAII (Michael W. Deem and Ramdas Pophale) SiO2 
 PCOD9418315
Probable space group: P M N A
;
_chemical_formula_sum "Si O2"
_cell_formula_units_Z 64
_cell_length_a 14.329085
_cell_length_b 9.436553
_cell_length_c 23.892108
_cell_angle_alpha 90.000000
_cell_angle_beta 90.000000
_cell_angle_gamma 90.000000
_cell_volume 3230.623230
_symmetry_space_group_name_H-M "P M N A"
_symmetry_group_IT_number 53
_symmetry_cell_setting 'orthorhombic'
loop_
_space_group_symop_operation_xyz
x,y,z
1/2-x,-y,1/2+z
x,-y,-z
1/2-x,y,1/2-z
-x,-y,-z
1/2+x,y,1/2-z
-x,y,z
1/2+x,-y,1/2+z
loop_
_atom_site_type_symbol
_atom_site_label
_atom_site_fract_x
_atom_site_fract_y
_atom_site_fract_z
Si Si1 0.397944 0.164118 0.775146
Si Si2 0.788684 0.191293 0.615373
Si Si3 0.607814 0.945611 0.936857
Si Si4 0.893769 0.686047 0.155457
Si Si5 0.611370 0.561477 0.060805
Si Si6 0.642369 0.164403 0.235593
Si Si7 0.188786 0.695360 0.619659
Si Si8 0.104659 0.346570 0.155611
O O1 0.500000 0.206311 0.797076
O O2 0.323759 0.210001 0.821121
O O3 0.384293 0.239177 0.715815
O O4 0.397585 0.993899 0.767533
O O5 0.682549 0.242813 0.615203
O O6 0.849650 0.283546 0.572721
O O7 0.817104 0.031949 0.599871
O O8 0.500000 0.962510 0.917191
O O9 0.640748 0.785009 0.929727
O O10 0.611405 0.000000 0.000000
O O11 0.881805 0.516412 0.161892
O O12 0.000000 0.710470 0.136061
O O13 0.500000 0.558249 0.065872
O O14 0.659567 0.464804 0.107982
O O15 0.636709 0.500000 0.000000
O O16 0.750000 0.140634 0.250000
O O17 0.642190 0.244883 0.176416
O O18 0.604758 0.264645 0.284934
O O19 0.301383 0.706403 0.624113
O O20 0.000000 0.324507 0.130817
#
# Coordination Sequence:
#
# PCOD9418315 Si02
#       8
#     8   8   8   8   8   8   8   8
#     4  11  22  35  57  90 124 159 196 238 291 355
#     4  12  22  39  63  87 121 158 197 243 297 355
#     4  11  24  42  64  90 121 156 196 245 302 358
#     4  10  23  40  60  87 122 161 199 243 291 348
#     4  11  24  40  60  88 117 150 198 251 302 354
#     4  10  21  35  56  88 122 158 197 238 287 352
#     4  11  22  39  63  88 120 160 196 244 296 354
#     4  10  22  40  60  88 123 160 200 242 292 346
#
# _framework density 19.810420000000001
#
# number of rings (size 3 to 8) (size 9 to 14) (size 15 to 20)
#    0.000    1.250    2.500    3.750    3.500    4.500 
#    0.000    0.000    0.000    4.500    0.000    0.000 
#    0.000    0.000    0.000    0.000    0.000    0.000 
#
# Total GULP energy -357319.381158 kJ/mol
# GULP energy per Si atom -5583.115331 kJ/mol
# Density = 1.976533 g / cm^3
# Si number density = 19.810420 Si / 1000 Ang^3
#
#
#
# Elastic Constant Matrix: (Units=GPa)
#
#
# Indices 1 2 3 4 5 6 
#
# 1 126.7982 15.4832 23.8461 0.0000 0.0000 0.0000
# 2 15.4832 58.8407 6.6701 0.0000 0.0000 0.0000
# 3 23.8461 6.6701 40.7566 0.0000 0.0000 0.0000
# 4 0.0000 0.0000 0.0000 31.4090 0.0000 0.0000
# 5 0.0000 0.0000 0.0000 0.0000 12.9350 0.0000
# 6 0.0000 0.0000 0.0000 0.0000 0.0000 33.9760
#
#
#
# Elastic Compliance Matrix: (Units=1/GPa)
#
#
# Indices 1 2 3 4 5 6 
#
# 1 0.009048 -0.001814 -0.004997 0.000000 0.000000 0.000000
# 2 -0.001814 0.017680 -0.001832 0.000000 0.000000 0.000000
# 3 -0.004997 -0.001832 0.027759 0.000000 0.000000 0.000000
# 4 0.000000 0.000000 0.000000 0.031838 0.000000 0.000000
# 5 0.000000 0.000000 0.000000 0.000000 0.077309 0.000000
# 6 0.000000 0.000000 0.000000 0.000000 0.000000 0.029433
#
#
# Mechanical properties :
#
#
# Convention : Reuss Voigt Hill
#
# Bulk Modulus (GPa) = 26.88099 35.37716 31.12908
# Shear Modulus (GPa) = 22.44630 27.69040 25.06835
#
# Velocity S-wave (km/s) = 3.36974 3.74273 3.56112
# Velocity P-wave (km/s) = 5.36086 6.04765 5.71458
#
# Compressibility (1/GPa) = 0.03720101
#
# Stress axis : x y z
#
# Youngs Moduli (GPa) = 110.52386 56.56062 36.02394
#
# Poissons Ratio (x) = 0.10262 0.18001
# Poissons Ratio (y) = 0.20053 0.06599
# Poissons Ratio (z) = 0.55227 0.10361
#
# Static dielectric constant tensor:
#      x y z
#    x 1.714500 0.000000 0.000000 
#    y 0.000000 1.680760 0.000000 
#    z 0.000000 0.000000 1.684690 
# 
# From -- ./inp_files/35374.got.cif
#   From: 2010.05.17/outbox.cif.g08.bks.cpg/sg53_18_cif.got.tgz:35374.got - 2010.06.03 12:45:16.
