data_PCOD9418835
_publ_section_title
;
Structure prediction by ZEFSAII (Michael W. Deem and Ramdas Pophale) SiO2 
 PCOD9418835
Probable space group: P M N A
;
_chemical_formula_sum "Si O2"
_cell_formula_units_Z 24
_cell_length_a 27.965688
_cell_length_b 4.989228
_cell_length_c 8.119838
_cell_angle_alpha 90.000000
_cell_angle_beta 90.000000
_cell_angle_gamma 90.000000
_cell_volume 1132.938209
_symmetry_space_group_name_H-M "P M N A"
_symmetry_group_IT_number 53
_symmetry_cell_setting 'orthorhombic'
loop_
_space_group_symop_operation_xyz
x,y,z
1/2-x,-y,1/2+z
x,-y,-z
1/2-x,y,1/2-z
-x,-y,-z
1/2+x,y,1/2-z
-x,y,z
1/2+x,-y,1/2+z
loop_
_atom_site_type_symbol
_atom_site_label
_atom_site_fract_x
_atom_site_fract_y
_atom_site_fract_z
Si Si1 0.144472 0.387186 0.183523
Si Si2 0.197832 0.114989 0.684384
Si Si3 0.445682 0.757692 0.883146
O O1 0.177835 0.128409 0.205321
O O2 0.091882 0.297302 0.240223
O O3 0.163886 0.627089 0.298917
O O4 0.145229 0.500000 0.000000
O O5 0.250000 0.194064 0.750000
O O6 0.200001 0.000000 0.500000
O O7 0.500000 0.816436 0.826165
O O8 0.447332 0.500000 0.000000
O O9 0.429215 0.000000 0.000000
#
# Coordination Sequence:
#
# PCOD9418835 Si02
#       3
#     8   8   8
#     4  12  24  40  63  93 126 161 204 254 309 365
#     4  12  25  43  64  89 123 163 207 253 306 366
#     4  10  21  39  63  90 122 162 206 251 305 366
#
# _framework density 21.183858000000001
#
# number of rings (size 3 to 8) (size 9 to 14) (size 15 to 20)
#    0.000    0.667    0.000   10.000    0.000    0.667 
#    0.000    0.000    0.000   10.000    0.000    0.000 
#    0.000    0.000    0.000    0.000    0.000    0.000 
#
# Total GULP energy -134437.354732 kJ/mol
# GULP energy per Si atom -5601.556447 kJ/mol
# Density = 2.113564 g / cm^3
# Si number density = 21.183858 Si / 1000 Ang^3
#
#
#
# Elastic Constant Matrix: (Units=GPa)
#
#
# Indices 1 2 3 4 5 6 
#
# 1 110.8862 12.5819 40.0461 0.0000 0.0000 0.0000
# 2 12.5819 113.6445 9.6636 0.0000 0.0000 0.0000
# 3 40.0461 9.6636 86.8903 0.0000 0.0000 0.0000
# 4 0.0000 0.0000 0.0000 34.5410 0.0000 0.0000
# 5 0.0000 0.0000 0.0000 0.0000 22.8167 0.0000
# 6 0.0000 0.0000 0.0000 0.0000 0.0000 -50.0349
#
#
#
# Elastic Compliance Matrix: (Units=1/GPa)
#
#
# Indices 1 2 3 4 5 6 
#
# 1 0.010888 -0.000786 -0.004931 0.000000 0.000000 0.000000
# 2 -0.000786 0.008940 -0.000632 0.000000 0.000000 0.000000
# 3 -0.004931 -0.000632 0.013852 0.000000 0.000000 0.000000
# 4 0.000000 0.000000 0.000000 0.028951 0.000000 0.000000
# 5 0.000000 0.000000 0.000000 0.000000 0.043827 0.000000
# 6 0.000000 0.000000 0.000000 0.000000 0.000000 -0.019986
#
#
# Mechanical properties :
#
#
# Convention : Reuss Voigt Hill
#
# Bulk Modulus (GPa) = 47.65959 48.44492 48.05226
# Shear Modulus (GPa) = 47.09688 18.07318 32.58503
#
# Velocity S-wave (km/s) = 4.72024 2.92406 3.92625
# Velocity P-wave (km/s) = 7.22873 5.85821 6.57925
#
# Compressibility (1/GPa) = 0.02098214
#
# Stress axis : x y z
#
# Youngs Moduli (GPa) = 91.84279 111.85492 72.19423
#
# Poissons Ratio (x) = 0.08794 0.35597
# Poissons Ratio (y) = 0.07221 0.04562
# Poissons Ratio (z) = 0.45285 0.07069
#
# Static dielectric constant tensor:
#      x y z
#    x 1.777040 0.000000 0.000000 
#    y 0.000000 1.678100 0.000000 
#    z 0.000000 0.000000 1.728160 
# 
# From -- ./inp_files/12022.got.cif
#   From: 2010.05.17/outbox.cif.g08.bks.cpg/sg53_7_cif.got.tgz:12022.got - 2010.06.03 12:45:16.
