data_PCOD9418550
_publ_section_title
;
Structure prediction by ZEFSAII (Michael W. Deem and Ramdas Pophale) SiO2 
 PCOD9418550
Probable space group: P M N A
;
_chemical_formula_sum "Si O2"
_cell_formula_units_Z 48
_cell_length_a 9.133435
_cell_length_b 27.751133
_cell_length_c 9.630037
_cell_angle_alpha 90.000000
_cell_angle_beta 90.000000
_cell_angle_gamma 90.000000
_cell_volume 2440.859700
_symmetry_space_group_name_H-M "P M N A"
_symmetry_group_IT_number 53
_symmetry_cell_setting 'orthorhombic'
loop_
_space_group_symop_operation_xyz
x,y,z
1/2-x,-y,1/2+z
x,-y,-z
1/2-x,y,1/2-z
-x,-y,-z
1/2+x,y,1/2-z
-x,y,z
1/2+x,-y,1/2+z
loop_
_atom_site_type_symbol
_atom_site_label
_atom_site_fract_x
_atom_site_fract_y
_atom_site_fract_z
Si Si1 0.500000 0.987646 0.839867
Si Si2 0.840341 0.830315 0.379630
Si Si3 0.500000 0.051604 0.568733
Si Si4 0.322440 0.721175 0.100368
Si Si5 0.825883 0.545292 0.601735
Si Si6 0.228349 0.094460 0.395838
Si Si7 0.822754 0.356689 0.097905
O O1 0.362980 0.951304 0.837370
O O2 0.500000 0.966522 0.267194
O O3 0.500000 0.000000 0.000000
O O4 0.750000 0.849575 0.250000
O O5 0.788420 0.777752 0.428765
O O6 0.847887 0.868402 0.501594
O O7 0.000000 0.821438 0.319136
O O8 0.361148 0.077264 0.495962
O O9 0.500000 0.000000 0.500000
O O10 0.250000 0.711466 0.250000
O O11 0.500000 0.714508 0.099459
O O12 0.242844 0.686240 0.993285
O O13 0.812379 0.500000 0.500000
O O14 0.750000 0.534742 0.750000
O O15 0.740695 0.592115 0.544151
O O16 0.000000 0.555819 0.620470
O O17 0.250000 0.121859 0.250000
O O18 0.750000 0.352341 0.250000
O O19 0.000000 0.356428 0.102548
#
# Coordination Sequence:
#
# PCOD9418550 Si02
#       7
#     4   8   4   8   8   8   8
#     4  12  28  44  66  92 126 166 208 252 307 372
#     4  10  24  44  66  93 124 161 203 252 313 371
#     4  12  26  46  64  96 128 162 206 258 303 366
#     4  10  21  41  65  91 124 161 208 264 319 385
#     4  10  21  37  58  87 126 170 218 269 325 386
#     4  12  25  44  66  93 125 162 204 250 307 368
#     4  11  22  38  62  93 126 168 216 268 328 386
#
# _framework density 19.665203000000002
#
# number of rings (size 3 to 8) (size 9 to 14) (size 15 to 20)
#    0.000    1.167    2.500    4.000    3.500    3.333 
#    0.000    1.667    0.000    0.000    0.000    0.000 
#    0.000    0.000    0.000    0.000    0.000    0.000 
#
# Total GULP energy -267327.997348 kJ/mol
# GULP energy per Si atom -5569.333278 kJ/mol
# Density = 1.962044 g / cm^3
# Si number density = 19.665203 Si / 1000 Ang^3
#
#
#
# Elastic Constant Matrix: (Units=GPa)
#
#
# Indices 1 2 3 4 5 6 
#
# 1 151.9100 59.1099 60.6267 0.0000 0.0000 0.0000
# 2 59.1099 73.4188 60.7195 0.0000 0.0000 0.0000
# 3 60.6267 60.7195 113.4658 0.0000 0.0000 0.0000
# 4 0.0000 0.0000 0.0000 39.5131 0.0000 0.0000
# 5 0.0000 0.0000 0.0000 0.0000 35.3162 0.0000
# 6 0.0000 0.0000 0.0000 0.0000 0.0000 109.9838
#
#
#
# Elastic Compliance Matrix: (Units=1/GPa)
#
#
# Indices 1 2 3 4 5 6 
#
# 1 0.009790 -0.006379 -0.001817 0.000000 0.000000 0.000000
# 2 -0.006379 0.028591 -0.011892 0.000000 0.000000 0.000000
# 3 -0.001817 -0.011892 0.016148 0.000000 0.000000 0.000000
# 4 0.000000 0.000000 0.000000 0.025308 0.000000 0.000000
# 5 0.000000 0.000000 0.000000 0.000000 0.028316 0.000000
# 6 0.000000 0.000000 0.000000 0.000000 0.000000 0.009092
#
#
# Mechanical properties :
#
#
# Convention : Reuss Voigt Hill
#
# Bulk Modulus (GPa) = 69.67201 77.74518 73.70860
# Shear Modulus (GPa) = 30.82496 47.51852 39.17174
#
# Velocity S-wave (km/s) = 3.96345 4.92100 4.46795
# Velocity P-wave (km/s) = 7.51340 8.47989 8.01123
#
# Compressibility (1/GPa) = 0.01435297
#
# Stress axis : x y z
#
# Youngs Moduli (GPa) = 102.14072 34.97585 61.92765
#
# Poissons Ratio (x) = 0.22312 0.11255
# Poissons Ratio (y) = 0.65158 0.73642
# Poissons Ratio (z) = 0.18563 0.41592
#
# Static dielectric constant tensor:
#      x y z
#    x 1.799310 0.000000 0.000000 
#    y 0.000000 1.801020 0.000000 
#    z 0.000000 0.000000 0.293920 
# 
# From -- ./inp_files/6850.got.cif
#   From: 2010.05.17/outbox.cif.g08.bks.cpg/sg53_4_cif.got.tgz:6850.got - 2010.06.03 12:45:16.
