data_PCOD9418531
_publ_section_title
;
Structure prediction by ZEFSAII (Michael W. Deem and Ramdas Pophale) SiO2 
 PCOD9418531
Probable space group: P M N A
;
_chemical_formula_sum "Si O2"
_cell_formula_units_Z 48
_cell_length_a 8.564868
_cell_length_b 31.806011
_cell_length_c 9.526903
_cell_angle_alpha 90.000000
_cell_angle_beta 90.000000
_cell_angle_gamma 90.000000
_cell_volume 2595.264477
_symmetry_space_group_name_H-M "P M N A"
_symmetry_group_IT_number 53
_symmetry_cell_setting 'orthorhombic'
loop_
_space_group_symop_operation_xyz
x,y,z
1/2-x,-y,1/2+z
x,-y,-z
1/2-x,y,1/2-z
-x,-y,-z
1/2+x,y,1/2-z
-x,y,z
1/2+x,-y,1/2+z
loop_
_atom_site_type_symbol
_atom_site_label
_atom_site_fract_x
_atom_site_fract_y
_atom_site_fract_z
Si Si1 0.811426 0.538868 0.593113
Si Si2 0.187400 0.959991 0.406783
Si Si3 0.688651 0.366943 0.091989
Si Si4 0.812395 0.792786 0.591748
Si Si5 0.813703 0.130562 0.908689
Si Si6 0.811404 0.711953 0.407856
O O1 0.755228 0.500000 0.500000
O O2 0.750000 0.533733 0.750000
O O3 0.763771 0.585896 0.546018
O O4 0.000000 0.538023 0.594208
O O5 0.250000 0.966449 0.250000
O O6 0.257316 0.915609 0.456452
O O7 0.000000 0.956394 0.404286
O O8 0.231412 0.000000 0.500000
O O9 0.750000 0.359892 0.250000
O O10 0.500000 0.365752 0.097581
O O11 0.741410 0.330574 0.986491
O O12 0.750000 0.790537 0.750000
O O13 0.750153 0.833699 0.511081
O O14 0.763410 0.751891 0.501827
O O15 0.000000 0.793999 0.595189
O O16 0.750000 0.136961 0.750000
O O17 0.000000 0.131773 0.904089
O O18 0.750000 0.714912 0.250000
O O19 0.000000 0.711613 0.402966
#
# Coordination Sequence:
#
# PCOD9418531 Si02
#       6
#     8   8   8   8   8   8
#     4   9  18  32  50  73 103 137 173 216 263 313
#     4  10  21  37  58  84 114 148 187 229 273 323
#     4   9  18  34  53  75 103 136 175 217 264 315
#     4  11  23  39  58  82 110 141 180 223 271 324
#     4  11  22  38  60  84 113 148 185 227 274 323
#     4  10  22  37  55  79 107 139 175 218 266 319
#
# _framework density 18.495225999999999
#
# number of rings (size 3 to 8) (size 9 to 14) (size 15 to 20)
#    0.000    2.000    0.000    4.500    0.000    6.333 
#    0.000    1.667    0.000    0.000    0.000    0.000 
#    0.000    0.000    0.000    0.000    0.000    0.000 
#
# Total GULP energy -268048.759315 kJ/mol
# GULP energy per Si atom -5584.349152 kJ/mol
# Density = 1.845313 g / cm^3
# Si number density = 18.495226 Si / 1000 Ang^3
#
#
#
# Elastic Constant Matrix: (Units=GPa)
#
#
# Indices 1 2 3 4 5 6 
#
# 1 48.0745 52.3863 35.9328 0.0000 0.0000 0.0000
# 2 52.3863 217.2054 130.9829 0.0000 0.0000 0.0000
# 3 35.9328 130.9829 130.6133 0.0000 0.0000 0.0000
# 4 0.0000 0.0000 0.0000 43.8713 0.0000 0.0000
# 5 0.0000 0.0000 0.0000 0.0000 34.7033 0.0000
# 6 0.0000 0.0000 0.0000 0.0000 0.0000 -15.2026
#
#
#
# Elastic Compliance Matrix: (Units=1/GPa)
#
#
# Indices 1 2 3 4 5 6 
#
# 1 0.028511 -0.005430 -0.002398 0.000000 0.000000 0.000000
# 2 -0.005430 0.012682 -0.011224 0.000000 0.000000 0.000000
# 3 -0.002398 -0.011224 0.019572 0.000000 0.000000 0.000000
# 4 0.000000 0.000000 0.000000 0.022794 0.000000 0.000000
# 5 0.000000 0.000000 0.000000 0.000000 0.028816 0.000000
# 6 0.000000 0.000000 0.000000 0.000000 0.000000 -0.065778
#
#
# Mechanical properties :
#
#
# Convention : Reuss Voigt Hill
#
# Bulk Modulus (GPa) = 44.13062 92.72191 68.42627
# Shear Modulus (GPa) = 54.19791 24.44714 39.32253
#
# Velocity S-wave (km/s) = 5.41916 3.63961 4.61596
# Velocity P-wave (km/s) = 7.94159 8.24039 8.09237
#
# Compressibility (1/GPa) = 0.02266000
#
# Stress axis : x y z
#
# Youngs Moduli (GPa) = 35.07460 78.85028 51.09373
#
# Poissons Ratio (x) = 0.42818 0.12252
# Poissons Ratio (y) = 0.19047 0.57349
# Poissons Ratio (z) = 0.08410 0.88503
#
# Static dielectric constant tensor:
#      x y z
#    x 1.624630 0.000000 0.000000 
#    y 0.000000 1.651770 0.000000 
#    z 0.000000 0.000000 1.591440 
# 
# From -- ./inp_files/6655.got.cif
#   From: 2010.05.17/outbox.cif.g08.bks.cpg/sg53_4_cif.got.tgz:6655.got - 2010.06.03 12:45:16.
