data_PCOD9418287
_publ_section_title
;
Structure prediction by ZEFSAII (Michael W. Deem and Ramdas Pophale) SiO2 
 PCOD9418287
Probable space group: P M N A
;
_chemical_formula_sum "Si O2"
_cell_formula_units_Z 48
_cell_length_a 8.354842
_cell_length_b 31.857272
_cell_length_c 9.347075
_cell_angle_alpha 90.000000
_cell_angle_beta 90.000000
_cell_angle_gamma 90.000000
_cell_volume 2487.840608
_symmetry_space_group_name_H-M "P M N A"
_symmetry_group_IT_number 53
_symmetry_cell_setting 'orthorhombic'
loop_
_space_group_symop_operation_xyz
x,y,z
1/2-x,-y,1/2+z
x,-y,-z
1/2-x,y,1/2-z
-x,-y,-z
1/2+x,y,1/2-z
-x,y,z
1/2+x,-y,1/2+z
loop_
_atom_site_type_symbol
_atom_site_label
_atom_site_fract_x
_atom_site_fract_y
_atom_site_fract_z
Si Si1 0.693439 0.284524 0.912034
Si Si2 0.806521 0.459216 0.411792
Si Si3 0.693383 0.378836 0.911764
Si Si4 0.191907 0.958798 0.913381
Si Si5 0.191830 0.877811 0.413002
Si Si6 0.306474 0.204102 0.087798
O O1 0.750000 0.276509 0.750000
O O2 0.500000 0.284212 0.912033
O O3 0.746673 0.331695 0.952966
O O4 0.749376 0.247742 0.016808
O O5 0.751901 0.500000 0.500000
O O6 0.750000 0.461754 0.250000
O O7 0.750017 0.416217 0.486533
O O8 0.000000 0.459029 0.414216
O O9 0.750000 0.386531 0.750000
O O10 0.500000 0.379021 0.912675
O O11 0.250000 0.959402 0.750000
O O12 0.000000 0.958948 0.912659
O O13 0.249925 0.917549 0.996134
O O14 0.248141 0.000000 0.000000
O O15 0.250000 0.879911 0.250000
O O16 0.247524 0.835121 0.490995
O O17 0.000000 0.877818 0.412398
O O18 0.250000 0.199654 0.250000
O O19 0.500000 0.204182 0.087209
#
# Coordination Sequence:
#
# PCOD9418287 Si02
#       6
#     8   8   8   8   8   8
#     4   9  18  34  54  77 105 137 175 217 262 313
#     4  10  21  35  51  74 103 134 171 215 261 311
#     4   9  18  33  53  76 103 135 172 215 261 312
#     4  11  24  41  62  88 118 151 187 228 273 322
#     4  11  23  39  60  85 113 146 185 228 275 326
#     4  10  22  37  54  79 110 143 179 222 269 318
#
# _framework density 19.293841
#
# number of rings (size 3 to 8) (size 9 to 14) (size 15 to 20)
#    0.000    2.000    0.000    3.000    0.000    7.667 
#    0.000    0.000    0.000    0.000    0.000    0.000 
#    0.000    0.000    0.000    0.000    0.000    0.000 
#
# Total GULP energy -268145.400928 kJ/mol
# GULP energy per Si atom -5586.362519 kJ/mol
# Density = 1.924993 g / cm^3
# Si number density = 19.293841 Si / 1000 Ang^3
#
#
#
# Elastic Constant Matrix: (Units=GPa)
#
#
# Indices 1 2 3 4 5 6 
#
# 1 14.2058 28.2114 21.0616 0.0000 0.0000 0.0000
# 2 28.2114 195.2159 136.4744 0.0000 0.0000 0.0000
# 3 21.0616 136.4744 188.7873 0.0000 0.0000 0.0000
# 4 0.0000 0.0000 0.0000 44.3390 0.0000 0.0000
# 5 0.0000 0.0000 0.0000 0.0000 37.9293 0.0000
# 6 0.0000 0.0000 0.0000 0.0000 0.0000 563.2784
#
#
#
# Elastic Compliance Matrix: (Units=1/GPa)
#
#
# Indices 1 2 3 4 5 6 
#
# 1 0.098915 -0.013303 -0.001419 0.000000 0.000000 0.000000
# 2 -0.013303 0.012146 -0.007296 0.000000 0.000000 0.000000
# 3 -0.001419 -0.007296 0.010729 0.000000 0.000000 0.000000
# 4 0.000000 0.000000 0.000000 0.022554 0.000000 0.000000
# 5 0.000000 0.000000 0.000000 0.000000 0.026365 0.000000
# 6 0.000000 0.000000 0.000000 0.000000 0.000000 0.001775
#
#
# Mechanical properties :
#
#
# Convention : Reuss Voigt Hill
#
# Bulk Modulus (GPa) = 12.86082 85.52263 49.19173
# Shear Modulus (GPa) = 20.62389 143.27344 81.94867
#
# Velocity S-wave (km/s) = 3.27301 8.62669 6.52428
# Velocity P-wave (km/s) = 4.57861 11.98537 9.07229
#
# Compressibility (1/GPa) = 0.07775556
#
# Stress axis : x y z
#
# Youngs Moduli (GPa) = 10.10965 82.33498 93.20165
#
# Poissons Ratio (x) = 1.09530 0.13221
# Poissons Ratio (y) = 0.13449 0.67999
# Poissons Ratio (z) = 0.01434 0.60071
#
# Static dielectric constant tensor:
#      x y z
#    x 1.664460 0.000000 0.000000 
#    y 0.000000 1.687670 0.000000 
#    z 0.000000 0.000000 1.613960 
# 
# From -- ./inp_files/6626.got.cif
#   From: 2010.05.17/outbox.cif.g08.bks.cpg/sg53_4_cif.got.tgz:6626.got - 2010.06.03 12:45:16.
