data_PCOD9418979
_publ_section_title
;
Structure prediction by ZEFSAII (Michael W. Deem and Ramdas Pophale) SiO2 
 PCOD9418979
Probable space group: P M N A
;
_chemical_formula_sum "Si O2"
_cell_formula_units_Z 32
_cell_length_a 5.531594
_cell_length_b 8.582601
_cell_length_c 25.786708
_cell_angle_alpha 90.000000
_cell_angle_beta 90.000000
_cell_angle_gamma 90.000000
_cell_volume 1224.235932
_symmetry_space_group_name_H-M "P M N A"
_symmetry_group_IT_number 53
_symmetry_cell_setting 'orthorhombic'
loop_
_space_group_symop_operation_xyz
x,y,z
1/2-x,-y,1/2+z
x,-y,-z
1/2-x,y,1/2-z
-x,-y,-z
1/2+x,y,1/2-z
-x,y,z
1/2+x,-y,1/2+z
loop_
_atom_site_type_symbol
_atom_site_label
_atom_site_fract_x
_atom_site_fract_y
_atom_site_fract_z
Si Si1 0.000000 0.959527 0.315227
Si Si2 0.500000 0.828517 0.523446
Si Si3 0.000000 0.952141 0.119379
Si Si4 0.500000 0.427535 0.106494
Si Si5 0.500000 0.688999 0.780206
Si Si6 0.000000 0.612927 0.106522
Si Si7 0.000000 0.182412 0.476934
Si Si8 0.000000 0.313199 0.769981
O O1 0.000000 0.132853 0.297092
O O2 0.000000 0.251001 0.417624
O O3 0.751360 0.940449 0.348250
O O4 0.745927 0.748501 0.507426
O O5 0.500000 0.000000 0.500000
O O6 0.500000 0.889408 0.584416
O O7 0.000000 0.791661 0.086610
O O8 0.500000 0.412051 0.168023
O O9 0.752042 0.518881 0.093642
O O10 0.500000 0.848221 0.235419
O O11 0.750000 0.675585 0.750000
O O12 0.000000 0.651608 0.168771
O O13 0.000000 0.000000 0.500000
O O14 0.250000 0.379849 0.750000
#
# Coordination Sequence:
#
# PCOD9418979 Si02
#       8
#     4   4   4   4   4   4   4   4
#     4  12  23  41  65  95 127 173 236 293 324 374
#     4  10  21  40  72 105 131 160 218 280 358 417
#     4  12  23  40  65 101 130 176 228 276 337 399
#     4  12  26  45  64  98 138 182 231 272 342 422
#     4  12  26  42  61  93 137 179 221 293 332 383
#     4  12  26  40  64  92 138 189 222 269 327 414
#     4  10  22  45  76 100 124 171 221 294 354 412
#     4  12  21  39  59  89 127 183 235 271 313 375
#
# _framework density 26.138753000000001
#
# number of rings (size 3 to 8) (size 9 to 14) (size 15 to 20)
#    0.000    0.500    2.500    6.750    0.000    3.000 
#    0.000    0.000    0.000   18.000    0.000    0.000 
#    0.000    0.000    0.000    0.000    0.000    0.000 
#
# Total GULP energy -178325.088119 kJ/mol
# GULP energy per Si atom -5572.659004 kJ/mol
# Density = 2.607926 g / cm^3
# Si number density = 26.138753 Si / 1000 Ang^3
#
#
#
# Elastic Constant Matrix: (Units=GPa)
#
#
# Indices 1 2 3 4 5 6 
#
# 1 316.0780 41.3594 47.8744 0.0000 0.0000 0.0000
# 2 41.3594 134.0172 21.6823 0.0000 0.0000 0.0000
# 3 47.8744 21.6823 115.1379 0.0000 0.0000 0.0000
# 4 0.0000 0.0000 0.0000 57.4563 0.0000 0.0000
# 5 0.0000 0.0000 0.0000 0.0000 33.0014 0.0000
# 6 0.0000 0.0000 0.0000 0.0000 0.0000 270.0601
#
#
#
# Elastic Compliance Matrix: (Units=1/GPa)
#
#
# Indices 1 2 3 4 5 6 
#
# 1 0.003471 -0.000864 -0.001280 0.000000 0.000000 0.000000
# 2 -0.000864 0.007911 -0.001131 0.000000 0.000000 0.000000
# 3 -0.001280 -0.001131 0.009431 0.000000 0.000000 0.000000
# 4 0.000000 0.000000 0.000000 0.017405 0.000000 0.000000
# 5 0.000000 0.000000 0.000000 0.000000 0.030302 0.000000
# 6 0.000000 0.000000 0.000000 0.000000 0.000000 0.003703
#
#
# Mechanical properties :
#
#
# Convention : Reuss Voigt Hill
#
# Bulk Modulus (GPa) = 70.11340 87.45169 78.78254
# Shear Modulus (GPa) = 59.86163 102.39137 81.12650
#
# Velocity S-wave (km/s) = 4.79074 6.26556 5.57712
# Velocity P-wave (km/s) = 7.58178 9.26674 8.46628
#
# Compressibility (1/GPa) = 0.01426261
#
# Stress axis : x y z
#
# Youngs Moduli (GPa) = 288.12055 126.40190 106.03831
#
# Poissons Ratio (x) = 0.10921 0.13578
# Poissons Ratio (y) = 0.24893 0.11988
# Poissons Ratio (z) = 0.36892 0.14291
#
# Static dielectric constant tensor:
#      x y z
#    x 2.050890 0.000000 0.000000 
#    y 0.000000 2.078990 0.000000 
#    z 0.000000 0.000000 2.181980 
# 
# From -- ./inp_files/37366.got.cif
#   From: 2010.05.17/outbox.cif.g08.bks.cpg/sg53_19_cif.got.tgz:37366.got - 2010.06.03 12:45:16.
