data_PCOD9418733
_publ_section_title
;
Structure prediction by ZEFSAII (Michael W. Deem and Ramdas Pophale) SiO2 
 PCOD9418733
Probable space group: P M N A
;
_chemical_formula_sum "Si O2"
_cell_formula_units_Z 64
_cell_length_a 8.750335
_cell_length_b 13.157891
_cell_length_c 28.721919
_cell_angle_alpha 90.000000
_cell_angle_beta 90.000000
_cell_angle_gamma 90.000000
_cell_volume 3306.925549
_symmetry_space_group_name_H-M "P M N A"
_symmetry_group_IT_number 53
_symmetry_cell_setting 'orthorhombic'
loop_
_space_group_symop_operation_xyz
x,y,z
1/2-x,-y,1/2+z
x,-y,-z
1/2-x,y,1/2-z
-x,-y,-z
1/2+x,y,1/2-z
-x,y,z
1/2+x,-y,1/2+z
loop_
_atom_site_type_symbol
_atom_site_label
_atom_site_fract_x
_atom_site_fract_y
_atom_site_fract_z
Si Si1 0.683350 0.638484 0.641631
Si Si2 0.316200 0.578876 0.137967
Si Si3 0.817970 0.237169 0.801822
Si Si4 0.315925 0.402088 0.970003
Si Si5 0.181990 0.736636 0.955134
Si Si6 0.816861 0.958075 0.352308
Si Si7 0.183905 0.042344 0.449640
Si Si8 0.183097 0.828001 0.698349
O O1 0.500000 0.633720 0.645065
O O2 0.756077 0.530703 0.654400
O O3 0.725941 0.664190 0.588069
O O4 0.745047 0.731410 0.672320
O O5 0.500000 0.581148 0.139912
O O6 0.248712 0.668990 0.168796
O O7 0.268310 0.592374 0.083752
O O8 0.750000 0.238274 0.750000
O O9 0.768140 0.132949 0.826935
O O10 0.000000 0.244006 0.799637
O O11 0.500000 0.400642 0.970899
O O12 0.263783 0.500000 0.000000
O O13 0.254923 0.304711 0.997522
O O14 0.240789 0.848371 0.943227
O O15 0.000000 0.736471 0.959074
O O16 0.000000 0.940971 0.348669
O O17 0.776013 0.969172 0.406740
O O18 0.782874 0.066973 0.328704
O O19 0.000000 0.055007 0.448551
O O20 0.227734 0.000000 0.500000
O O21 0.250000 0.834788 0.750000
O O22 0.000000 0.816600 0.699640
#
# Coordination Sequence:
#
# PCOD9418733 Si02
#       8
#     8   8   8   8   8   8   8   8
#     4  11  23  40  62  93 130 167 208 258 319 381
#     4  11  24  43  68  95 128 170 219 268 318 379
#     4  12  27  47  70  95 128 168 217 272 329 387
#     4  10  21  38  62  91 123 166 213 252 301 370
#     4  11  23  37  59  90 129 167 205 258 315 372
#     4  10  22  42  67  96 129 168 215 261 315 378
#     4  10  22  40  63  92 128 171 213 254 306 374
#     4  11  23  40  65  94 124 159 205 260 316 379
#
# _framework density 19.353323
#
# number of rings (size 3 to 8) (size 9 to 14) (size 15 to 20)
#    0.000    1.250    2.500    3.000    1.750    5.500 
#    0.000    2.500    0.000    0.000    0.000    0.000 
#    0.000    0.000    0.000    0.000    0.000    0.000 
#
# Total GULP energy -357909.661246 kJ/mol
# GULP energy per Si atom -5592.338457 kJ/mol
# Density = 1.930927 g / cm^3
# Si number density = 19.353323 Si / 1000 Ang^3
#
#
#
# Elastic Constant Matrix: (Units=GPa)
#
#
# Indices 1 2 3 4 5 6 
#
# 1 60.3722 58.3757 54.4724 0.0000 0.0000 0.0000
# 2 58.3757 133.7212 73.9014 0.0000 0.0000 0.0000
# 3 54.4724 73.9014 148.8354 0.0000 0.0000 0.0000
# 4 0.0000 0.0000 0.0000 25.7110 0.0000 0.0000
# 5 0.0000 0.0000 0.0000 0.0000 15.0556 0.0000
# 6 0.0000 0.0000 0.0000 0.0000 0.0000 129.4256
#
#
#
# Elastic Compliance Matrix: (Units=1/GPa)
#
#
# Indices 1 2 3 4 5 6 
#
# 1 0.032981 -0.010649 -0.006783 0.000000 0.000000 0.000000
# 2 -0.010649 0.013745 -0.002927 0.000000 0.000000 0.000000
# 3 -0.006783 -0.002927 0.010655 0.000000 0.000000 0.000000
# 4 0.000000 0.000000 0.000000 0.038894 0.000000 0.000000
# 5 0.000000 0.000000 0.000000 0.000000 0.066420 0.000000
# 6 0.000000 0.000000 0.000000 0.000000 0.000000 0.007726
#
#
# Mechanical properties :
#
#
# Convention : Reuss Voigt Hill
#
# Bulk Modulus (GPa) = 60.01761 79.60308 69.81035
# Shear Modulus (GPa) = 23.07395 44.45040 33.76218
#
# Velocity S-wave (km/s) = 3.45664 4.79768 4.18127
# Velocity P-wave (km/s) = 6.85638 8.48004 7.71106
#
# Compressibility (1/GPa) = 0.01666178
#
# Stress axis : x y z
#
# Youngs Moduli (GPa) = 30.32032 72.75450 93.85353
#
# Poissons Ratio (x) = 0.77477 0.63663
# Poissons Ratio (y) = 0.32288 0.27473
# Poissons Ratio (z) = 0.20567 0.21297
#
# Static dielectric constant tensor:
#      x y z
#    x 1.648040 0.000000 0.000000 
#    y 0.000000 1.651640 0.000000 
#    z 0.000000 0.000000 1.672960 
# 
# From -- ./inp_files/38272.got.cif
#   From: 2010.05.17/outbox.cif.g08.bks.cpg/sg53_20_cif.got.tgz:38272.got - 2010.06.03 12:45:16.
