data_PCOD9418273
_publ_section_title
;
Structure prediction by ZEFSAII (Michael W. Deem and Ramdas Pophale) SiO2 
 PCOD9418273
Probable space group: P M N A
;
_chemical_formula_sum "Si O2"
_cell_formula_units_Z 48
_cell_length_a 7.490037
_cell_length_b 33.097551
_cell_length_c 9.087716
_cell_angle_alpha 90.000000
_cell_angle_beta 90.000000
_cell_angle_gamma 90.000000
_cell_volume 2252.861896
_symmetry_space_group_name_H-M "P M N A"
_symmetry_group_IT_number 53
_symmetry_cell_setting 'orthorhombic'
loop_
_space_group_symop_operation_xyz
x,y,z
1/2-x,-y,1/2+z
x,-y,-z
1/2-x,y,1/2-z
-x,-y,-z
1/2+x,y,1/2-z
-x,y,z
1/2+x,-y,1/2+z
loop_
_atom_site_type_symbol
_atom_site_label
_atom_site_fract_x
_atom_site_fract_y
_atom_site_fract_z
Si Si1 0.285981 0.703506 0.422623
Si Si2 0.714016 0.459258 0.576892
Si Si3 0.714200 0.040377 0.423902
Si Si4 0.714300 0.784558 0.575631
Si Si5 0.213684 0.127737 0.074555
Si Si6 0.713986 0.377815 0.422980
O O1 0.250000 0.701041 0.250000
O O2 0.500000 0.704067 0.443687
O O3 0.216024 0.745371 0.490985
O O4 0.216708 0.663558 0.504797
O O5 0.783329 0.500000 0.500000
O O6 0.750000 0.459582 0.750000
O O7 0.500000 0.459200 0.556699
O O8 0.783352 0.418242 0.501978
O O9 0.750000 0.038093 0.250000
O O10 0.500000 0.040813 0.444404
O O11 0.782178 0.084191 0.479903
O O12 0.785318 0.000000 0.500000
O O13 0.750000 0.780547 0.750000
O O14 0.500000 0.785488 0.557979
O O15 0.782587 0.828584 0.522512
O O16 0.250000 0.127687 0.250000
O O17 0.000000 0.127698 0.053347
O O18 0.750000 0.378925 0.250000
O O19 0.500000 0.377608 0.443395
#
# Coordination Sequence:
#
# PCOD9418273 Si02
#       6
#     8   8   8   8   8   8
#     4  10  21  35  50  71  99 129 160 194 235 284
#     4  10  21  36  54  78 106 135 169 206 244 289
#     4   9  17  29  45  65  89 118 151 187 229 275
#     4   9  17  30  49  71  92 117 153 194 233 276
#     4   8  14  26  44  64  87 115 148 187 228 271
#     4  10  21  36  54  77 102 129 165 205 243 286
#
# _framework density 21.306232000000001
#
# number of rings (size 3 to 8) (size 9 to 14) (size 15 to 20)
#    0.000    2.667    0.000    1.500    0.000    2.667 
#    0.000    0.833    0.000    0.000    0.000    0.000 
#    0.000    0.000    0.000    0.000    0.000    0.000 
#
# Total GULP energy -267801.274658 kJ/mol
# GULP energy per Si atom -5579.193222 kJ/mol
# Density = 2.125774 g / cm^3
# Si number density = 21.306232 Si / 1000 Ang^3
#
#
#
# Elastic Constant Matrix: (Units=GPa)
#
#
# Indices 1 2 3 4 5 6 
#
# 1 63.6880 16.3721 -12.0339 0.0000 0.0000 0.0000
# 2 16.3721 303.0495 116.5523 0.0000 0.0000 0.0000
# 3 -12.0339 116.5523 112.5583 0.0000 0.0000 0.0000
# 4 0.0000 0.0000 0.0000 -157.9689 0.0000 0.0000
# 5 0.0000 0.0000 0.0000 0.0000 23.4959 0.0000
# 6 0.0000 0.0000 0.0000 0.0000 0.0000 -3.6830
#
#
#
# Elastic Compliance Matrix: (Units=1/GPa)
#
#
# Indices 1 2 3 4 5 6 
#
# 1 0.017288 -0.002733 0.004679 0.000000 0.000000 0.000000
# 2 -0.002733 0.005916 -0.006418 0.000000 0.000000 0.000000
# 3 0.004679 -0.006418 0.016030 0.000000 0.000000 0.000000
# 4 0.000000 0.000000 0.000000 -0.006330 0.000000 0.000000
# 5 0.000000 0.000000 0.000000 0.000000 0.042561 0.000000
# 6 0.000000 0.000000 0.000000 0.000000 0.000000 -0.271518
#
#
# Mechanical properties :
#
#
# Convention : Reuss Voigt Hill
#
# Bulk Modulus (GPa) = 33.01531 80.11966 56.56748
# Shear Modulus (GPa) = -28.24677 -3.73753 -15.99215
#
# Velocity S-wave (km/s) = -3.64504 -1.32590 -2.74265
# Velocity P-wave (km/s) = 1.47845 5.94487 4.07159
#
# Compressibility (1/GPa) = 0.03028898
#
# Stress axis : x y z
#
# Youngs Moduli (GPa) = 57.84270 169.03915 62.38239
#
# Poissons Ratio (x) = 0.46206 -0.29187
# Poissons Ratio (y) = 0.15811 0.40037
# Poissons Ratio (z) = -0.27063 1.08488
#
# Static dielectric constant tensor:
#      x y z
#    x 1.773470 0.000000 0.000000 
#    y 0.000000 1.834170 0.000000 
#    z 0.000000 0.000000 1.685540 
# 
# From -- ./inp_files/6584.got.cif
#   From: 2010.05.17/outbox.cif.g08.bks.cpg/sg53_4_cif.got.tgz:6584.got - 2010.06.03 12:45:16.
