data_PCOD9418224
_publ_section_title
;
Structure prediction by ZEFSAII (Michael W. Deem and Ramdas Pophale) SiO2 
 PCOD9418224
Probable space group: P M N A
;
_chemical_formula_sum "Si O2"
_cell_formula_units_Z 40
_cell_length_a 18.153347
_cell_length_b 8.013784
_cell_length_c 12.612131
_cell_angle_alpha 90.000000
_cell_angle_beta 90.000000
_cell_angle_gamma 90.000000
_cell_volume 1834.775003
_symmetry_space_group_name_H-M "P M N A"
_symmetry_group_IT_number 53
_symmetry_cell_setting 'orthorhombic'
loop_
_space_group_symop_operation_xyz
x,y,z
1/2-x,-y,1/2+z
x,-y,-z
1/2-x,y,1/2-z
-x,-y,-z
1/2+x,y,1/2-z
-x,y,z
1/2+x,-y,1/2+z
loop_
_atom_site_type_symbol
_atom_site_label
_atom_site_fract_x
_atom_site_fract_y
_atom_site_fract_z
Si Si1 0.587382 0.870524 0.639528
Si Si2 0.145359 0.233056 0.924254
Si Si3 0.811022 0.815264 0.455593
Si Si4 0.416058 0.310377 0.138075
Si Si5 0.917119 0.311851 0.712446
O O1 0.500000 0.904321 0.632969
O O2 0.610079 0.755442 0.540244
O O3 0.602326 0.785965 0.752596
O O4 0.630171 0.043334 0.618008
O O5 0.232041 0.264631 0.932305
O O6 0.106660 0.338877 0.833458
O O7 0.858477 0.728742 0.546987
O O8 0.860639 0.805879 0.350174
O O9 0.797124 0.000000 0.500000
O O10 0.500000 0.261712 0.106852
O O11 0.416042 0.507505 0.158654
O O12 0.000000 0.242994 0.707846
#
# Coordination Sequence:
#
# PCOD9418224 Si02
#       5
#     8   8   8   8   8
#     4  10  20  41  70  94 123 168 213 258 309 374
#     4  11  22  41  61  99 129 164 207 261 318 373
#     4  12  24  42  63  95 131 165 209 260 322 374
#     4  10  24  44  66  93 126 168 215 261 311 376
#     4  11  24  44  67  92 127 169 216 262 309 377
#
# _framework density 21.801037999999998
#
# number of rings (size 3 to 8) (size 9 to 14) (size 15 to 20)
#    0.000    1.200    2.000    5.400    0.000    6.400 
#   10.800    3.000    0.000    0.000    0.000    0.000 
#    0.000    0.000    0.000    0.000    0.000    0.000 
#
# Total GULP energy -223817.505935 kJ/mol
# GULP energy per Si atom -5595.437648 kJ/mol
# Density = 2.175142 g / cm^3
# Si number density = 21.801038 Si / 1000 Ang^3
#
#
#
# Elastic Constant Matrix: (Units=GPa)
#
#
# Indices 1 2 3 4 5 6 
#
# 1 121.0828 -2.0290 53.9193 0.0000 0.0000 0.0000
# 2 -2.0290 9.2330 -5.4332 0.0000 0.0000 0.0000
# 3 53.9193 -5.4332 111.4374 0.0000 0.0000 0.0000
# 4 0.0000 0.0000 0.0000 35.9552 0.0000 0.0000
# 5 0.0000 0.0000 0.0000 0.0000 -42.1048 0.0000
# 6 0.0000 0.0000 0.0000 0.0000 0.0000 47.3553
#
#
#
# Elastic Compliance Matrix: (Units=1/GPa)
#
#
# Indices 1 2 3 4 5 6 
#
# 1 0.010531 -0.000704 -0.005130 0.000000 0.000000 0.000000
# 2 -0.000704 0.111553 0.005780 0.000000 0.000000 0.000000
# 3 -0.005130 0.005780 0.011738 0.000000 0.000000 0.000000
# 4 0.000000 0.000000 0.000000 0.027812 0.000000 0.000000
# 5 0.000000 0.000000 0.000000 0.000000 -0.023750 0.000000
# 6 0.000000 0.000000 0.000000 0.000000 0.000000 0.021117
#
#
# Mechanical properties :
#
#
# Convention : Reuss Voigt Hill
#
# Bulk Modulus (GPa) = 7.47870 37.18525 22.33198
# Shear Modulus (GPa) = 24.54807 21.26088 22.90447
#
# Velocity S-wave (km/s) = 3.35924 3.12624 3.24483
# Velocity P-wave (km/s) = 4.29929 5.48861 4.92995
#
# Compressibility (1/GPa) = 0.13371299
#
# Stress axis : x y z
#
# Youngs Moduli (GPa) = 94.95369 8.96432 85.19620
#
# Poissons Ratio (x) = 0.00631 0.43706
# Poissons Ratio (y) = 0.06689 -0.49241
# Poissons Ratio (z) = 0.48711 -0.05181
#
# Static dielectric constant tensor:
#      x y z
#    x 1.767430 0.000000 0.000000 
#    y 0.000000 1.822280 0.000000 
#    z 0.000000 0.000000 1.800690 
# 
# From -- ./inp_files/16663.got.cif
#   From: 2010.05.17/outbox.cif.g08.bks.cpg/sg53_9_cif.got.tgz:16663.got - 2010.06.03 12:45:16.
