data_PCOD9418500
_publ_section_title
;
Structure prediction by ZEFSAII (Michael W. Deem and Ramdas Pophale) SiO2 
 PCOD9418500
Probable space group: P M N A
;
_chemical_formula_sum "Si O2"
_cell_formula_units_Z 32
_cell_length_a 8.640310
_cell_length_b 21.158680
_cell_length_c 9.150143
_cell_angle_alpha 90.000000
_cell_angle_beta 90.000000
_cell_angle_gamma 90.000000
_cell_volume 1672.806766
_symmetry_space_group_name_H-M "P M N A"
_symmetry_group_IT_number 53
_symmetry_cell_setting 'orthorhombic'
loop_
_space_group_symop_operation_xyz
x,y,z
1/2-x,-y,1/2+z
x,-y,-z
1/2-x,y,1/2-z
-x,-y,-z
1/2+x,y,1/2-z
-x,y,z
1/2+x,-y,1/2+z
loop_
_atom_site_type_symbol
_atom_site_label
_atom_site_fract_x
_atom_site_fract_y
_atom_site_fract_z
Si Si1 0.813976 0.684660 0.913969
Si Si2 0.813194 0.811249 0.086252
Si Si3 0.312927 0.936984 0.586182
Si Si4 0.314233 0.563928 0.086106
O O1 0.750000 0.684597 0.750000
O O2 0.000000 0.682535 0.909848
O O3 0.765733 0.748664 0.997742
O O4 0.751924 0.624261 0.001285
O O5 0.750000 0.810163 0.250000
O O6 0.000000 0.811822 0.092430
O O7 0.762575 0.874348 0.001025
O O8 0.250000 0.936828 0.750000
O O9 0.500000 0.936785 0.591808
O O10 0.263622 0.000000 0.500000
O O11 0.250000 0.562004 0.250000
O O12 0.500000 0.568050 0.090374
O O13 0.271024 0.500000 0.000000
#
# Coordination Sequence:
#
# PCOD9418500 Si02
#       4
#     8   8   8   8
#     4  11  23  39  60  86 117 152 192 237 286 341
#     4  10  22  38  57  84 115 149 190 235 283 337
#     4  10  21  37  57  83 114 148 189 234 281 335
#     4  11  24  41  62  88 118 152 191 236 285 339
#
# _framework density 19.129525000000001
#
# number of rings (size 3 to 8) (size 9 to 14) (size 15 to 20)
#    0.000    1.500    0.000    4.500    0.000    9.500 
#    0.000    0.000    0.000    0.000    0.000    0.000 
#    0.000    0.000    0.000    0.000    0.000    0.000 
#
# Total GULP energy -178980.793797 kJ/mol
# GULP energy per Si atom -5593.149806 kJ/mol
# Density = 1.908599 g / cm^3
# Si number density = 19.129525 Si / 1000 Ang^3
#
#
#
# Elastic Constant Matrix: (Units=GPa)
#
#
# Indices 1 2 3 4 5 6 
#
# 1 30.1511 56.0625 48.7653 0.0000 0.0000 0.0000
# 2 56.0625 242.1622 148.9614 0.0000 0.0000 0.0000
# 3 48.7653 148.9614 243.4786 0.0000 0.0000 0.0000
# 4 0.0000 0.0000 0.0000 57.7142 0.0000 0.0000
# 5 0.0000 0.0000 0.0000 0.0000 44.3591 0.0000
# 6 0.0000 0.0000 0.0000 0.0000 0.0000 -13.8506
#
#
#
# Elastic Compliance Matrix: (Units=1/GPa)
#
#
# Indices 1 2 3 4 5 6 
#
# 1 0.063174 -0.010971 -0.005941 0.000000 0.000000 0.000000
# 2 -0.010971 0.008527 -0.003019 0.000000 0.000000 0.000000
# 3 -0.005941 -0.003019 0.007144 0.000000 0.000000 0.000000
# 4 0.000000 0.000000 0.000000 0.017327 0.000000 0.000000
# 5 0.000000 0.000000 0.000000 0.000000 0.022543 0.000000
# 6 0.000000 0.000000 0.000000 0.000000 0.000000 -0.072199
#
#
# Mechanical properties :
#
#
# Convention : Reuss Voigt Hill
#
# Bulk Modulus (GPa) = 25.65247 113.70783 69.68015
# Shear Modulus (GPa) = 50.31625 35.11137 42.71381
#
# Velocity S-wave (km/s) = 5.13420 4.28887 4.73046
# Velocity P-wave (km/s) = 6.97034 9.17038 8.14499
#
# Compressibility (1/GPa) = 0.03898261
#
# Stress axis : x y z
#
# Youngs Moduli (GPa) = 15.82938 117.28064 139.97369
#
# Poissons Ratio (x) = 1.28667 0.83155
# Poissons Ratio (y) = 0.17366 0.42262
# Poissons Ratio (z) = 0.09404 0.35410
#
# Static dielectric constant tensor:
#      x y z
#    x 1.650360 0.000000 0.000000 
#    y 0.000000 1.652610 0.000000 
#    z 0.000000 0.000000 1.603750 
# 
# From -- ./inp_files/6022.got.cif
#   From: 2010.05.17/outbox.cif.g08.bks.cpg/sg53_4_cif.got.tgz:6022.got - 2010.06.03 12:45:16.
