data_PCOD9418969
_publ_section_title
;
Structure prediction by ZEFSAII (Michael W. Deem and Ramdas Pophale) SiO2 
 PCOD9418969
Probable space group: P M N A
;
_chemical_formula_sum "Si O2"
_cell_formula_units_Z 48
_cell_length_a 17.850901
_cell_length_b 10.124336
_cell_length_c 13.513034
_cell_angle_alpha 90.000000
_cell_angle_beta 90.000000
_cell_angle_gamma 90.000000
_cell_volume 2442.190630
_symmetry_space_group_name_H-M "P M N A"
_symmetry_group_IT_number 53
_symmetry_cell_setting 'orthorhombic'
loop_
_space_group_symop_operation_xyz
x,y,z
1/2-x,-y,1/2+z
x,-y,-z
1/2-x,y,1/2-z
-x,-y,-z
1/2+x,y,1/2-z
-x,y,z
1/2+x,-y,1/2+z
loop_
_atom_site_type_symbol
_atom_site_label
_atom_site_fract_x
_atom_site_fract_y
_atom_site_fract_z
Si Si1 0.410559 0.244826 0.865240
Si Si2 0.413257 0.485457 0.236638
Si Si3 0.089140 0.122986 0.068602
Si Si4 0.589571 0.949662 0.797358
Si Si5 0.849403 0.291815 0.418106
Si Si6 0.179422 0.381752 0.078276
O O1 0.500000 0.245266 0.885531
O O2 0.396342 0.362515 0.788131
O O3 0.391266 0.100638 0.823238
O O4 0.368816 0.277055 0.966915
O O5 0.500000 0.472481 0.267484
O O6 0.400439 0.400013 0.137492
O O7 0.359710 0.428889 0.320753
O O8 0.103631 0.085576 0.182990
O O9 0.133556 0.254407 0.041695
O O10 0.000000 0.145431 0.057757
O O11 0.110188 0.000000 0.000000
O O12 0.500000 0.932596 0.814996
O O13 0.633644 0.847222 0.865459
O O14 0.764475 0.337891 0.404518
O O15 0.177002 0.500000 0.000000
#
# Coordination Sequence:
#
# PCOD9418969 Si02
#       6
#     8   8   8   8   8   8
#     4  10  22  39  67 101 130 164 212 271 324 384
#     4  11  23  41  67  95 126 167 218 269 324 379
#     4  10  23  43  67  94 129 171 219 272 320 378
#     4  10  21  40  68 100 129 166 214 268 324 380
#     4  12  23  41  64  94 135 173 211 259 322 392
#     4  12  27  43  64  93 130 176 218 264 322 387
#
# _framework density 19.654485999999999
#
# number of rings (size 3 to 8) (size 9 to 14) (size 15 to 20)
#    0.000    1.167    1.667    4.500    2.333    5.333 
#    0.000    0.000    3.667    0.000    0.000    0.000 
#    0.000    0.000    0.000    0.000    0.000    0.000 
#
# Total GULP energy -268550.122671 kJ/mol
# GULP energy per Si atom -5594.794222 kJ/mol
# Density = 1.960975 g / cm^3
# Si number density = 19.654486 Si / 1000 Ang^3
#
#
#
# Elastic Constant Matrix: (Units=GPa)
#
#
# Indices 1 2 3 4 5 6 
#
# 1 71.4565 67.4915 44.4412 0.0000 0.0000 0.0000
# 2 67.4915 166.1991 43.1095 0.0000 0.0000 0.0000
# 3 44.4412 43.1095 51.3641 0.0000 0.0000 0.0000
# 4 0.0000 0.0000 0.0000 30.8147 0.0000 0.0000
# 5 0.0000 0.0000 0.0000 0.0000 49.0460 0.0000
# 6 0.0000 0.0000 0.0000 0.0000 0.0000 618.5531
#
#
#
# Elastic Compliance Matrix: (Units=1/GPa)
#
#
# Indices 1 2 3 4 5 6 
#
# 1 0.038471 -0.008934 -0.025788 0.000000 0.000000 0.000000
# 2 -0.008934 0.009766 -0.000467 0.000000 0.000000 0.000000
# 3 -0.025788 -0.000467 0.042173 0.000000 0.000000 0.000000
# 4 0.000000 0.000000 0.000000 0.032452 0.000000 0.000000
# 5 0.000000 0.000000 0.000000 0.000000 0.020389 0.000000
# 6 0.000000 0.000000 0.000000 0.000000 0.000000 0.001617
#
#
# Mechanical properties :
#
#
# Convention : Reuss Voigt Hill
#
# Bulk Modulus (GPa) = 49.91785 66.56712 58.24248
# Shear Modulus (GPa) = 22.53057 148.61459 85.57258
#
# Velocity S-wave (km/s) = 3.38943 8.70504 6.60553
# Velocity P-wave (km/s) = 6.38517 11.61805 9.37416
#
# Compressibility (1/GPa) = 0.02003291
#
# Stress axis : x y z
#
# Youngs Moduli (GPa) = 25.99390 102.39836 23.71201
#
# Poissons Ratio (x) = 0.91478 0.61148
# Poissons Ratio (y) = 0.23222 0.01107
# Poissons Ratio (z) = 0.67032 0.04781
#
# Static dielectric constant tensor:
#      x y z
#    x 1.673150 0.000000 0.000000 
#    y 0.000000 1.676370 0.000000 
#    z 0.000000 0.000000 1.663500 
# 
# From -- ./inp_files/23633.got.cif
#   From: 2010.05.17/outbox.cif.g08.bks.cpg/sg53_12_cif.got.tgz:23633.got - 2010.06.03 12:45:16.
