data_PCOD9418018
_publ_section_title
;
Structure prediction by ZEFSAII (Michael W. Deem and Ramdas Pophale) SiO2 
 PCOD9418018
Probable space group: P M N A
;
_chemical_formula_sum "Si O2"
_cell_formula_units_Z 56
_cell_length_a 15.229847
_cell_length_b 16.463636
_cell_length_c 10.474794
_cell_angle_alpha 90.000000
_cell_angle_beta 90.000000
_cell_angle_gamma 90.000000
_cell_volume 2626.435784
_symmetry_space_group_name_H-M "P M N A"
_symmetry_group_IT_number 53
_symmetry_cell_setting 'orthorhombic'
loop_
_space_group_symop_operation_xyz
x,y,z
1/2-x,-y,1/2+z
x,-y,-z
1/2-x,y,1/2-z
-x,-y,-z
1/2+x,y,1/2-z
-x,y,z
1/2+x,-y,1/2+z
loop_
_atom_site_type_symbol
_atom_site_label
_atom_site_fract_x
_atom_site_fract_y
_atom_site_fract_z
Si Si1 0.897590 0.027542 0.639512
Si Si2 0.643468 0.141214 0.247689
Si Si3 0.894773 0.436076 0.102875
Si Si4 0.355961 0.747833 0.518677
Si Si5 0.605220 0.441412 0.111389
Si Si6 0.644307 0.260094 0.024033
Si Si7 0.647768 0.202068 0.758862
O O1 0.856388 0.107298 0.702506
O O2 0.000000 0.046648 0.620196
O O3 0.860731 0.000000 0.500000
O O4 0.887661 0.950414 0.731388
O O5 0.750000 0.140171 0.250000
O O6 0.613626 0.189109 0.373199
O O7 0.612914 0.192234 0.123915
O O8 0.878587 0.343734 0.059315
O O9 0.860125 0.453626 0.245139
O O10 0.000000 0.445965 0.108505
O O11 0.859782 0.500000 0.000000
O O12 0.249680 0.750754 0.518719
O O13 0.389473 0.774008 0.378959
O O14 0.500000 0.453238 0.116234
O O15 0.623131 0.348596 0.075200
O O16 0.639968 0.500000 0.000000
O O17 0.608686 0.247509 0.881627
O O18 0.750000 0.225328 0.750000
#
# Coordination Sequence:
#
# PCOD9418018 Si02
#       7
#     8   8   8   8   8   8   8
#     4  11  23  38  59  88 118 150 193 239 284 337
#     4  10  20  38  61  83 113 152 191 233 284 343
#     4  10  22  39  57  82 118 154 188 231 287 344
#     4  10  22  38  60  86 112 149 191 236 287 335
#     4  10  22  38  58  85 115 151 192 233 282 341
#     4  10  20  38  61  84 113 148 193 236 276 338
#     4  10  22  40  59  85 118 151 191 235 287 345
#
# _framework density 21.321672
#
# number of rings (size 3 to 8) (size 9 to 14) (size 15 to 20)
#    0.000    1.857    2.857    0.429    2.000    3.429 
#    0.000    0.714    0.000    0.000    0.000    0.000 
#    0.000    0.000    0.000    0.000    0.000    0.000 
#
# Total GULP energy -312827.001087 kJ/mol
# GULP energy per Si atom -5586.196448 kJ/mol
# Density = 2.127314 g / cm^3
# Si number density = 21.321672 Si / 1000 Ang^3
#
#
#
# Elastic Constant Matrix: (Units=GPa)
#
#
# Indices 1 2 3 4 5 6 
#
# 1 38.9895 -18.7501 10.4050 0.0000 0.0000 0.0000
# 2 -18.7501 85.5888 67.2545 0.0000 0.0000 0.0000
# 3 10.4050 67.2545 213.0234 0.0000 0.0000 0.0000
# 4 0.0000 0.0000 0.0000 41.4487 0.0000 0.0000
# 5 0.0000 0.0000 0.0000 0.0000 0.9357 0.0000
# 6 0.0000 0.0000 0.0000 0.0000 0.0000 28.2779
#
#
#
# Elastic Compliance Matrix: (Units=1/GPa)
#
#
# Indices 1 2 3 4 5 6 
#
# 1 0.032324 0.011068 -0.005073 0.000000 0.000000 0.000000
# 2 0.011068 0.019328 -0.006643 0.000000 0.000000 0.000000
# 3 -0.005073 -0.006643 0.007039 0.000000 0.000000 0.000000
# 4 0.000000 0.000000 0.000000 0.024126 0.000000 0.000000
# 5 0.000000 0.000000 0.000000 0.000000 1.068722 0.000000
# 6 0.000000 0.000000 0.000000 0.000000 0.000000 0.035363
#
#
# Mechanical properties :
#
#
# Convention : Reuss Voigt Hill
#
# Bulk Modulus (GPa) = 17.42299 50.60227 34.01263
# Shear Modulus (GPa) = 4.14137 32.71197 18.42667
#
# Velocity S-wave (km/s) = 1.39519 3.92115 2.94296
# Velocity P-wave (km/s) = 3.28400 6.65469 5.24736
#
# Compressibility (1/GPa) = 0.05739542
#
# Stress axis : x y z
#
# Youngs Moduli (GPa) = 30.93655 51.73790 142.05900
#
# Poissons Ratio (x) = -0.57262 0.72068
# Poissons Ratio (y) = -0.34240 0.94367
# Poissons Ratio (z) = 0.15694 0.34368
#
# Static dielectric constant tensor:
#      x y z
#    x 1.805870 0.000000 0.000000 
#    y 0.000000 1.714980 0.000000 
#    z 0.000000 0.000000 1.810570 
# 
# From -- ./inp_files/11057.got.cif
#   From: 2010.05.17/outbox.cif.g08.bks.cpg/sg53_6_cif.got.tgz:11057.got - 2010.06.03 12:45:16.
