data_PCOD9418284
_publ_section_title
;
Structure prediction by ZEFSAII (Michael W. Deem and Ramdas Pophale) SiO2 
 PCOD9418284
Probable space group: P M N A
;
_chemical_formula_sum "Si O2"
_cell_formula_units_Z 48
_cell_length_a 7.535554
_cell_length_b 32.715551
_cell_length_c 9.331986
_cell_angle_alpha 90.000000
_cell_angle_beta 90.000000
_cell_angle_gamma 90.000000
_cell_volume 2300.612653
_symmetry_space_group_name_H-M "P M N A"
_symmetry_group_IT_number 53
_symmetry_cell_setting 'orthorhombic'
loop_
_space_group_symop_operation_xyz
x,y,z
1/2-x,-y,1/2+z
x,-y,-z
1/2-x,y,1/2-z
-x,-y,-z
1/2+x,y,1/2-z
-x,y,z
1/2+x,-y,1/2+z
loop_
_atom_site_type_symbol
_atom_site_label
_atom_site_fract_x
_atom_site_fract_y
_atom_site_fract_z
Si Si1 0.212898 0.129337 0.081432
Si Si2 0.786948 0.299044 0.918666
Si Si3 0.787053 0.960265 0.918677
Si Si4 0.787179 0.791388 0.082008
Si Si5 0.213052 0.540446 0.081038
Si Si6 0.786921 0.378856 0.081663
O O1 0.250000 0.132757 0.250000
O O2 0.280057 0.084546 0.033388
O O3 0.000000 0.128847 0.061802
O O4 0.283713 0.169293 0.001584
O O5 0.750000 0.305619 0.750000
O O6 0.719229 0.253788 0.959877
O O7 0.000000 0.297986 0.934335
O O8 0.718440 0.336680 0.012548
O O9 0.750000 0.963924 0.750000
O O10 0.000000 0.959736 0.937785
O O11 0.716396 0.000000 0.000000
O O12 0.750000 0.796190 0.250000
O O13 0.000000 0.790628 0.061775
O O14 0.250000 0.539653 0.250000
O O15 0.000000 0.540545 0.064798
O O16 0.280638 0.500000 0.000000
O O17 0.280633 0.581647 0.004899
O O18 0.750000 0.381906 0.250000
O O19 0.000000 0.378376 0.064519
#
# Coordination Sequence:
#
# PCOD9418284 Si02
#       6
#     8   8   8   8   8   8
#     4   9  18  32  48  67  93 123 154 190 232 278
#     4   9  18  33  51  71  96 126 160 197 237 282
#     4   9  18  32  48  67  92 121 153 190 232 277
#     4   9  18  32  49  70  96 124 156 195 236 279
#     4  10  21  36  54  77 103 131 165 203 242 286
#     4  10  21  35  51  74 102 130 163 201 240 285
#
# _framework density 20.864007000000001
#
# number of rings (size 3 to 8) (size 9 to 14) (size 15 to 20)
#    0.000    2.667    0.000    1.000    0.000    4.000 
#    0.000    0.000    0.000    0.000    0.000    0.000 
#    0.000    0.000    0.000    0.000    0.000    0.000 
#
# Total GULP energy -267860.483182 kJ/mol
# GULP energy per Si atom -5580.426733 kJ/mol
# Density = 2.081652 g / cm^3
# Si number density = 20.864007 Si / 1000 Ang^3
#
#
#
# Elastic Constant Matrix: (Units=GPa)
#
#
# Indices 1 2 3 4 5 6 
#
# 1 54.5062 15.3245 -7.3899 0.0000 0.0000 0.0000
# 2 15.3245 279.0843 131.8787 0.0000 0.0000 0.0000
# 3 -7.3899 131.8787 112.2956 0.0000 0.0000 0.0000
# 4 0.0000 0.0000 0.0000 59.1309 0.0000 0.0000
# 5 0.0000 0.0000 0.0000 0.0000 27.1802 0.0000
# 6 0.0000 0.0000 0.0000 0.0000 0.0000 -23.7913
#
#
#
# Elastic Compliance Matrix: (Units=1/GPa)
#
#
# Indices 1 2 3 4 5 6 
#
# 1 0.020251 -0.003913 0.005929 0.000000 0.000000 0.000000
# 2 -0.003913 0.008807 -0.010601 0.000000 0.000000 0.000000
# 3 0.005929 -0.010601 0.021745 0.000000 0.000000 0.000000
# 4 0.000000 0.000000 0.000000 0.016912 0.000000 0.000000
# 5 0.000000 0.000000 0.000000 0.000000 0.036791 0.000000
# 6 0.000000 0.000000 0.000000 0.000000 0.000000 -0.042032
#
#
# Mechanical properties :
#
#
# Convention : Reuss Voigt Hill
#
# Bulk Modulus (GPa) = 29.73425 80.61252 55.17339
# Shear Modulus (GPa) = 55.03261 32.90882 43.97071
#
# Velocity S-wave (km/s) = 5.14141 3.97583 4.59572
# Velocity P-wave (km/s) = 7.03760 7.73287 7.39341
#
# Compressibility (1/GPa) = 0.03363125
#
# Stress axis : x y z
#
# Youngs Moduli (GPa) = 49.38125 113.54172 45.98831
#
# Poissons Ratio (x) = 0.44434 -0.27264
# Poissons Ratio (y) = 0.19325 0.48751
# Poissons Ratio (z) = -0.29276 1.20363
#
# Static dielectric constant tensor:
#      x y z
#    x 1.758170 0.000000 0.000000 
#    y 0.000000 1.795100 0.000000 
#    z 0.000000 0.000000 1.670010 
# 
# From -- ./inp_files/6580.got.cif
#   From: 2010.05.17/outbox.cif.g08.bks.cpg/sg53_4_cif.got.tgz:6580.got - 2010.06.03 12:45:16.
