data_PCOD9418074
_publ_section_title
;
Structure prediction by ZEFSAII (Michael W. Deem and Ramdas Pophale) SiO2 
 PCOD9418074
Probable space group: P M N A
;
_chemical_formula_sum "Si O2"
_cell_formula_units_Z 40
_cell_length_a 10.257213
_cell_length_b 10.715819
_cell_length_c 18.161504
_cell_angle_alpha 90.000000
_cell_angle_beta 90.000000
_cell_angle_gamma 90.000000
_cell_volume 1996.211505
_symmetry_space_group_name_H-M "P M N A"
_symmetry_group_IT_number 53
_symmetry_cell_setting 'orthorhombic'
loop_
_space_group_symop_operation_xyz
x,y,z
1/2-x,-y,1/2+z
x,-y,-z
1/2-x,y,1/2-z
-x,-y,-z
1/2+x,y,1/2-z
-x,y,z
1/2+x,-y,1/2+z
loop_
_atom_site_type_symbol
_atom_site_label
_atom_site_fract_x
_atom_site_fract_y
_atom_site_fract_z
Si Si1 0.357871 0.726918 0.880059
Si Si2 0.344719 0.084518 0.320352
Si Si3 0.729846 0.372805 0.968865
Si Si4 0.650877 0.104267 0.553863
Si Si5 0.644121 0.536851 0.190260
O O1 0.500000 0.790261 0.869283
O O2 0.229761 0.810797 0.869224
O O3 0.348881 0.612490 0.822865
O O4 0.357429 0.666796 0.961331
O O5 0.250000 0.078098 0.250000
O O6 0.500000 0.111701 0.308056
O O7 0.337913 0.955595 0.365473
O O8 0.803813 0.245069 0.952465
O O9 0.665054 0.407696 0.891227
O O10 0.798248 0.500000 0.000000
O O11 0.500000 0.109445 0.532855
O O12 0.715130 0.000000 0.500000
O O13 0.750000 0.575672 0.250000
O O14 0.500000 0.569213 0.216905
#
# Coordination Sequence:
#
# PCOD9418074 Si02
#       5
#     8   8   8   8   8
#     4  10  20  38  64  93 125 165 215 265 319 379
#     4  11  23  40  63  91 129 168 209 262 320 376
#     4  10  21  39  65  94 125 165 214 264 315 378
#     4  10  21  40  62  89 128 166 205 259 316 369
#     4  10  22  39  59  88 129 170 209 263 323 380
#
# _framework density 20.037955
#
# number of rings (size 3 to 8) (size 9 to 14) (size 15 to 20)
#    0.000    1.800    2.000    1.800    0.000    6.800 
#    0.000   11.000    0.000    0.000    0.000    0.000 
#    0.000    0.000    0.000    0.000    0.000    0.000 
#
# Total GULP energy -222696.737515 kJ/mol
# GULP energy per Si atom -5567.418438 kJ/mol
# Density = 1.999235 g / cm^3
# Si number density = 20.037955 Si / 1000 Ang^3
#
#
#
# Elastic Constant Matrix: (Units=GPa)
#
#
# Indices 1 2 3 4 5 6 
#
# 1 145.7465 64.5481 68.4381 0.0000 0.0000 0.0000
# 2 64.5481 125.0728 21.9106 0.0000 0.0000 0.0000
# 3 68.4381 21.9106 84.8514 0.0000 0.0000 0.0000
# 4 0.0000 0.0000 0.0000 11.1536 0.0000 0.0000
# 5 0.0000 0.0000 0.0000 0.0000 11.2339 0.0000
# 6 0.0000 0.0000 0.0000 0.0000 0.0000 10.8787
#
#
#
# Elastic Compliance Matrix: (Units=1/GPa)
#
#
# Indices 1 2 3 4 5 6 
#
# 1 0.013861 -0.005441 -0.009775 0.000000 0.000000 0.000000
# 2 -0.005441 0.010510 0.001675 0.000000 0.000000 0.000000
# 3 -0.009775 0.001675 0.019237 0.000000 0.000000 0.000000
# 4 0.000000 0.000000 0.000000 0.089657 0.000000 0.000000
# 5 0.000000 0.000000 0.000000 0.000000 0.089016 0.000000
# 6 0.000000 0.000000 0.000000 0.000000 0.000000 0.091923
#
#
# Mechanical properties :
#
#
# Convention : Reuss Voigt Hill
#
# Bulk Modulus (GPa) = 60.51263 73.94048 67.22655
# Shear Modulus (GPa) = 14.41777 20.03817 17.22797
#
# Velocity S-wave (km/s) = 2.68530 3.16573 2.93536
# Velocity P-wave (km/s) = 6.31498 7.09526 6.71646
#
# Compressibility (1/GPa) = 0.01652548
#
# Stress axis : x y z
#
# Youngs Moduli (GPa) = 72.14594 95.14759 51.98377
#
# Poissons Ratio (x) = 0.51770 0.50812
# Poissons Ratio (y) = 0.39254 -0.08705
# Poissons Ratio (z) = 0.70520 -0.15933
#
# Static dielectric constant tensor:
#      x y z
#    x 1.712860 0.000000 0.000000 
#    y 0.000000 1.742770 0.000000 
#    z 0.000000 0.000000 1.752810 
# 
# From -- ./inp_files/27348.got.cif
#   From: 2010.05.17/outbox.cif.g08.bks.cpg/sg53_14_cif.got.tgz:27348.got - 2010.06.03 12:45:16.
