data_PCOD9418144
_publ_section_title
;
Structure prediction by ZEFSAII (Michael W. Deem and Ramdas Pophale) SiO2 
 PCOD9418144
Probable space group: P M N A
;
_chemical_formula_sum "Si O2"
_cell_formula_units_Z 64
_cell_length_a 17.250080
_cell_length_b 16.820539
_cell_length_c 11.113989
_cell_angle_alpha 90.000000
_cell_angle_beta 90.000000
_cell_angle_gamma 90.000000
_cell_volume 3224.786629
_symmetry_space_group_name_H-M "P M N A"
_symmetry_group_IT_number 53
_symmetry_cell_setting 'orthorhombic'
loop_
_space_group_symop_operation_xyz
x,y,z
1/2-x,-y,1/2+z
x,-y,-z
1/2-x,y,1/2-z
-x,-y,-z
1/2+x,y,1/2-z
-x,y,z
1/2+x,-y,1/2+z
loop_
_atom_site_type_symbol
_atom_site_label
_atom_site_fract_x
_atom_site_fract_y
_atom_site_fract_z
Si Si1 0.276050 0.292673 0.441189
Si Si2 0.628421 0.818417 0.943868
Si Si3 0.646944 0.587691 0.868507
Si Si4 0.805021 0.982800 0.635601
Si Si5 0.412530 0.132455 0.798404
Si Si6 0.164236 0.281074 0.802413
Si Si7 0.909184 0.415436 0.635620
Si Si8 0.083213 0.719579 0.779656
O O1 0.210548 0.226251 0.463001
O O2 0.229565 0.368245 0.386726
O O3 0.320543 0.312488 0.563715
O O4 0.340856 0.257666 0.353476
O O5 0.584778 0.768950 0.843103
O O6 0.642704 0.906066 0.891834
O O7 0.588151 0.823317 0.072352
O O8 0.643869 0.493842 0.847315
O O9 0.600222 0.629837 0.762139
O O10 0.603451 0.604609 0.995076
O O11 0.750000 0.965886 0.750000
O O12 0.856199 0.058022 0.678207
O O13 0.769992 0.000000 0.500000
O O14 0.500000 0.108191 0.768412
O O15 0.379193 0.196512 0.704452
O O16 0.250000 0.268292 0.750000
O O17 0.119491 0.344829 0.720622
O O18 0.000000 0.433297 0.655187
O O19 0.000000 0.727990 0.840588
#
# Coordination Sequence:
#
# PCOD9418144 Si02
#       8
#     8   8   8   8   8   8   8   8
#     4  11  23  39  62  88 121 164 210 249 302 383
#     4  10  20  39  64  91 119 158 213 259 306 371
#     4  10  20  40  60  87 118 153 205 260 302 367
#     4  10  22  38  63  94 125 166 207 261 321 384
#     4  11  23  38  63  92 124 160 205 265 318 365
#     4  12  22  40  60  87 123 162 207 248 305 375
#     4  11  22  37  63  92 118 153 200 257 318 364
#     4  11  22  37  59  86 122 159 197 253 312 363
#
# _framework density 19.846274999999999
#
# number of rings (size 3 to 8) (size 9 to 14) (size 15 to 20)
#    0.000    1.250    2.500    5.625    1.750    4.750 
#    0.000    0.000    0.000    1.875    0.000    0.000 
#    0.000    0.000    0.000    0.000    0.000    0.000 
#
# Total GULP energy -357237.892732 kJ/mol
# GULP energy per Si atom -5581.842074 kJ/mol
# Density = 1.980110 g / cm^3
# Si number density = 19.846275 Si / 1000 Ang^3
#
#
#
# Elastic Constant Matrix: (Units=GPa)
#
#
# Indices 1 2 3 4 5 6 
#
# 1 87.8890 9.6018 13.3921 0.0000 0.0000 0.0000
# 2 9.6018 77.7787 4.2413 0.0000 0.0000 0.0000
# 3 13.3921 4.2413 41.2704 0.0000 0.0000 0.0000
# 4 0.0000 0.0000 0.0000 6.5537 0.0000 0.0000
# 5 0.0000 0.0000 0.0000 0.0000 14.8973 0.0000
# 6 0.0000 0.0000 0.0000 0.0000 0.0000 -0.6879
#
#
#
# Elastic Compliance Matrix: (Units=1/GPa)
#
#
# Indices 1 2 3 4 5 6 
#
# 1 0.012097 -0.001286 -0.003793 0.000000 0.000000 0.000000
# 2 -0.001286 0.013066 -0.000925 0.000000 0.000000 0.000000
# 3 -0.003793 -0.000925 0.025556 0.000000 0.000000 0.000000
# 4 0.000000 0.000000 0.000000 0.152586 0.000000 0.000000
# 5 0.000000 0.000000 0.000000 0.000000 0.067126 0.000000
# 6 0.000000 0.000000 0.000000 0.000000 0.000000 -1.453783
#
#
# Mechanical properties :
#
#
# Convention : Reuss Voigt Hill
#
# Bulk Modulus (GPa) = 25.83354 29.04539 27.43947
# Shear Modulus (GPa) = -4.31615 16.13283 5.90834
#
# Velocity S-wave (km/s) = -1.47632 2.85422 1.72729
# Velocity P-wave (km/s) = 3.18419 5.05262 4.22304
#
# Compressibility (1/GPa) = 0.03870937
#
# Stress axis : x y z
#
# Youngs Moduli (GPa) = 82.66852 76.53299 39.12921
#
# Poissons Ratio (x) = 0.09846 0.14842
# Poissons Ratio (y) = 0.10635 0.03621
# Poissons Ratio (z) = 0.31357 0.07082
#
# Static dielectric constant tensor:
#      x y z
#    x 1.718620 0.000000 0.000000 
#    y 0.000000 1.704390 0.000000 
#    z 0.000000 0.000000 1.725320 
# 
# From -- ./inp_files/16207.got.cif
#   From: 2010.05.17/outbox.cif.g08.bks.cpg/sg53_9_cif.got.tgz:16207.got - 2010.06.03 12:45:16.
