data_PCOD9418379
_publ_section_title
;
Structure prediction by ZEFSAII (Michael W. Deem and Ramdas Pophale) SiO2 
 PCOD9418379
Probable space group: P M N A
;
_chemical_formula_sum "Si O2"
_cell_formula_units_Z 58
_cell_length_a 10.315434
_cell_length_b 11.027006
_cell_length_c 26.818137
_cell_angle_alpha 90.000000
_cell_angle_beta 90.000000
_cell_angle_gamma 90.000000
_cell_volume 3050.518904
_symmetry_space_group_name_H-M "P M N A"
_symmetry_group_IT_number 53
_symmetry_cell_setting 'orthorhombic'
loop_
_space_group_symop_operation_xyz
x,y,z
1/2-x,-y,1/2+z
x,-y,-z
1/2-x,y,1/2-z
-x,-y,-z
1/2+x,y,1/2-z
-x,y,z
1/2+x,-y,1/2+z
loop_
_atom_site_type_symbol
_atom_site_label
_atom_site_fract_x
_atom_site_fract_y
_atom_site_fract_z
Si Si1 0.647132 0.452002 0.619929
Si Si2 0.857843 0.284327 0.975059
Si Si3 0.144366 0.883062 0.626375
Si Si4 0.345414 0.030278 0.297781
Si Si5 0.848756 0.253845 0.795674
Si Si6 0.359198 0.091233 0.953531
Si Si7 0.209521 0.356103 0.431835
Si Si8 0.500000 0.500000 0.000000
O O1 0.500000 0.491880 0.630858
O O2 0.647721 0.391740 0.565047
O O3 0.680609 0.347819 0.659889
O O4 0.744501 0.563130 0.614807
O O5 0.750954 0.188817 0.958659
O O6 0.000000 0.228548 0.971997
O O7 0.827947 0.326299 0.030917
O O8 0.269801 0.889093 0.661618
O O9 0.154484 0.770085 0.588816
O O10 0.000000 0.878355 0.650821
O O11 0.148426 0.007025 0.594685
O O12 0.250000 0.040461 0.250000
O O13 0.500000 0.057997 0.290691
O O14 0.339203 0.886943 0.312263
O O15 0.750000 0.271676 0.750000
O O16 0.000000 0.272053 0.780663
O O17 0.500000 0.153957 0.954782
O O18 0.352395 0.000000 0.000000
O O19 0.111170 0.430761 0.466079
#
# Coordination Sequence:
#
# PCOD9418379 Si02
#       8
#     8   8   8   8   8   8   8   2
#     4  10  21  38  58  82 115 153 196 245 296 346
#     4  11  22  36  57  84 116 156 204 250 296 359
#     4  11  23  39  59  88 123 161 205 255 306 364
#     4  10  21  40  67  94 124 157 199 245 307 373
#     4   9  19  39  64  91 119 150 189 245 299 360
#     4  10  21  36  55  79 117 159 195 244 304 360
#     4  12  23  39  59  84 119 164 208 249 298 356
#     4  12  24  40  62  82 120 172 218 252 290 364
#
# _framework density 19.013159000000002
#
# number of rings (size 3 to 8) (size 9 to 14) (size 15 to 20)
#    0.000    1.517    3.448    1.655    0.966    4.690 
#    1.241    0.690    0.000    1.655    0.000    0.000 
#    0.000    0.000    0.000    0.000    0.000    0.000 
#
# Total GULP energy -323006.854621 kJ/mol
# GULP energy per Si atom -5569.083700 kJ/mol
# Density = 1.896988 g / cm^3
# Si number density = 19.013159 Si / 1000 Ang^3
#
#
#
# Elastic Constant Matrix: (Units=GPa)
#
#
# Indices 1 2 3 4 5 6 
#
# 1 145.6841 48.9252 34.4333 0.0000 0.0000 0.0000
# 2 48.9252 58.9990 22.4555 0.0000 0.0000 0.0000
# 3 34.4333 22.4555 53.9392 0.0000 0.0000 0.0000
# 4 0.0000 0.0000 0.0000 29.4137 0.0000 0.0000
# 5 0.0000 0.0000 0.0000 0.0000 23.9758 0.0000
# 6 0.0000 0.0000 0.0000 0.0000 0.0000 -5.0002
#
#
#
# Elastic Compliance Matrix: (Units=1/GPa)
#
#
# Indices 1 2 3 4 5 6 
#
# 1 0.010040 -0.006994 -0.003497 0.000000 0.000000 0.000000
# 2 -0.006994 0.025014 -0.005948 0.000000 0.000000 0.000000
# 3 -0.003497 -0.005948 0.023248 0.000000 0.000000 0.000000
# 4 0.000000 0.000000 0.000000 0.033998 0.000000 0.000000
# 5 0.000000 0.000000 0.000000 0.000000 0.041709 0.000000
# 6 0.000000 0.000000 0.000000 0.000000 0.000000 -0.199994
#
#
# Mechanical properties :
#
#
# Convention : Reuss Voigt Hill
#
# Bulk Modulus (GPa) = 39.33672 52.25004 45.79338
# Shear Modulus (GPa) = -202.99114 19.86509 -91.56303
#
# Velocity S-wave (km/s) = -10.34385 3.23585 -6.94710
# Velocity P-wave (km/s) = 11.04202 6.44218 6.34132
#
# Compressibility (1/GPa) = 0.02542154
#
# Stress axis : x y z
#
# Youngs Moduli (GPa) = 99.60472 39.97829 43.01386
#
# Poissons Ratio (x) = 0.27962 0.15043
# Poissons Ratio (y) = 0.69667 0.25586
# Poissons Ratio (z) = 0.34834 0.23781
#
# Static dielectric constant tensor:
#      x y z
#    x 1.681360 0.000000 0.000000 
#    y 0.000000 1.661800 0.000000 
#    z 0.000000 0.000000 1.662050 
# 
# From -- ./inp_files/36321.got.cif
#   From: 2010.05.17/outbox.cif.g08.bks.cpg/sg53_19_cif.got.tgz:36321.got - 2010.06.03 12:45:16.
