data_PCOD9418403
_publ_section_title
;
Structure prediction by ZEFSAII (Michael W. Deem and Ramdas Pophale) SiO2 
 PCOD9418403
Probable space group: P M N A
;
_chemical_formula_sum "Si O2"
_cell_formula_units_Z 48
_cell_length_a 8.619482
_cell_length_b 31.825929
_cell_length_c 9.501323
_cell_angle_alpha 90.000000
_cell_angle_beta 90.000000
_cell_angle_gamma 90.000000
_cell_volume 2606.431640
_symmetry_space_group_name_H-M "P M N A"
_symmetry_group_IT_number 53
_symmetry_cell_setting 'orthorhombic'
loop_
_space_group_symop_operation_xyz
x,y,z
1/2-x,-y,1/2+z
x,-y,-z
1/2-x,y,1/2-z
-x,-y,-z
1/2+x,y,1/2-z
-x,y,z
1/2+x,-y,1/2+z
loop_
_atom_site_type_symbol
_atom_site_label
_atom_site_fract_x
_atom_site_fract_y
_atom_site_fract_z
Si Si1 0.686642 0.712461 0.408069
Si Si2 0.813862 0.960160 0.092843
Si Si3 0.812854 0.366975 0.092209
Si Si4 0.187389 0.461086 0.093242
Si Si5 0.313552 0.210437 0.091692
Si Si6 0.685936 0.870414 0.092024
O O1 0.750000 0.714908 0.250000
O O2 0.500000 0.713689 0.404299
O O3 0.736789 0.669356 0.485480
O O4 0.747710 0.750967 0.501451
O O5 0.750000 0.965575 0.250000
O O6 0.749602 0.915373 0.041255
O O7 0.000000 0.958067 0.096383
O O8 0.766414 0.000000 0.000000
O O9 0.750000 0.359699 0.250000
O O10 0.765533 0.414081 0.045770
O O11 0.000000 0.366009 0.099735
O O12 0.250000 0.466141 0.250000
O O13 0.000000 0.461995 0.095234
O O14 0.242735 0.500000 0.000000
O O15 0.250000 0.211316 0.250000
O O16 0.500000 0.213102 0.095038
O O17 0.269623 0.167421 0.011167
O O18 0.750000 0.863156 0.250000
O O19 0.500000 0.872429 0.100467
#
# Coordination Sequence:
#
# PCOD9418403 Si02
#       6
#     8   8   8   8   8   8
#     4  11  23  38  57  81 110 143 180 223 271 324
#     4  10  21  36  56  82 111 145 183 223 268 318
#     4   9  19  35  54  77 105 139 178 220 267 319
#     4   9  18  33  52  75 105 139 176 219 266 317
#     4  11  24  40  59  84 112 144 182 224 272 324
#     4  10  21  37  58  82 109 143 181 223 270 319
#
# _framework density 18.415982
#
# number of rings (size 3 to 8) (size 9 to 14) (size 15 to 20)
#    0.000    2.000    0.000    4.000    0.000    9.667 
#    0.000    3.333    0.000    0.000    0.000    0.000 
#    0.000    0.000    0.000    0.000    0.000    0.000 
#
# Total GULP energy -268040.623186 kJ/mol
# GULP energy per Si atom -5584.179650 kJ/mol
# Density = 1.837407 g / cm^3
# Si number density = 18.415982 Si / 1000 Ang^3
#
#
#
# Elastic Constant Matrix: (Units=GPa)
#
#
# Indices 1 2 3 4 5 6 
#
# 1 37.1068 52.2076 35.4178 0.0000 0.0000 0.0000
# 2 52.2076 218.4267 127.7464 0.0000 0.0000 0.0000
# 3 35.4178 127.7464 128.5254 0.0000 0.0000 0.0000
# 4 0.0000 0.0000 0.0000 42.4583 0.0000 0.0000
# 5 0.0000 0.0000 0.0000 0.0000 30.7423 0.0000
# 6 0.0000 0.0000 0.0000 0.0000 0.0000 -48.7944
#
#
#
# Elastic Compliance Matrix: (Units=1/GPa)
#
#
# Indices 1 2 3 4 5 6 
#
# 1 0.041348 -0.007688 -0.003753 0.000000 0.000000 0.000000
# 2 -0.007688 0.012364 -0.010170 0.000000 0.000000 0.000000
# 3 -0.003753 -0.010170 0.018923 0.000000 0.000000 0.000000
# 4 0.000000 0.000000 0.000000 0.023553 0.000000 0.000000
# 5 0.000000 0.000000 0.000000 0.000000 0.032528 0.000000
# 6 0.000000 0.000000 0.000000 0.000000 0.000000 -0.020494
#
#
# Mechanical properties :
#
#
# Convention : Reuss Voigt Hill
#
# Bulk Modulus (GPa) = 33.99873 90.53361 62.26617
# Shear Modulus (GPa) = 31.00796 16.12703 23.56750
#
# Velocity S-wave (km/s) = 4.10781 2.96245 3.58121
# Velocity P-wave (km/s) = 6.40315 7.80823 7.14034
#
# Compressibility (1/GPa) = 0.02941286
#
# Stress axis : x y z
#
# Youngs Moduli (GPa) = 24.18495 80.88097 52.84452
#
# Poissons Ratio (x) = 0.62181 0.19832
# Poissons Ratio (y) = 0.18593 0.53745
# Poissons Ratio (z) = 0.09076 0.82259
#
# Static dielectric constant tensor:
#      x y z
#    x 1.623520 0.000000 0.000000 
#    y 0.000000 1.650220 0.000000 
#    z 0.000000 0.000000 1.587970 
# 
# From -- ./inp_files/6610.got.cif
#   From: 2010.05.17/outbox.cif.g08.bks.cpg/sg53_4_cif.got.tgz:6610.got - 2010.06.03 12:45:16.
