data_PCOD9418428
_publ_section_title
;
Structure prediction by ZEFSAII (Michael W. Deem and Ramdas Pophale) SiO2 
 PCOD9418428
Probable space group: P M N A
;
_chemical_formula_sum "Si O2"
_cell_formula_units_Z 64
_cell_length_a 18.644376
_cell_length_b 9.072177
_cell_length_c 19.794613
_cell_angle_alpha 90.000000
_cell_angle_beta 90.000000
_cell_angle_gamma 90.000000
_cell_volume 3348.161382
_symmetry_space_group_name_H-M "P M N A"
_symmetry_group_IT_number 53
_symmetry_cell_setting 'orthorhombic'
loop_
_space_group_symop_operation_xyz
x,y,z
1/2-x,-y,1/2+z
x,-y,-z
1/2-x,y,1/2-z
-x,-y,-z
1/2+x,y,1/2-z
-x,y,z
1/2+x,-y,1/2+z
loop_
_atom_site_type_symbol
_atom_site_label
_atom_site_fract_x
_atom_site_fract_y
_atom_site_fract_z
Si Si1 0.312896 0.485421 0.572726
Si Si2 0.918081 0.287485 0.618616
Si Si3 0.083156 0.484047 0.193629
Si Si4 0.916143 0.367182 0.339506
Si Si5 0.713187 0.991307 0.677457
Si Si6 0.082179 0.170260 0.767630
Si Si7 0.220498 0.240897 0.406622
Si Si8 0.725838 0.808792 0.058662
O O1 0.349314 0.500000 0.500000
O O2 0.365660 0.534874 0.630913
O O3 0.245497 0.594364 0.575850
O O4 0.280974 0.322877 0.576409
O O5 0.912114 0.463010 0.633833
O O6 0.905731 0.191555 0.687095
O O7 0.855848 0.243221 0.568278
O O8 0.000000 0.261090 0.596386
O O9 0.102195 0.389361 0.260096
O O10 0.089005 0.659385 0.209180
O O11 0.000000 0.453296 0.178747
O O12 0.859466 0.259787 0.376016
O O13 0.000000 0.321698 0.345772
O O14 0.750000 0.006278 0.750000
O O15 0.635631 0.063135 0.692185
O O16 0.754613 0.077656 0.617799
O O17 0.725698 0.827153 0.649146
O O18 0.000000 0.123241 0.777685
O O19 0.230359 0.158860 0.478654
#
# Coordination Sequence:
#
# PCOD9418428 Si02
#       8
#     8   8   8   8   8   8   8   8
#     4  10  21  36  58  86 117 155 194 244 296 350
#     4   9  17  33  61  93 116 147 199 246 285 341
#     4   9  18  34  60  88 114 149 194 251 302 346
#     4   9  19  36  59  89 123 155 192 243 302 356
#     4  12  24  39  61  89 113 161 202 241 301 352
#     4   9  18  36  61  88 113 145 202 254 284 338
#     4  11  25  38  55  88 129 155 193 244 302 358
#     4  11  21  40  60  85 119 160 201 246 288 350
#
# _framework density 19.114968999999999
#
# number of rings (size 3 to 8) (size 9 to 14) (size 15 to 20)
#    0.000    2.000    3.750    1.875    1.750    0.750 
#    0.000    3.125    0.000    3.750    0.000    0.000 
#    0.000    0.000    0.000    0.000    0.000    0.000 
#
# Total GULP energy -356483.674040 kJ/mol
# GULP energy per Si atom -5570.057407 kJ/mol
# Density = 1.907146 g / cm^3
# Si number density = 19.114969 Si / 1000 Ang^3
#
#
#
# Elastic Constant Matrix: (Units=GPa)
#
#
# Indices 1 2 3 4 5 6 
#
# 1 63.1584 11.2925 49.4967 0.0000 0.0000 0.0000
# 2 11.2925 41.1496 26.8680 0.0000 0.0000 0.0000
# 3 49.4967 26.8680 109.4687 0.0000 0.0000 0.0000
# 4 0.0000 0.0000 0.0000 24.9116 0.0000 0.0000
# 5 0.0000 0.0000 0.0000 0.0000 11.6717 0.0000
# 6 0.0000 0.0000 0.0000 0.0000 0.0000 16.4767
#
#
#
# Elastic Compliance Matrix: (Units=1/GPa)
#
#
# Indices 1 2 3 4 5 6 
#
# 1 0.024536 0.000608 -0.011243 0.000000 0.000000 0.000000
# 2 0.000608 0.028954 -0.007381 0.000000 0.000000 0.000000
# 3 -0.011243 -0.007381 0.016030 0.000000 0.000000 0.000000
# 4 0.000000 0.000000 0.000000 0.040142 0.000000 0.000000
# 5 0.000000 0.000000 0.000000 0.000000 0.085677 0.000000
# 6 0.000000 0.000000 0.000000 0.000000 0.000000 0.060692
#
#
# Mechanical properties :
#
#
# Convention : Reuss Voigt Hill
#
# Bulk Modulus (GPa) = 29.86234 43.23236 36.54735
# Shear Modulus (GPa) = 16.48931 19.01997 17.75464
#
# Velocity S-wave (km/s) = 2.94026 3.15783 3.05098
# Velocity P-wave (km/s) = 5.21375 5.99683 5.61895
#
# Compressibility (1/GPa) = 0.03348700
#
# Stress axis : x y z
#
# Youngs Moduli (GPa) = 40.75704 34.53711 62.38177
#
# Poissons Ratio (x) = -0.02099 0.70136
# Poissons Ratio (y) = -0.02477 0.46046
# Poissons Ratio (z) = 0.45823 0.25493
#
# Static dielectric constant tensor:
#      x y z
#    x 1.641750 0.000000 0.000000 
#    y 0.000000 1.699360 0.000000 
#    z 0.000000 0.000000 1.696700 
# 
# From -- ./inp_files/32828.got.cif
#   From: 2010.05.17/outbox.cif.g08.bks.cpg/sg53_17_cif.got.tgz:32828.got - 2010.06.03 12:45:16.
