data_PCOD9418185
_publ_section_title
;
Structure prediction by ZEFSAII (Michael W. Deem and Ramdas Pophale) SiO2 
 PCOD9418185
Probable space group: P M N A
;
_chemical_formula_sum "Si O2"
_cell_formula_units_Z 64
_cell_length_a 8.922151
_cell_length_b 15.086353
_cell_length_c 23.929813
_cell_angle_alpha 90.000000
_cell_angle_beta 90.000000
_cell_angle_gamma 90.000000
_cell_volume 3221.017907
_symmetry_space_group_name_H-M "P M N A"
_symmetry_group_IT_number 53
_symmetry_cell_setting 'orthorhombic'
loop_
_space_group_symop_operation_xyz
x,y,z
1/2-x,-y,1/2+z
x,-y,-z
1/2-x,y,1/2-z
-x,-y,-z
1/2+x,y,1/2-z
-x,y,z
1/2+x,-y,1/2+z
loop_
_atom_site_type_symbol
_atom_site_label
_atom_site_fract_x
_atom_site_fract_y
_atom_site_fract_z
Si Si1 0.320766 0.145139 0.603152
Si Si2 0.320719 0.676016 0.127070
Si Si3 0.169357 0.103289 0.018327
Si Si4 0.178486 0.350782 0.110509
Si Si5 0.678198 0.209788 0.191122
Si Si6 0.321878 0.605751 0.003810
Si Si7 0.680257 0.501312 0.810351
Si Si8 0.675437 0.041185 0.125973
O O1 0.500000 0.144119 0.602810
O O2 0.258378 0.230065 0.634983
O O3 0.272678 0.150980 0.537482
O O4 0.262808 0.051300 0.626096
O O5 0.500000 0.688370 0.127887
O O6 0.283703 0.599417 0.171340
O O7 0.279913 0.639383 0.065352
O O8 0.273756 0.098164 0.071879
O O9 0.000000 0.133923 0.032303
O O10 0.157560 0.000000 0.000000
O O11 0.241419 0.266927 0.143798
O O12 0.231876 0.349839 0.046497
O O13 0.252160 0.434495 0.142479
O O14 0.000000 0.355577 0.113869
O O15 0.750000 0.234126 0.250000
O O16 0.500000 0.227097 0.190500
O O17 0.702099 0.106018 0.177843
O O18 0.500000 0.621291 0.995784
O O19 0.297274 0.500000 0.000000
O O20 0.750000 0.521791 0.750000
O O21 0.500000 0.511696 0.809261
O O22 0.500000 0.021642 0.121322
#
# Coordination Sequence:
#
# PCOD9418185 Si02
#       8
#     8   8   8   8   8   8   8   8
#     4  10  21  36  57  86 122 158 197 245 297 355
#     4  10  22  39  62  89 125 166 205 250 304 364
#     4   8  16  31  50  77 112 148 184 231 287 342
#     4  12  25  40  63  94 126 163 202 250 306 371
#     4  11  25  44  64  89 120 159 207 260 312 371
#     4  10  20  40  64  90 126 167 205 251 310 368
#     4  11  23  43  66  90 120 160 205 255 306 358
#     4  10  21  37  59  85 113 150 199 247 298 359
#
# _framework density 19.869495000000001
#
# number of rings (size 3 to 8) (size 9 to 14) (size 15 to 20)
#    0.000    1.750    1.250    3.750    1.750    6.500 
#    0.000    0.625    0.000    0.000    0.000    0.000 
#    0.000    0.000    0.000    0.000    0.000    0.000 
#
# Total GULP energy -357644.408227 kJ/mol
# GULP energy per Si atom -5588.193879 kJ/mol
# Density = 1.982427 g / cm^3
# Si number density = 19.869495 Si / 1000 Ang^3
#
#
#
# Elastic Constant Matrix: (Units=GPa)
#
#
# Indices 1 2 3 4 5 6 
#
# 1 58.4576 29.7506 25.8320 0.0000 0.0000 0.0000
# 2 29.7506 76.1925 2.0457 0.0000 0.0000 0.0000
# 3 25.8320 2.0457 56.9007 0.0000 0.0000 0.0000
# 4 0.0000 0.0000 0.0000 18.3655 0.0000 0.0000
# 5 0.0000 0.0000 0.0000 0.0000 27.0824 0.0000
# 6 0.0000 0.0000 0.0000 0.0000 0.0000 41.5196
#
#
#
# Elastic Compliance Matrix: (Units=1/GPa)
#
#
# Indices 1 2 3 4 5 6 
#
# 1 0.027920 -0.010572 -0.012295 0.000000 0.000000 0.000000
# 2 -0.010572 0.017140 0.004183 0.000000 0.000000 0.000000
# 3 -0.012295 0.004183 0.023006 0.000000 0.000000 0.000000
# 4 0.000000 0.000000 0.000000 0.054450 0.000000 0.000000
# 5 0.000000 0.000000 0.000000 0.000000 0.036924 0.000000
# 6 0.000000 0.000000 0.000000 0.000000 0.000000 0.024085
#
#
# Mechanical properties :
#
#
# Convention : Reuss Voigt Hill
#
# Bulk Modulus (GPa) = 32.57465 34.08969 33.33217
# Shear Modulus (GPa) = 21.63336 26.32167 23.97751
#
# Velocity S-wave (km/s) = 3.30323 3.64363 3.47760
# Velocity P-wave (km/s) = 5.56582 5.90723 5.73907
#
# Compressibility (1/GPa) = 0.03069872
#
# Stress axis : x y z
#
# Youngs Moduli (GPa) = 35.81717 58.34251 43.46733
#
# Poissons Ratio (x) = 0.61677 0.53443
# Poissons Ratio (y) = 0.37864 -0.18183
# Poissons Ratio (z) = 0.44037 -0.24405
#
# Static dielectric constant tensor:
#      x y z
#    x 1.665520 0.000000 0.000000 
#    y 0.000000 1.716920 0.000000 
#    z 0.000000 0.000000 1.695210 
# 
# From -- ./inp_files/34316.got.cif
#   From: 2010.05.17/outbox.cif.g08.bks.cpg/sg53_18_cif.got.tgz:34316.got - 2010.06.03 12:45:16.
