data_PCOD9418798
_publ_section_title
;
Structure prediction by ZEFSAII (Michael W. Deem and Ramdas Pophale) SiO2 
 PCOD9418798
Probable space group: P M N A
;
_chemical_formula_sum "Si O2"
_cell_formula_units_Z 64
_cell_length_a 13.366368
_cell_length_b 8.980390
_cell_length_c 26.582225
_cell_angle_alpha 90.000000
_cell_angle_beta 90.000000
_cell_angle_gamma 90.000000
_cell_volume 3190.802628
_symmetry_space_group_name_H-M "P M N A"
_symmetry_group_IT_number 53
_symmetry_cell_setting 'orthorhombic'
loop_
_space_group_symop_operation_xyz
x,y,z
1/2-x,-y,1/2+z
x,-y,-z
1/2-x,y,1/2-z
-x,-y,-z
1/2+x,y,1/2-z
-x,y,z
1/2+x,-y,1/2+z
loop_
_atom_site_type_symbol
_atom_site_label
_atom_site_fract_x
_atom_site_fract_y
_atom_site_fract_z
Si Si1 0.719870 0.707645 0.545474
Si Si2 0.612972 0.893006 0.631519
Si Si3 0.615299 0.180434 0.111012
Si Si4 0.614891 0.822045 0.121501
Si Si5 0.787456 0.646387 0.066776
Si Si6 0.728614 0.121788 0.697069
Si Si7 0.227696 0.680549 0.808559
Si Si8 0.114571 0.614303 0.168362
O O1 0.650206 0.808574 0.581470
O O2 0.830892 0.762471 0.560340
O O3 0.716692 0.532350 0.559187
O O4 0.690752 0.718247 0.487339
O O5 0.500000 0.942985 0.626631
O O6 0.629252 0.773077 0.675766
O O7 0.683870 0.022541 0.652173
O O8 0.500000 0.226678 0.115801
O O9 0.683175 0.250566 0.156474
O O10 0.617108 0.000103 0.110079
O O11 0.500000 0.774244 0.121078
O O12 0.684344 0.721327 0.085734
O O13 0.668854 0.811521 0.175551
O O14 0.867887 0.668989 0.110967
O O15 0.750000 0.043238 0.750000
O O16 0.647772 0.251300 0.704225
O O17 0.250000 0.688902 0.750000
O O18 0.196380 0.514232 0.823306
O O19 0.000000 0.569132 0.175720
#
# Coordination Sequence:
#
# PCOD9418798 Si02
#       8
#     8   8   8   8   8   8   8   8
#     4  10  21  41  62  93 126 162 205 261 317 367
#     4  11  22  39  64  93 124 159 204 253 306 370
#     4  10  21  39  60  88 125 159 204 257 308 367
#     4  10  22  40  62  89 121 163 208 254 307 369
#     4  10  22  40  64  87 129 165 206 257 313 375
#     4  11  23  43  64  90 126 162 204 258 309 367
#     4  11  22  40  60  92 125 162 206 256 311 361
#     4  11  23  42  64  91 125 164 207 254 307 370
#
# _framework density 20.057649000000001
#
# number of rings (size 3 to 8) (size 9 to 14) (size 15 to 20)
#    0.000    1.500    5.000    1.500    0.000    4.000 
#    0.000    3.750    0.000    2.250    0.000    0.000 
#    0.000    0.000    0.000    0.000    0.000    0.000 
#
# Total GULP energy -356666.300293 kJ/mol
# GULP energy per Si atom -5572.910942 kJ/mol
# Density = 2.001200 g / cm^3
# Si number density = 20.057649 Si / 1000 Ang^3
#
#
#
# Elastic Constant Matrix: (Units=GPa)
#
#
# Indices 1 2 3 4 5 6 
#
# 1 88.9638 14.7138 -2.9801 0.0000 0.0000 0.0000
# 2 14.7138 60.1204 11.3534 0.0000 0.0000 0.0000
# 3 -2.9801 11.3534 85.9073 0.0000 0.0000 0.0000
# 4 0.0000 0.0000 0.0000 16.7750 0.0000 0.0000
# 5 0.0000 0.0000 0.0000 0.0000 8.1755 0.0000
# 6 0.0000 0.0000 0.0000 0.0000 0.0000 25.5326
#
#
#
# Elastic Compliance Matrix: (Units=1/GPa)
#
#
# Indices 1 2 3 4 5 6 
#
# 1 0.011769 -0.003033 0.000809 0.000000 0.000000 0.000000
# 2 -0.003033 0.017841 -0.002463 0.000000 0.000000 0.000000
# 3 0.000809 -0.002463 0.011994 0.000000 0.000000 0.000000
# 4 0.000000 0.000000 0.000000 0.059612 0.000000 0.000000
# 5 0.000000 0.000000 0.000000 0.000000 0.122317 0.000000
# 6 0.000000 0.000000 0.000000 0.000000 0.000000 0.039166
#
#
# Mechanical properties :
#
#
# Convention : Reuss Voigt Hill
#
# Bulk Modulus (GPa) = 31.02710 31.24064 31.13387
# Shear Modulus (GPa) = 17.67933 24.22359 20.95146
#
# Velocity S-wave (km/s) = 2.97210 3.47897 3.23547
# Velocity P-wave (km/s) = 5.22306 5.63443 5.43264
#
# Compressibility (1/GPa) = 0.03222989
#
# Stress axis : x y z
#
# Youngs Moduli (GPa) = 84.96684 56.05145 83.37476
#
# Poissons Ratio (x) = 0.17002 -0.06746
# Poissons Ratio (y) = 0.25772 0.20535
# Poissons Ratio (z) = -0.06875 0.13806
#
# Static dielectric constant tensor:
#      x y z
#    x 1.698310 0.000000 0.000000 
#    y 0.000000 1.786090 0.000000 
#    z 0.000000 0.000000 1.730030 
# 
# From -- ./inp_files/35388.got.cif
#   From: 2010.05.17/outbox.cif.g08.bks.cpg/sg53_18_cif.got.tgz:35388.got - 2010.06.03 12:45:16.
