data_PCOD9418242
_publ_section_title
;
Structure prediction by ZEFSAII (Michael W. Deem and Ramdas Pophale) SiO2 
 PCOD9418242
Probable space group: P M N A
;
_chemical_formula_sum "Si O2"
_cell_formula_units_Z 32
_cell_length_a 23.635757
_cell_length_b 7.503837
_cell_length_c 8.942956
_cell_angle_alpha 90.000000
_cell_angle_beta 90.000000
_cell_angle_gamma 90.000000
_cell_volume 1586.112552
_symmetry_space_group_name_H-M "P M N A"
_symmetry_group_IT_number 53
_symmetry_cell_setting 'orthorhombic'
loop_
_space_group_symop_operation_xyz
x,y,z
1/2-x,-y,1/2+z
x,-y,-z
1/2-x,y,1/2-z
-x,-y,-z
1/2+x,y,1/2-z
-x,y,z
1/2+x,-y,1/2+z
loop_
_atom_site_type_symbol
_atom_site_label
_atom_site_fract_x
_atom_site_fract_y
_atom_site_fract_z
Si Si1 0.668833 0.808893 0.085240
Si Si2 0.937356 0.805147 0.576912
Si Si3 0.773883 0.656556 0.913122
Si Si4 0.865283 0.953281 0.842533
O O1 0.658582 0.872942 0.254400
O O2 0.611644 0.717003 0.023655
O O3 0.723054 0.704463 0.027451
O O4 0.674222 0.000000 0.000000
O O5 0.908513 0.848269 0.735643
O O6 0.000000 0.724760 0.584616
O O7 0.943508 0.000000 0.500000
O O8 0.750000 0.603065 0.750000
O O9 0.812401 0.826642 0.879346
O O10 0.806352 0.500000 0.000000
O O11 0.892652 0.000000 0.000000
#
# Coordination Sequence:
#
# PCOD9418242 Si02
#       4
#     8   8   8   8
#     4   9  18  36  56  75 105 143 183 218 265 326
#     4   8  15  31  55  79 103 133 177 230 271 312
#     4  12  24  36  52  82 113 145 181 227 273 325
#     4  10  21  33  55  81 108 144 180 222 271 321
#
# _framework density 20.175115000000002
#
# number of rings (size 3 to 8) (size 9 to 14) (size 15 to 20)
#    0.000    2.750    5.000    0.750    3.500    0.500 
#    0.000    0.000    0.000    1.500    0.000    0.000 
#    0.000    0.000    0.000    0.000    0.000    0.000 
#
# Total GULP energy -178266.341893 kJ/mol
# GULP energy per Si atom -5570.823184 kJ/mol
# Density = 2.012920 g / cm^3
# Si number density = 20.175115 Si / 1000 Ang^3
#
#
#
# Elastic Constant Matrix: (Units=GPa)
#
#
# Indices 1 2 3 4 5 6 
#
# 1 130.1075 20.9833 35.0366 0.0000 0.0000 0.0000
# 2 20.9833 43.6041 30.3364 0.0000 0.0000 0.0000
# 3 35.0366 30.3364 134.4732 0.0000 0.0000 0.0000
# 4 0.0000 0.0000 0.0000 19.5203 0.0000 0.0000
# 5 0.0000 0.0000 0.0000 0.0000 8.8706 0.0000
# 6 0.0000 0.0000 0.0000 0.0000 0.0000 -7.6923
#
#
#
# Elastic Compliance Matrix: (Units=1/GPa)
#
#
# Indices 1 2 3 4 5 6 
#
# 1 0.008597 -0.003059 -0.001550 0.000000 0.000000 0.000000
# 2 -0.003059 0.028291 -0.005585 0.000000 0.000000 0.000000
# 3 -0.001550 -0.005585 0.009100 0.000000 0.000000 0.000000
# 4 0.000000 0.000000 0.000000 0.051229 0.000000 0.000000
# 5 0.000000 0.000000 0.000000 0.000000 0.112732 0.000000
# 6 0.000000 0.000000 0.000000 0.000000 0.000000 -0.130001
#
#
# Mechanical properties :
#
#
# Convention : Reuss Voigt Hill
#
# Bulk Modulus (GPa) = 39.06177 53.43304 46.24740
# Shear Modulus (GPa) = 45.92644 18.92829 32.42736
#
# Velocity S-wave (km/s) = 4.77633 3.06633 4.01346
# Velocity P-wave (km/s) = 7.05841 6.25129 6.66707
#
# Compressibility (1/GPa) = 0.02560048
#
# Stress axis : x y z
#
# Youngs Moduli (GPa) = 116.32529 35.34638 109.88683
#
# Poissons Ratio (x) = 0.10811 0.17030
# Poissons Ratio (y) = 0.35580 0.61377
# Poissons Ratio (z) = 0.18028 0.19743
#
# Static dielectric constant tensor:
#      x y z
#    x 1.774820 0.000000 0.000000 
#    y 0.000000 1.759810 0.000000 
#    z 0.000000 0.000000 1.778430 
# 
# From -- ./inp_files/11430.got.cif
#   From: 2010.05.17/outbox.cif.g08.bks.cpg/sg53_6_cif.got.tgz:11430.got - 2010.06.03 12:45:16.
