data_PCOD9418708
_publ_section_title
;
Structure prediction by ZEFSAII (Michael W. Deem and Ramdas Pophale) SiO2 
 PCOD9418708
Probable space group: P M N A
;
_chemical_formula_sum "Si O2"
_cell_formula_units_Z 56
_cell_length_a 8.758871
_cell_length_b 21.962748
_cell_length_c 14.971186
_cell_angle_alpha 90.000000
_cell_angle_beta 90.000000
_cell_angle_gamma 90.000000
_cell_volume 2879.990231
_symmetry_space_group_name_H-M "P M N A"
_symmetry_group_IT_number 53
_symmetry_cell_setting 'orthorhombic'
loop_
_space_group_symop_operation_xyz
x,y,z
1/2-x,-y,1/2+z
x,-y,-z
1/2-x,y,1/2-z
-x,-y,-z
1/2+x,y,1/2-z
-x,y,z
1/2+x,-y,1/2+z
loop_
_atom_site_type_symbol
_atom_site_label
_atom_site_fract_x
_atom_site_fract_y
_atom_site_fract_z
Si Si1 0.817891 0.391886 0.149626
Si Si2 0.317476 0.047824 0.348187
Si Si3 0.316716 0.483812 0.850499
Si Si4 0.184476 0.285873 0.471687
Si Si5 0.317367 0.907149 0.347879
Si Si6 0.817411 0.148271 0.479461
Si Si7 0.317112 0.652235 0.151331
O O1 0.750000 0.386594 0.250000
O O2 0.754689 0.455405 0.108364
O O3 0.000000 0.394635 0.154863
O O4 0.762082 0.334853 0.092234
O O5 0.250000 0.058750 0.250000
O O6 0.500000 0.052918 0.346035
O O7 0.250610 0.096455 0.416208
O O8 0.280052 0.977683 0.372316
O O9 0.250000 0.483218 0.750000
O O10 0.500000 0.490107 0.849985
O O11 0.277563 0.416070 0.883574
O O12 0.225005 0.216438 0.449468
O O13 0.228154 0.300931 0.574260
O O14 0.000000 0.292625 0.465081
O O15 0.250000 0.895727 0.250000
O O16 0.500000 0.901279 0.346434
O O17 0.244977 0.864090 0.421692
O O18 0.000000 0.144062 0.479733
O O19 0.250000 0.662052 0.250000
O O20 0.500000 0.653880 0.160685
#
# Coordination Sequence:
#
# PCOD9418708 Si02
#       7
#     8   8   8   8   8   8   8
#     4  11  22  37  58  82 109 143 182 230 282 332
#     4  10  21  38  61  88 116 147 185 230 280 332
#     4   9  16  30  54  81 107 138 176 223 279 332
#     4  10  23  41  56  78 112 151 192 227 269 328
#     4  10  21  38  61  88 117 148 185 230 278 330
#     4  11  23  38  58  83 115 153 190 231 277 329
#     4   9  19  36  58  81 109 144 182 227 277 328
#
# _framework density 19.444510000000001
#
# number of rings (size 3 to 8) (size 9 to 14) (size 15 to 20)
#    0.000    2.000    0.000    4.286    0.000    7.429 
#    0.000    4.286    0.000    0.000    0.000    0.000 
#    0.000    0.000    0.000    0.000    0.000    0.000 
#
# Total GULP energy -312760.966035 kJ/mol
# GULP energy per Si atom -5585.017251 kJ/mol
# Density = 1.940025 g / cm^3
# Si number density = 19.444510 Si / 1000 Ang^3
#
#
#
# Elastic Constant Matrix: (Units=GPa)
#
#
# Indices 1 2 3 4 5 6 
#
# 1 51.3708 18.1746 6.3897 0.0000 0.0000 0.0000
# 2 18.1746 35.4511 3.2567 0.0000 0.0000 0.0000
# 3 6.3897 3.2567 36.8153 0.0000 0.0000 0.0000
# 4 0.0000 0.0000 0.0000 -3.6749 0.0000 0.0000
# 5 0.0000 0.0000 0.0000 0.0000 30.4726 0.0000
# 6 0.0000 0.0000 0.0000 0.0000 0.0000 15.8215
#
#
#
# Elastic Compliance Matrix: (Units=1/GPa)
#
#
# Indices 1 2 3 4 5 6 
#
# 1 0.024129 -0.012084 -0.003119 0.000000 0.000000 0.000000
# 2 -0.012084 0.034490 -0.000954 0.000000 0.000000 0.000000
# 3 -0.003119 -0.000954 0.027788 0.000000 0.000000 0.000000
# 4 0.000000 0.000000 0.000000 -0.272116 0.000000 0.000000
# 5 0.000000 0.000000 0.000000 0.000000 0.032816 0.000000
# 6 0.000000 0.000000 0.000000 0.000000 0.000000 0.063205
#
#
# Mechanical properties :
#
#
# Convention : Reuss Voigt Hill
#
# Bulk Modulus (GPa) = 18.48595 19.91988 19.20292
# Shear Modulus (GPa) = -127.09312 14.91158 -56.09077
#
# Velocity S-wave (km/s) = -8.09344 2.77226 -5.37673
# Velocity P-wave (km/s) = 8.82104 4.52923 5.35242
#
# Compressibility (1/GPa) = 0.05409515
#
# Stress axis : x y z
#
# Youngs Moduli (GPa) = 41.44320 28.99353 35.98632
#
# Poissons Ratio (x) = 0.35035 0.11224
# Poissons Ratio (y) = 0.50079 0.03432
# Poissons Ratio (z) = 0.12926 0.02765
#
# Static dielectric constant tensor:
#      x y z
#    x 1.640690 0.000000 0.000000 
#    y 0.000000 1.695510 0.000000 
#    z 0.000000 0.000000 1.649960 
# 
# From -- ./inp_files/20442.got.cif
#   From: 2010.05.17/outbox.cif.g08.bks.cpg/sg53_11_cif.got.tgz:20442.got - 2010.06.03 12:45:16.
