data_PCOD9418729
_publ_section_title
;
Structure prediction by ZEFSAII (Michael W. Deem and Ramdas Pophale) SiO2 
 PCOD9418729
Probable space group: P M N A
;
_chemical_formula_sum "Si O2"
_cell_formula_units_Z 48
_cell_length_a 8.700921
_cell_length_b 31.023108
_cell_length_c 9.296623
_cell_angle_alpha 90.000000
_cell_angle_beta 90.000000
_cell_angle_gamma 90.000000
_cell_volume 2509.433838
_symmetry_space_group_name_H-M "P M N A"
_symmetry_group_IT_number 53
_symmetry_cell_setting 'orthorhombic'
loop_
_space_group_symop_operation_xyz
x,y,z
1/2-x,-y,1/2+z
x,-y,-z
1/2-x,y,1/2-z
-x,-y,-z
1/2+x,y,1/2-z
-x,y,z
1/2+x,-y,1/2+z
loop_
_atom_site_type_symbol
_atom_site_label
_atom_site_fract_x
_atom_site_fract_y
_atom_site_fract_z
Si Si1 0.816096 0.296378 0.089856
Si Si2 0.316528 0.880963 0.091625
Si Si3 0.815997 0.623710 0.410939
Si Si4 0.683480 0.543761 0.589398
Si Si5 0.315976 0.041870 0.408604
Si Si6 0.684368 0.780924 0.090342
O O1 0.750000 0.301734 0.250000
O O2 0.000000 0.298556 0.093090
O O3 0.750035 0.333861 0.988011
O O4 0.760393 0.251322 0.022279
O O5 0.250000 0.889664 0.250000
O O6 0.500000 0.885612 0.094724
O O7 0.281030 0.831009 0.056472
O O8 0.245448 0.914881 0.982529
O O9 0.750000 0.620157 0.250000
O O10 0.761826 0.582986 0.504863
O O11 0.000000 0.625718 0.405705
O O12 0.710809 0.500000 0.500000
O O13 0.750000 0.540209 0.750000
O O14 0.500000 0.551046 0.596725
O O15 0.250000 0.037964 0.250000
O O16 0.500000 0.043133 0.404454
O O17 0.268099 0.000000 0.500000
O O18 0.750000 0.772000 0.250000
O O19 0.500000 0.775255 0.091430
#
# Coordination Sequence:
#
# PCOD9418729 Si02
#       6
#     8   8   8   8   8   8
#     4  12  25  42  63  89 122 160 202 249 302 357
#     4  10  21  38  62  89 120 156 196 243 294 352
#     4  12  25  43  66  92 124 161 204 252 303 360
#     4  11  24  42  65  94 128 165 206 252 303 359
#     4  11  24  40  60  86 117 154 196 243 295 352
#     4  10  21  39  62  90 121 157 199 243 295 353
#
# _framework density 19.127821000000001
#
# number of rings (size 3 to 8) (size 9 to 14) (size 15 to 20)
#    0.000    1.000    0.000    7.000    0.000    8.000 
#    0.000    0.000    0.000    0.000    0.000    0.000 
#    0.000    0.000    0.000    0.000    0.000    0.000 
#
# Total GULP energy -268662.141570 kJ/mol
# GULP energy per Si atom -5597.127949 kJ/mol
# Density = 1.908429 g / cm^3
# Si number density = 19.127821 Si / 1000 Ang^3
#
#
#
# Elastic Constant Matrix: (Units=GPa)
#
#
# Indices 1 2 3 4 5 6 
#
# 1 138.1306 75.6633 85.3051 0.0000 0.0000 0.0000
# 2 75.6633 110.9268 98.1207 0.0000 0.0000 0.0000
# 3 85.3051 98.1207 184.1769 0.0000 0.0000 0.0000
# 4 0.0000 0.0000 0.0000 41.8091 0.0000 0.0000
# 5 0.0000 0.0000 0.0000 0.0000 40.5619 0.0000
# 6 0.0000 0.0000 0.0000 0.0000 0.0000 36.6482
#
#
#
# Elastic Compliance Matrix: (Units=1/GPa)
#
#
# Indices 1 2 3 4 5 6 
#
# 1 0.012041 -0.006203 -0.002272 0.000000 0.000000 0.000000
# 2 -0.006203 0.020245 -0.007913 0.000000 0.000000 0.000000
# 3 -0.002272 -0.007913 0.010697 0.000000 0.000000 0.000000
# 4 0.000000 0.000000 0.000000 0.023918 0.000000 0.000000
# 5 0.000000 0.000000 0.000000 0.000000 0.024654 0.000000
# 6 0.000000 0.000000 0.000000 0.000000 0.000000 0.027286
#
#
# Mechanical properties :
#
#
# Convention : Reuss Voigt Hill
#
# Bulk Modulus (GPa) = 97.96651 105.71249 101.83950
# Shear Modulus (GPa) = 32.25399 35.41352 33.83375
#
# Velocity S-wave (km/s) = 4.11083 4.30747 4.21030
# Velocity P-wave (km/s) = 8.59418 8.95128 8.77455
#
# Compressibility (1/GPa) = 0.01020757
#
# Stress axis : x y z
#
# Youngs Moduli (GPa) = 83.05276 49.39447 93.48073
#
# Poissons Ratio (x) = 0.30640 0.21240
# Poissons Ratio (y) = 0.51518 0.73968
# Poissons Ratio (z) = 0.18871 0.39084
#
# Static dielectric constant tensor:
#      x y z
#    x 1.638050 0.000000 0.000000 
#    y 0.000000 1.651090 0.000000 
#    z 0.000000 0.000000 1.617750 
# 
# From -- ./inp_files/6649.got.cif
#   From: 2010.05.17/outbox.cif.g08.bks.cpg/sg53_4_cif.got.tgz:6649.got - 2010.06.03 12:45:16.
