data_PCOD9418525
_publ_section_title
;
Structure prediction by ZEFSAII (Michael W. Deem and Ramdas Pophale) SiO2 
 PCOD9418525
Probable space group: P M N A
;
_chemical_formula_sum "Si O2"
_cell_formula_units_Z 28
_cell_length_a 9.866825
_cell_length_b 6.447380
_cell_length_c 23.127953
_cell_angle_alpha 90.000000
_cell_angle_beta 90.000000
_cell_angle_gamma 90.000000
_cell_volume 1471.288666
_symmetry_space_group_name_H-M "P M N A"
_symmetry_group_IT_number 53
_symmetry_cell_setting 'orthorhombic'
loop_
_space_group_symop_operation_xyz
x,y,z
1/2-x,-y,1/2+z
x,-y,-z
1/2-x,y,1/2-z
-x,-y,-z
1/2+x,y,1/2-z
-x,y,z
1/2+x,-y,1/2+z
loop_
_atom_site_type_symbol
_atom_site_label
_atom_site_fract_x
_atom_site_fract_y
_atom_site_fract_z
Si Si1 0.342528 0.021101 0.567791
Si Si2 0.150200 0.331232 0.159155
Si Si3 0.750000 0.011229 0.250000
Si Si4 0.156509 0.713353 0.348853
O O1 0.500000 0.089080 0.575046
O O2 0.240591 0.175999 0.599885
O O3 0.314802 0.000000 0.500000
O O4 0.331769 0.799914 0.600264
O O5 0.161379 0.161213 0.209753
O O6 0.265931 0.501189 0.165478
O O7 0.000000 0.426946 0.160102
O O8 0.667820 0.864883 0.206410
O O9 0.000000 0.679725 0.363596
#
# Coordination Sequence:
#
# PCOD9418525 Si02
#       4
#     8   8   4   8
#     4   9  20  40  62  82 109 149 194 234 273 327
#     4  10  21  37  58  82 109 145 188 230 274 329
#     4  10  22  38  58  80 110 150 190 228 272 330
#     4  11  23  37  57  86 117 147 182 230 286 336
#
# _framework density 19.030934999999999
#
# number of rings (size 3 to 8) (size 9 to 14) (size 15 to 20)
#    0.000    2.000    0.000    2.571    0.000   13.143 
#    0.000    5.714    0.000    0.000    0.000    0.000 
#    0.000    0.000    0.000    0.000    0.000    0.000 
#
# Total GULP energy -156375.383316 kJ/mol
# GULP energy per Si atom -5584.835118 kJ/mol
# Density = 1.898762 g / cm^3
# Si number density = 19.030935 Si / 1000 Ang^3
#
#
#
# Elastic Constant Matrix: (Units=GPa)
#
#
# Indices 1 2 3 4 5 6 
#
# 1 152.2496 69.0363 56.3634 0.0000 0.0000 0.0000
# 2 69.0363 93.0525 50.3495 0.0000 0.0000 0.0000
# 3 56.3634 50.3495 134.9397 0.0000 0.0000 0.0000
# 4 0.0000 0.0000 0.0000 7.7061 0.0000 0.0000
# 5 0.0000 0.0000 0.0000 0.0000 -19.2755 0.0000
# 6 0.0000 0.0000 0.0000 0.0000 0.0000 19.8365
#
#
#
# Elastic Compliance Matrix: (Units=1/GPa)
#
#
# Indices 1 2 3 4 5 6 
#
# 1 0.010238 -0.006618 -0.001807 0.000000 0.000000 0.000000
# 2 -0.006618 0.017743 -0.003856 0.000000 0.000000 0.000000
# 3 -0.001807 -0.003856 0.009604 0.000000 0.000000 0.000000
# 4 0.000000 0.000000 0.000000 0.129766 0.000000 0.000000
# 5 0.000000 0.000000 0.000000 0.000000 -0.051879 0.000000
# 6 0.000000 0.000000 0.000000 0.000000 0.000000 0.050412
#
#
# Mechanical properties :
#
#
# Convention : Reuss Voigt Hill
#
# Bulk Modulus (GPa) = 76.78593 81.30445 79.04519
# Shear Modulus (GPa) = 25.66901 15.28628 20.47764
#
# Velocity S-wave (km/s) = 3.67659 2.83721 3.28383
# Velocity P-wave (km/s) = 7.64583 7.31765 7.48354
#
# Compressibility (1/GPa) = 0.01302322
#
# Stress axis : x y z
#
# Youngs Moduli (GPa) = 97.67591 56.36042 104.11980
#
# Poissons Ratio (x) = 0.37298 0.18815
# Poissons Ratio (y) = 0.64640 0.40150
# Poissons Ratio (z) = 0.17650 0.21733
#
# Static dielectric constant tensor:
#      x y z
#    x 1.648870 0.000000 0.000000 
#    y 0.000000 1.653730 0.000000 
#    z 0.000000 0.000000 1.652340 
# 
# From -- ./inp_files/31486.got.cif
#   From: 2010.05.17/outbox.cif.g08.bks.cpg/sg53_16_cif.got.tgz:31486.got - 2010.06.03 12:45:16.
