data_PCOD9418393
_publ_section_title
;
Structure prediction by ZEFSAII (Michael W. Deem and Ramdas Pophale) SiO2 
 PCOD9418393
Probable space group: P M N A
;
_chemical_formula_sum "Si O2"
_cell_formula_units_Z 64
_cell_length_a 8.797545
_cell_length_b 15.275825
_cell_length_c 24.371676
_cell_angle_alpha 90.000000
_cell_angle_beta 90.000000
_cell_angle_gamma 90.000000
_cell_volume 3275.303636
_symmetry_space_group_name_H-M "P M N A"
_symmetry_group_IT_number 53
_symmetry_cell_setting 'orthorhombic'
loop_
_space_group_symop_operation_xyz
x,y,z
1/2-x,-y,1/2+z
x,-y,-z
1/2-x,y,1/2-z
-x,-y,-z
1/2+x,y,1/2-z
-x,y,z
1/2+x,-y,1/2+z
loop_
_atom_site_type_symbol
_atom_site_label
_atom_site_fract_x
_atom_site_fract_y
_atom_site_fract_z
Si Si1 0.317109 0.431409 0.687985
Si Si2 0.330144 0.089980 0.305030
Si Si3 0.828372 0.298361 0.196267
Si Si4 0.182403 0.303712 0.601192
Si Si5 0.317368 0.935444 0.922951
Si Si6 0.315961 0.130985 0.963288
Si Si7 0.323766 0.590498 0.884313
Si Si8 0.829845 0.396296 0.000551
O O1 0.250000 0.436146 0.750000
O O2 0.500000 0.432895 0.690215
O O3 0.259833 0.344387 0.655397
O O4 0.259204 0.512528 0.649696
O O5 0.250000 0.055098 0.250000
O O6 0.500000 0.053823 0.308838
O O7 0.340503 0.194772 0.297733
O O8 0.246353 0.078212 0.362559
O O9 0.750000 0.337357 0.250000
O O10 0.710100 0.322601 0.149893
O O11 0.000000 0.332299 0.186807
O O12 0.233085 0.208506 0.577592
O O13 0.231494 0.366108 0.550896
O O14 0.000000 0.303827 0.608582
O O15 0.500000 0.928930 0.921053
O O16 0.278625 0.034874 0.940567
O O17 0.264092 0.871091 0.972653
O O18 0.500000 0.137573 0.965196
O O19 0.500000 0.567935 0.888490
O O20 0.255636 0.615885 0.942703
O O21 0.000000 0.356942 0.998788
O O22 0.846840 0.500000 0.000000
#
# Coordination Sequence:
#
# PCOD9418393 Si02
#       8
#     8   8   8   8   8   8   8   8
#     4  12  25  43  63  85 114 154 197 245 297 346
#     4  10  21  36  55  83 116 154 194 237 287 344
#     4  10  21  37  54  78 115 152 191 236 281 336
#     4  11  22  39  62  91 120 152 196 242 289 349
#     4   9  17  36  62  87 117 153 190 232 285 348
#     4   8  18  36  61  90 118 150 189 235 290 348
#     4  12  24  38  59  85 113 151 196 240 286 342
#     4  11  23  39  58  83 118 156 190 234 285 339
#
# _framework density 19.540175000000001
#
# number of rings (size 3 to 8) (size 9 to 14) (size 15 to 20)
#    0.000    1.625    1.250    4.875    1.750    2.000 
#    0.000    3.750    0.000    0.000    0.000    0.000 
#    0.000    0.000    0.000    0.000    0.000    0.000 
#
# Total GULP energy -356828.831063 kJ/mol
# GULP energy per Si atom -5575.450485 kJ/mol
# Density = 1.949570 g / cm^3
# Si number density = 19.540175 Si / 1000 Ang^3
#
#
#
# Elastic Constant Matrix: (Units=GPa)
#
#
# Indices 1 2 3 4 5 6 
#
# 1 80.1331 6.2734 34.8246 0.0000 0.0000 0.0000
# 2 6.2734 32.6860 2.7633 0.0000 0.0000 0.0000
# 3 34.8246 2.7633 128.1082 0.0000 0.0000 0.0000
# 4 0.0000 0.0000 0.0000 70.6028 0.0000 0.0000
# 5 0.0000 0.0000 0.0000 0.0000 35.7688 0.0000
# 6 0.0000 0.0000 0.0000 0.0000 0.0000 20.5904
#
#
#
# Elastic Compliance Matrix: (Units=1/GPa)
#
#
# Indices 1 2 3 4 5 6 
#
# 1 0.014341 -0.002427 -0.003846 0.000000 0.000000 0.000000
# 2 -0.002427 0.031061 -0.000010 0.000000 0.000000 0.000000
# 3 -0.003846 -0.000010 0.008852 0.000000 0.000000 0.000000
# 4 0.000000 0.000000 0.000000 0.014164 0.000000 0.000000
# 5 0.000000 0.000000 0.000000 0.000000 0.027957 0.000000
# 6 0.000000 0.000000 0.000000 0.000000 0.000000 0.048566
#
#
# Mechanical properties :
#
#
# Convention : Reuss Voigt Hill
#
# Bulk Modulus (GPa) = 23.98868 36.51665 30.25266
# Shear Modulus (GPa) = 29.17107 38.53013 33.85060
#
# Velocity S-wave (km/s) = 3.86797 4.44536 4.16668
# Velocity P-wave (km/s) = 5.67904 6.71393 6.21805
#
# Compressibility (1/GPa) = 0.04168633
#
# Stress axis : x y z
#
# Youngs Moduli (GPa) = 69.73178 32.19489 112.97389
#
# Poissons Ratio (x) = 0.07814 0.43449
# Poissons Ratio (y) = 0.16926 0.00115
# Poissons Ratio (z) = 0.26819 0.00033
#
# Static dielectric constant tensor:
#      x y z
#    x 1.703700 0.000000 0.000000 
#    y 0.000000 1.723550 0.000000 
#    z 0.000000 0.000000 1.608190 
# 
# From -- ./inp_files/34135.got.cif
#   From: 2010.05.17/outbox.cif.g08.bks.cpg/sg53_18_cif.got.tgz:34135.got - 2010.06.03 12:45:16.
