data_PCOD9418886
_publ_section_title
;
Structure prediction by ZEFSAII (Michael W. Deem and Ramdas Pophale) SiO2 
 PCOD9418886
Probable space group: P M N A
;
_chemical_formula_sum "Si O2"
_cell_formula_units_Z 48
_cell_length_a 7.445951
_cell_length_b 8.573773
_cell_length_c 35.684981
_cell_angle_alpha 90.000000
_cell_angle_beta 90.000000
_cell_angle_gamma 90.000000
_cell_volume 2278.125392
_symmetry_space_group_name_H-M "P M N A"
_symmetry_group_IT_number 53
_symmetry_cell_setting 'orthorhombic'
loop_
_space_group_symop_operation_xyz
x,y,z
1/2-x,-y,1/2+z
x,-y,-z
1/2-x,y,1/2-z
-x,-y,-z
1/2+x,y,1/2-z
-x,y,z
1/2+x,-y,1/2+z
loop_
_atom_site_type_symbol
_atom_site_label
_atom_site_fract_x
_atom_site_fract_y
_atom_site_fract_z
Si Si1 0.208899 0.180880 0.588749
Si Si2 0.000000 0.848845 0.023618
Si Si3 0.287972 0.535860 0.901075
Si Si4 0.214580 0.652062 0.206172
Si Si5 0.291793 0.682634 0.676766
Si Si6 0.000000 0.400799 0.037121
Si Si7 0.215830 0.029900 0.834462
O O1 0.332679 0.169193 0.552170
O O2 0.245037 0.352121 0.606817
O O3 0.245442 0.055096 0.621330
O O4 0.000000 0.174941 0.578380
O O5 0.000000 0.753138 0.985433
O O6 0.000000 0.000000 0.000000
O O7 0.500000 0.558051 0.906138
O O8 0.220643 0.641687 0.867171
O O9 0.172922 0.572757 0.937482
O O10 0.250000 0.671330 0.250000
O O11 0.285539 0.478383 0.194726
O O12 0.282337 0.810813 0.185820
O O13 0.000000 0.646988 0.198719
O O14 0.500000 0.690370 0.688934
O O15 0.218132 0.860261 0.680625
O O16 0.000000 0.500000 0.000000
O O17 0.000000 0.026440 0.830244
#
# Coordination Sequence:
#
# PCOD9418886 Si02
#       7
#     8   4   8   8   8   4   8
#     4  11  23  41  66  94 125 170 224 268 328 398
#     4  12  28  44  62  90 134 178 212 278 346 388
#     4  11  23  39  65  95 121 160 220 272 319 388
#     4  10  22  39  62  93 133 172 212 266 326 389
#     4  10  21  39  66  93 122 168 219 264 319 386
#     4  12  24  42  64  86 122 170 212 266 336 382
#     4  10  21  39  66  93 124 171 223 268 322 391
#
# _framework density 21.069956000000001
#
# number of rings (size 3 to 8) (size 9 to 14) (size 15 to 20)
#    0.000    1.333    5.000    0.000    2.333    4.000 
#    0.000    0.000    0.000    0.000    0.000    0.000 
#    0.000    0.000    0.000    0.000    0.000    0.000 
#
# Total GULP energy -267429.139129 kJ/mol
# GULP energy per Si atom -5571.440399 kJ/mol
# Density = 2.102200 g / cm^3
# Si number density = 21.069956 Si / 1000 Ang^3
#
#
#
# Elastic Constant Matrix: (Units=GPa)
#
#
# Indices 1 2 3 4 5 6 
#
# 1 71.2147 20.6934 0.2714 0.0000 0.0000 0.0000
# 2 20.6934 169.0165 26.5860 0.0000 0.0000 0.0000
# 3 0.2714 26.5860 75.3956 0.0000 0.0000 0.0000
# 4 0.0000 0.0000 0.0000 26.6780 0.0000 0.0000
# 5 0.0000 0.0000 0.0000 0.0000 19.0239 0.0000
# 6 0.0000 0.0000 0.0000 0.0000 0.0000 18.9497
#
#
#
# Elastic Compliance Matrix: (Units=1/GPa)
#
#
# Indices 1 2 3 4 5 6 
#
# 1 0.014587 -0.001882 0.000611 0.000000 0.000000 0.000000
# 2 -0.001882 0.006507 -0.002288 0.000000 0.000000 0.000000
# 3 0.000611 -0.002288 0.014068 0.000000 0.000000 0.000000
# 4 0.000000 0.000000 0.000000 0.037484 0.000000 0.000000
# 5 0.000000 0.000000 0.000000 0.000000 0.052565 0.000000
# 6 0.000000 0.000000 0.000000 0.000000 0.000000 0.052771
#
#
# Mechanical properties :
#
#
# Convention : Reuss Voigt Hill
#
# Bulk Modulus (GPa) = 35.65805 45.63648 40.64727
# Shear Modulus (GPa) = 25.71394 30.80207 28.25800
#
# Velocity S-wave (km/s) = 3.49722 3.82762 3.66615
# Velocity P-wave (km/s) = 5.76783 6.42190 6.10363
#
# Compressibility (1/GPa) = 0.02804416
#
# Stress axis : x y z
#
# Youngs Moduli (GPa) = 68.55614 153.68415 71.08405
#
# Poissons Ratio (x) = 0.28924 -0.04344
# Poissons Ratio (y) = 0.12902 0.16262
# Poissons Ratio (z) = -0.04190 0.35158
#
# Static dielectric constant tensor:
#      x y z
#    x 1.747500 0.000000 0.000000 
#    y 0.000000 1.783810 0.000000 
#    z 0.000000 0.000000 2.431880 
# 
# From -- ./inp_files/37828.got.cif
#   From: 2010.05.17/outbox.cif.g08.bks.cpg/sg53_19_cif.got.tgz:37828.got - 2010.06.03 12:45:16.
