data_PCOD9418470
_publ_section_title
;
Structure prediction by ZEFSAII (Michael W. Deem and Ramdas Pophale) SiO2 
 PCOD9418470
Probable space group: P M N A
;
_chemical_formula_sum "Si O2"
_cell_formula_units_Z 64
_cell_length_a 8.432378
_cell_length_b 25.074246
_cell_length_c 14.748300
_cell_angle_alpha 90.000000
_cell_angle_beta 90.000000
_cell_angle_gamma 90.000000
_cell_volume 3118.314485
_symmetry_space_group_name_H-M "P M N A"
_symmetry_group_IT_number 53
_symmetry_cell_setting 'orthorhombic'
loop_
_space_group_symop_operation_xyz
x,y,z
1/2-x,-y,1/2+z
x,-y,-z
1/2-x,y,1/2-z
-x,-y,-z
1/2+x,y,1/2-z
-x,y,z
1/2+x,-y,1/2+z
loop_
_atom_site_type_symbol
_atom_site_label
_atom_site_fract_x
_atom_site_fract_y
_atom_site_fract_z
Si Si1 0.191463 0.536845 0.148031
Si Si2 0.188282 0.148734 0.853514
Si Si3 0.691406 0.803861 0.852274
Si Si4 0.691142 0.583467 0.648987
Si Si5 0.810400 0.751474 0.467809
Si Si6 0.808430 0.078274 0.354104
Si Si7 0.190586 0.963303 0.354777
Si Si8 0.691633 0.637073 0.470663
O O1 0.250000 0.544773 0.250000
O O2 0.241519 0.476809 0.121143
O O3 0.245980 0.585979 0.087077
O O4 0.000000 0.536965 0.145570
O O5 0.250000 0.151973 0.750000
O O6 0.248241 0.199913 0.907610
O O7 0.248152 0.092278 0.894477
O O8 0.000000 0.147652 0.851776
O O9 0.750000 0.794845 0.750000
O O10 0.500000 0.803677 0.849088
O O11 0.743591 0.863198 0.885942
O O12 0.744260 0.762355 0.928498
O O13 0.750000 0.594109 0.750000
O O14 0.500000 0.583641 0.650196
O O15 0.744649 0.625229 0.573619
O O16 0.752889 0.693651 0.437074
O O17 0.000000 0.752944 0.465992
O O18 0.750000 0.077288 0.250000
O O19 0.000000 0.078141 0.356660
O O20 0.758022 0.020976 0.394321
O O21 0.250000 0.963341 0.250000
O O22 0.000000 0.961335 0.355952
O O23 0.500000 0.638046 0.468504
#
# Coordination Sequence:
#
# PCOD9418470 Si02
#       8
#     8   8   8   8   8   8   8   8
#     4   9  18  34  57  84 112 142 176 216 264 319
#     4  11  22  38  59  80 106 141 180 224 275 328
#     4   9  19  36  57  79 106 142 182 226 274 324
#     4   9  18  34  57  84 113 144 178 217 264 319
#     4  11  24  40  56  78 109 145 189 233 271 318
#     4   8  14  26  47  75 103 133 170 213 266 325
#     4   9  15  26  48  77 106 134 168 213 267 328
#     4  10  21  37  56  78 108 146 184 222 267 318
#
# _framework density 20.523907000000001
#
# number of rings (size 3 to 8) (size 9 to 14) (size 15 to 20)
#    0.000    2.500    0.000    3.000    0.000    5.000 
#    0.000    4.375    0.000    7.500    0.000    0.000 
#    0.000    0.000    0.000    0.000    0.000    0.000 
#
# Total GULP energy -357026.087023 kJ/mol
# GULP energy per Si atom -5578.532610 kJ/mol
# Density = 2.047719 g / cm^3
# Si number density = 20.523907 Si / 1000 Ang^3
#
#
#
# Elastic Constant Matrix: (Units=GPa)
#
#
# Indices 1 2 3 4 5 6 
#
# 1 31.0503 12.1721 1.0673 0.0000 0.0000 0.0000
# 2 12.1721 75.2682 11.7737 0.0000 0.0000 0.0000
# 3 1.0673 11.7737 31.3971 0.0000 0.0000 0.0000
# 4 0.0000 0.0000 0.0000 27.6750 0.0000 0.0000
# 5 0.0000 0.0000 0.0000 0.0000 19.3657 0.0000
# 6 0.0000 0.0000 0.0000 0.0000 0.0000 29.3913
#
#
#
# Elastic Compliance Matrix: (Units=1/GPa)
#
#
# Indices 1 2 3 4 5 6 
#
# 1 0.034414 -0.005718 0.000974 0.000000 0.000000 0.000000
# 2 -0.005718 0.015064 -0.005454 0.000000 0.000000 0.000000
# 3 0.000974 -0.005454 0.033862 0.000000 0.000000 0.000000
# 4 0.000000 0.000000 0.000000 0.036134 0.000000 0.000000
# 5 0.000000 0.000000 0.000000 0.000000 0.051638 0.000000
# 6 0.000000 0.000000 0.000000 0.000000 0.000000 0.034024
#
#
# Mechanical properties :
#
#
# Convention : Reuss Voigt Hill
#
# Bulk Modulus (GPa) = 15.88712 20.86019 18.37365
# Shear Modulus (GPa) = 20.28301 22.79990 21.54145
#
# Velocity S-wave (km/s) = 3.14707 3.33662 3.24323
# Velocity P-wave (km/s) = 4.57854 5.00300 4.79547
#
# Compressibility (1/GPa) = 0.06294408
#
# Stress axis : x y z
#
# Youngs Moduli (GPa) = 29.05818 66.38502 29.53132
#
# Poissons Ratio (x) = 0.37957 -0.02877
# Poissons Ratio (y) = 0.16614 0.16108
# Poissons Ratio (z) = -0.02831 0.36209
#
# Static dielectric constant tensor:
#      x y z
#    x 1.703460 0.000000 0.000000 
#    y 0.000000 1.755180 0.000000 
#    z 0.000000 0.000000 1.707150 
# 
# From -- ./inp_files/20851.got.cif
#   From: 2010.05.17/outbox.cif.g08.bks.cpg/sg53_11_cif.got.tgz:20851.got - 2010.06.03 12:45:16.
