data_PCOD9418568
_publ_section_title
;
Structure prediction by ZEFSAII (Michael W. Deem and Ramdas Pophale) SiO2 
 PCOD9418568
Probable space group: P M N A
;
_chemical_formula_sum "Si O2"
_cell_formula_units_Z 48
_cell_length_a 30.793511
_cell_length_b 9.161001
_cell_length_c 9.684224
_cell_angle_alpha 90.000000
_cell_angle_beta 90.000000
_cell_angle_gamma 90.000000
_cell_volume 2731.913635
_symmetry_space_group_name_H-M "P M N A"
_symmetry_group_IT_number 53
_symmetry_cell_setting 'orthorhombic'
loop_
_space_group_symop_operation_xyz
x,y,z
1/2-x,-y,1/2+z
x,-y,-z
1/2-x,y,1/2-z
-x,-y,-z
1/2+x,y,1/2-z
-x,y,z
1/2+x,-y,1/2+z
loop_
_atom_site_type_symbol
_atom_site_label
_atom_site_fract_x
_atom_site_fract_y
_atom_site_fract_z
Si Si1 0.950057 0.172862 0.024845
Si Si2 0.616629 0.308076 0.273806
Si Si3 0.233529 0.857549 0.407801
Si Si4 0.687321 0.332745 0.495245
Si Si5 0.647467 0.326820 0.972077
Si Si6 0.395349 0.649310 0.307797
O O1 0.931458 0.264919 0.894439
O O2 0.000000 0.213878 0.050910
O O3 0.918509 0.207629 0.152479
O O4 0.948002 0.000000 0.000000
O O5 0.662517 0.299817 0.353445
O O6 0.626786 0.274886 0.115737
O O7 0.599859 0.473747 0.302644
O O8 0.250000 0.886117 0.250000
O O9 0.273510 0.772931 0.476791
O O10 0.190873 0.755733 0.422450
O O11 0.225105 0.000000 0.500000
O O12 0.702677 0.500000 0.500000
O O13 0.649604 0.320945 0.610315
O O14 0.656546 0.500000 0.000000
O O15 0.612645 0.307625 0.849809
#
# Coordination Sequence:
#
# PCOD9418568 Si02
#       6
#     8   8   8   8   8   8
#     4  10  21  37  59  86 115 148 181 217 272 343
#     4   9  20  35  61  85 107 141 185 235 279 332
#     4  12  26  38  51  79 117 153 192 237 273 327
#     4   9  18  36  58  77 103 146 192 232 276 319
#     4  10  21  40  60  81 109 147 191 236 285 328
#     4   9  18  37  59  84 108 140 187 233 279 325
#
# _framework density 17.570101000000001
#
# number of rings (size 3 to 8) (size 9 to 14) (size 15 to 20)
#    0.000    2.167    1.667    2.000    2.333    5.333 
#    0.000    0.833    0.000    5.000    0.000    0.000 
#    0.000    0.000    0.000    0.000    0.000    0.000 
#
# Total GULP energy -267646.314568 kJ/mol
# GULP energy per Si atom -5575.964887 kJ/mol
# Density = 1.753011 g / cm^3
# Si number density = 17.570101 Si / 1000 Ang^3
#
#
#
# Elastic Constant Matrix: (Units=GPa)
#
#
# Indices 1 2 3 4 5 6 
#
# 1 44.4670 31.8875 12.5745 0.0000 0.0000 0.0000
# 2 31.8875 36.3207 21.8566 0.0000 0.0000 0.0000
# 3 12.5745 21.8566 127.6325 0.0000 0.0000 0.0000
# 4 0.0000 0.0000 0.0000 18.4359 0.0000 0.0000
# 5 0.0000 0.0000 0.0000 0.0000 5.5707 0.0000
# 6 0.0000 0.0000 0.0000 0.0000 0.0000 27.2830
#
#
#
# Elastic Compliance Matrix: (Units=1/GPa)
#
#
# Indices 1 2 3 4 5 6 
#
# 1 0.062152 -0.056727 0.003591 0.000000 0.000000 0.000000
# 2 -0.056727 0.082471 -0.008534 0.000000 0.000000 0.000000
# 3 0.003591 -0.008534 0.008943 0.000000 0.000000 0.000000
# 4 0.000000 0.000000 0.000000 0.054242 0.000000 0.000000
# 5 0.000000 0.000000 0.000000 0.000000 0.179511 0.000000
# 6 0.000000 0.000000 0.000000 0.000000 0.000000 0.036653
#
#
# Mechanical properties :
#
#
# Convention : Reuss Voigt Hill
#
# Bulk Modulus (GPa) = 33.08437 37.89526 35.48982
# Shear Modulus (GPa) = 8.97042 19.73136 14.35089
#
# Velocity S-wave (km/s) = 2.26199 3.35477 2.86104
# Velocity P-wave (km/s) = 5.06882 6.05151 5.58183
#
# Compressibility (1/GPa) = 0.03022575
#
# Stress axis : x y z
#
# Youngs Moduli (GPa) = 16.08947 12.12545 111.82390
#
# Poissons Ratio (x) = 0.68784 -0.40156
# Poissons Ratio (y) = 0.91271 0.95431
# Poissons Ratio (z) = -0.05778 0.10348
#
# Static dielectric constant tensor:
#      x y z
#    x 1.557680 0.000000 0.000000 
#    y 0.000000 1.628460 0.000000 
#    z 0.000000 0.000000 1.619580 
# 
# From -- ./inp_files/13033.got.cif
#   From: 2010.05.17/outbox.cif.g08.bks.cpg/sg53_7_cif.got.tgz:13033.got - 2010.06.03 12:45:16.
