data_PCOD9418902
_publ_section_title
;
Structure prediction by ZEFSAII (Michael W. Deem and Ramdas Pophale) SiO2 
 PCOD9418902
Probable space group: P M N A
;
_chemical_formula_sum "Si O2"
_cell_formula_units_Z 32
_cell_length_a 30.681948
_cell_length_b 8.837503
_cell_length_c 5.537856
_cell_angle_alpha 90.000000
_cell_angle_beta 90.000000
_cell_angle_gamma 90.000000
_cell_volume 1501.599664
_symmetry_space_group_name_H-M "P M N A"
_symmetry_group_IT_number 53
_symmetry_cell_setting 'orthorhombic'
loop_
_space_group_symop_operation_xyz
x,y,z
1/2-x,-y,1/2+z
x,-y,-z
1/2-x,y,1/2-z
-x,-y,-z
1/2+x,y,1/2-z
-x,y,z
1/2+x,-y,1/2+z
loop_
_atom_site_type_symbol
_atom_site_label
_atom_site_fract_x
_atom_site_fract_y
_atom_site_fract_z
Si Si1 0.000000 0.595165 0.747842
Si Si2 0.594177 0.736503 0.789875
Si Si3 0.223687 0.000000 0.500000
Si Si4 0.345847 0.500000 0.500000
Si Si5 0.834747 0.751189 0.332187
Si Si6 0.628814 0.000000 0.500000
O O1 0.000000 0.500000 0.500000
O O2 0.044348 0.690586 0.732038
O O3 0.000000 0.500000 0.000000
O O4 0.622806 0.620438 0.630357
O O5 0.600832 0.905663 0.691096
O O6 0.617764 0.723663 0.048855
O O7 0.195588 0.843180 0.517553
O O8 0.250000 0.987062 0.250000
O O9 0.320199 0.596739 0.297564
O O10 0.841581 0.878389 0.131293
#
# Coordination Sequence:
#
# PCOD9418902 Si02
#       6
#     4   8   4   4   8   4
#     4  12  26  43  63 103 145 191 248 299 349 412
#     4  11  22  41  68  99 140 191 235 294 351 415
#     4  12  27  46  78 106 138 183 231 296 362 441
#     4  10  22  37  74  96 136 186 230 284 348 421
#     4  11  22  44  70 105 135 185 233 286 361 434
#     4  10  21  39  70  97 136 182 239 286 346 430
#
# _framework density 21.310607000000001
#
# number of rings (size 3 to 8) (size 9 to 14) (size 15 to 20)
#    0.000    1.000    3.750    3.000    7.000    0.500 
#    0.000    2.500    5.500    0.000    0.000    0.000 
#    0.000    0.000    0.000    0.000    0.000    0.000 
#
# Total GULP energy -178635.424375 kJ/mol
# GULP energy per Si atom -5582.357012 kJ/mol
# Density = 2.126210 g / cm^3
# Si number density = 21.310607 Si / 1000 Ang^3
#
#
#
# Elastic Constant Matrix: (Units=GPa)
#
#
# Indices 1 2 3 4 5 6 
#
# 1 83.7037 26.6235 24.1055 0.0000 0.0000 0.0000
# 2 26.6235 117.0776 29.5286 0.0000 0.0000 0.0000
# 3 24.1055 29.5286 94.6687 0.0000 0.0000 0.0000
# 4 0.0000 0.0000 0.0000 56.5354 0.0000 0.0000
# 5 0.0000 0.0000 0.0000 0.0000 20.0262 0.0000
# 6 0.0000 0.0000 0.0000 0.0000 0.0000 4.1480
#
#
#
# Elastic Compliance Matrix: (Units=1/GPa)
#
#
# Indices 1 2 3 4 5 6 
#
# 1 0.013480 -0.002388 -0.002688 0.000000 0.000000 0.000000
# 2 -0.002388 0.009694 -0.002416 0.000000 0.000000 0.000000
# 3 -0.002688 -0.002416 0.012001 0.000000 0.000000 0.000000
# 4 0.000000 0.000000 0.000000 0.017688 0.000000 0.000000
# 5 0.000000 0.000000 0.000000 0.000000 0.049935 0.000000
# 6 0.000000 0.000000 0.000000 0.000000 0.000000 0.241079
#
#
# Mechanical properties :
#
#
# Convention : Reuss Voigt Hill
#
# Bulk Modulus (GPa) = 49.52214 50.66280 50.09247
# Shear Modulus (GPa) = 13.67656 30.48809 22.08232
#
# Velocity S-wave (km/s) = 2.53607 3.78650 3.22252
# Velocity P-wave (km/s) = 5.64484 6.55301 6.11581
#
# Compressibility (1/GPa) = 0.02019299
#
# Stress axis : x y z
#
# Youngs Moduli (GPa) = 74.18208 103.16168 83.32632
#
# Poissons Ratio (x) = 0.24630 0.22396
# Poissons Ratio (y) = 0.17711 0.20128
# Poissons Ratio (z) = 0.19939 0.24920
#
# Static dielectric constant tensor:
#      x y z
#    x 1.773580 0.000000 0.000000 
#    y 0.000000 1.803940 0.000000 
#    z 0.000000 0.000000 1.902010 
# 
# From -- ./inp_files/5081.got.cif
#   From: 2010.05.17/outbox.cif.g08.bks.cpg/sg53_3_cif.got.tgz:5081.got - 2010.06.03 12:45:16.
