data_PCOD9418035
_publ_section_title
;
Structure prediction by ZEFSAII (Michael W. Deem and Ramdas Pophale) SiO2 
 PCOD9418035
Probable space group: P M N A
;
_chemical_formula_sum "Si O2"
_cell_formula_units_Z 48
_cell_length_a 8.687266
_cell_length_b 9.606575
_cell_length_c 31.268436
_cell_angle_alpha 90.000000
_cell_angle_beta 90.000000
_cell_angle_gamma 90.000000
_cell_volume 2609.503336
_symmetry_space_group_name_H-M "P M N A"
_symmetry_group_IT_number 53
_symmetry_cell_setting 'orthorhombic'
loop_
_space_group_symop_operation_xyz
x,y,z
1/2-x,-y,1/2+z
x,-y,-z
1/2-x,y,1/2-z
-x,-y,-z
1/2+x,y,1/2-z
-x,y,z
1/2+x,-y,1/2+z
loop_
_atom_site_type_symbol
_atom_site_label
_atom_site_fract_x
_atom_site_fract_y
_atom_site_fract_z
Si Si1 0.683760 0.337805 0.203506
Si Si2 0.184124 0.346897 0.547603
Si Si3 0.814722 0.654646 0.954569
Si Si4 0.685343 0.158426 0.373813
Si Si5 0.685116 0.835162 0.375678
Si Si6 0.815028 0.338180 0.703184
O O1 0.750000 0.300404 0.250000
O O2 0.500000 0.330092 0.205060
O O3 0.746194 0.239353 0.166496
O O4 0.726453 0.499536 0.194855
O O5 0.251719 0.501013 0.556283
O O6 0.245046 0.306501 0.500570
O O7 0.243626 0.242387 0.583546
O O8 0.000000 0.353928 0.547526
O O9 0.771014 0.761650 0.917334
O O10 0.000000 0.648709 0.957942
O O11 0.500000 0.164078 0.370700
O O12 0.731081 0.997115 0.374798
O O13 0.500000 0.826787 0.377924
O O14 0.743860 0.757706 0.333300
O O15 0.750000 0.302344 0.750000
O O16 0.000000 0.326809 0.703087
#
# Coordination Sequence:
#
# PCOD9418035 Si02
#       6
#     8   8   8   8   8   8
#     4  10  21  37  60  85 112 144 184 230 277 328
#     4  11  22  37  58  86 115 145 185 233 279 331
#     4  10  20  38  62  85 110 146 188 232 279 331
#     4  10  23  39  57  82 113 148 188 229 276 331
#     4  11  23  39  57  81 114 152 188 228 277 332
#     4  10  21  38  60  87 113 145 187 232 279 331
#
# _framework density 18.394304000000002
#
# number of rings (size 3 to 8) (size 9 to 14) (size 15 to 20)
#    0.000    1.667    0.000    5.500    0.000    8.667 
#    0.000    3.333    0.000    0.000    0.000    0.000 
#    0.000    0.000    0.000    0.000    0.000    0.000 
#
# Total GULP energy -268317.527066 kJ/mol
# GULP energy per Si atom -5589.948481 kJ/mol
# Density = 1.835244 g / cm^3
# Si number density = 18.394304 Si / 1000 Ang^3
#
#
#
# Elastic Constant Matrix: (Units=GPa)
#
#
# Indices 1 2 3 4 5 6 
#
# 1 74.5190 60.3671 64.1457 0.0000 0.0000 0.0000
# 2 60.3671 144.7281 144.7630 0.0000 0.0000 0.0000
# 3 64.1457 144.7630 183.2552 0.0000 0.0000 0.0000
# 4 0.0000 0.0000 0.0000 -24.8136 0.0000 0.0000
# 5 0.0000 0.0000 0.0000 0.0000 37.3458 0.0000
# 6 0.0000 0.0000 0.0000 0.0000 0.0000 23.3015
#
#
#
# Elastic Compliance Matrix: (Units=1/GPa)
#
#
# Indices 1 2 3 4 5 6 
#
# 1 0.020420 -0.006518 -0.001999 0.000000 0.000000 0.000000
# 2 -0.006518 0.035006 -0.025371 0.000000 0.000000 0.000000
# 3 -0.001999 -0.025371 0.026199 0.000000 0.000000 0.000000
# 4 0.000000 0.000000 0.000000 -0.040300 0.000000 0.000000
# 5 0.000000 0.000000 0.000000 0.000000 0.026777 0.000000
# 6 0.000000 0.000000 0.000000 0.000000 0.000000 0.042916
#
#
# Mechanical properties :
#
#
# Convention : Reuss Voigt Hill
#
# Bulk Modulus (GPa) = 72.21189 104.56156 88.38673
# Shear Modulus (GPa) = 27.26148 16.04850 21.65499
#
# Velocity S-wave (km/s) = 3.85393 2.95697 3.43485
# Velocity P-wave (km/s) = 7.69069 8.28409 7.99290
#
# Compressibility (1/GPa) = 0.01384813
#
# Stress axis : x y z
#
# Youngs Moduli (GPa) = 48.97103 28.56676 38.17003
#
# Poissons Ratio (x) = 0.18621 0.07629
# Poissons Ratio (y) = 0.31921 0.96842
# Poissons Ratio (z) = 0.09788 0.72477
#
# Static dielectric constant tensor:
#      x y z
#    x 1.618400 0.000000 0.000000 
#    y 0.000000 1.612720 0.000000 
#    z 0.000000 0.000000 1.602770 
# 
# From -- ./inp_files/37681.got.cif
#   From: 2010.05.17/outbox.cif.g08.bks.cpg/sg53_19_cif.got.tgz:37681.got - 2010.06.03 12:45:16.
