data_PCOD9418812
_publ_section_title
;
Structure prediction by ZEFSAII (Michael W. Deem and Ramdas Pophale) SiO2 
 PCOD9418812
Probable space group: P M N A
;
_chemical_formula_sum "Si O2"
_cell_formula_units_Z 48
_cell_length_a 31.793569
_cell_length_b 7.474934
_cell_length_c 10.252123
_cell_angle_alpha 90.000000
_cell_angle_beta 90.000000
_cell_angle_gamma 90.000000
_cell_volume 2436.466548
_symmetry_space_group_name_H-M "P M N A"
_symmetry_group_IT_number 53
_symmetry_cell_setting 'orthorhombic'
loop_
_space_group_symop_operation_xyz
x,y,z
1/2-x,-y,1/2+z
x,-y,-z
1/2-x,y,1/2-z
-x,-y,-z
1/2+x,y,1/2-z
-x,y,z
1/2+x,-y,1/2+z
loop_
_atom_site_type_symbol
_atom_site_label
_atom_site_fract_x
_atom_site_fract_y
_atom_site_fract_z
Si Si1 0.345799 0.791603 0.025216
Si Si2 0.379741 0.745517 0.746686
Si Si3 0.548223 0.521501 0.343809
Si Si4 0.739965 0.645902 0.103081
Si Si5 0.396530 0.824720 0.269138
Si Si6 0.170816 0.212333 0.991071
O O1 0.356026 0.708625 0.883778
O O2 0.300186 0.774910 0.094247
O O3 0.380502 0.745805 0.132404
O O4 0.350699 0.000000 0.000000
O O5 0.419241 0.616064 0.723212
O O6 0.347083 0.716585 0.627676
O O7 0.394224 0.957222 0.736506
O O8 0.552635 0.500000 0.500000
O O9 0.500000 0.483286 0.308567
O O10 0.560677 0.725158 0.306516
O O11 0.750000 0.587332 0.250000
O O12 0.783755 0.716890 0.046901
O O13 0.725633 0.500000 0.000000
O O14 0.363455 0.758591 0.378644
O O15 0.175041 0.000000 0.000000
#
# Coordination Sequence:
#
# PCOD9418812 Si02
#       6
#     8   8   8   8   8   8
#     4  10  23  43  64  88 124 170 211 257 312 367
#     4  10  23  40  67  94 123 164 212 253 315 379
#     4  11  24  40  66  97 126 161 205 263 322 381
#     4  12  27  39  56  90 127 165 213 261 304 358
#     4  10  21  42  65  92 124 165 206 258 313 370
#     4  10  21  39  62  84 118 165 206 253 302 359
#
# _framework density 19.700659999999999
#
# number of rings (size 3 to 8) (size 9 to 14) (size 15 to 20)
#    0.000    1.500    3.333    0.500    7.000    0.667 
#    0.000    3.333    0.000    3.000    0.000    0.000 
#    0.000    0.000    0.000    0.000    0.000    0.000 
#
# Total GULP energy -267796.561287 kJ/mol
# GULP energy per Si atom -5579.095027 kJ/mol
# Density = 1.965582 g / cm^3
# Si number density = 19.700660 Si / 1000 Ang^3
#
#
#
# Elastic Constant Matrix: (Units=GPa)
#
#
# Indices 1 2 3 4 5 6 
#
# 1 89.1230 22.6097 20.9179 0.0000 0.0000 0.0000
# 2 22.6097 42.3117 18.5912 0.0000 0.0000 0.0000
# 3 20.9179 18.5912 131.0398 0.0000 0.0000 0.0000
# 4 0.0000 0.0000 0.0000 15.7779 0.0000 0.0000
# 5 0.0000 0.0000 0.0000 0.0000 11.3118 0.0000
# 6 0.0000 0.0000 0.0000 0.0000 0.0000 -3.4925
#
#
#
# Elastic Compliance Matrix: (Units=1/GPa)
#
#
# Indices 1 2 3 4 5 6 
#
# 1 0.013148 -0.006509 -0.001175 0.000000 0.000000 0.000000
# 2 -0.006509 0.028428 -0.002994 0.000000 0.000000 0.000000
# 3 -0.001175 -0.002994 0.008244 0.000000 0.000000 0.000000
# 4 0.000000 0.000000 0.000000 0.063380 0.000000 0.000000
# 5 0.000000 0.000000 0.000000 0.000000 0.088403 0.000000
# 6 0.000000 0.000000 0.000000 0.000000 0.000000 -0.286326
#
#
# Mechanical properties :
#
#
# Convention : Reuss Voigt Hill
#
# Bulk Modulus (GPa) = 35.13445 42.96800 39.05123
# Shear Modulus (GPa) = -92.80006 18.07648 -37.36179
#
# Velocity S-wave (km/s) = -6.87076 3.03241 -4.35958
# Velocity P-wave (km/s) = 6.71344 5.84110 2.34006
#
# Compressibility (1/GPa) = 0.02846209
#
# Stress axis : x y z
#
# Youngs Moduli (GPa) = 76.05943 35.17660 121.30524
#
# Poissons Ratio (x) = 0.22897 0.14257
# Poissons Ratio (y) = 0.49508 0.36321
# Poissons Ratio (z) = 0.08939 0.10532
#
# Static dielectric constant tensor:
#      x y z
#    x 1.691140 0.000000 0.000000 
#    y 0.000000 1.774840 0.000000 
#    z 0.000000 0.000000 1.717980 
# 
# From -- ./inp_files/12969.got.cif
#   From: 2010.05.17/outbox.cif.g08.bks.cpg/sg53_7_cif.got.tgz:12969.got - 2010.06.03 12:45:16.
