data_PCOD9418104
_publ_section_title
;
Structure prediction by ZEFSAII (Michael W. Deem and Ramdas Pophale) SiO2 
 PCOD9418104
Probable space group: P M N A
;
_chemical_formula_sum "Si O2"
_cell_formula_units_Z 64
_cell_length_a 19.333683
_cell_length_b 13.781018
_cell_length_c 11.536333
_cell_angle_alpha 90.000000
_cell_angle_beta 90.000000
_cell_angle_gamma 90.000000
_cell_volume 3073.715570
_symmetry_space_group_name_H-M "P M N A"
_symmetry_group_IT_number 53
_symmetry_cell_setting 'orthorhombic'
loop_
_space_group_symop_operation_xyz
x,y,z
1/2-x,-y,1/2+z
x,-y,-z
1/2-x,y,1/2-z
-x,-y,-z
1/2+x,y,1/2-z
-x,y,z
1/2+x,-y,1/2+z
loop_
_atom_site_type_symbol
_atom_site_label
_atom_site_fract_x
_atom_site_fract_y
_atom_site_fract_z
Si Si1 0.924287 0.326464 0.858681
Si Si2 0.691589 0.058800 0.670079
Si Si3 0.794851 0.150064 0.075395
Si Si4 0.679556 0.570730 0.196953
Si Si5 0.921318 0.862032 0.307692
Si Si6 0.077807 0.725389 0.872282
Si Si7 0.420125 0.599230 0.853003
Si Si8 0.664411 0.260932 0.985240
O O1 0.864103 0.389158 0.804837
O O2 0.923398 0.226025 0.786164
O O3 0.000000 0.371772 0.835912
O O4 0.917440 0.311223 0.995314
O O5 0.750000 0.107433 0.750000
O O6 0.681475 0.121646 0.554898
O O7 0.621487 0.054324 0.743394
O O8 0.718831 0.953651 0.633348
O O9 0.857820 0.202291 0.140235
O O10 0.727256 0.216094 0.058994
O O11 0.750000 0.529930 0.250000
O O12 0.630928 0.491494 0.137491
O O13 0.691988 0.660051 0.108493
O O14 0.876528 0.822187 0.414776
O O15 0.000000 0.886258 0.338431
O O16 0.083322 0.640553 0.778043
O O17 0.000000 0.768513 0.858839
O O18 0.500000 0.576345 0.879998
O O19 0.390698 0.683120 0.935578
#
# Coordination Sequence:
#
# PCOD9418104 Si02
#       8
#     8   8   8   8   8   8   8   8
#     4   9  18  36  62  90 123 169 212 264 326 378
#     4  11  23  40  63  95 128 166 209 263 329 387
#     4  11  24  39  66  94 130 168 213 270 330 399
#     4  11  24  39  63  97 127 162 220 277 323 381
#     4  10  20  38  67  98 127 165 220 270 320 384
#     4  10  22  40  63  92 131 173 215 264 326 395
#     4  11  26  45  63  93 134 177 220 268 329 392
#     4  11  24  42  69  93 128 175 219 273 323 392
#
# _framework density 20.821705999999999
#
# number of rings (size 3 to 8) (size 9 to 14) (size 15 to 20)
#    0.000    1.500    2.500    1.875    5.250    3.000 
#    2.250    3.125    0.000    0.750    0.000    0.000 
#    0.000    0.000    0.000    0.000    0.000    0.000 
#
# Total GULP energy -357562.169946 kJ/mol
# GULP energy per Si atom -5586.908905 kJ/mol
# Density = 2.077431 g / cm^3
# Si number density = 20.821706 Si / 1000 Ang^3
#
#
#
# Elastic Constant Matrix: (Units=GPa)
#
#
# Indices 1 2 3 4 5 6 
#
# 1 133.7763 37.6421 21.3984 0.0000 0.0000 0.0000
# 2 37.6421 47.7935 5.0669 0.0000 0.0000 0.0000
# 3 21.3984 5.0669 49.3253 0.0000 0.0000 0.0000
# 4 0.0000 0.0000 0.0000 19.8299 0.0000 0.0000
# 5 0.0000 0.0000 0.0000 0.0000 26.3075 0.0000
# 6 0.0000 0.0000 0.0000 0.0000 0.0000 7.0729
#
#
#
# Elastic Compliance Matrix: (Units=1/GPa)
#
#
# Indices 1 2 3 4 5 6 
#
# 1 0.010213 -0.007657 -0.003644 0.000000 0.000000 0.000000
# 2 -0.007657 0.026895 0.000559 0.000000 0.000000 0.000000
# 3 -0.003644 0.000559 0.021797 0.000000 0.000000 0.000000
# 4 0.000000 0.000000 0.000000 0.050429 0.000000 0.000000
# 5 0.000000 0.000000 0.000000 0.000000 0.038012 0.000000
# 6 0.000000 0.000000 0.000000 0.000000 0.000000 0.141386
#
#
# Mechanical properties :
#
#
# Convention : Reuss Voigt Hill
#
# Bulk Modulus (GPa) = 26.72331 39.90109 33.31220
# Shear Modulus (GPa) = 15.49484 21.76124 18.62804
#
# Velocity S-wave (km/s) = 2.73090 3.23634 2.99431
# Velocity P-wave (km/s) = 4.77556 5.75934 5.29037
#
# Compressibility (1/GPa) = 0.03742052
#
# Stress axis : x y z
#
# Youngs Moduli (GPa) = 97.91832 37.18188 45.87799
#
# Poissons Ratio (x) = 0.28471 0.16717
# Poissons Ratio (y) = 0.74977 -0.02565
# Poissons Ratio (z) = 0.35680 -0.02079
#
# Static dielectric constant tensor:
#      x y z
#    x 1.764540 0.000000 0.000000 
#    y 0.000000 1.740410 0.000000 
#    z 0.000000 0.000000 1.738810 
# 
# From -- ./inp_files/17090.got.cif
#   From: 2010.05.17/outbox.cif.g08.bks.cpg/sg53_9_cif.got.tgz:17090.got - 2010.06.03 12:45:16.
