data_PCOD9418225
_publ_section_title
;
Structure prediction by ZEFSAII (Michael W. Deem and Ramdas Pophale) SiO2 
 PCOD9418225
Probable space group: P M N A
;
_chemical_formula_sum "Si O2"
_cell_formula_units_Z 32
_cell_length_a 20.275397
_cell_length_b 5.359079
_cell_length_c 14.183882
_cell_angle_alpha 90.000000
_cell_angle_beta 90.000000
_cell_angle_gamma 90.000000
_cell_volume 1541.184510
_symmetry_space_group_name_H-M "P M N A"
_symmetry_group_IT_number 53
_symmetry_cell_setting 'orthorhombic'
loop_
_space_group_symop_operation_xyz
x,y,z
1/2-x,-y,1/2+z
x,-y,-z
1/2-x,y,1/2-z
-x,-y,-z
1/2+x,y,1/2-z
-x,y,z
1/2+x,-y,1/2+z
loop_
_atom_site_type_symbol
_atom_site_label
_atom_site_fract_x
_atom_site_fract_y
_atom_site_fract_z
Si Si1 0.193330 0.134521 0.597538
Si Si2 0.378198 0.653783 0.665950
Si Si3 0.250000 0.772572 0.750000
Si Si4 0.294661 0.500000 0.500000
Si Si5 0.574437 0.831932 0.243878
O O1 0.244380 0.350613 0.567505
O O2 0.128478 0.190039 0.660003
O O3 0.173633 0.000000 0.500000
O O4 0.236392 0.947915 0.661122
O O5 0.314967 0.617717 0.733816
O O6 0.344979 0.661476 0.563289
O O7 0.419813 0.406525 0.686753
O O8 0.410414 0.912734 0.698776
O O9 0.500000 0.843422 0.206297
#
# Coordination Sequence:
#
# PCOD9418225 Si02
#       5
#     8   8   4   4   8
#     4  11  23  39  67 101 135 168 215 278 338 396
#     4  11  23  41  69  93 134 174 219 282 327 391
#     4  10  20  42  62 100 136 170 212 280 346 396
#     4  12  22  40  68 110 128 162 226 294 348 386
#     4  11  26  46  64  92 135 187 222 255 326 406
#
# _framework density 20.763249999999999
#
# number of rings (size 3 to 8) (size 9 to 14) (size 15 to 20)
#    0.000    1.000    2.500    5.250    3.500    1.500 
#    0.000    4.375    0.000    0.000    0.000    0.000 
#    0.000    0.000    0.000    0.000    0.000    0.000 
#
# Total GULP energy -178631.945170 kJ/mol
# GULP energy per Si atom -5582.248287 kJ/mol
# Density = 2.071599 g / cm^3
# Si number density = 20.763250 Si / 1000 Ang^3
#
#
#
# Elastic Constant Matrix: (Units=GPa)
#
#
# Indices 1 2 3 4 5 6 
#
# 1 123.2553 52.2734 47.7576 0.0000 0.0000 0.0000
# 2 52.2734 101.7580 45.2333 0.0000 0.0000 0.0000
# 3 47.7576 45.2333 105.2074 0.0000 0.0000 0.0000
# 4 0.0000 0.0000 0.0000 40.5062 0.0000 0.0000
# 5 0.0000 0.0000 0.0000 0.0000 26.8625 0.0000
# 6 0.0000 0.0000 0.0000 0.0000 0.0000 8.4306
#
#
#
# Elastic Compliance Matrix: (Units=1/GPa)
#
#
# Indices 1 2 3 4 5 6 
#
# 1 0.011194 -0.004316 -0.003225 0.000000 0.000000 0.000000
# 2 -0.004316 0.013814 -0.003980 0.000000 0.000000 0.000000
# 3 -0.003225 -0.003980 0.012680 0.000000 0.000000 0.000000
# 4 0.000000 0.000000 0.000000 0.024688 0.000000 0.000000
# 5 0.000000 0.000000 0.000000 0.000000 0.037227 0.000000
# 6 0.000000 0.000000 0.000000 0.000000 0.000000 0.118616
#
#
# Mechanical properties :
#
#
# Convention : Reuss Voigt Hill
#
# Bulk Modulus (GPa) = 68.28538 68.97215 68.62876
# Shear Modulus (GPa) = 20.31345 27.49028 23.90187
#
# Velocity S-wave (km/s) = 3.13123 3.64261 3.39656
# Velocity P-wave (km/s) = 6.78468 7.14017 6.96469
#
# Compressibility (1/GPa) = 0.01464442
#
# Stress axis : x y z
#
# Youngs Moduli (GPa) = 89.33671 72.39207 78.86307
#
# Poissons Ratio (x) = 0.31248 0.25436
# Poissons Ratio (y) = 0.38562 0.31385
# Poissons Ratio (z) = 0.28814 0.28810
#
# Static dielectric constant tensor:
#      x y z
#    x 1.724080 0.000000 0.000000 
#    y 0.000000 1.791510 0.000000 
#    z 0.000000 0.000000 1.777970 
# 
# From -- ./inp_files/17413.got.cif
#   From: 2010.05.17/outbox.cif.g08.bks.cpg/sg53_9_cif.got.tgz:17413.got - 2010.06.03 12:45:16.
