data_PCOD9418131
_publ_section_title
;
Structure prediction by ZEFSAII (Michael W. Deem and Ramdas Pophale) SiO2 
 PCOD9418131
Probable space group: P M N A
;
_chemical_formula_sum "Si O2"
_cell_formula_units_Z 56
_cell_length_a 14.973200
_cell_length_b 21.547062
_cell_length_c 6.921602
_cell_angle_alpha 90.000000
_cell_angle_beta 90.000000
_cell_angle_gamma 90.000000
_cell_volume 2233.105854
_symmetry_space_group_name_H-M "P M N A"
_symmetry_group_IT_number 53
_symmetry_cell_setting 'orthorhombic'
loop_
_space_group_symop_operation_xyz
x,y,z
1/2-x,-y,1/2+z
x,-y,-z
1/2-x,y,1/2-z
-x,-y,-z
1/2+x,y,1/2-z
-x,y,z
1/2+x,-y,1/2+z
loop_
_atom_site_type_symbol
_atom_site_label
_atom_site_fract_x
_atom_site_fract_y
_atom_site_fract_z
Si Si1 0.892001 0.823284 0.268033
Si Si2 0.353061 0.146702 0.314548
Si Si3 0.099831 0.993143 0.730941
Si Si4 0.250000 0.634873 0.750000
Si Si5 0.825527 0.558129 0.103607
Si Si6 0.402401 0.279889 0.236042
Si Si7 0.250000 0.083819 0.750000
Si Si8 0.897191 0.688524 0.194803
O O1 0.819471 0.870240 0.361736
O O2 0.862186 0.751550 0.295048
O O3 0.000000 0.830850 0.303290
O O4 0.873589 0.839295 0.040719
O O5 0.250000 0.146066 0.250000
O O6 0.395045 0.206447 0.208597
O O7 0.392426 0.079462 0.272319
O O8 0.176194 0.035153 0.828172
O O9 0.000000 0.015672 0.780123
O O10 0.112036 0.000000 0.500000
O O11 0.286234 0.592566 0.581577
O O12 0.176749 0.679586 0.653032
O O13 0.750000 0.533665 0.250000
O O14 0.866997 0.617400 0.216264
O O15 0.876138 0.500000 0.000000
O O16 0.500000 0.301643 0.177902
O O17 0.392306 0.294507 0.465911
O O18 0.000000 0.688844 0.246168
#
# Coordination Sequence:
#
# PCOD9418131 Si02
#       8
#     8   8   8   4   8   8   4   8
#     4  10  22  40  62  91 121 157 209 262 316 383
#     4  11  19  36  62  88 119 157 204 258 314 385
#     4  11  24  40  54  78 118 157 202 258 313 374
#     4  10  20  39  61  90 128 164 208 266 306 380
#     4  11  22  38  63  91 127 169 209 248 308 372
#     4   9  17  33  60  91 119 156 203 259 320 370
#     4  12  24  37  59  82 112 160 204 256 312 370
#     4   8  18  37  61  89 120 156 203 256 311 374
#
# _framework density 25.077179999999998
#
# number of rings (size 3 to 8) (size 9 to 14) (size 15 to 20)
#    0.000    1.857    2.143    3.429    1.000    0.286 
#    0.000    2.143    0.000    2.571    0.000    0.000 
#    0.000    0.000    0.000    0.000    0.000    0.000 
#
# Total GULP energy -312658.882495 kJ/mol
# GULP energy per Si atom -5583.194330 kJ/mol
# Density = 2.502010 g / cm^3
# Si number density = 25.077180 Si / 1000 Ang^3
#
#
#
# Elastic Constant Matrix: (Units=GPa)
#
#
# Indices 1 2 3 4 5 6 
#
# 1 162.8167 67.9529 -0.8509 0.0000 0.0000 0.0000
# 2 67.9529 220.4265 26.7885 0.0000 0.0000 0.0000
# 3 -0.8509 26.7885 94.6918 0.0000 0.0000 0.0000
# 4 0.0000 0.0000 0.0000 36.0381 0.0000 0.0000
# 5 0.0000 0.0000 0.0000 0.0000 3.2193 0.0000
# 6 0.0000 0.0000 0.0000 0.0000 0.0000 37.1344
#
#
#
# Elastic Compliance Matrix: (Units=1/GPa)
#
#
# Indices 1 2 3 4 5 6 
#
# 1 0.007094 -0.002273 0.000707 0.000000 0.000000 0.000000
# 2 -0.002273 0.005426 -0.001556 0.000000 0.000000 0.000000
# 3 0.000707 -0.001556 0.011007 0.000000 0.000000 0.000000
# 4 0.000000 0.000000 0.000000 0.027748 0.000000 0.000000
# 5 0.000000 0.000000 0.000000 0.000000 0.310624 0.000000
# 6 0.000000 0.000000 0.000000 0.000000 0.000000 0.026929
#
#
# Mechanical properties :
#
#
# Convention : Reuss Voigt Hill
#
# Bulk Modulus (GPa) = 57.85637 73.96846 65.91241
# Shear Modulus (GPa) = 12.47399 40.88132 26.67766
#
# Velocity S-wave (km/s) = 2.23272 4.04198 3.26517
# Velocity P-wave (km/s) = 5.45602 7.16546 6.36836
#
# Compressibility (1/GPa) = 0.01728418
#
# Stress axis : x y z
#
# Youngs Moduli (GPa) = 140.96073 184.28461 90.85130
#
# Poissons Ratio (x) = 0.41886 -0.06421
# Poissons Ratio (y) = 0.32039 0.14132
# Poissons Ratio (z) = -0.09962 0.28667
#
# Static dielectric constant tensor:
#      x y z
#    x 2.049580 0.000000 0.000000 
#    y 0.000000 2.010020 0.000000 
#    z 0.000000 0.000000 2.142250 
# 
# From -- ./inp_files/8875.got.cif
#   From: 2010.05.17/outbox.cif.g08.bks.cpg/sg53_5_cif.got.tgz:8875.got - 2010.06.03 12:45:16.
