data_PCOD9418105
_publ_section_title
;
Structure prediction by ZEFSAII (Michael W. Deem and Ramdas Pophale) SiO2 
 PCOD9418105
Probable space group: P M N A
;
_chemical_formula_sum "Si O2"
_cell_formula_units_Z 64
_cell_length_a 17.827861
_cell_length_b 14.613895
_cell_length_c 12.483283
_cell_angle_alpha 90.000000
_cell_angle_beta 90.000000
_cell_angle_gamma 90.000000
_cell_volume 3252.325754
_symmetry_space_group_name_H-M "P M N A"
_symmetry_group_IT_number 53
_symmetry_cell_setting 'orthorhombic'
loop_
_space_group_symop_operation_xyz
x,y,z
1/2-x,-y,1/2+z
x,-y,-z
1/2-x,y,1/2-z
-x,-y,-z
1/2+x,y,1/2-z
-x,y,z
1/2+x,-y,1/2+z
loop_
_atom_site_type_symbol
_atom_site_label
_atom_site_fract_x
_atom_site_fract_y
_atom_site_fract_z
Si Si1 0.582859 0.056769 0.108483
Si Si2 0.087650 0.735508 0.334835
Si Si3 0.667448 0.007290 0.300945
Si Si4 0.161444 0.645341 0.725587
Si Si5 0.850873 0.792117 0.904780
Si Si6 0.178841 0.221163 0.460805
Si Si7 0.088916 0.479020 0.622400
Si Si8 0.914858 0.845226 0.117090
O O1 0.500000 0.097268 0.125504
O O2 0.606546 0.993828 0.206669
O O3 0.647449 0.131498 0.097734
O O4 0.581489 0.000000 0.000000
O O5 0.143237 0.778529 0.422052
O O6 0.099963 0.626521 0.344703
O O7 0.099402 0.777644 0.217262
O O8 0.000000 0.753605 0.364447
O O9 0.750000 0.999309 0.250000
O O10 0.654118 0.108226 0.348626
O O11 0.646346 0.926671 0.382142
O O12 0.250000 0.638298 0.750000
O O13 0.131724 0.713771 0.817593
O O14 0.149666 0.695396 0.611552
O O15 0.126403 0.546345 0.708421
O O16 0.768010 0.775328 0.953644
O O17 0.906729 0.794954 0.003925
O O18 0.115733 0.500000 0.500000
O O19 0.000000 0.497267 0.622465
O O20 0.000000 0.881103 0.126476
#
# Coordination Sequence:
#
# PCOD9418105 Si02
#       8
#     8   8   8   8   8   8   8   8
#     4  11  23  36  57  90 123 158 202 257 320 370
#     4  10  22  42  65  93 130 162 209 273 323 373
#     4  12  23  41  63  90 126 167 213 264 311 372
#     4  10  21  41  60  94 131 161 207 263 314 379
#     4  11  24  42  63  89 129 176 215 252 309 383
#     4  11  20  38  64  90 126 161 207 264 316 370
#     4  10  20  38  67  99 124 158 205 263 328 378
#     4  11  27  45  61  90 130 172 218 262 310 379
#
# _framework density 19.678225000000001
#
# number of rings (size 3 to 8) (size 9 to 14) (size 15 to 20)
#    0.000    1.250    3.750    2.250    3.500    4.500 
#    2.250    0.625    0.000    2.250    0.000    0.000 
#    0.000    0.000    0.000    0.000    0.000    0.000 
#
# Total GULP energy -357432.297538 kJ/mol
# GULP energy per Si atom -5584.879649 kJ/mol
# Density = 1.963344 g / cm^3
# Si number density = 19.678225 Si / 1000 Ang^3
#
#
#
# Elastic Constant Matrix: (Units=GPa)
#
#
# Indices 1 2 3 4 5 6 
#
# 1 42.0470 16.2607 32.3396 0.0000 0.0000 0.0000
# 2 16.2607 68.1416 31.6583 0.0000 0.0000 0.0000
# 3 32.3396 31.6583 113.5469 0.0000 0.0000 0.0000
# 4 0.0000 0.0000 0.0000 28.5331 0.0000 0.0000
# 5 0.0000 0.0000 0.0000 0.0000 23.6025 0.0000
# 6 0.0000 0.0000 0.0000 0.0000 0.0000 26.4168
#
#
#
# Elastic Compliance Matrix: (Units=1/GPa)
#
#
# Indices 1 2 3 4 5 6 
#
# 1 0.031297 -0.003822 -0.007848 0.000000 0.000000 0.000000
# 2 -0.003822 0.017326 -0.003742 0.000000 0.000000 0.000000
# 3 -0.007848 -0.003742 0.012086 0.000000 0.000000 0.000000
# 4 0.000000 0.000000 0.000000 0.035047 0.000000 0.000000
# 5 0.000000 0.000000 0.000000 0.000000 0.042368 0.000000
# 6 0.000000 0.000000 0.000000 0.000000 0.000000 0.037855
#
#
# Mechanical properties :
#
#
# Convention : Reuss Voigt Hill
#
# Bulk Modulus (GPa) = 33.46294 42.69474 38.07884
# Shear Modulus (GPa) = 23.06642 25.27561 24.17101
#
# Velocity S-wave (km/s) = 3.42743 3.58780 3.50853
# Velocity P-wave (km/s) = 5.71883 6.23752 5.98380
#
# Compressibility (1/GPa) = 0.02988380
#
# Stress axis : x y z
#
# Youngs Moduli (GPa) = 31.95156 57.71679 82.74359
#
# Poissons Ratio (x) = 0.22061 0.64939
# Poissons Ratio (y) = 0.12213 0.30963
# Poissons Ratio (z) = 0.25076 0.21598
#
# Static dielectric constant tensor:
#      x y z
#    x 1.680840 0.000000 0.000000 
#    y 0.000000 1.700760 0.000000 
#    z 0.000000 0.000000 1.696720 
# 
# From -- ./inp_files/17072.got.cif
#   From: 2010.05.17/outbox.cif.g08.bks.cpg/sg53_9_cif.got.tgz:17072.got - 2010.06.03 12:45:16.
