data_PCOD9418312
_publ_section_title
;
Structure prediction by ZEFSAII (Michael W. Deem and Ramdas Pophale) SiO2 
 PCOD9418312
Probable space group: P M N A
;
_chemical_formula_sum "Si O2"
_cell_formula_units_Z 40
_cell_length_a 14.779559
_cell_length_b 14.510598
_cell_length_c 9.723707
_cell_angle_alpha 90.000000
_cell_angle_beta 90.000000
_cell_angle_gamma 90.000000
_cell_volume 2085.348530
_symmetry_space_group_name_H-M "P M N A"
_symmetry_group_IT_number 53
_symmetry_cell_setting 'orthorhombic'
loop_
_space_group_symop_operation_xyz
x,y,z
1/2-x,-y,1/2+z
x,-y,-z
1/2-x,y,1/2-z
-x,-y,-z
1/2+x,y,1/2-z
-x,y,z
1/2+x,-y,1/2+z
loop_
_atom_site_type_symbol
_atom_site_label
_atom_site_fract_x
_atom_site_fract_y
_atom_site_fract_z
Si Si1 0.102810 0.647239 0.733715
Si Si2 0.897331 0.857019 0.623756
Si Si3 0.606365 0.904469 0.580132
Si Si4 0.248099 0.201886 0.589448
Si Si5 0.246745 0.603523 0.964404
O O1 0.101139 0.752618 0.682632
O O2 0.167750 0.639636 0.864130
O O3 0.158277 0.594156 0.616454
O O4 0.000000 0.616577 0.756207
O O5 0.865247 0.912287 0.759309
O O6 0.832229 0.850700 0.492927
O O7 0.000000 0.884431 0.587541
O O8 0.500000 0.879012 0.583478
O O9 0.663597 0.831185 0.493912
O O10 0.616118 0.000000 0.500000
O O11 0.250000 0.178695 0.750000
O O12 0.239554 0.313074 0.571899
O O13 0.219732 0.500000 0.000000
#
# Coordination Sequence:
#
# PCOD9418312 Si02
#       5
#     8   8   8   8   8
#     4   9  18  35  58  80 105 151 204 244 288 345
#     4   9  18  38  63  84 113 154 199 242 291 348
#     4  10  21  39  64  89 114 151 198 244 292 353
#     4  11  23  36  57  89 123 158 193 243 302 355
#     4  10  21  35  56  81 117 154 197 249 295 347
#
# _framework density 19.181445
#
# number of rings (size 3 to 8) (size 9 to 14) (size 15 to 20)
#    0.000    2.200    2.000    0.600    2.800    3.200 
#    0.000    0.000    0.000    4.200    0.000    0.000 
#    0.000    0.000    0.000    0.000    0.000    0.000 
#
# Total GULP energy -222908.691683 kJ/mol
# GULP energy per Si atom -5572.717292 kJ/mol
# Density = 1.913779 g / cm^3
# Si number density = 19.181445 Si / 1000 Ang^3
#
#
#
# Elastic Constant Matrix: (Units=GPa)
#
#
# Indices 1 2 3 4 5 6 
#
# 1 102.1400 18.2691 55.6777 0.0000 0.0000 0.0000
# 2 18.2691 40.1971 33.6157 0.0000 0.0000 0.0000
# 3 55.6777 33.6157 155.7049 0.0000 0.0000 0.0000
# 4 0.0000 0.0000 0.0000 4.7958 0.0000 0.0000
# 5 0.0000 0.0000 0.0000 0.0000 1592.9623 0.0000
# 6 0.0000 0.0000 0.0000 0.0000 0.0000 14.3544
#
#
#
# Elastic Compliance Matrix: (Units=1/GPa)
#
#
# Indices 1 2 3 4 5 6 
#
# 1 0.012339 -0.002341 -0.003907 0.000000 0.000000 0.000000
# 2 -0.002341 0.030803 -0.005813 0.000000 0.000000 0.000000
# 3 -0.003907 -0.005813 0.009074 0.000000 0.000000 0.000000
# 4 0.000000 0.000000 0.000000 0.208514 0.000000 0.000000
# 5 0.000000 0.000000 0.000000 0.000000 0.000628 0.000000
# 6 0.000000 0.000000 0.000000 0.000000 0.000000 0.069665
#
#
# Mechanical properties :
#
#
# Convention : Reuss Voigt Hill
#
# Bulk Modulus (GPa) = 35.59404 57.01855 46.30629
# Shear Modulus (GPa) = 13.71711 335.12114 174.41912
#
# Velocity S-wave (km/s) = 2.67708 13.23217 9.54613
# Velocity P-wave (km/s) = 5.30589 16.22480 12.07056
#
# Compressibility (1/GPa) = 0.02809459
#
# Stress axis : x y z
#
# Youngs Moduli (GPa) = 81.04513 32.46489 110.19967
#
# Poissons Ratio (x) = 0.07599 0.43053
# Poissons Ratio (y) = 0.18970 0.64060
# Poissons Ratio (z) = 0.31663 0.18872
#
# Static dielectric constant tensor:
#      x y z
#    x 1.680210 0.000000 0.000000 
#    y 0.000000 1.695770 0.000000 
#    z 0.000000 0.000000 1.683200 
# 
# From -- ./inp_files/8352.got.cif
#   From: 2010.05.17/outbox.cif.g08.bks.cpg/sg53_5_cif.got.tgz:8352.got - 2010.06.03 12:45:16.
