data_PCOD9418196
_publ_section_title
;
Structure prediction by ZEFSAII (Michael W. Deem and Ramdas Pophale) SiO2 
 PCOD9418196
Probable space group: P M N A
;
_chemical_formula_sum "Si O2"
_cell_formula_units_Z 32
_cell_length_a 16.973665
_cell_length_b 5.287320
_cell_length_c 15.728414
_cell_angle_alpha 90.000000
_cell_angle_beta 90.000000
_cell_angle_gamma 90.000000
_cell_volume 1411.549635
_symmetry_space_group_name_H-M "P M N A"
_symmetry_group_IT_number 53
_symmetry_cell_setting 'orthorhombic'
loop_
_space_group_symop_operation_xyz
x,y,z
1/2-x,-y,1/2+z
x,-y,-z
1/2-x,y,1/2-z
-x,-y,-z
1/2+x,y,1/2-z
-x,y,z
1/2+x,-y,1/2+z
loop_
_atom_site_type_symbol
_atom_site_label
_atom_site_fract_x
_atom_site_fract_y
_atom_site_fract_z
Si Si1 0.087602 0.800986 0.240524
Si Si2 0.676187 0.631440 0.110700
Si Si3 0.410268 0.869575 0.890472
Si Si4 0.853887 0.744447 0.054446
O O1 0.156886 0.651166 0.288420
O O2 0.098120 0.791541 0.140724
O O3 0.000000 0.702586 0.264114
O O4 0.092206 0.074346 0.287535
O O5 0.648103 0.354100 0.086338
O O6 0.764249 0.689029 0.084115
O O7 0.618790 0.855935 0.078153
O O8 0.500000 0.813393 0.913566
O O9 0.880290 0.500000 0.000000
O O10 0.855857 0.000000 0.000000
#
# Coordination Sequence:
#
# PCOD9418196 Si02
#       4
#     8   8   8   8
#     4   9  22  42  69  94 122 166 222 270 310 368
#     4  10  20  40  65  92 124 166 217 266 305 374
#     4   9  18  35  68  95 116 150 210 274 312 351
#     4  12  27  42  60  95 139 176 204 253 330 395
#
# _framework density 22.670121999999999
#
# number of rings (size 3 to 8) (size 9 to 14) (size 15 to 20)
#    1.500    0.500    0.000    3.750    3.500    1.000 
#    4.500    0.000    0.000   25.500    0.000    0.000 
#    0.000    0.000    0.000    0.000    0.000    0.000 
#
# Total GULP energy -178599.330695 kJ/mol
# GULP energy per Si atom -5581.229084 kJ/mol
# Density = 2.261852 g / cm^3
# Si number density = 22.670122 Si / 1000 Ang^3
#
#
#
# Elastic Constant Matrix: (Units=GPa)
#
#
# Indices 1 2 3 4 5 6 
#
# 1 48.2459 12.7617 6.5826 0.0000 0.0000 0.0000
# 2 12.7617 138.1428 45.2833 0.0000 0.0000 0.0000
# 3 6.5826 45.2833 133.9624 0.0000 0.0000 0.0000
# 4 0.0000 0.0000 0.0000 29.4964 0.0000 0.0000
# 5 0.0000 0.0000 0.0000 0.0000 26.6323 0.0000
# 6 0.0000 0.0000 0.0000 0.0000 0.0000 11.7567
#
#
#
# Elastic Compliance Matrix: (Units=1/GPa)
#
#
# Indices 1 2 3 4 5 6 
#
# 1 0.021268 -0.001824 -0.000428 0.000000 0.000000 0.000000
# 2 -0.001824 0.008297 -0.002715 0.000000 0.000000 0.000000
# 3 -0.000428 -0.002715 0.008404 0.000000 0.000000 0.000000
# 4 0.000000 0.000000 0.000000 0.033902 0.000000 0.000000
# 5 0.000000 0.000000 0.000000 0.000000 0.037548 0.000000
# 6 0.000000 0.000000 0.000000 0.000000 0.000000 0.085058
#
#
# Mechanical properties :
#
#
# Convention : Reuss Voigt Hill
#
# Bulk Modulus (GPa) = 35.67163 49.95627 42.81395
# Shear Modulus (GPa) = 23.39095 30.62533 27.00814
#
# Velocity S-wave (km/s) = 3.21564 3.67946 3.45534
# Velocity P-wave (km/s) = 5.43658 6.33524 5.90304
#
# Compressibility (1/GPa) = 0.02803348
#
# Stress axis : x y z
#
# Youngs Moduli (GPa) = 47.01868 120.51899 118.99618
#
# Poissons Ratio (x) = 0.21987 0.05098
# Poissons Ratio (y) = 0.08578 0.32309
# Poissons Ratio (z) = 0.02014 0.32723
#
# Static dielectric constant tensor:
#      x y z
#    x 1.760090 0.000000 0.000000 
#    y 0.000000 1.805340 0.000000 
#    z 0.000000 0.000000 2.007000 
# 
# From -- ./inp_files/23251.got.cif
#   From: 2010.05.17/outbox.cif.g08.bks.cpg/sg53_12_cif.got.tgz:23251.got - 2010.06.03 12:45:16.
