data_PCOD9418810
_publ_section_title
;
Structure prediction by ZEFSAII (Michael W. Deem and Ramdas Pophale) SiO2 
 PCOD9418810
Probable space group: P M N A
;
_chemical_formula_sum "Si O2"
_cell_formula_units_Z 48
_cell_length_a 14.905692
_cell_length_b 7.297163
_cell_length_c 18.429708
_cell_angle_alpha 90.000000
_cell_angle_beta 90.000000
_cell_angle_gamma 90.000000
_cell_volume 2004.585778
_symmetry_space_group_name_H-M "P M N A"
_symmetry_group_IT_number 53
_symmetry_cell_setting 'orthorhombic'
loop_
_space_group_symop_operation_xyz
x,y,z
1/2-x,-y,1/2+z
x,-y,-z
1/2-x,y,1/2-z
-x,-y,-z
1/2+x,y,1/2-z
-x,y,z
1/2+x,-y,1/2+z
loop_
_atom_site_type_symbol
_atom_site_label
_atom_site_fract_x
_atom_site_fract_y
_atom_site_fract_z
Si Si1 0.606841 0.624667 0.340764
Si Si2 0.105683 0.780643 0.318153
Si Si3 0.707310 0.356728 0.438535
Si Si4 0.150650 0.844087 0.730463
Si Si5 0.600018 0.414242 0.105158
Si Si6 0.102066 0.024387 0.110130
O O1 0.500000 0.581503 0.347769
O O2 0.625135 0.680629 0.258009
O O3 0.668743 0.460863 0.367328
O O4 0.625755 0.810233 0.386011
O O5 0.118478 0.628829 0.379402
O O6 0.000000 0.830225 0.317568
O O7 0.158404 0.970581 0.318362
O O8 0.678792 0.500000 0.500000
O O9 0.814569 0.341117 0.437750
O O10 0.663502 0.157935 0.436442
O O11 0.250000 0.783046 0.750000
O O12 0.102195 0.692868 0.682239
O O13 0.105580 0.906926 0.805527
O O14 0.500000 0.390609 0.074583
O O15 0.000000 0.042591 0.085392
#
# Coordination Sequence:
#
# PCOD9418810 Si02
#       6
#     8   8   8   8   8   8
#     4   9  20  38  61  90 123 148 177 232 298 360
#     4   9  20  36  59  91 121 147 179 229 294 362
#     4  12  26  40  57  82 112 157 211 247 276 326
#     4  11  20  34  62  94 121 147 179 230 295 359
#     4  11  24  40  59  85 118 156 196 240 288 338
#     4  10  21  39  61  90 122 149 180 231 298 360
#
# _framework density 23.945097000000001
#
# number of rings (size 3 to 8) (size 9 to 14) (size 15 to 20)
#    0.000    1.667    1.667    4.000    4.667    3.667 
#    0.000    1.667    0.000    0.000    0.000    5.833 
#    0.000    0.000    0.000    0.000    0.000    0.000 
#
# Total GULP energy -268668.513170 kJ/mol
# GULP energy per Si atom -5597.260691 kJ/mol
# Density = 2.389060 g / cm^3
# Si number density = 23.945097 Si / 1000 Ang^3
#
#
#
# Elastic Constant Matrix: (Units=GPa)
#
#
# Indices 1 2 3 4 5 6 
#
# 1 105.8351 47.2146 0.3707 0.0000 0.0000 0.0000
# 2 47.2146 112.2519 11.4264 0.0000 0.0000 0.0000
# 3 0.3707 11.4264 28.3095 0.0000 0.0000 0.0000
# 4 0.0000 0.0000 0.0000 14.0166 0.0000 0.0000
# 5 0.0000 0.0000 0.0000 0.0000 23.8960 0.0000
# 6 0.0000 0.0000 0.0000 0.0000 0.0000 27.0321
#
#
#
# Elastic Compliance Matrix: (Units=1/GPa)
#
#
# Indices 1 2 3 4 5 6 
#
# 1 0.011730 -0.005129 0.001917 0.000000 0.000000 0.000000
# 2 -0.005129 0.011533 -0.004588 0.000000 0.000000 0.000000
# 3 0.001917 -0.004588 0.037150 0.000000 0.000000 0.000000
# 4 0.000000 0.000000 0.000000 0.071344 0.000000 0.000000
# 5 0.000000 0.000000 0.000000 0.000000 0.041848 0.000000
# 6 0.000000 0.000000 0.000000 0.000000 0.000000 0.036993
#
#
# Mechanical properties :
#
#
# Convention : Reuss Voigt Hill
#
# Bulk Modulus (GPa) = 22.31491 40.49110 31.40301
# Shear Modulus (GPa) = 20.73519 25.48127 23.10823
#
# Velocity S-wave (km/s) = 2.94589 3.26568 3.10990
# Velocity P-wave (km/s) = 4.57280 5.58267 5.10278
#
# Compressibility (1/GPa) = 0.04481309
#
# Stress axis : x y z
#
# Youngs Moduli (GPa) = 85.25133 86.70909 26.91755
#
# Poissons Ratio (x) = 0.44472 -0.05159
# Poissons Ratio (y) = 0.43724 0.12349
# Poissons Ratio (z) = -0.16339 0.39780
#
# Static dielectric constant tensor:
#      x y z
#    x 1.883790 0.000000 0.000000 
#    y 0.000000 1.889440 0.000000 
#    z 0.000000 0.000000 1.982470 
# 
# From -- ./inp_files/32262.got.cif
#   From: 2010.05.17/outbox.cif.g08.bks.cpg/sg53_17_cif.got.tgz:32262.got - 2010.06.03 12:45:16.
