data_PCOD9418158
_publ_section_title
;
Structure prediction by ZEFSAII (Michael W. Deem and Ramdas Pophale) SiO2 
 PCOD9418158
Probable space group: P M N A
;
_chemical_formula_sum "Si O2"
_cell_formula_units_Z 40
_cell_length_a 14.254518
_cell_length_b 13.725037
_cell_length_c 9.403878
_cell_angle_alpha 90.000000
_cell_angle_beta 90.000000
_cell_angle_gamma 90.000000
_cell_volume 1839.810304
_symmetry_space_group_name_H-M "P M N A"
_symmetry_group_IT_number 53
_symmetry_cell_setting 'orthorhombic'
loop_
_space_group_symop_operation_xyz
x,y,z
1/2-x,-y,1/2+z
x,-y,-z
1/2-x,y,1/2-z
-x,-y,-z
1/2+x,y,1/2-z
-x,y,z
1/2+x,-y,1/2+z
loop_
_atom_site_type_symbol
_atom_site_label
_atom_site_fract_x
_atom_site_fract_y
_atom_site_fract_z
Si Si1 0.819130 0.893639 0.443423
Si Si2 0.104916 0.855248 0.130700
Si Si3 0.194201 0.285793 0.379496
Si Si4 0.678741 0.654689 0.366040
Si Si5 0.609105 0.516562 0.833245
O O1 0.703765 0.883361 0.447032
O O2 0.867966 0.885118 0.290671
O O3 0.853749 0.800295 0.533468
O O4 0.841875 0.000000 0.500000
O O5 0.101157 0.737310 0.121227
O O6 0.000000 0.891843 0.090967
O O7 0.250000 0.238863 0.250000
O O8 0.265327 0.342445 0.486499
O O9 0.130536 0.370088 0.312433
O O10 0.750000 0.699576 0.250000
O O11 0.651863 0.553245 0.289579
O O12 0.500000 0.495350 0.826870
O O13 0.636234 0.500000 0.000000
#
# Coordination Sequence:
#
# PCOD9418158 Si02
#       5
#     8   8   8   8   8
#     4  10  22  41  65  92 125 170 217 272 342 392
#     4  10  20  39  66  94 121 162 221 270 321 395
#     4  11  24  39  61  91 128 172 214 269 327 398
#     4  11  19  40  62  91 123 173 216 257 322 388
#     4  11  22  36  62  96 129 166 218 273 320 388
#
# _framework density 21.741371999999998
#
# number of rings (size 3 to 8) (size 9 to 14) (size 15 to 20)
#    0.000    1.400    6.000    1.200    2.800    3.200 
#    0.000    6.000    0.000    0.000    0.000    0.000 
#    0.000    0.000    0.000    0.000    0.000    0.000 
#
# Total GULP energy -222692.827301 kJ/mol
# GULP energy per Si atom -5567.320683 kJ/mol
# Density = 2.169189 g / cm^3
# Si number density = 21.741372 Si / 1000 Ang^3
#
#
#
# Elastic Constant Matrix: (Units=GPa)
#
#
# Indices 1 2 3 4 5 6 
#
# 1 62.0732 1.5365 -13.1783 0.0000 0.0000 0.0000
# 2 1.5365 137.9679 15.9244 0.0000 0.0000 0.0000
# 3 -13.1783 15.9244 62.1457 0.0000 0.0000 0.0000
# 4 0.0000 0.0000 0.0000 20.4034 0.0000 0.0000
# 5 0.0000 0.0000 0.0000 0.0000 10.5910 0.0000
# 6 0.0000 0.0000 0.0000 0.0000 0.0000 12.6054
#
#
#
# Elastic Compliance Matrix: (Units=1/GPa)
#
#
# Indices 1 2 3 4 5 6 
#
# 1 0.016921 -0.000621 0.003747 0.000000 0.000000 0.000000
# 2 -0.000621 0.007492 -0.002051 0.000000 0.000000 0.000000
# 3 0.003747 -0.002051 0.017412 0.000000 0.000000 0.000000
# 4 0.000000 0.000000 0.000000 0.049011 0.000000 0.000000
# 5 0.000000 0.000000 0.000000 0.000000 0.094420 0.000000
# 6 0.000000 0.000000 0.000000 0.000000 0.000000 0.079331
#
#
# Mechanical properties :
#
#
# Convention : Reuss Voigt Hill
#
# Bulk Modulus (GPa) = 22.74065 30.08355 26.41210
# Shear Modulus (GPa) = 18.04434 25.91356 21.97895
#
# Velocity S-wave (km/s) = 2.88402 3.45614 3.18296
# Velocity P-wave (km/s) = 4.64461 5.45835 5.06784
#
# Compressibility (1/GPa) = 0.04397412
#
# Stress axis : x y z
#
# Youngs Moduli (GPa) = 59.09831 133.48019 57.43328
#
# Poissons Ratio (x) = 0.08289 -0.21522
# Poissons Ratio (y) = 0.03670 0.11782
# Poissons Ratio (z) = -0.22146 0.27382
#
# Static dielectric constant tensor:
#      x y z
#    x 1.822290 0.000000 0.000000 
#    y 0.000000 1.852590 0.000000 
#    z 0.000000 0.000000 1.922240 
# 
# From -- ./inp_files/8392.got.cif
#   From: 2010.05.17/outbox.cif.g08.bks.cpg/sg53_5_cif.got.tgz:8392.got - 2010.06.03 12:45:16.
