data_PCOD9418101
_publ_section_title
;
Structure prediction by ZEFSAII (Michael W. Deem and Ramdas Pophale) SiO2 
 PCOD9418101
Probable space group: P M N A
;
_chemical_formula_sum "Si O2"
_cell_formula_units_Z 40
_cell_length_a 18.561961
_cell_length_b 7.470527
_cell_length_c 12.151051
_cell_angle_alpha 90.000000
_cell_angle_beta 90.000000
_cell_angle_gamma 90.000000
_cell_volume 1684.957454
_symmetry_space_group_name_H-M "P M N A"
_symmetry_group_IT_number 53
_symmetry_cell_setting 'orthorhombic'
loop_
_space_group_symop_operation_xyz
x,y,z
1/2-x,-y,1/2+z
x,-y,-z
1/2-x,y,1/2-z
-x,-y,-z
1/2+x,y,1/2-z
-x,y,z
1/2+x,-y,1/2+z
loop_
_atom_site_type_symbol
_atom_site_label
_atom_site_fract_x
_atom_site_fract_y
_atom_site_fract_z
Si Si1 0.580433 0.387175 0.769325
Si Si2 0.629811 0.315503 0.546642
Si Si3 0.417171 0.204912 0.322559
Si Si4 0.805077 0.128994 0.339861
Si Si5 0.290994 0.265272 0.923569
O O1 0.500000 0.362476 0.815682
O O2 0.589589 0.268360 0.658455
O O3 0.586995 0.591117 0.724878
O O4 0.644998 0.348865 0.852981
O O5 0.596888 0.500000 0.500000
O O6 0.624172 0.191121 0.439375
O O7 0.712263 0.352052 0.581486
O O8 0.500000 0.160719 0.340701
O O9 0.378740 0.098351 0.225474
O O10 0.750000 0.207785 0.250000
O O11 0.812341 0.247953 0.448372
O O12 0.778206 0.935583 0.378695
#
# Coordination Sequence:
#
# PCOD9418101 Si02
#       5
#     8   8   8   8   8
#     4  10  22  39  61  94 130 162 203 255 312 371
#     4  10  20  38  67  94 123 161 216 260 307 360
#     4  10  22  40  65  93 126 166 207 257 311 367
#     4  11  23  41  61  88 126 163 209 253 306 373
#     4  11  24  39  64  91 123 165 205 260 313 366
#
# _framework density 23.739473
#
# number of rings (size 3 to 8) (size 9 to 14) (size 15 to 20)
#    0.000    1.600    2.000    2.400    2.800    4.000 
#    0.000    4.000    0.000    3.600    0.000    0.000 
#    0.000    0.000    0.000    0.000    0.000    0.000 
#
# Total GULP energy -223750.831648 kJ/mol
# GULP energy per Si atom -5593.770791 kJ/mol
# Density = 2.368544 g / cm^3
# Si number density = 23.739473 Si / 1000 Ang^3
#
#
#
# Elastic Constant Matrix: (Units=GPa)
#
#
# Indices 1 2 3 4 5 6 
#
# 1 146.2913 0.6065 61.7730 0.0000 0.0000 0.0000
# 2 0.6065 21.3164 17.4755 0.0000 0.0000 0.0000
# 3 61.7730 17.4755 155.4120 0.0000 0.0000 0.0000
# 4 0.0000 0.0000 0.0000 30.8005 0.0000 0.0000
# 5 0.0000 0.0000 0.0000 0.0000 33.9640 0.0000
# 6 0.0000 0.0000 0.0000 0.0000 0.0000 13.0301
#
#
#
# Elastic Compliance Matrix: (Units=1/GPa)
#
#
# Indices 1 2 3 4 5 6 
#
# 1 0.008357 0.002738 -0.003630 0.000000 0.000000 0.000000
# 2 0.002738 0.052573 -0.007000 0.000000 0.000000 0.000000
# 3 -0.003630 -0.007000 0.008664 0.000000 0.000000 0.000000
# 4 0.000000 0.000000 0.000000 0.032467 0.000000 0.000000
# 5 0.000000 0.000000 0.000000 0.000000 0.029443 0.000000
# 6 0.000000 0.000000 0.000000 0.000000 0.000000 0.076746
#
#
# Mechanical properties :
#
#
# Convention : Reuss Voigt Hill
#
# Bulk Modulus (GPa) = 18.58362 53.63663 36.11013
# Shear Modulus (GPa) = 20.66375 31.76989 26.21682
#
# Velocity S-wave (km/s) = 2.95352 3.66221 3.32679
# Velocity P-wave (km/s) = 4.41318 6.36595 5.47729
#
# Compressibility (1/GPa) = 0.05381082
#
# Stress axis : x y z
#
# Youngs Moduli (GPa) = 119.66094 19.02125 115.41626
#
# Poissons Ratio (x) = -0.05208 0.41891
# Poissons Ratio (y) = -0.32761 0.80789
# Poissons Ratio (z) = 0.43432 0.13315
#
# Static dielectric constant tensor:
#      x y z
#    x 1.868470 0.000000 0.000000 
#    y 0.000000 1.998940 0.000000 
#    z 0.000000 0.000000 1.899640 
# 
# From -- ./inp_files/16657.got.cif
#   From: 2010.05.17/outbox.cif.g08.bks.cpg/sg53_9_cif.got.tgz:16657.got - 2010.06.03 12:45:16.
