data_PCOD9418572
_publ_section_title
;
Structure prediction by ZEFSAII (Michael W. Deem and Ramdas Pophale) SiO2 
 PCOD9418572
Probable space group: P M N A
;
_chemical_formula_sum "Si O2"
_cell_formula_units_Z 64
_cell_length_a 8.420208
_cell_length_b 12.257694
_cell_length_c 31.891872
_cell_angle_alpha 90.000000
_cell_angle_beta 90.000000
_cell_angle_gamma 90.000000
_cell_volume 3291.634515
_symmetry_space_group_name_H-M "P M N A"
_symmetry_group_IT_number 53
_symmetry_cell_setting 'orthorhombic'
loop_
_space_group_symop_operation_xyz
x,y,z
1/2-x,-y,1/2+z
x,-y,-z
1/2-x,y,1/2-z
-x,-y,-z
1/2+x,y,1/2-z
-x,y,z
1/2+x,-y,1/2+z
loop_
_atom_site_type_symbol
_atom_site_label
_atom_site_fract_x
_atom_site_fract_y
_atom_site_fract_z
Si Si1 0.692100 0.521245 0.047539
Si Si2 0.808625 0.245787 0.583518
Si Si3 0.191042 0.020104 0.953031
Si Si4 0.310417 0.514300 0.294626
Si Si5 0.192019 0.622568 0.875719
Si Si6 0.805890 0.125906 0.124712
Si Si7 0.810009 0.750730 0.318493
Si Si8 0.689828 0.012727 0.705556
O O1 0.500000 0.517985 0.048151
O O2 0.742745 0.641616 0.062203
O O3 0.752417 0.435141 0.081682
O O4 0.745293 0.500000 0.000000
O O5 0.764859 0.248183 0.632418
O O6 0.000000 0.238895 0.580995
O O7 0.735890 0.140419 0.561935
O O8 0.247980 0.934689 0.917730
O O9 0.000000 0.010888 0.954103
O O10 0.252072 0.000000 0.000000
O O11 0.250000 0.471072 0.250000
O O12 0.500000 0.510710 0.294626
O O13 0.252247 0.446163 0.335084
O O14 0.256674 0.639652 0.299279
O O15 0.244595 0.748346 0.873652
O O16 0.000000 0.621536 0.875240
O O17 0.754028 0.057225 0.165472
O O18 0.000000 0.124719 0.124746
O O19 0.000000 0.748746 0.314835
O O20 0.747083 0.862728 0.299169
O O21 0.750000 0.968608 0.750000
O O22 0.500000 0.011976 0.705462
#
# Coordination Sequence:
#
# PCOD9418572 Si02
#       8
#     8   8   8   8   8   8   8   8
#     4  10  22  40  60  86 120 155 191 236 291 342
#     4  10  21  37  59  86 119 153 188 236 287 339
#     4  10  21  37  60  88 116 151 193 236 284 340
#     4  11  23  38  59  86 115 150 191 236 289 345
#     4  10  22  40  61  85 114 151 195 240 286 339
#     4   9  20  39  58  81 116 151 186 235 286 333
#     4  11  21  37  60  86 118 152 191 237 287 341
#     4  11  22  38  60  85 117 152 190 237 288 343
#
# _framework density 19.443228999999999
#
# number of rings (size 3 to 8) (size 9 to 14) (size 15 to 20)
#    0.000    1.750    2.500    1.500    1.750    2.500 
#    0.000    1.875    0.000    0.000    0.000    0.000 
#    0.000    0.000    0.000    0.000    0.000    0.000 
#
# Total GULP energy -357578.592168 kJ/mol
# GULP energy per Si atom -5587.165503 kJ/mol
# Density = 1.939898 g / cm^3
# Si number density = 19.443229 Si / 1000 Ang^3
#
#
#
# Elastic Constant Matrix: (Units=GPa)
#
#
# Indices 1 2 3 4 5 6 
#
# 1 14.7751 13.9376 27.2306 0.0000 0.0000 0.0000
# 2 13.9376 150.2566 87.7894 0.0000 0.0000 0.0000
# 3 27.2306 87.7894 199.5944 0.0000 0.0000 0.0000
# 4 0.0000 0.0000 0.0000 60.1296 0.0000 0.0000
# 5 0.0000 0.0000 0.0000 0.0000 24.8581 0.0000
# 6 0.0000 0.0000 0.0000 0.0000 0.0000 -39.9543
#
#
#
# Elastic Compliance Matrix: (Units=1/GPa)
#
#
# Indices 1 2 3 4 5 6 
#
# 1 0.090698 -0.001593 -0.011673 0.000000 0.000000 0.000000
# 2 -0.001593 0.008985 -0.003735 0.000000 0.000000 0.000000
# 3 -0.011673 -0.003735 0.008245 0.000000 0.000000 0.000000
# 4 0.000000 0.000000 0.000000 0.016631 0.000000 0.000000
# 5 0.000000 0.000000 0.000000 0.000000 0.040228 0.000000
# 6 0.000000 0.000000 0.000000 0.000000 0.000000 -0.025029
#
#
# Mechanical properties :
#
#
# Convention : Reuss Voigt Hill
#
# Bulk Modulus (GPa) = 13.52684 69.17125 41.34905
# Shear Modulus (GPa) = 25.20122 24.71791 24.95956
#
# Velocity S-wave (km/s) = 3.60411 3.56938 3.58678
# Velocity P-wave (km/s) = 4.92865 7.25538 6.20210
#
# Compressibility (1/GPa) = 0.07392709
#
# Stress axis : x y z
#
# Youngs Moduli (GPa) = 11.02558 111.29592 121.27954
#
# Poissons Ratio (x) = 0.17726 1.41574
# Poissons Ratio (y) = 0.01756 0.45294
# Poissons Ratio (z) = 0.12871 0.41565
#
# Static dielectric constant tensor:
#      x y z
#    x 1.668700 0.000000 0.000000 
#    y 0.000000 1.644020 0.000000 
#    z 0.000000 0.000000 1.684020 
# 
# From -- ./inp_files/38247.got.cif
#   From: 2010.05.17/outbox.cif.g08.bks.cpg/sg53_20_cif.got.tgz:38247.got - 2010.06.03 12:45:16.
