data_PCOD9418934
_publ_section_title
;
Structure prediction by ZEFSAII (Michael W. Deem and Ramdas Pophale) SiO2 
 PCOD9418934
Probable space group: P M N A
;
_chemical_formula_sum "Si O2"
_cell_formula_units_Z 24
_cell_length_a 16.655564
_cell_length_b 8.336234
_cell_length_c 8.579687
_cell_angle_alpha 90.000000
_cell_angle_beta 90.000000
_cell_angle_gamma 90.000000
_cell_volume 1191.243887
_symmetry_space_group_name_H-M "P M N A"
_symmetry_group_IT_number 53
_symmetry_cell_setting 'orthorhombic'
loop_
_space_group_symop_operation_xyz
x,y,z
1/2-x,-y,1/2+z
x,-y,-z
1/2-x,y,1/2-z
-x,-y,-z
1/2+x,y,1/2-z
-x,y,z
1/2+x,-y,1/2+z
loop_
_atom_site_type_symbol
_atom_site_label
_atom_site_fract_x
_atom_site_fract_y
_atom_site_fract_z
Si Si1 0.667595 0.441079 0.323492
Si Si2 0.000000 0.432802 0.813600
Si Si3 0.833780 0.057819 0.176162
Si Si4 0.000000 0.935134 0.320001
O O1 0.668033 0.500000 0.500000
O O2 0.750000 0.503364 0.250000
O O3 0.583957 0.499181 0.250060
O O4 0.667960 0.249816 0.318880
O O5 0.000000 0.246893 0.755902
O O6 0.000000 0.500000 0.000000
O O7 0.750000 0.997392 0.250000
O O8 0.915705 0.002979 0.256544
O O9 0.836599 0.000000 0.000000
O O10 0.000000 0.000000 0.500000
#
# Coordination Sequence:
#
# PCOD9418934 Si02
#       4
#     8   4   8   4
#     4  10  22  39  62  89 120 162 209 259 317 385
#     4  10  21  40  64  87 122 171 213 259 327 402
#     4  11  23  41  65  94 129 169 216 270 332 399
#     4  12  26  42  65  97 131 169 219 277 336 404
#
# _framework density 20.147010000000002
#
# number of rings (size 3 to 8) (size 9 to 14) (size 15 to 20)
#    0.000    1.333    0.000    6.500    0.000   10.667 
#    0.000    2.500    0.000    0.000    0.000    0.000 
#    0.000    0.000    0.000    0.000    0.000    0.000 
#
# Total GULP energy -133691.044756 kJ/mol
# GULP energy per Si atom -5570.460198 kJ/mol
# Density = 2.010115 g / cm^3
# Si number density = 20.147010 Si / 1000 Ang^3
#
#
#
# Elastic Constant Matrix: (Units=GPa)
#
#
# Indices 1 2 3 4 5 6 
#
# 1 271.1106 60.2584 92.6153 0.0000 0.0000 0.0000
# 2 60.2584 95.2779 32.0898 0.0000 0.0000 0.0000
# 3 92.6153 32.0898 119.6932 0.0000 0.0000 0.0000
# 4 0.0000 0.0000 0.0000 25.4999 0.0000 0.0000
# 5 0.0000 0.0000 0.0000 0.0000 47.0010 0.0000
# 6 0.0000 0.0000 0.0000 0.0000 0.0000 51.2108
#
#
#
# Elastic Compliance Matrix: (Units=1/GPa)
#
#
# Indices 1 2 3 4 5 6 
#
# 1 0.005406 -0.002210 -0.003591 0.000000 0.000000 0.000000
# 2 -0.002210 0.012441 -0.001625 0.000000 0.000000 0.000000
# 3 -0.003591 -0.001625 0.011569 0.000000 0.000000 0.000000
# 4 0.000000 0.000000 0.000000 0.039216 0.000000 0.000000
# 5 0.000000 0.000000 0.000000 0.000000 0.021276 0.000000
# 6 0.000000 0.000000 0.000000 0.000000 0.000000 0.019527
#
#
# Mechanical properties :
#
#
# Convention : Reuss Voigt Hill
#
# Bulk Modulus (GPa) = 68.66351 95.11208 81.88780
# Shear Modulus (GPa) = 38.71704 44.81687 41.76695
#
# Velocity S-wave (km/s) = 4.38851 4.72157 4.55808
# Velocity P-wave (km/s) = 7.73524 8.77700 8.27254
#
# Compressibility (1/GPa) = 0.01456378
#
# Stress axis : x y z
#
# Youngs Moduli (GPa) = 184.96614 80.38141 86.43801
#
# Poissons Ratio (x) = 0.17763 0.31039
# Poissons Ratio (y) = 0.40875 0.14050
# Poissons Ratio (z) = 0.66419 0.13065
#
# Static dielectric constant tensor:
#      x y z
#    x 1.319870 0.000000 0.000000 
#    y 0.000000 1.733040 0.000000 
#    z 0.000000 0.000000 1.739420 
# 
# From -- ./inp_files/7830.got.cif
#   From: 2010.05.17/outbox.cif.g08.bks.cpg/sg53_4_cif.got.tgz:7830.got - 2010.06.03 12:45:16.
