data_PCOD9418455
_publ_section_title
;
Structure prediction by ZEFSAII (Michael W. Deem and Ramdas Pophale) SiO2 
 PCOD9418455
Probable space group: P M N A
;
_chemical_formula_sum "Si O2"
_cell_formula_units_Z 40
_cell_length_a 9.174880
_cell_length_b 9.036363
_cell_length_c 26.762906
_cell_angle_alpha 90.000000
_cell_angle_beta 90.000000
_cell_angle_gamma 90.000000
_cell_volume 2218.846865
_symmetry_space_group_name_H-M "P M N A"
_symmetry_group_IT_number 53
_symmetry_cell_setting 'orthorhombic'
loop_
_space_group_symop_operation_xyz
x,y,z
1/2-x,-y,1/2+z
x,-y,-z
1/2-x,y,1/2-z
-x,-y,-z
1/2+x,y,1/2-z
-x,y,z
1/2+x,-y,1/2+z
loop_
_atom_site_type_symbol
_atom_site_label
_atom_site_fract_x
_atom_site_fract_y
_atom_site_fract_z
Si Si1 0.826333 0.672829 0.902117
Si Si2 0.824498 0.644436 0.407722
Si Si3 0.168894 0.318626 0.300218
Si Si4 0.831432 0.825526 0.508336
Si Si5 0.666575 0.320122 0.799226
O O1 0.760566 0.509399 0.912102
O O2 0.754034 0.725607 0.850180
O O3 0.773644 0.772364 0.947958
O O4 0.000000 0.666792 0.897646
O O5 0.799269 0.742736 0.456342
O O6 0.780072 0.719471 0.354936
O O7 0.000000 0.615439 0.404131
O O8 0.250000 0.268518 0.250000
O O9 0.170664 0.499397 0.299319
O O10 0.000000 0.273170 0.301496
O O11 0.000000 0.788579 0.522063
O O12 0.821942 0.000000 0.500000
O O13 0.750000 0.268947 0.750000
O O14 0.500000 0.272562 0.794720
#
# Coordination Sequence:
#
# PCOD9418455 Si02
#       5
#     8   8   8   8   8
#     4  11  21  32  50  77 106 135 168 207 252 303
#     4   9  18  33  52  74 100 129 166 211 255 301
#     4   9  16  28  47  73 104 134 165 204 249 295
#     4  10  21  37  55  72  94 131 175 217 263 310
#     4   8  14  24  41  67  97 125 152 190 239 289
#
# _framework density 18.027381999999999
#
# number of rings (size 3 to 8) (size 9 to 14) (size 15 to 20)
#    0.000    2.600    0.000    4.200    0.000    8.400 
#    0.000    0.000    0.000    1.200    0.000    2.800 
#    0.000    0.000    0.000    0.000    0.000    0.000 
#
# Total GULP energy -223032.131066 kJ/mol
# GULP energy per Si atom -5575.803277 kJ/mol
# Density = 1.798635 g / cm^3
# Si number density = 18.027382 Si / 1000 Ang^3
#
#
#
# Elastic Constant Matrix: (Units=GPa)
#
#
# Indices 1 2 3 4 5 6 
#
# 1 109.8630 29.0997 89.6542 0.0000 0.0000 0.0000
# 2 29.0997 20.6004 35.1091 0.0000 0.0000 0.0000
# 3 89.6542 35.1091 167.9876 0.0000 0.0000 0.0000
# 4 0.0000 0.0000 0.0000 -6.6547 0.0000 0.0000
# 5 0.0000 0.0000 0.0000 0.0000 35.9798 0.0000
# 6 0.0000 0.0000 0.0000 0.0000 0.0000 5.7663
#
#
#
# Elastic Compliance Matrix: (Units=1/GPa)
#
#
# Indices 1 2 3 4 5 6 
#
# 1 0.018546 -0.014490 -0.006870 0.000000 0.000000 0.000000
# 2 -0.014490 0.086721 -0.010391 0.000000 0.000000 0.000000
# 3 -0.006870 -0.010391 0.011791 0.000000 0.000000 0.000000
# 4 0.000000 0.000000 0.000000 -0.150270 0.000000 0.000000
# 5 0.000000 0.000000 0.000000 0.000000 0.027793 0.000000
# 6 0.000000 0.000000 0.000000 0.000000 0.000000 0.173421
#
#
# Mechanical properties :
#
#
# Convention : Reuss Voigt Hill
#
# Bulk Modulus (GPa) = 18.67208 67.35299 43.01254
# Shear Modulus (GPa) = 20.05159 16.65748 18.35454
#
# Velocity S-wave (km/s) = 3.33871 3.04305 3.19430
# Velocity P-wave (km/s) = 5.02422 7.05617 6.12504
#
# Compressibility (1/GPa) = 0.05355589
#
# Stress axis : x y z
#
# Youngs Moduli (GPa) = 53.91907 11.53128 84.81158
#
# Poissons Ratio (x) = 0.16709 0.58263
# Poissons Ratio (y) = 0.78130 0.88128
# Poissons Ratio (z) = 0.37041 0.11982
#
# Static dielectric constant tensor:
#      x y z
#    x 1.610640 0.000000 0.000000 
#    y 0.000000 1.587530 0.000000 
#    z 0.000000 0.000000 1.637580 
# 
# From -- ./inp_files/33619.got.cif
#   From: 2010.05.17/outbox.cif.g08.bks.cpg/sg53_17_cif.got.tgz:33619.got - 2010.06.03 12:45:16.
