data_PCOD9418356
_publ_section_title
;
Structure prediction by ZEFSAII (Michael W. Deem and Ramdas Pophale) SiO2 
 PCOD9418356
Probable space group: P M N A
;
_chemical_formula_sum "Si O2"
_cell_formula_units_Z 56
_cell_length_a 20.008631
_cell_length_b 8.067172
_cell_length_c 16.308757
_cell_angle_alpha 90.000000
_cell_angle_beta 90.000000
_cell_angle_gamma 90.000000
_cell_volume 2632.446499
_symmetry_space_group_name_H-M "P M N A"
_symmetry_group_IT_number 53
_symmetry_cell_setting 'orthorhombic'
loop_
_space_group_symop_operation_xyz
x,y,z
1/2-x,-y,1/2+z
x,-y,-z
1/2-x,y,1/2-z
-x,-y,-z
1/2+x,y,1/2-z
-x,y,z
1/2+x,-y,1/2+z
loop_
_atom_site_type_symbol
_atom_site_label
_atom_site_fract_x
_atom_site_fract_y
_atom_site_fract_z
Si Si1 0.920988 0.478951 0.729706
Si Si2 0.679305 0.018959 0.204182
Si Si3 0.151235 0.234648 0.965628
Si Si4 0.305369 0.164640 0.952799
Si Si5 0.322858 0.635052 0.891345
Si Si6 0.925085 0.882759 0.180699
Si Si7 0.166018 0.586143 0.876959
O O1 0.879492 0.514598 0.645882
O O2 0.919949 0.294107 0.769973
O O3 0.877494 0.584111 0.795398
O O4 0.000000 0.522864 0.722155
O O5 0.750000 0.015037 0.250000
O O6 0.673265 0.865021 0.140475
O O7 0.624383 0.002706 0.273061
O O8 0.671127 0.187052 0.153523
O O9 0.224828 0.163130 0.949970
O O10 0.096931 0.137962 0.913518
O O11 0.150270 0.415730 0.924016
O O12 0.146233 0.264807 0.062261
O O13 0.324448 0.318607 0.011311
O O14 0.328716 0.000000 0.000000
O O15 0.246744 0.581671 0.868558
O O16 0.000000 0.941137 0.186416
#
# Coordination Sequence:
#
# PCOD9418356 Si02
#       7
#     8   8   8   8   8   8   8
#     4  10  21  36  53  78 112 151 188 229 275 330
#     4  11  20  34  58  82 107 145 184 229 281 324
#     4   9  17  33  55  83 111 144 175 232 285 331
#     4   9  19  34  54  85 110 138 179 232 277 329
#     4  10  21  36  56  83 113 140 186 235 279 329
#     4  10  22  36  54  82 115 149 190 226 273 338
#     4   9  18  32  57  85 109 139 188 232 283 332
#
# _framework density 21.272987000000001
#
# number of rings (size 3 to 8) (size 9 to 14) (size 15 to 20)
#    0.000    2.286    1.429    1.286    2.000    1.143 
#    0.000    3.571    0.000    4.714    0.000    0.000 
#    0.000    0.000    0.000    0.000    0.000    0.000 
#
# Total GULP energy -312465.874063 kJ/mol
# GULP energy per Si atom -5579.747751 kJ/mol
# Density = 2.122457 g / cm^3
# Si number density = 21.272987 Si / 1000 Ang^3
#
#
#
# Elastic Constant Matrix: (Units=GPa)
#
#
# Indices 1 2 3 4 5 6 
#
# 1 97.9526 6.6356 29.7368 0.0000 0.0000 0.0000
# 2 6.6356 48.4584 7.8164 0.0000 0.0000 0.0000
# 3 29.7368 7.8164 58.4551 0.0000 0.0000 0.0000
# 4 0.0000 0.0000 0.0000 16.5634 0.0000 0.0000
# 5 0.0000 0.0000 0.0000 0.0000 28.1398 0.0000
# 6 0.0000 0.0000 0.0000 0.0000 0.0000 -55.3348
#
#
#
# Elastic Compliance Matrix: (Units=1/GPa)
#
#
# Indices 1 2 3 4 5 6 
#
# 1 0.012095 -0.000678 -0.006062 0.000000 0.000000 0.000000
# 2 -0.000678 0.021129 -0.002480 0.000000 0.000000 0.000000
# 3 -0.006062 -0.002480 0.020523 0.000000 0.000000 0.000000
# 4 0.000000 0.000000 0.000000 0.060374 0.000000 0.000000
# 5 0.000000 0.000000 0.000000 0.000000 0.035537 0.000000
# 6 0.000000 0.000000 0.000000 0.000000 0.000000 -0.018072
#
#
# Mechanical properties :
#
#
# Convention : Reuss Voigt Hill
#
# Bulk Modulus (GPa) = 28.32425 32.58264 30.45344
# Shear Modulus (GPa) = 30.90289 8.58549 19.74419
#
# Velocity S-wave (km/s) = 3.81554 2.01113 3.04983
# Velocity P-wave (km/s) = 5.72317 4.55440 5.17191
#
# Compressibility (1/GPa) = 0.03530544
#
# Stress axis : x y z
#
# Youngs Moduli (GPa) = 82.67597 47.32783 48.72630
#
# Poissons Ratio (x) = 0.03211 0.29540
# Poissons Ratio (y) = 0.05609 0.12085
# Poissons Ratio (z) = 0.50121 0.11738
#
# Static dielectric constant tensor:
#      x y z
#    x 1.695250 0.000000 0.000000 
#    y 0.000000 1.866710 0.000000 
#    z 0.000000 0.000000 1.831620 
# 
# From -- ./inp_files/24349.got.cif
#   From: 2010.05.17/outbox.cif.g08.bks.cpg/sg53_13_cif.got.tgz:24349.got - 2010.06.03 12:45:16.
