data_PCOD9418928
_publ_section_title
;
Structure prediction by ZEFSAII (Michael W. Deem and Ramdas Pophale) SiO2 
 PCOD9418928
Probable space group: P M N A
;
_chemical_formula_sum "Si O2"
_cell_formula_units_Z 48
_cell_length_a 9.138824
_cell_length_b 16.440003
_cell_length_c 15.875232
_cell_angle_alpha 90.000000
_cell_angle_beta 90.000000
_cell_angle_gamma 90.000000
_cell_volume 2385.131273
_symmetry_space_group_name_H-M "P M N A"
_symmetry_group_IT_number 53
_symmetry_cell_setting 'orthorhombic'
loop_
_space_group_symop_operation_xyz
x,y,z
1/2-x,-y,1/2+z
x,-y,-z
1/2-x,y,1/2-z
-x,-y,-z
1/2+x,y,1/2-z
-x,y,z
1/2+x,-y,1/2+z
loop_
_atom_site_type_symbol
_atom_site_label
_atom_site_fract_x
_atom_site_fract_y
_atom_site_fract_z
Si Si1 0.831479 0.857085 0.923396
Si Si2 0.824125 0.315039 0.160093
Si Si3 0.170699 0.402529 0.496594
Si Si4 0.328187 0.994349 0.835197
Si Si5 0.828063 0.340688 0.834767
Si Si6 0.165491 0.155330 0.879166
O O1 0.796447 0.779124 0.866193
O O2 0.000000 0.881350 0.907097
O O3 0.729326 0.933652 0.906580
O O4 0.821658 0.831402 0.020667
O O5 0.750000 0.332157 0.250000
O O6 0.753990 0.368730 0.085558
O O7 0.000000 0.326509 0.163311
O O8 0.175348 0.500000 0.500000
O O9 0.248517 0.371070 0.581207
O O10 0.000000 0.376647 0.494340
O O11 0.250000 0.965905 0.750000
O O12 0.500000 0.989665 0.826974
O O13 0.277080 0.086294 0.851728
O O14 0.750000 0.371243 0.750000
O O15 0.817464 0.242540 0.836832
O O16 0.000000 0.362152 0.836047
O O17 0.000000 0.124896 0.861897
#
# Coordination Sequence:
#
# PCOD9418928 Si02
#       6
#     8   8   8   8   8   8
#     4  10  21  40  63  89 123 164 209 260 317 374
#     4  11  23  42  68  99 131 171 216 263 321 383
#     4  11  25  45  69  98 131 168 211 263 322 385
#     4  12  25  38  55  85 121 165 215 263 314 369
#     4  11  23  42  68  99 131 171 216 263 321 383
#     4  10  21  40  63  89 123 164 209 260 317 374
#
# _framework density 20.124679
#
# number of rings (size 3 to 8) (size 9 to 14) (size 15 to 20)
#    0.000    1.167    1.667    4.500    0.000   10.000 
#    0.000    0.000    0.000    0.000    0.000    0.000 
#    0.000    0.000    0.000    0.000    0.000    0.000 
#
# Total GULP energy -268486.914928 kJ/mol
# GULP energy per Si atom -5593.477394 kJ/mol
# Density = 2.007887 g / cm^3
# Si number density = 20.124679 Si / 1000 Ang^3
#
#
#
# Elastic Constant Matrix: (Units=GPa)
#
#
# Indices 1 2 3 4 5 6 
#
# 1 152.2744 52.1621 75.2641 0.0000 0.0000 0.0000
# 2 52.1621 46.2699 19.4602 0.0000 0.0000 0.0000
# 3 75.2641 19.4602 134.4512 0.0000 0.0000 0.0000
# 4 0.0000 0.0000 0.0000 4.0143 0.0000 0.0000
# 5 0.0000 0.0000 0.0000 0.0000 33.1053 0.0000
# 6 0.0000 0.0000 0.0000 0.0000 0.0000 61.9793
#
#
#
# Elastic Compliance Matrix: (Units=1/GPa)
#
#
# Indices 1 2 3 4 5 6 
#
# 1 0.014095 -0.013386 -0.005953 0.000000 0.000000 0.000000
# 2 -0.013386 0.035726 0.002322 0.000000 0.000000 0.000000
# 3 -0.005953 0.002322 0.010434 0.000000 0.000000 0.000000
# 4 0.000000 0.000000 0.000000 0.249108 0.000000 0.000000
# 5 0.000000 0.000000 0.000000 0.000000 0.030207 0.000000
# 6 0.000000 0.000000 0.000000 0.000000 0.000000 0.016134
#
#
# Mechanical properties :
#
#
# Convention : Reuss Voigt Hill
#
# Bulk Modulus (GPa) = 38.13566 69.64092 53.88829
# Shear Modulus (GPa) = 12.54779 32.22706 22.38743
#
# Velocity S-wave (km/s) = 2.49971 4.00605 3.33894
# Velocity P-wave (km/s) = 5.22707 7.48851 6.45756
#
# Compressibility (1/GPa) = 0.02622218
#
# Stress axis : x y z
#
# Youngs Moduli (GPa) = 70.94889 27.99069 95.84354
#
# Poissons Ratio (x) = 0.37468 0.57051
# Poissons Ratio (y) = 0.94972 -0.22259
# Poissons Ratio (z) = 0.42233 -0.06501
#
# Static dielectric constant tensor:
#      x y z
#    x 1.691570 0.000000 0.000000 
#    y 0.000000 1.694680 0.000000 
#    z 0.000000 0.000000 1.715440 
# 
# From -- ./inp_files/20129.got.cif
#   From: 2010.05.17/outbox.cif.g08.bks.cpg/sg53_11_cif.got.tgz:20129.got - 2010.06.03 12:45:16.
