data_PCOD9418552
_publ_section_title
;
Structure prediction by ZEFSAII (Michael W. Deem and Ramdas Pophale) SiO2 
 PCOD9418552
Probable space group: P M N A
;
_chemical_formula_sum "Si O2"
_cell_formula_units_Z 56
_cell_length_a 8.288803
_cell_length_b 19.354713
_cell_length_c 16.656596
_cell_angle_alpha 90.000000
_cell_angle_beta 90.000000
_cell_angle_gamma 90.000000
_cell_volume 2672.174442
_symmetry_space_group_name_H-M "P M N A"
_symmetry_group_IT_number 53
_symmetry_cell_setting 'orthorhombic'
loop_
_space_group_symop_operation_xyz
x,y,z
1/2-x,-y,1/2+z
x,-y,-z
1/2-x,y,1/2-z
-x,-y,-z
1/2+x,y,1/2-z
-x,y,z
1/2+x,-y,1/2+z
loop_
_atom_site_type_symbol
_atom_site_label
_atom_site_fract_x
_atom_site_fract_y
_atom_site_fract_z
Si Si1 0.190606 0.411588 0.163141
Si Si2 0.688249 0.713483 0.928406
Si Si3 0.312651 0.299279 0.598768
Si Si4 0.692879 0.154180 0.162004
Si Si5 0.694155 0.454587 0.576538
Si Si6 0.190459 0.159419 0.662617
Si Si7 0.302857 0.080384 0.998161
O O1 0.250000 0.390875 0.250000
O O2 0.281751 0.364096 0.099691
O O3 0.221306 0.492347 0.148742
O O4 0.000000 0.399800 0.152857
O O5 0.500000 0.725118 0.948434
O O6 0.733595 0.765900 0.857447
O O7 0.791869 0.726304 0.007259
O O8 0.500000 0.302558 0.621744
O O9 0.243844 0.377744 0.595190
O O10 0.229695 0.240659 0.651558
O O11 0.750000 0.132700 0.250000
O O12 0.500000 0.147903 0.163007
O O13 0.751783 0.114181 0.082388
O O14 0.752313 0.500000 0.500000
O O15 0.500000 0.445909 0.563586
O O16 0.250000 0.135610 0.750000
O O17 0.254095 0.118566 0.583509
O O18 0.000000 0.150563 0.661856
O O19 0.500000 0.085199 0.997778
O O20 0.259304 0.000000 0.000000
#
# Coordination Sequence:
#
# PCOD9418552 Si02
#       7
#     8   8   8   8   8   8   8
#     4  11  22  37  55  79 112 149 192 243 300 361
#     4  11  21  36  57  85 118 154 198 245 297 360
#     4  11  21  37  63  89 116 156 202 253 309 361
#     4  10  21  37  58  88 121 156 195 239 289 348
#     4   9  18  35  56  79 108 147 195 245 301 361
#     4  11  23  42  65  93 126 162 209 257 303 363
#     4   9  19  39  65  90 123 165 199 237 297 361
#
# _framework density 20.956716
#
# number of rings (size 3 to 8) (size 9 to 14) (size 15 to 20)
#    0.000    1.714    2.857    2.143    0.000    3.429 
#    0.000    5.000    0.000    3.000    0.000    0.000 
#    0.000    0.000    0.000    0.000    0.000    0.000 
#
# Total GULP energy -312445.795169 kJ/mol
# GULP energy per Si atom -5579.389199 kJ/mol
# Density = 2.090902 g / cm^3
# Si number density = 20.956716 Si / 1000 Ang^3
#
#
#
# Elastic Constant Matrix: (Units=GPa)
#
#
# Indices 1 2 3 4 5 6 
#
# 1 16.6543 16.1152 13.1420 0.0000 0.0000 0.0000
# 2 16.1152 123.9307 56.6098 0.0000 0.0000 0.0000
# 3 13.1420 56.6098 131.3215 0.0000 0.0000 0.0000
# 4 0.0000 0.0000 0.0000 21.7927 0.0000 0.0000
# 5 0.0000 0.0000 0.0000 0.0000 26.2752 0.0000
# 6 0.0000 0.0000 0.0000 0.0000 0.0000 28.8408
#
#
#
# Elastic Compliance Matrix: (Units=1/GPa)
#
#
# Indices 1 2 3 4 5 6 
#
# 1 0.070215 -0.007372 -0.003849 0.000000 0.000000 0.000000
# 2 -0.007372 0.010822 -0.003927 0.000000 0.000000 0.000000
# 3 -0.003849 -0.003927 0.009693 0.000000 0.000000 0.000000
# 4 0.000000 0.000000 0.000000 0.045887 0.000000 0.000000
# 5 0.000000 0.000000 0.000000 0.000000 0.038059 0.000000
# 6 0.000000 0.000000 0.000000 0.000000 0.000000 0.034673
#
#
# Mechanical properties :
#
#
# Convention : Reuss Voigt Hill
#
# Bulk Modulus (GPa) = 16.54715 49.29340 32.92028
# Shear Modulus (GPa) = 19.24636 27.78439 23.51537
#
# Velocity S-wave (km/s) = 3.03378 3.64510 3.35340
# Velocity P-wave (km/s) = 4.49274 6.42560 5.54405
#
# Compressibility (1/GPa) = 0.06043337
#
# Stress axis : x y z
#
# Youngs Moduli (GPa) = 14.24190 92.40827 103.16766
#
# Poissons Ratio (x) = 0.68127 0.39707
# Poissons Ratio (y) = 0.10500 0.40515
# Poissons Ratio (z) = 0.05481 0.36290
#
# Static dielectric constant tensor:
#      x y z
#    x 1.743530 0.000000 0.000000 
#    y 0.000000 1.781640 0.000000 
#    z 0.000000 0.000000 1.753270 
# 
# From -- ./inp_files/20658.got.cif
#   From: 2010.05.17/outbox.cif.g08.bks.cpg/sg53_11_cif.got.tgz:20658.got - 2010.06.03 12:45:16.
