data_PCOD9418710
_publ_section_title
;
Structure prediction by ZEFSAII (Michael W. Deem and Ramdas Pophale) SiO2 
 PCOD9418710
Probable space group: P M N A
;
_chemical_formula_sum "Si O2"
_cell_formula_units_Z 48
_cell_length_a 7.931538
_cell_length_b 10.083520
_cell_length_c 31.185949
_cell_angle_alpha 90.000000
_cell_angle_beta 90.000000
_cell_angle_gamma 90.000000
_cell_volume 2494.184280
_symmetry_space_group_name_H-M "P M N A"
_symmetry_group_IT_number 53
_symmetry_cell_setting 'orthorhombic'
loop_
_space_group_symop_operation_xyz
x,y,z
1/2-x,-y,1/2+z
x,-y,-z
1/2-x,y,1/2-z
-x,-y,-z
1/2+x,y,1/2-z
-x,y,z
1/2+x,-y,1/2+z
loop_
_atom_site_type_symbol
_atom_site_label
_atom_site_fract_x
_atom_site_fract_y
_atom_site_fract_z
Si Si1 0.193055 0.469195 0.701134
Si Si2 0.301557 0.029690 0.134593
Si Si3 0.801356 0.092438 0.541800
Si Si4 0.692135 0.179691 0.702769
Si Si5 0.000000 0.298183 0.967771
Si Si6 0.295525 0.662742 0.872816
Si Si7 0.000000 0.590337 0.936082
O O1 0.250000 0.486011 0.750000
O O2 0.211137 0.313835 0.690179
O O3 0.266617 0.563650 0.664665
O O4 0.000000 0.507148 0.701086
O O5 0.500000 0.006961 0.142026
O O6 0.267205 0.989371 0.085404
O O7 0.209167 0.934287 0.167817
O O8 0.268955 0.184860 0.140778
O O9 0.667213 0.210927 0.540284
O O10 0.000000 0.133571 0.542425
O O11 0.777783 0.000000 0.500000
O O12 0.750000 0.134772 0.750000
O O13 0.500000 0.223356 0.707041
O O14 0.000000 0.430964 0.939557
O O15 0.000000 0.346383 0.016829
O O16 0.500000 0.646767 0.881672
O O17 0.171425 0.635112 0.912378
#
# Coordination Sequence:
#
# PCOD9418710 Si02
#       7
#     8   8   8   8   4   8   4
#     4  10  21  38  61  88 120 162 205 252 307 370
#     4  10  22  40  62  91 124 161 209 258 315 373
#     4  10  22  40  66  94 127 168 211 264 320 383
#     4  11  23  38  61  91 125 162 206 262 312 372
#     4  11  25  42  62  96 125 166 215 270 315 378
#     4  10  24  42  63  90 126 168 207 258 312 380
#     4  11  26  42  64  90 130 167 212 265 318 376
#
# _framework density 19.244769000000002
#
# number of rings (size 3 to 8) (size 9 to 14) (size 15 to 20)
#    0.000    1.667    0.000    4.250    7.000    3.333 
#    0.000    3.333    0.000    0.000    0.000    0.000 
#    0.000    0.000    0.000    0.000    0.000    0.000 
#
# Total GULP energy -267932.573125 kJ/mol
# GULP energy per Si atom -5581.928607 kJ/mol
# Density = 1.920097 g / cm^3
# Si number density = 19.244769 Si / 1000 Ang^3
#
#
#
# Elastic Constant Matrix: (Units=GPa)
#
#
# Indices 1 2 3 4 5 6 
#
# 1 48.4110 26.4865 15.5806 0.0000 0.0000 0.0000
# 2 26.4865 83.6442 38.9973 0.0000 0.0000 0.0000
# 3 15.5806 38.9973 77.7484 0.0000 0.0000 0.0000
# 4 0.0000 0.0000 0.0000 36.9201 0.0000 0.0000
# 5 0.0000 0.0000 0.0000 0.0000 24.0346 0.0000
# 6 0.0000 0.0000 0.0000 0.0000 0.0000 39.6104
#
#
#
# Elastic Compliance Matrix: (Units=1/GPa)
#
#
# Indices 1 2 3 4 5 6 
#
# 1 0.025095 -0.007312 -0.001362 0.000000 0.000000 0.000000
# 2 -0.007312 0.017735 -0.007430 0.000000 0.000000 0.000000
# 3 -0.001362 -0.007430 0.016862 0.000000 0.000000 0.000000
# 4 0.000000 0.000000 0.000000 0.027086 0.000000 0.000000
# 5 0.000000 0.000000 0.000000 0.000000 0.041607 0.000000
# 6 0.000000 0.000000 0.000000 0.000000 0.000000 0.025246
#
#
# Mechanical properties :
#
#
# Convention : Reuss Voigt Hill
#
# Bulk Modulus (GPa) = 36.38401 41.32582 38.85491
# Shear Modulus (GPa) = 25.64124 28.69564 27.16844
#
# Velocity S-wave (km/s) = 3.65413 3.86565 3.76138
# Velocity P-wave (km/s) = 6.06222 6.43776 6.25281
#
# Compressibility (1/GPa) = 0.02748460
#
# Stress axis : x y z
#
# Youngs Moduli (GPa) = 39.84856 56.38600 59.30580
#
# Poissons Ratio (x) = 0.41228 0.08075
# Poissons Ratio (y) = 0.29136 0.44066
# Poissons Ratio (z) = 0.05426 0.41896
#
# Static dielectric constant tensor:
#      x y z
#    x 1.625580 0.000000 0.000000 
#    y 0.000000 1.640680 0.000000 
#    z 0.000000 0.000000 1.696800 
# 
# From -- ./inp_files/37838.got.cif
#   From: 2010.05.17/outbox.cif.g08.bks.cpg/sg53_19_cif.got.tgz:37838.got - 2010.06.03 12:45:16.
