data_PCOD9418520
_publ_section_title
;
Structure prediction by ZEFSAII (Michael W. Deem and Ramdas Pophale) SiO2 
 PCOD9418520
Probable space group: P M N A
;
_chemical_formula_sum "Si O2"
_cell_formula_units_Z 34
_cell_length_a 7.597648
_cell_length_b 23.312125
_cell_length_c 8.778459
_cell_angle_alpha 90.000000
_cell_angle_beta 90.000000
_cell_angle_gamma 90.000000
_cell_volume 1554.817131
_symmetry_space_group_name_H-M "P M N A"
_symmetry_group_IT_number 53
_symmetry_cell_setting 'orthorhombic'
loop_
_space_group_symop_operation_xyz
x,y,z
1/2-x,-y,1/2+z
x,-y,-z
1/2-x,y,1/2-z
-x,-y,-z
1/2+x,y,1/2-z
-x,y,z
1/2+x,-y,1/2+z
loop_
_atom_site_type_symbol
_atom_site_label
_atom_site_fract_x
_atom_site_fract_y
_atom_site_fract_z
Si Si1 0.788676 0.940780 0.928285
Si Si2 0.710115 0.704244 0.572231
Si Si3 0.000000 0.500000 0.000000
Si Si4 0.211077 0.177432 0.927984
Si Si5 0.200119 0.585551 0.428188
O O1 0.750000 0.939194 0.750000
O O2 0.000000 0.941041 0.949105
O O3 0.719802 0.882863 0.007113
O O4 0.719893 0.000000 0.000000
O O5 0.750000 0.696908 0.750000
O O6 0.500000 0.702477 0.549691
O O7 0.776866 0.766103 0.515214
O O8 0.788034 0.651676 0.477239
O O9 0.844440 0.450876 0.018095
O O10 0.250000 0.182281 0.750000
O O11 0.000000 0.176664 0.948344
O O12 0.250000 0.579190 0.250000
O O13 0.000000 0.565787 0.450162
#
# Coordination Sequence:
#
# PCOD9418520 Si02
#       5
#     8   8   2   8   8
#     4  10  21  37  57  87 125 166 214 268 322 386
#     4  11  23  42  64  96 131 168 218 274 332 392
#     4  12  26  48  72 108 136 176 224 274 328 402
#     4  10  22  38  61  90 124 167 215 268 325 388
#     4  12  25  48  73 101 136 179 223 274 331 398
#
# _framework density 21.867525000000001
#
# number of rings (size 3 to 8) (size 9 to 14) (size 15 to 20)
#    0.000    1.176    2.353    3.176    0.000    6.118 
#    4.235    0.000    0.000    0.000    0.000    0.000 
#    0.000    0.000    0.000    0.000    0.000    0.000 
#
# Total GULP energy -189707.210090 kJ/mol
# GULP energy per Si atom -5579.623826 kJ/mol
# Density = 2.181775 g / cm^3
# Si number density = 21.867525 Si / 1000 Ang^3
#
#
#
# Elastic Constant Matrix: (Units=GPa)
#
#
# Indices 1 2 3 4 5 6 
#
# 1 142.1666 48.9883 5.7530 0.0000 0.0000 0.0000
# 2 48.9883 148.9952 1.7985 0.0000 0.0000 0.0000
# 3 5.7530 1.7985 42.6907 0.0000 0.0000 0.0000
# 4 0.0000 0.0000 0.0000 -36.7030 0.0000 0.0000
# 5 0.0000 0.0000 0.0000 0.0000 23.2195 0.0000
# 6 0.0000 0.0000 0.0000 0.0000 0.0000 -25.8463
#
#
#
# Elastic Compliance Matrix: (Units=1/GPa)
#
#
# Indices 1 2 3 4 5 6 
#
# 1 0.007972 -0.002610 -0.000964 0.000000 0.000000 0.000000
# 2 -0.002610 0.007569 0.000033 0.000000 0.000000 0.000000
# 3 -0.000964 0.000033 0.023553 0.000000 0.000000 0.000000
# 4 0.000000 0.000000 0.000000 -0.027246 0.000000 0.000000
# 5 0.000000 0.000000 0.000000 0.000000 0.043067 0.000000
# 6 0.000000 0.000000 0.000000 0.000000 0.000000 -0.038690
#
#
# Mechanical properties :
#
#
# Convention : Reuss Voigt Hill
#
# Bulk Modulus (GPa) = 31.23826 49.65911 40.44868
# Shear Modulus (GPa) = 147.15106 10.62155 78.88631
#
# Velocity S-wave (km/s) = 8.21207 2.20630 6.01273
# Velocity P-wave (km/s) = 10.20949 5.40821 8.16953
#
# Compressibility (1/GPa) = 0.03201202
#
# Stress axis : x y z
#
# Youngs Moduli (GPa) = 125.43530 132.11381 42.45761
#
# Poissons Ratio (x) = 0.34476 0.04095
# Poissons Ratio (y) = 0.32733 -0.00139
# Poissons Ratio (z) = 0.12097 -0.00433
#
# Static dielectric constant tensor:
#      x y z
#    x 1.789740 0.000000 0.000000 
#    y 0.000000 1.803990 0.000000 
#    z 0.000000 0.000000 1.736360 
# 
# From -- ./inp_files/6134.got.cif
#   From: 2010.05.17/outbox.cif.g08.bks.cpg/sg53_4_cif.got.tgz:6134.got - 2010.06.03 12:45:16.
