data_PCOD9418011
_publ_section_title
;
Structure prediction by ZEFSAII (Michael W. Deem and Ramdas Pophale) SiO2 
 PCOD9418011
Probable space group: P M N A
;
_chemical_formula_sum "Si O2"
_cell_formula_units_Z 48
_cell_length_a 9.637325
_cell_length_b 29.963584
_cell_length_c 8.958691
_cell_angle_alpha 90.000000
_cell_angle_beta 90.000000
_cell_angle_gamma 90.000000
_cell_volume 2586.990424
_symmetry_space_group_name_H-M "P M N A"
_symmetry_group_IT_number 53
_symmetry_cell_setting 'orthorhombic'
loop_
_space_group_symop_operation_xyz
x,y,z
1/2-x,-y,1/2+z
x,-y,-z
1/2-x,y,1/2-z
-x,-y,-z
1/2+x,y,1/2-z
-x,y,z
1/2+x,-y,1/2+z
loop_
_atom_site_type_symbol
_atom_site_label
_atom_site_fract_x
_atom_site_fract_y
_atom_site_fract_z
Si Si1 0.670193 0.295152 0.591702
Si Si2 0.500000 0.453812 0.416902
Si Si3 0.000000 0.449601 0.438098
Si Si4 0.833223 0.780154 0.595787
Si Si5 0.665545 0.955672 0.903032
Si Si6 0.756443 0.387322 0.071170
Si Si7 0.161995 0.130180 0.599981
O O1 0.750000 0.293228 0.750000
O O2 0.500000 0.289958 0.601784
O O3 0.746302 0.257760 0.491160
O O4 0.707680 0.342416 0.515521
O O5 0.500000 0.500000 0.500000
O O6 0.500000 0.458398 0.239125
O O7 0.627371 0.423464 0.458016
O O8 0.000000 0.500000 0.500000
O O9 0.875451 0.416183 0.475536
O O10 0.750000 0.786849 0.750000
O O11 0.826090 0.825195 0.498343
O O12 0.000000 0.769538 0.615742
O O13 0.750000 0.956827 0.750000
O O14 0.500000 0.953293 0.872394
O O15 0.704188 0.912351 0.000571
O O16 0.691518 0.000000 0.000000
O O17 0.750000 0.377522 0.250000
O O18 0.250000 0.133550 0.750000
O O19 0.000000 0.124257 0.639498
#
# Coordination Sequence:
#
# PCOD9418011 Si02
#       7
#     8   4   4   8   8   8   8
#     4  12  26  43  64  92 124 159 203 255 309 367
#     4  10  20  38  60  84 120 158 196 240 295 352
#     4  10  22  36  60  92 120 154 200 246 291 356
#     4  11  24  42  66  93 124 163 205 252 307 370
#     4  10  21  37  58  87 123 163 211 262 314 374
#     4  10  22  40  62  87 119 159 198 242 299 360
#     4  10  22  39  60  90 125 163 208 258 312 369
#
# _framework density 18.554379000000001
#
# number of rings (size 3 to 8) (size 9 to 14) (size 15 to 20)
#    0.000    1.500    0.833    3.500    2.333    5.000 
#    0.000    0.000    0.000    0.000    0.000    0.000 
#    0.000    0.000    0.000    0.000    0.000    0.000 
#
# Total GULP energy -267789.972416 kJ/mol
# GULP energy per Si atom -5578.957759 kJ/mol
# Density = 1.851215 g / cm^3
# Si number density = 18.554379 Si / 1000 Ang^3
#
#
#
# Elastic Constant Matrix: (Units=GPa)
#
#
# Indices 1 2 3 4 5 6 
#
# 1 172.3853 73.6382 83.1942 0.0000 0.0000 0.0000
# 2 73.6382 143.5877 69.0704 0.0000 0.0000 0.0000
# 3 83.1942 69.0704 128.6549 0.0000 0.0000 0.0000
# 4 0.0000 0.0000 0.0000 33.9334 0.0000 0.0000
# 5 0.0000 0.0000 0.0000 0.0000 35.0032 0.0000
# 6 0.0000 0.0000 0.0000 0.0000 0.0000 29.8425
#
#
#
# Elastic Compliance Matrix: (Units=1/GPa)
#
#
# Indices 1 2 3 4 5 6 
#
# 1 0.009033 -0.002457 -0.004522 0.000000 0.000000 0.000000
# 2 -0.002457 0.010058 -0.003811 0.000000 0.000000 0.000000
# 3 -0.004522 -0.003811 0.012743 0.000000 0.000000 0.000000
# 4 0.000000 0.000000 0.000000 0.029469 0.000000 0.000000
# 5 0.000000 0.000000 0.000000 0.000000 0.028569 0.000000
# 6 0.000000 0.000000 0.000000 0.000000 0.000000 0.033509
#
#
# Mechanical properties :
#
#
# Convention : Reuss Voigt Hill
#
# Bulk Modulus (GPa) = 97.52688 99.60371 98.56529
# Shear Modulus (GPa) = 33.69771 34.33749 34.01760
#
# Velocity S-wave (km/s) = 4.26627 4.30657 4.28647
# Velocity P-wave (km/s) = 8.77182 8.86157 8.81681
#
# Compressibility (1/GPa) = 0.01025358
#
# Stress axis : x y z
#
# Youngs Moduli (GPa) = 110.70595 99.42704 78.47735
#
# Poissons Ratio (x) = 0.24433 0.35486
# Poissons Ratio (y) = 0.27204 0.29904
# Poissons Ratio (z) = 0.50060 0.37887
#
# Static dielectric constant tensor:
#      x y z
#    x 1.609210 0.000000 0.000000 
#    y 0.000000 1.598050 0.000000 
#    z 0.000000 0.000000 1.630530 
# 
# From -- ./inp_files/6826.got.cif
#   From: 2010.05.17/outbox.cif.g08.bks.cpg/sg53_4_cif.got.tgz:6826.got - 2010.06.03 12:45:16.
