data_PCOD9418658
_publ_section_title
;
Structure prediction by ZEFSAII (Michael W. Deem and Ramdas Pophale) SiO2 
 PCOD9418658
Probable space group: P M N A
;
_chemical_formula_sum "Si O2"
_cell_formula_units_Z 64
_cell_length_a 13.971726
_cell_length_b 11.761281
_cell_length_c 20.487949
_cell_angle_alpha 90.000000
_cell_angle_beta 90.000000
_cell_angle_gamma 90.000000
_cell_volume 3366.690323
_symmetry_space_group_name_H-M "P M N A"
_symmetry_group_IT_number 53
_symmetry_cell_setting 'orthorhombic'
loop_
_space_group_symop_operation_xyz
x,y,z
1/2-x,-y,1/2+z
x,-y,-z
1/2-x,y,1/2-z
-x,-y,-z
1/2+x,y,1/2-z
-x,y,z
1/2+x,-y,1/2+z
loop_
_atom_site_type_symbol
_atom_site_label
_atom_site_fract_x
_atom_site_fract_y
_atom_site_fract_z
Si Si1 0.888353 0.655277 0.721242
Si Si2 0.609765 0.865868 0.018750
Si Si3 0.195967 0.917888 0.348233
Si Si4 0.193721 0.173462 0.383242
Si Si5 0.888126 0.833204 0.216063
Si Si6 0.896308 0.764423 0.865359
Si Si7 0.110417 0.480054 0.070799
Si Si8 0.115930 0.433445 0.793112
O O1 0.831935 0.725884 0.666918
O O2 0.884080 0.722055 0.790557
O O3 0.855200 0.527309 0.739218
O O4 0.000000 0.652384 0.701536
O O5 0.500000 0.833639 0.031649
O O6 0.672251 0.855669 0.083845
O O7 0.649119 0.805215 0.954073
O O8 0.611352 0.000000 0.000000
O O9 0.306517 0.895706 0.327248
O O10 0.130800 0.874008 0.289394
O O11 0.165429 0.049826 0.356588
O O12 0.307696 0.162839 0.387331
O O13 0.866555 0.698293 0.218135
O O14 0.000000 0.849717 0.197025
O O15 0.894366 0.651953 0.910116
O O16 0.000000 0.819766 0.870620
O O17 0.155113 0.536836 0.134897
O O18 0.000000 0.523351 0.066220
O O19 0.155247 0.500000 0.000000
O O20 0.000000 0.450303 0.796458
#
# Coordination Sequence:
#
# PCOD9418658 Si02
#       8
#     8   8   8   8   8   8   8   8
#     4   9  18  33  56  83 111 143 183 236 296 343
#     4   9  19  38  60  79 108 149 190 235 284 338
#     4  10  23  38  55  86 112 147 201 239 275 345
#     4  11  21  35  56  84 115 147 194 243 284 346
#     4  10  21  38  59  82 114 154 190 238 290 336
#     4   9  19  32  48  79 118 150 177 228 293 338
#     4   8  14  28  50  75 105 143 185 221 263 336
#     4   8  16  33  53  78 110 144 187 235 286 341
#
# _framework density 19.009765999999999
#
# number of rings (size 3 to 8) (size 9 to 14) (size 15 to 20)
#    0.000    2.750    0.000    2.625    3.500    3.000 
#    9.000    1.875    0.000    2.250    0.000    3.500 
#    0.000    0.000    0.000    0.000    0.000    0.000 
#
# Total GULP energy -356575.689007 kJ/mol
# GULP energy per Si atom -5571.495141 kJ/mol
# Density = 1.896650 g / cm^3
# Si number density = 19.009766 Si / 1000 Ang^3
#
#
#
# Elastic Constant Matrix: (Units=GPa)
#
#
# Indices 1 2 3 4 5 6 
#
# 1 78.8761 0.6434 33.8063 0.0000 0.0000 0.0000
# 2 0.6434 36.9966 42.1294 0.0000 0.0000 0.0000
# 3 33.8063 42.1294 136.9837 0.0000 0.0000 0.0000
# 4 0.0000 0.0000 0.0000 23.6845 0.0000 0.0000
# 5 0.0000 0.0000 0.0000 0.0000 18.8880 0.0000
# 6 0.0000 0.0000 0.0000 0.0000 0.0000 16.9166
#
#
#
# Elastic Compliance Matrix: (Units=1/GPa)
#
#
# Indices 1 2 3 4 5 6 
#
# 1 0.015021 0.006094 -0.005581 0.000000 0.000000 0.000000
# 2 0.006094 0.044071 -0.015058 0.000000 0.000000 0.000000
# 3 -0.005581 -0.015058 0.013309 0.000000 0.000000 0.000000
# 4 0.000000 0.000000 0.000000 0.042222 0.000000 0.000000
# 5 0.000000 0.000000 0.000000 0.000000 0.052944 0.000000
# 6 0.000000 0.000000 0.000000 0.000000 0.000000 0.059114
#
#
# Mechanical properties :
#
#
# Convention : Reuss Voigt Hill
#
# Bulk Modulus (GPa) = 23.08932 45.11272 34.10102
# Shear Modulus (GPa) = 18.50447 23.64965 21.07706
#
# Velocity S-wave (km/s) = 3.12335 3.53098 3.33340
# Velocity P-wave (km/s) = 5.01792 6.35662 5.72652
#
# Compressibility (1/GPa) = 0.04331006
#
# Stress axis : x y z
#
# Youngs Moduli (GPa) = 66.57558 22.69086 75.13927
#
# Poissons Ratio (x) = -0.13829 0.41937
# Poissons Ratio (y) = -0.40574 1.13144
# Poissons Ratio (z) = 0.37157 0.34168
#
# Static dielectric constant tensor:
#      x y z
#    x 1.706350 0.000000 0.000000 
#    y 0.000000 1.676860 0.000000 
#    z 0.000000 0.000000 1.655300 
# 
# From -- ./inp_files/28516.got.cif
#   From: 2010.05.17/outbox.cif.g08.bks.cpg/sg53_15_cif.got.tgz:28516.got - 2010.06.03 12:45:16.
