data_PCOD9418324
_publ_section_title
;
Structure prediction by ZEFSAII (Michael W. Deem and Ramdas Pophale) SiO2 
 PCOD9418324
Probable space group: P M N A
;
_chemical_formula_sum "Si O2"
_cell_formula_units_Z 42
_cell_length_a 17.296918
_cell_length_b 14.143039
_cell_length_c 6.992305
_cell_angle_alpha 90.000000
_cell_angle_beta 90.000000
_cell_angle_gamma 90.000000
_cell_volume 1710.534466
_symmetry_space_group_name_H-M "P M N A"
_symmetry_group_IT_number 53
_symmetry_cell_setting 'orthorhombic'
loop_
_space_group_symop_operation_xyz
x,y,z
1/2-x,-y,1/2+z
x,-y,-z
1/2-x,y,1/2-z
-x,-y,-z
1/2+x,y,1/2-z
-x,y,z
1/2+x,-y,1/2+z
loop_
_atom_site_type_symbol
_atom_site_label
_atom_site_fract_x
_atom_site_fract_y
_atom_site_fract_z
Si Si1 0.184574 0.607964 0.499564
Si Si2 0.587148 0.778880 0.114948
Si Si3 0.856077 0.355426 0.058732
Si Si4 0.660918 0.967915 0.219234
Si Si5 0.500000 0.500000 0.500000
Si Si6 0.089265 0.157870 0.165308
O O1 0.156371 0.500000 0.500000
O O2 0.140381 0.685905 0.373200
O O3 0.165825 0.634511 0.717591
O O4 0.276248 0.611941 0.460551
O O5 0.500000 0.751102 0.161227
O O6 0.589608 0.809738 0.889795
O O7 0.610939 0.872977 0.229087
O O8 0.875018 0.244361 0.046669
O O9 0.930858 0.418165 0.014317
O O10 0.750000 0.943692 0.250000
O O11 0.636240 0.060197 0.339102
O O12 0.652472 0.000000 0.000000
O O13 0.000000 0.141554 0.114794
#
# Coordination Sequence:
#
# PCOD9418324 Si02
#       6
#     8   8   8   8   2   8
#     4  10  21  38  60  87 121 160 205 253 307 370
#     4   9  19  36  58  85 115 154 205 255 299 361
#     4  10  21  35  60  91 122 160 201 255 310 375
#     4  10  21  35  59  89 120 159 202 256 311 369
#     4  12  20  40  58  92 132 158 212 256 316 372
#     4   9  17  32  58  87 112 151 207 251 293 364
#
# _framework density 24.553729000000001
#
# number of rings (size 3 to 8) (size 9 to 14) (size 15 to 20)
#    0.000    2.286    1.905    0.571    9.333    2.667 
#    3.429    0.000    0.000    2.286    2.476    0.000 
#    0.000    0.000    0.000    0.000    0.000    0.000 
#
# Total GULP energy -234591.573574 kJ/mol
# GULP energy per Si atom -5585.513657 kJ/mol
# Density = 2.449784 g / cm^3
# Si number density = 24.553729 Si / 1000 Ang^3
#
#
#
# Elastic Constant Matrix: (Units=GPa)
#
#
# Indices 1 2 3 4 5 6 
#
# 1 182.9756 97.2642 6.5261 0.0000 0.0000 0.0000
# 2 97.2642 185.8675 43.7910 0.0000 0.0000 0.0000
# 3 6.5261 43.7910 55.6506 0.0000 0.0000 0.0000
# 4 0.0000 0.0000 0.0000 32.5628 0.0000 0.0000
# 5 0.0000 0.0000 0.0000 0.0000 1.7106 0.0000
# 6 0.0000 0.0000 0.0000 0.0000 0.0000 43.9831
#
#
#
# Elastic Compliance Matrix: (Units=1/GPa)
#
#
# Indices 1 2 3 4 5 6 
#
# 1 0.007927 -0.004823 0.002866 0.000000 0.000000 0.000000
# 2 -0.004823 0.009540 -0.006941 0.000000 0.000000 0.000000
# 3 0.002866 -0.006941 0.023095 0.000000 0.000000 0.000000
# 4 0.000000 0.000000 0.000000 0.030710 0.000000 0.000000
# 5 0.000000 0.000000 0.000000 0.000000 0.584595 0.000000
# 6 0.000000 0.000000 0.000000 0.000000 0.000000 0.022736
#
#
# Mechanical properties :
#
#
# Convention : Reuss Voigt Hill
#
# Bulk Modulus (GPa) = 43.92794 79.96183 61.94488
# Shear Modulus (GPa) = 7.10240 34.11212 20.60726
#
# Velocity S-wave (km/s) = 1.70261 3.73135 2.90016
# Velocity P-wave (km/s) = 4.66846 7.15547 6.04133
#
# Compressibility (1/GPa) = 0.02276455
#
# Stress axis : x y z
#
# Youngs Moduli (GPa) = 126.15189 104.82669 43.29950
#
# Poissons Ratio (x) = 0.50562 -0.12409
# Poissons Ratio (y) = 0.60848 0.30054
# Poissons Ratio (z) = -0.36154 0.72760
#
# Static dielectric constant tensor:
#      x y z
#    x 2.084990 0.000000 0.000000 
#    y 0.000000 1.909720 0.000000 
#    z 0.000000 0.000000 2.091420 
# 
# From -- ./inp_files/16868.got.cif
#   From: 2010.05.17/outbox.cif.g08.bks.cpg/sg53_9_cif.got.tgz:16868.got - 2010.06.03 12:45:16.
