data_PCOD9418897
_publ_section_title
;
Structure prediction by ZEFSAII (Michael W. Deem and Ramdas Pophale) SiO2 
 PCOD9418897
Probable space group: P M N A
;
_chemical_formula_sum "Si O2"
_cell_formula_units_Z 64
_cell_length_a 14.333765
_cell_length_b 12.073150
_cell_length_c 17.524921
_cell_angle_alpha 90.000000
_cell_angle_beta 90.000000
_cell_angle_gamma 90.000000
_cell_volume 3032.752332
_symmetry_space_group_name_H-M "P M N A"
_symmetry_group_IT_number 53
_symmetry_cell_setting 'orthorhombic'
loop_
_space_group_symop_operation_xyz
x,y,z
1/2-x,-y,1/2+z
x,-y,-z
1/2-x,y,1/2-z
-x,-y,-z
1/2+x,y,1/2-z
-x,y,z
1/2+x,-y,1/2+z
loop_
_atom_site_type_symbol
_atom_site_label
_atom_site_fract_x
_atom_site_fract_y
_atom_site_fract_z
Si Si1 0.393022 0.611194 0.299708
Si Si2 0.799557 0.575151 0.363135
Si Si3 0.106171 0.765818 0.446464
Si Si4 0.102415 0.012518 0.620962
Si Si5 0.611344 0.956816 0.585227
Si Si6 0.107510 0.642642 0.606230
Si Si7 0.355866 0.131190 0.722110
Si Si8 0.240076 0.178938 0.338968
O O1 0.500000 0.575465 0.311947
O O2 0.351707 0.571886 0.218512
O O3 0.312115 0.567772 0.356455
O O4 0.391264 0.745680 0.297048
O O5 0.823784 0.694295 0.396929
O O6 0.851797 0.478947 0.408962
O O7 0.130415 0.893842 0.439178
O O8 0.105975 0.714161 0.529484
O O9 0.000000 0.754777 0.415519
O O10 0.099081 0.073564 0.703551
O O11 0.000000 0.969814 0.601683
O O12 0.171724 0.912745 0.626920
O O13 0.500000 0.938730 0.585916
O O14 0.634268 0.050842 0.649116
O O15 0.636757 0.000000 0.500000
O O16 0.665599 0.846248 0.613992
O O17 0.185863 0.704614 0.656529
O O18 0.000000 0.638356 0.635299
O O19 0.250000 0.143913 0.750000
O O20 0.250000 0.152175 0.250000
#
# Coordination Sequence:
#
# PCOD9418897 Si02
#       8
#     8   8   8   8   8   8   8   8
#     4  11  22  36  63  98 131 167 218 276 325 374
#     4  11  22  39  64  93 130 168 215 265 330 383
#     4  10  21  39  67  99 126 160 206 268 343 395
#     4  11  20  35  63  94 125 156 199 261 330 387
#     4  11  25  42  62  90 129 177 219 260 320 391
#     4  11  26  44  63  92 130 171 214 264 326 397
#     4  12  19  38  63  96 130 163 211 273 332 377
#     4  12  26  41  62  89 127 170 218 259 321 379
#
# _framework density 21.102943
#
# number of rings (size 3 to 8) (size 9 to 14) (size 15 to 20)
#    0.000    0.875    5.000    3.000    3.500    1.500 
#    0.000    2.500    0.000    1.500    0.000    0.000 
#    0.000    0.000    0.000    0.000    0.000    0.000 
#
# Total GULP energy -357618.527982 kJ/mol
# GULP energy per Si atom -5587.789500 kJ/mol
# Density = 2.105491 g / cm^3
# Si number density = 21.102943 Si / 1000 Ang^3
#
#
#
# Elastic Constant Matrix: (Units=GPa)
#
#
# Indices 1 2 3 4 5 6 
#
# 1 152.3798 34.5381 27.1356 0.0000 0.0000 0.0000
# 2 34.5381 42.2232 3.1408 0.0000 0.0000 0.0000
# 3 27.1356 3.1408 68.6688 0.0000 0.0000 0.0000
# 4 0.0000 0.0000 0.0000 19.5864 0.0000 0.0000
# 5 0.0000 0.0000 0.0000 0.0000 22.3888 0.0000
# 6 0.0000 0.0000 0.0000 0.0000 0.0000 -16.1991
#
#
#
# Elastic Compliance Matrix: (Units=1/GPa)
#
#
# Indices 1 2 3 4 5 6 
#
# 1 0.008672 -0.006862 -0.003113 0.000000 0.000000 0.000000
# 2 -0.006862 0.029195 0.001376 0.000000 0.000000 0.000000
# 3 -0.003113 0.001376 0.015730 0.000000 0.000000 0.000000
# 4 0.000000 0.000000 0.000000 0.051056 0.000000 0.000000
# 5 0.000000 0.000000 0.000000 0.000000 0.044665 0.000000
# 6 0.000000 0.000000 0.000000 0.000000 0.000000 -0.061732
#
#
# Mechanical properties :
#
#
# Convention : Reuss Voigt Hill
#
# Bulk Modulus (GPa) = 27.47343 43.65565 35.56454
# Shear Modulus (GPa) = 42.76543 18.38571 30.57557
#
# Velocity S-wave (km/s) = 4.50657 2.95488 3.81054
# Velocity P-wave (km/s) = 6.33450 5.68978 6.02078
#
# Compressibility (1/GPa) = 0.03639881
#
# Stress axis : x y z
#
# Youngs Moduli (GPa) = 115.30923 34.25294 63.57315
#
# Poissons Ratio (x) = 0.23505 0.19791
# Poissons Ratio (y) = 0.79129 -0.08751
# Poissons Ratio (z) = 0.35897 -0.04715
#
# Static dielectric constant tensor:
#      x y z
#    x 1.799790 0.000000 0.000000 
#    y 0.000000 1.780530 0.000000 
#    z 0.000000 0.000000 1.790320 
# 
# From -- ./inp_files/28574.got.cif
#   From: 2010.05.17/outbox.cif.g08.bks.cpg/sg53_15_cif.got.tgz:28574.got - 2010.06.03 12:45:16.
