data_PCOD9418030
_publ_section_title
;
Structure prediction by ZEFSAII (Michael W. Deem and Ramdas Pophale) SiO2 
 PCOD9418030
Probable space group: P M N A
;
_chemical_formula_sum "Si O2"
_cell_formula_units_Z 32
_cell_length_a 15.365643
_cell_length_b 7.427047
_cell_length_c 13.704391
_cell_angle_alpha 90.000000
_cell_angle_beta 90.000000
_cell_angle_gamma 90.000000
_cell_volume 1563.963639
_symmetry_space_group_name_H-M "P M N A"
_symmetry_group_IT_number 53
_symmetry_cell_setting 'orthorhombic'
loop_
_space_group_symop_operation_xyz
x,y,z
1/2-x,-y,1/2+z
x,-y,-z
1/2-x,y,1/2-z
-x,-y,-z
1/2+x,y,1/2-z
-x,y,z
1/2+x,-y,1/2+z
loop_
_atom_site_type_symbol
_atom_site_label
_atom_site_fract_x
_atom_site_fract_y
_atom_site_fract_z
Si Si1 0.401286 0.408851 0.600719
Si Si2 0.848464 0.282654 0.237183
Si Si3 0.404456 0.006875 0.117312
Si Si4 0.210803 0.940671 0.113192
O O1 0.369685 0.500000 0.500000
O O2 0.500000 0.345931 0.584030
O O3 0.399586 0.562738 0.682383
O O4 0.341681 0.241200 0.626030
O O5 0.750000 0.351562 0.250000
O O6 0.890153 0.206023 0.336524
O O7 0.834947 0.105194 0.169901
O O8 0.500000 0.940561 0.152487
O O9 0.312113 0.915055 0.143884
O O10 0.407547 0.000000 0.000000
O O11 0.211251 0.000000 0.000000
#
# Coordination Sequence:
#
# PCOD9418030 Si02
#       4
#     8   8   8   8
#     4  11  23  37  60  93 126 164 207 255 314 374
#     4  10  21  38  62  90 124 164 203 255 312 367
#     4   9  19  37  64  89 116 162 210 253 307 368
#     4  10  20  38  61  88 123 162 205 256 313 372
#
# _framework density 20.460833000000001
#
# number of rings (size 3 to 8) (size 9 to 14) (size 15 to 20)
#    0.000    2.000    2.500    0.750    0.000    5.500 
#    0.000    0.000    0.000    6.750    0.000    0.000 
#    0.000    0.000    0.000    0.000    0.000    0.000 
#
# Total GULP energy -178471.525849 kJ/mol
# GULP energy per Si atom -5577.235183 kJ/mol
# Density = 2.041426 g / cm^3
# Si number density = 20.460833 Si / 1000 Ang^3
#
#
#
# Elastic Constant Matrix: (Units=GPa)
#
#
# Indices 1 2 3 4 5 6 
#
# 1 107.1430 65.8171 -2.4621 0.0000 0.0000 0.0000
# 2 65.8171 86.8778 18.8656 0.0000 0.0000 0.0000
# 3 -2.4621 18.8656 77.5012 0.0000 0.0000 0.0000
# 4 0.0000 0.0000 0.0000 31.0240 0.0000 0.0000
# 5 0.0000 0.0000 0.0000 0.0000 915.9099 0.0000
# 6 0.0000 0.0000 0.0000 0.0000 0.0000 73.8337
#
#
#
# Elastic Compliance Matrix: (Units=1/GPa)
#
#
# Indices 1 2 3 4 5 6 
#
# 1 0.018707 -0.015099 0.004270 0.000000 0.000000 0.000000
# 2 -0.015099 0.024340 -0.006405 0.000000 0.000000 0.000000
# 3 0.004270 -0.006405 0.014598 0.000000 0.000000 0.000000
# 4 0.000000 0.000000 0.000000 0.032233 0.000000 0.000000
# 5 0.000000 0.000000 0.000000 0.000000 0.001092 0.000000
# 6 0.000000 0.000000 0.000000 0.000000 0.000000 0.013544
#
#
# Mechanical properties :
#
#
# Convention : Reuss Voigt Hill
#
# Bulk Modulus (GPa) = 43.14706 48.44037 45.79371
# Shear Modulus (GPa) = 34.08169 216.77360 125.42764
#
# Velocity S-wave (km/s) = 4.08573 10.30416 7.83801
# Velocity P-wave (km/s) = 6.58719 12.85666 10.21481
#
# Compressibility (1/GPa) = 0.02317655
#
# Stress axis : x y z
#
# Youngs Moduli (GPa) = 53.45698 41.08477 68.50399
#
# Poissons Ratio (x) = 0.62034 -0.29249
# Poissons Ratio (y) = 0.80715 0.43874
# Poissons Ratio (z) = -0.22825 0.26313
#
# Static dielectric constant tensor:
#      x y z
#    x 1.756200 0.000000 0.000000 
#    y 0.000000 1.669700 0.000000 
#    z 0.000000 0.000000 1.782540 
# 
# From -- ./inp_files/23156.got.cif
#   From: 2010.05.17/outbox.cif.g08.bks.cpg/sg53_12_cif.got.tgz:23156.got - 2010.06.03 12:45:16.
