data_PCOD9418851
_publ_section_title
;
Structure prediction by ZEFSAII (Michael W. Deem and Ramdas Pophale) SiO2 
 PCOD9418851
Probable space group: P M N A
;
_chemical_formula_sum "Si O2"
_cell_formula_units_Z 48
_cell_length_a 7.996764
_cell_length_b 7.473317
_cell_length_c 37.374205
_cell_angle_alpha 90.000000
_cell_angle_beta 90.000000
_cell_angle_gamma 90.000000
_cell_volume 2233.570408
_symmetry_space_group_name_H-M "P M N A"
_symmetry_group_IT_number 53
_symmetry_cell_setting 'orthorhombic'
loop_
_space_group_symop_operation_xyz
x,y,z
1/2-x,-y,1/2+z
x,-y,-z
1/2-x,y,1/2-z
-x,-y,-z
1/2+x,y,1/2-z
-x,y,z
1/2+x,-y,1/2+z
loop_
_atom_site_type_symbol
_atom_site_label
_atom_site_fract_x
_atom_site_fract_y
_atom_site_fract_z
Si Si1 0.194719 0.176099 0.578485
Si Si2 0.000000 0.766471 0.029907
Si Si3 0.313173 0.600942 0.904513
Si Si4 0.309377 0.659905 0.289533
Si Si5 0.197171 0.691651 0.678944
Si Si6 0.000000 0.661098 0.950467
Si Si7 0.304224 0.061138 0.844210
O O1 0.331853 0.153947 0.547587
O O2 0.190496 0.388876 0.587502
O O3 0.257942 0.085511 0.615398
O O4 0.000000 0.126169 0.570569
O O5 0.000000 0.552486 0.039779
O O6 0.000000 0.770466 0.987153
O O7 0.500000 0.667381 0.913613
O O8 0.287267 0.629675 0.862383
O O9 0.166576 0.690439 0.927263
O O10 0.250000 0.707352 0.250000
O O11 0.288403 0.449140 0.296129
O O12 0.211412 0.761962 0.320703
O O13 0.000000 0.712654 0.206024
O O14 0.000000 0.687109 0.688592
O O15 0.264912 0.893485 0.677924
O O16 0.500000 0.021259 0.849050
#
# Coordination Sequence:
#
# PCOD9418851 Si02
#       7
#     8   4   8   8   8   4   8
#     4   9  17  31  54  81 114 156 202 251 306 363
#     4   9  18  30  49  81 119 156 203 259 308 363
#     4   9  17  31  54  81 114 156 202 251 306 363
#     4  12  26  42  64  90 124 161 196 245 305 367
#     4  10  21  39  64  91 120 157 203 254 304 362
#     4   9  18  30  49  81 119 156 203 259 308 363
#     4  10  21  39  64  91 120 157 203 254 304 362
#
# _framework density 21.490257
#
# number of rings (size 3 to 8) (size 9 to 14) (size 15 to 20)
#    0.000    2.167    1.667    1.500    2.333    2.000 
#    0.000    3.333    0.000    2.000    0.000    4.667 
#    0.000    0.000    0.000    0.000    0.000    0.000 
#
# Total GULP energy -268123.156818 kJ/mol
# GULP energy per Si atom -5585.899100 kJ/mol
# Density = 2.144134 g / cm^3
# Si number density = 21.490257 Si / 1000 Ang^3
#
#
#
# Elastic Constant Matrix: (Units=GPa)
#
#
# Indices 1 2 3 4 5 6 
#
# 1 73.5597 -0.6972 26.6376 0.0000 0.0000 0.0000
# 2 -0.6972 61.5648 2.0911 0.0000 0.0000 0.0000
# 3 26.6376 2.0911 58.6984 0.0000 0.0000 0.0000
# 4 0.0000 0.0000 0.0000 19.7969 0.0000 0.0000
# 5 0.0000 0.0000 0.0000 0.0000 22.3713 0.0000
# 6 0.0000 0.0000 0.0000 0.0000 0.0000 7.1244
#
#
#
# Elastic Compliance Matrix: (Units=1/GPa)
#
#
# Indices 1 2 3 4 5 6 
#
# 1 0.016279 0.000436 -0.007403 0.000000 0.000000 0.000000
# 2 0.000436 0.016274 -0.000778 0.000000 0.000000 0.000000
# 3 -0.007403 -0.000778 0.020424 0.000000 0.000000 0.000000
# 4 0.000000 0.000000 0.000000 0.050513 0.000000 0.000000
# 5 0.000000 0.000000 0.000000 0.000000 0.044700 0.000000
# 6 0.000000 0.000000 0.000000 0.000000 0.000000 0.140362
#
#
# Mechanical properties :
#
#
# Convention : Reuss Voigt Hill
#
# Bulk Modulus (GPa) = 26.67555 27.76509 27.22032
# Shear Modulus (GPa) = 15.79586 20.91128 18.35357
#
# Velocity S-wave (km/s) = 2.71407 3.12277 2.92557
# Velocity P-wave (km/s) = 4.71820 5.09413 4.90976
#
# Compressibility (1/GPa) = 0.03748751
#
# Stress axis : x y z
#
# Youngs Moduli (GPa) = 61.42741 61.44620 48.96315
#
# Poissons Ratio (x) = -0.02678 0.36248
# Poissons Ratio (y) = -0.02677 0.03807
# Poissons Ratio (z) = 0.45476 0.04778
#
# Static dielectric constant tensor:
#      x y z
#    x 1.686970 0.000000 0.000000 
#    y 0.000000 1.832210 0.000000 
#    z 0.000000 0.000000 1.705780 
# 
# From -- ./inp_files/37829.got.cif
#   From: 2010.05.17/outbox.cif.g08.bks.cpg/sg53_19_cif.got.tgz:37829.got - 2010.06.03 12:45:16.
