data_PCOD9418923
_publ_section_title
;
Structure prediction by ZEFSAII (Michael W. Deem and Ramdas Pophale) SiO2 
 PCOD9418923
Probable space group: P M N A
;
_chemical_formula_sum "Si O2"
_cell_formula_units_Z 60
_cell_length_a 24.303998
_cell_length_b 5.529858
_cell_length_c 19.270994
_cell_angle_alpha 90.000000
_cell_angle_beta 90.000000
_cell_angle_gamma 90.000000
_cell_volume 2589.976457
_symmetry_space_group_name_H-M "P M N A"
_symmetry_group_IT_number 53
_symmetry_cell_setting 'orthorhombic'
loop_
_space_group_symop_operation_xyz
x,y,z
1/2-x,-y,1/2+z
x,-y,-z
1/2-x,y,1/2-z
-x,-y,-z
1/2+x,y,1/2-z
-x,y,z
1/2+x,-y,1/2+z
loop_
_atom_site_type_symbol
_atom_site_label
_atom_site_fract_x
_atom_site_fract_y
_atom_site_fract_z
Si Si1 0.732403 0.351541 0.402993
Si Si2 0.279308 0.725889 0.183445
Si Si3 0.562583 0.822100 0.434347
Si Si4 0.352121 0.500000 0.500000
Si Si5 0.938495 0.277467 0.785018
Si Si6 0.659921 0.653629 0.722659
Si Si7 0.355104 0.750345 0.956757
Si Si8 0.387920 0.003176 0.829909
O O1 0.739066 0.632552 0.376703
O O2 0.690036 0.316763 0.464798
O O3 0.699419 0.249484 0.337530
O O4 0.793049 0.277510 0.426287
O O5 0.250000 0.849689 0.250000
O O6 0.303421 0.485817 0.220340
O O7 0.332665 0.848599 0.150959
O O8 0.500000 0.732507 0.443929
O O9 0.607866 0.617572 0.444610
O O10 0.565374 0.899713 0.353245
O O11 0.571800 0.000000 0.500000
O O12 0.888243 0.463379 0.794875
O O13 0.000000 0.386342 0.790244
O O14 0.932820 0.173830 0.706191
O O15 0.631114 0.867634 0.761324
O O16 0.395634 0.810288 0.891474
O O17 0.366312 0.500000 0.000000
O O18 0.358008 0.000000 0.000000
#
# Coordination Sequence:
#
# PCOD9418923 Si02
#       8
#     8   8   8   4   8   8   8   8
#     4  11  22  40  58  95 137 183 237 270 335 409
#     4   9  20  37  58  87 132 178 224 280 339 402
#     4  10  23  43  63  91 136 185 233 289 353 406
#     4  12  23  38  58  92 134 182 237 270 336 402
#     4  10  23  44  69  98 129 175 236 301 354 419
#     4  10  21  40  62  94 128 173 228 286 345 406
#     4  12  27  46  69 102 144 191 235 290 362 441
#     4  11  24  40  69  94 131 176 233 283 361 426
#
# _framework density 23.166233999999999
#
# number of rings (size 3 to 8) (size 9 to 14) (size 15 to 20)
#    0.000    1.467    3.333    1.000    5.600    1.067 
#    2.400    0.000    0.000    0.800    0.000    0.000 
#    0.000    0.000    0.000    0.000    0.000    0.000 
#
# Total GULP energy -334192.633660 kJ/mol
# GULP energy per Si atom -5569.877228 kJ/mol
# Density = 2.311351 g / cm^3
# Si number density = 23.166234 Si / 1000 Ang^3
#
#
#
# Elastic Constant Matrix: (Units=GPa)
#
#
# Indices 1 2 3 4 5 6 
#
# 1 76.5584 10.9818 26.9399 0.0000 0.0000 0.0000
# 2 10.9818 38.7973 18.4277 0.0000 0.0000 0.0000
# 3 26.9399 18.4277 110.5336 0.0000 0.0000 0.0000
# 4 0.0000 0.0000 0.0000 34.3329 0.0000 0.0000
# 5 0.0000 0.0000 0.0000 0.0000 -33.4144 0.0000
# 6 0.0000 0.0000 0.0000 0.0000 0.0000 8.9442
#
#
#
# Elastic Compliance Matrix: (Units=1/GPa)
#
#
# Indices 1 2 3 4 5 6 
#
# 1 0.014532 -0.002640 -0.003102 0.000000 0.000000 0.000000
# 2 -0.002640 0.028471 -0.004103 0.000000 0.000000 0.000000
# 3 -0.003102 -0.004103 0.010487 0.000000 0.000000 0.000000
# 4 0.000000 0.000000 0.000000 0.029127 0.000000 0.000000
# 5 0.000000 0.000000 0.000000 0.000000 -0.029927 0.000000
# 6 0.000000 0.000000 0.000000 0.000000 0.000000 0.111804
#
#
# Mechanical properties :
#
#
# Convention : Reuss Voigt Hill
#
# Bulk Modulus (GPa) = 29.58552 37.62093 33.60322
# Shear Modulus (GPa) = 25.58195 13.27521 19.42858
#
# Velocity S-wave (km/s) = 3.32667 2.39642 2.89910
# Velocity P-wave (km/s) = 5.24922 4.89203 5.07377
#
# Compressibility (1/GPa) = 0.03380032
#
# Stress axis : x y z
#
# Youngs Moduli (GPa) = 68.81329 35.12326 95.35587
#
# Poissons Ratio (x) = 0.09273 0.29576
# Poissons Ratio (y) = 0.18168 0.39126
# Poissons Ratio (z) = 0.21344 0.14411
#
# Static dielectric constant tensor:
#      x y z
#    x 1.872080 0.000000 0.000000 
#    y 0.000000 1.992490 0.000000 
#    z 0.000000 0.000000 2.087490 
# 
# From -- ./inp_files/33207.got.cif
#   From: 2010.05.17/outbox.cif.g08.bks.cpg/sg53_17_cif.got.tgz:33207.got - 2010.06.03 12:45:16.
