data_PCOD9418536
_publ_section_title
;
Structure prediction by ZEFSAII (Michael W. Deem and Ramdas Pophale) SiO2 
 PCOD9418536
Probable space group: P M N A
;
_chemical_formula_sum "Si O2"
_cell_formula_units_Z 48
_cell_length_a 8.938238
_cell_length_b 16.755027
_cell_length_c 18.306804
_cell_angle_alpha 90.000000
_cell_angle_beta 90.000000
_cell_angle_gamma 90.000000
_cell_volume 2741.634638
_symmetry_space_group_name_H-M "P M N A"
_symmetry_group_IT_number 53
_symmetry_cell_setting 'orthorhombic'
loop_
_space_group_symop_operation_xyz
x,y,z
1/2-x,-y,1/2+z
x,-y,-z
1/2-x,y,1/2-z
-x,-y,-z
1/2+x,y,1/2-z
-x,y,z
1/2+x,-y,1/2+z
loop_
_atom_site_type_symbol
_atom_site_label
_atom_site_fract_x
_atom_site_fract_y
_atom_site_fract_z
Si Si1 0.178613 0.587749 0.971170
Si Si2 0.177852 0.734980 0.453876
Si Si3 0.179361 0.856652 0.329569
Si Si4 0.321754 0.994801 0.586272
Si Si5 0.820748 0.660447 0.672861
Si Si6 0.177246 0.171550 0.396408
O O1 0.256267 0.609546 0.894418
O O2 0.000000 0.592403 0.962279
O O3 0.218124 0.500000 0.000000
O O4 0.233093 0.655061 0.027989
O O5 0.218337 0.780535 0.380010
O O6 0.204116 0.795647 0.521468
O O7 0.000000 0.717475 0.454116
O O8 0.250000 0.850568 0.250000
O O9 0.240884 0.934965 0.370201
O O10 0.000000 0.861334 0.325194
O O11 0.500000 0.003351 0.593323
O O12 0.283045 0.000000 0.500000
O O13 0.269113 0.908649 0.614987
O O14 0.750000 0.637705 0.750000
O O15 0.784121 0.753388 0.654891
O O16 0.000000 0.653529 0.674129
O O17 0.000000 0.154935 0.389266
#
# Coordination Sequence:
#
# PCOD9418536 Si02
#       6
#     8   8   8   8   8   8
#     4  10  21  37  60  89 117 147 185 227 274 333
#     4   9  19  36  58  81 107 144 184 225 277 332
#     4  11  23  39  57  79 111 148 189 236 284 330
#     4  11  22  34  53  82 112 148 192 234 280 330
#     4  10  21  37  58  85 116 150 186 229 284 335
#     4   9  18  34  55  79 107 145 188 227 275 331
#
# _framework density 17.507804
#
# number of rings (size 3 to 8) (size 9 to 14) (size 15 to 20)
#    0.000    2.000    1.667    3.000    0.000    7.333 
#    0.000    2.500    0.000    2.000    0.000    0.000 
#    0.000    0.000    0.000    0.000    0.000    0.000 
#
# Total GULP energy -268025.816445 kJ/mol
# GULP energy per Si atom -5583.871176 kJ/mol
# Density = 1.746796 g / cm^3
# Si number density = 17.507804 Si / 1000 Ang^3
#
#
#
# Elastic Constant Matrix: (Units=GPa)
#
#
# Indices 1 2 3 4 5 6 
#
# 1 62.5410 67.3739 61.4334 0.0000 0.0000 0.0000
# 2 67.3739 135.5657 75.6405 0.0000 0.0000 0.0000
# 3 61.4334 75.6405 135.6019 0.0000 0.0000 0.0000
# 4 0.0000 0.0000 0.0000 17.0072 0.0000 0.0000
# 5 0.0000 0.0000 0.0000 0.0000 -25.0889 0.0000
# 6 0.0000 0.0000 0.0000 0.0000 0.0000 22.1319
#
#
#
# Elastic Compliance Matrix: (Units=1/GPa)
#
#
# Indices 1 2 3 4 5 6 
#
# 1 0.043532 -0.015435 -0.011112 0.000000 0.000000 0.000000
# 2 -0.015435 0.016182 -0.002034 0.000000 0.000000 0.000000
# 3 -0.011112 -0.002034 0.013544 0.000000 0.000000 0.000000
# 4 0.000000 0.000000 0.000000 0.058799 0.000000 0.000000
# 5 0.000000 0.000000 0.000000 0.000000 -0.039858 0.000000
# 6 0.000000 0.000000 0.000000 0.000000 0.000000 0.045184
#
#
# Mechanical properties :
#
#
# Convention : Reuss Voigt Hill
#
# Bulk Modulus (GPa) = 62.12737 82.51159 72.31948
# Shear Modulus (GPa) = 25.01127 11.42742 18.21934
#
# Velocity S-wave (km/s) = 3.78375 2.55758 3.22940
# Velocity P-wave (km/s) = 7.39267 7.48013 7.43653
#
# Compressibility (1/GPa) = 0.01609596
#
# Stress axis : x y z
#
# Youngs Moduli (GPa) = 22.97136 61.79626 73.83573
#
# Poissons Ratio (x) = 0.95380 0.82049
# Poissons Ratio (y) = 0.35455 0.15019
# Poissons Ratio (z) = 0.25527 0.12570
#
# Static dielectric constant tensor:
#      x y z
#    x 1.580350 0.000000 0.000000 
#    y 0.000000 1.572620 0.000000 
#    z 0.000000 0.000000 1.587390 
# 
# From -- ./inp_files/26197.got.cif
#   From: 2010.05.17/outbox.cif.g08.bks.cpg/sg53_14_cif.got.tgz:26197.got - 2010.06.03 12:45:16.
