data_PCOD9418517
_publ_section_title
;
Structure prediction by ZEFSAII (Michael W. Deem and Ramdas Pophale) SiO2 
 PCOD9418517
Probable space group: P M N A
;
_chemical_formula_sum "Si O2"
_cell_formula_units_Z 56
_cell_length_a 8.625314
_cell_length_b 16.710375
_cell_length_c 19.530064
_cell_angle_alpha 90.000000
_cell_angle_beta 90.000000
_cell_angle_gamma 90.000000
_cell_volume 2814.911704
_symmetry_space_group_name_H-M "P M N A"
_symmetry_group_IT_number 53
_symmetry_cell_setting 'orthorhombic'
loop_
_space_group_symop_operation_xyz
x,y,z
1/2-x,-y,1/2+z
x,-y,-z
1/2-x,y,1/2-z
-x,-y,-z
1/2+x,y,1/2-z
-x,y,z
1/2+x,-y,1/2+z
loop_
_atom_site_type_symbol
_atom_site_label
_atom_site_fract_x
_atom_site_fract_y
_atom_site_fract_z
Si Si1 0.684766 0.176007 0.924060
Si Si2 0.185544 0.504573 0.173826
Si Si3 0.184960 0.688604 0.173687
Si Si4 0.686198 0.149475 0.172891
Si Si5 0.812075 0.000331 0.420424
Si Si6 0.316520 0.748434 0.556012
Si Si7 0.684146 0.576281 0.955215
O O1 0.500000 0.178323 0.933092
O O2 0.738827 0.247112 0.875542
O O3 0.726647 0.088823 0.894634
O O4 0.760303 0.190048 0.997971
O O5 0.250000 0.494296 0.250000
O O6 0.218753 0.596839 0.153009
O O7 0.271886 0.446761 0.121984
O O8 0.000000 0.492635 0.171897
O O9 0.250000 0.698907 0.250000
O O10 0.000000 0.698502 0.173612
O O11 0.750000 0.149823 0.250000
O O12 0.500000 0.148393 0.175509
O O13 0.741837 0.071354 0.129276
O O14 0.740401 0.225156 0.127605
O O15 0.000000 0.007840 0.422582
O O16 0.759900 0.000000 0.500000
O O17 0.500000 0.750109 0.562707
O O18 0.263457 0.660933 0.530723
O O19 0.500000 0.584709 0.964617
O O20 0.738078 0.500000 0.000000
#
# Coordination Sequence:
#
# PCOD9418517 Si02
#       7
#     8   8   8   8   8   8   8
#     4  11  21  37  63  91 122 161 203 249 305 365
#     4  10  21  38  60  84 116 157 199 247 302 361
#     4  10  21  37  57  86 123 161 202 250 304 362
#     4  11  23  43  67  93 127 164 209 259 313 371
#     4   9  18  37  64  90 119 160 203 248 304 365
#     4  12  25  41  62  91 124 162 206 253 307 365
#     4  11  24  41  63  91 122 158 204 254 307 367
#
# _framework density 19.894053
#
# number of rings (size 3 to 8) (size 9 to 14) (size 15 to 20)
#    0.000    1.429    1.429    4.286    0.000    6.286 
#    0.000    7.857    0.000    0.000    0.000    0.000 
#    0.000    0.000    0.000    0.000    0.000    0.000 
#
# Total GULP energy -312964.015961 kJ/mol
# GULP energy per Si atom -5588.643142 kJ/mol
# Density = 1.984877 g / cm^3
# Si number density = 19.894053 Si / 1000 Ang^3
#
#
#
# Elastic Constant Matrix: (Units=GPa)
#
#
# Indices 1 2 3 4 5 6 
#
# 1 63.9924 29.9679 14.0488 0.0000 0.0000 0.0000
# 2 29.9679 85.8318 32.4820 0.0000 0.0000 0.0000
# 3 14.0488 32.4820 71.5887 0.0000 0.0000 0.0000
# 4 0.0000 0.0000 0.0000 32.8780 0.0000 0.0000
# 5 0.0000 0.0000 0.0000 0.0000 32.8870 0.0000
# 6 0.0000 0.0000 0.0000 0.0000 0.0000 41.1116
#
#
#
# Elastic Compliance Matrix: (Units=1/GPa)
#
#
# Indices 1 2 3 4 5 6 
#
# 1 0.018725 -0.006214 -0.000855 0.000000 0.000000 0.000000
# 2 -0.006214 0.016128 -0.006098 0.000000 0.000000 0.000000
# 3 -0.000855 -0.006098 0.016904 0.000000 0.000000 0.000000
# 4 0.000000 0.000000 0.000000 0.030415 0.000000 0.000000
# 5 0.000000 0.000000 0.000000 0.000000 0.030407 0.000000
# 6 0.000000 0.000000 0.000000 0.000000 0.000000 0.024324
#
#
# Mechanical properties :
#
#
# Convention : Reuss Voigt Hill
#
# Bulk Modulus (GPa) = 39.33710 41.60115 40.46913
# Shear Modulus (GPa) = 29.11856 31.03627 30.07741
#
# Velocity S-wave (km/s) = 3.82996 3.95407 3.89251
# Velocity P-wave (km/s) = 6.27490 6.46552 6.37092
#
# Compressibility (1/GPa) = 0.02542129
#
# Stress axis : x y z
#
# Youngs Moduli (GPa) = 53.40551 62.00334 59.15933
#
# Poissons Ratio (x) = 0.38529 0.05059
# Poissons Ratio (y) = 0.33187 0.36078
# Poissons Ratio (z) = 0.04567 0.37812
#
# Static dielectric constant tensor:
#      x y z
#    x 1.672650 0.000000 0.000000 
#    y 0.000000 1.724580 0.000000 
#    z 0.000000 0.000000 1.732170 
# 
# From -- ./inp_files/30774.got.cif
#   From: 2010.05.17/outbox.cif.g08.bks.cpg/sg53_16_cif.got.tgz:30774.got - 2010.06.03 12:45:16.
