data_PCOD9418697
_publ_section_title
;
Structure prediction by ZEFSAII (Michael W. Deem and Ramdas Pophale) SiO2 
 PCOD9418697
Probable space group: P M N A
;
_chemical_formula_sum "Si O2"
_cell_formula_units_Z 64
_cell_length_a 13.770727
_cell_length_b 10.412545
_cell_length_c 22.308995
_cell_angle_alpha 90.000000
_cell_angle_beta 90.000000
_cell_angle_gamma 90.000000
_cell_volume 3198.849193
_symmetry_space_group_name_H-M "P M N A"
_symmetry_group_IT_number 53
_symmetry_cell_setting 'orthorhombic'
loop_
_space_group_symop_operation_xyz
x,y,z
1/2-x,-y,1/2+z
x,-y,-z
1/2-x,y,1/2-z
-x,-y,-z
1/2+x,y,1/2-z
-x,y,z
1/2+x,-y,1/2+z
loop_
_atom_site_type_symbol
_atom_site_label
_atom_site_fract_x
_atom_site_fract_y
_atom_site_fract_z
Si Si1 0.642628 0.115616 0.225468
Si Si2 0.113006 0.992617 0.071662
Si Si3 0.616912 0.344363 0.997815
Si Si4 0.898140 0.830320 0.290637
Si Si5 0.253053 0.242904 0.609219
Si Si6 0.399227 0.331058 0.320560
Si Si7 0.269415 0.786503 0.891627
Si Si8 0.659351 0.602710 0.292915
O O1 0.750000 0.098263 0.250000
O O2 0.602153 0.227494 0.267186
O O3 0.653922 0.157524 0.156542
O O4 0.598750 0.975441 0.231829
O O5 0.189803 0.103220 0.091697
O O6 0.000000 0.001898 0.094366
O O7 0.166774 0.859591 0.088334
O O8 0.107455 0.000000 0.000000
O O9 0.500000 0.316600 0.996078
O O10 0.677240 0.288412 0.941232
O O11 0.626756 0.500000 0.000000
O O12 0.670790 0.277169 0.054400
O O13 0.809605 0.817216 0.336333
O O14 0.886984 0.728906 0.237057
O O15 0.000000 0.800604 0.322501
O O16 0.307179 0.361790 0.640349
O O17 0.500000 0.310903 0.356003
O O18 0.300596 0.314330 0.357810
O O19 0.399559 0.472988 0.294168
O O20 0.750000 0.574961 0.250000
#
# Coordination Sequence:
#
# PCOD9418697 Si02
#       8
#     8   8   8   8   8   8   8   8
#     4  10  21  38  60  89 128 164 208 256 316 371
#     4  11  23  41  65  93 125 168 214 263 321 379
#     4  11  25  44  67  94 125 166 211 259 320 381
#     4  11  22  37  62  95 129 165 209 260 314 373
#     4  11  22  43  64  92 126 167 208 265 313 376
#     4  11  23  39  62  92 127 169 214 261 315 377
#     4  11  22  42  65  91 128 166 207 265 313 378
#     4  10  22  39  61  88 128 172 212 258 314 375
#
# _framework density 20.007194999999999
#
# number of rings (size 3 to 8) (size 9 to 14) (size 15 to 20)
#    0.000    1.250    2.500    4.500    1.750    3.000 
#    0.000    3.125    0.000    1.875    0.000    0.000 
#    0.000    0.000    0.000    0.000    0.000    0.000 
#
# Total GULP energy -356984.744000 kJ/mol
# GULP energy per Si atom -5577.886625 kJ/mol
# Density = 1.996166 g / cm^3
# Si number density = 20.007195 Si / 1000 Ang^3
#
#
#
# Elastic Constant Matrix: (Units=GPa)
#
#
# Indices 1 2 3 4 5 6 
#
# 1 134.1087 60.4565 30.2163 0.0000 0.0000 0.0000
# 2 60.4565 146.0832 50.7451 0.0000 0.0000 0.0000
# 3 30.2163 50.7451 85.6772 0.0000 0.0000 0.0000
# 4 0.0000 0.0000 0.0000 19.8330 0.0000 0.0000
# 5 0.0000 0.0000 0.0000 0.0000 52.5931 0.0000
# 6 0.0000 0.0000 0.0000 0.0000 0.0000 57.3895
#
#
#
# Elastic Compliance Matrix: (Units=1/GPa)
#
#
# Indices 1 2 3 4 5 6 
#
# 1 0.009273 -0.003401 -0.001256 0.000000 0.000000 0.000000
# 2 -0.003401 0.009866 -0.004644 0.000000 0.000000 0.000000
# 3 -0.001256 -0.004644 0.014865 0.000000 0.000000 0.000000
# 4 0.000000 0.000000 0.000000 0.050421 0.000000 0.000000
# 5 0.000000 0.000000 0.000000 0.000000 0.019014 0.000000
# 6 0.000000 0.000000 0.000000 0.000000 0.000000 0.017425
#
#
# Mechanical properties :
#
#
# Convention : Reuss Voigt Hill
#
# Bulk Modulus (GPa) = 64.92655 72.07832 68.50244
# Shear Modulus (GPa) = 34.57806 40.92654 37.75230
#
# Velocity S-wave (km/s) = 4.16177 4.52773 4.34860
# Velocity P-wave (km/s) = 7.45760 7.96481 7.71537
#
# Compressibility (1/GPa) = 0.01540202
#
# Stress axis : x y z
#
# Youngs Moduli (GPa) = 107.84087 101.35537 67.27136
#
# Poissons Ratio (x) = 0.34475 0.08448
# Poissons Ratio (y) = 0.36681 0.31241
# Poissons Ratio (z) = 0.13542 0.47070
#
# Static dielectric constant tensor:
#      x y z
#    x 1.689150 0.000000 0.000000 
#    y 0.000000 1.727910 0.000000 
#    z 0.000000 0.000000 1.709880 
# 
# From -- ./inp_files/35332.got.cif
#   From: 2010.05.17/outbox.cif.g08.bks.cpg/sg53_18_cif.got.tgz:35332.got - 2010.06.03 12:45:16.
