data_PCOD9418110
_publ_section_title
;
Structure prediction by ZEFSAII (Michael W. Deem and Ramdas Pophale) SiO2 
 PCOD9418110
Probable space group: P M N A
;
_chemical_formula_sum "Si O2"
_cell_formula_units_Z 40
_cell_length_a 13.503363
_cell_length_b 13.377495
_cell_length_c 9.066877
_cell_angle_alpha 90.000000
_cell_angle_beta 90.000000
_cell_angle_gamma 90.000000
_cell_volume 1637.851279
_symmetry_space_group_name_H-M "P M N A"
_symmetry_group_IT_number 53
_symmetry_cell_setting 'orthorhombic'
loop_
_space_group_symop_operation_xyz
x,y,z
1/2-x,-y,1/2+z
x,-y,-z
1/2-x,y,1/2-z
-x,-y,-z
1/2+x,y,1/2-z
-x,y,z
1/2+x,-y,1/2+z
loop_
_atom_site_type_symbol
_atom_site_label
_atom_site_fract_x
_atom_site_fract_y
_atom_site_fract_z
Si Si1 0.000000 0.450706 0.339465
Si Si2 0.610691 0.895207 0.404646
Si Si3 0.786479 0.602946 0.087039
Si Si4 0.000000 0.396611 0.907966
Si Si5 0.160284 0.286159 0.363190
Si Si6 0.340154 0.112478 0.944427
O O1 0.000000 0.500000 0.500000
O O2 0.909713 0.375016 0.303999
O O3 0.000000 0.552645 0.250225
O O4 0.500000 0.852749 0.439408
O O5 0.618821 0.889900 0.223826
O O6 0.722243 0.859251 0.444093
O O7 0.609106 0.000000 0.500000
O O8 0.750000 0.582546 0.250000
O O9 0.894114 0.654391 0.075037
O O10 0.793832 0.500000 0.000000
O O11 0.702966 0.665365 0.010425
O O12 0.000000 0.500000 0.000000
O O13 0.250000 0.267194 0.250000
O O14 0.114090 0.185155 0.429864
O O15 0.349238 0.000000 0.000000
#
# Coordination Sequence:
#
# PCOD9418110 Si02
#       6
#     4   8   8   4   8   8
#     4  12  26  48  71 101 138 180 235 305 367 431
#     4   9  20  42  72  99 136 185 242 285 357 413
#     4  11  22  40  66  95 130 174 225 290 360 428
#     4  10  20  38  68  93 125 170 220 281 358 423
#     4  12  27  45  68 104 142 188 242 296 358 434
#     4  10  24  44  68 102 147 192 236 293 353 421
#
# _framework density 24.422243000000002
#
# number of rings (size 3 to 8) (size 9 to 14) (size 15 to 20)
#    0.000    1.400    0.000    6.000    9.800    0.400 
#    3.600    0.000    0.000    0.000    0.000    0.000 
#    0.000    0.000    0.000    0.000    0.000    0.000 
#
# Total GULP energy -223029.438364 kJ/mol
# GULP energy per Si atom -5575.735959 kJ/mol
# Density = 2.436666 g / cm^3
# Si number density = 24.422243 Si / 1000 Ang^3
#
#
#
# Elastic Constant Matrix: (Units=GPa)
#
#
# Indices 1 2 3 4 5 6 
#
# 1 134.1763 17.8483 -7.4470 0.0000 0.0000 0.0000
# 2 17.8483 79.6757 -2.3890 0.0000 0.0000 0.0000
# 3 -7.4470 -2.3890 110.3768 0.0000 0.0000 0.0000
# 4 0.0000 0.0000 0.0000 12.5832 0.0000 0.0000
# 5 0.0000 0.0000 0.0000 0.0000 23.8533 0.0000
# 6 0.0000 0.0000 0.0000 0.0000 0.0000 47.2154
#
#
#
# Elastic Compliance Matrix: (Units=1/GPa)
#
#
# Indices 1 2 3 4 5 6 
#
# 1 0.007707 -0.001712 0.000483 0.000000 0.000000 0.000000
# 2 -0.001712 0.012939 0.000165 0.000000 0.000000 0.000000
# 3 0.000483 0.000165 0.009096 0.000000 0.000000 0.000000
# 4 0.000000 0.000000 0.000000 0.079471 0.000000 0.000000
# 5 0.000000 0.000000 0.000000 0.000000 0.041923 0.000000
# 6 0.000000 0.000000 0.000000 0.000000 0.000000 0.021180
#
#
# Mechanical properties :
#
#
# Convention : Reuss Voigt Hill
#
# Bulk Modulus (GPa) = 36.21400 37.80594 37.00997
# Shear Modulus (GPa) = 27.22573 37.81148 32.51860
#
# Velocity S-wave (km/s) = 3.34247 3.93904 3.65295
# Velocity P-wave (km/s) = 5.45496 6.01679 5.74275
#
# Compressibility (1/GPa) = 0.02761363
#
# Stress axis : x y z
#
# Youngs Moduli (GPa) = 129.74495 77.28373 109.93822
#
# Poissons Ratio (x) = 0.13232 -0.05310
# Poissons Ratio (y) = 0.22213 -0.01809
# Poissons Ratio (z) = -0.06266 -0.01272
#
# Static dielectric constant tensor:
#      x y z
#    x 2.037290 0.000000 0.000000 
#    y 0.000000 1.734760 0.000000 
#    z 0.000000 0.000000 1.956290 
# 
# From -- ./inp_files/8464.got.cif
#   From: 2010.05.17/outbox.cif.g08.bks.cpg/sg53_5_cif.got.tgz:8464.got - 2010.06.03 12:45:16.
