data_PCOD9418450
_publ_section_title
;
Structure prediction by ZEFSAII (Michael W. Deem and Ramdas Pophale) SiO2 
 PCOD9418450
Probable space group: P M N A
;
_chemical_formula_sum "Si O2"
_cell_formula_units_Z 40
_cell_length_a 31.290009
_cell_length_b 11.845646
_cell_length_c 5.382291
_cell_angle_alpha 90.000000
_cell_angle_beta 90.000000
_cell_angle_gamma 90.000000
_cell_volume 1994.948150
_symmetry_space_group_name_H-M "P M N A"
_symmetry_group_IT_number 53
_symmetry_cell_setting 'orthorhombic'
loop_
_space_group_symop_operation_xyz
x,y,z
1/2-x,-y,1/2+z
x,-y,-z
1/2-x,y,1/2-z
-x,-y,-z
1/2+x,y,1/2-z
-x,y,z
1/2+x,-y,1/2+z
loop_
_atom_site_type_symbol
_atom_site_label
_atom_site_fract_x
_atom_site_fract_y
_atom_site_fract_z
Si Si1 0.452422 0.623046 0.132588
Si Si2 0.724250 0.636364 0.002798
Si Si3 0.346013 0.074786 0.252371
Si Si4 0.630388 0.313679 0.147012
Si Si5 0.599412 0.500000 0.500000
Si Si6 0.250000 0.928514 0.750000
O O1 0.500000 0.671515 0.130748
O O2 0.433389 0.593838 0.399813
O O3 0.454478 0.500000 0.000000
O O4 0.413386 0.686206 0.006426
O O5 0.750000 0.669050 0.750000
O O6 0.674734 0.675385 0.005687
O O7 0.723912 0.500000 0.000000
O O8 0.750000 0.675192 0.250000
O O9 0.370541 0.192637 0.279093
O O10 0.351146 0.000000 0.500000
O O11 0.297217 0.119974 0.233896
O O12 0.354345 0.000000 0.000000
O O13 0.628366 0.428479 0.311364
O O14 0.252548 0.000000 0.500000
#
# Coordination Sequence:
#
# PCOD9418450 Si02
#       6
#     8   8   8   8   4   4
#     4   9  19  37  61  94 129 161 207 266 331 392
#     4  10  23  38  56  86 132 171 205 245 310 387
#     4  10  23  41  62  88 122 167 218 268 319 367
#     4  11  24  38  65  92 129 167 216 269 319 392
#     4  10  21  36  66  98 124 164 210 262 341 384
#     4   8  16  36  56  80 110 150 210 264 302 348
#
# _framework density 20.050647000000001
#
# number of rings (size 3 to 8) (size 9 to 14) (size 15 to 20)
#    0.000    2.200    0.000    2.100   11.200    0.800 
#    7.200    0.000    0.000    1.200    0.000    0.000 
#    0.000    0.000    0.000    0.000    0.000    0.000 
#
# Total GULP energy -222705.862098 kJ/mol
# GULP energy per Si atom -5567.646552 kJ/mol
# Density = 2.000501 g / cm^3
# Si number density = 20.050647 Si / 1000 Ang^3
#
#
#
# Elastic Constant Matrix: (Units=GPa)
#
#
# Indices 1 2 3 4 5 6 
#
# 1 158.6989 46.0014 54.1618 0.0000 0.0000 0.0000
# 2 46.0014 71.2728 27.9621 0.0000 0.0000 0.0000
# 3 54.1618 27.9621 106.3011 0.0000 0.0000 0.0000
# 4 0.0000 0.0000 0.0000 7.9450 0.0000 0.0000
# 5 0.0000 0.0000 0.0000 0.0000 -13.4426 0.0000
# 6 0.0000 0.0000 0.0000 0.0000 0.0000 11.4777
#
#
#
# Elastic Compliance Matrix: (Units=1/GPa)
#
#
# Indices 1 2 3 4 5 6 
#
# 1 0.008671 -0.004308 -0.003285 0.000000 0.000000 0.000000
# 2 -0.004308 0.017785 -0.002483 0.000000 0.000000 0.000000
# 3 -0.003285 -0.002483 0.011734 0.000000 0.000000 0.000000
# 4 0.000000 0.000000 0.000000 0.125865 0.000000 0.000000
# 5 0.000000 0.000000 0.000000 0.000000 -0.074391 0.000000
# 6 0.000000 0.000000 0.000000 0.000000 0.000000 0.087126
#
#
# Mechanical properties :
#
#
# Convention : Reuss Voigt Hill
#
# Bulk Modulus (GPa) = 55.43769 65.83592 60.63680
# Shear Modulus (GPa) = 24.63589 15.07252 19.85421
#
# Velocity S-wave (km/s) = 3.50906 2.74473 3.15016
# Velocity P-wave (km/s) = 6.64281 6.55369 6.59840
#
# Compressibility (1/GPa) = 0.01803827
#
# Stress axis : x y z
#
# Youngs Moduli (GPa) = 115.32713 56.22626 85.22114
#
# Poissons Ratio (x) = 0.24221 0.27994
# Poissons Ratio (y) = 0.49680 0.21165
# Poissons Ratio (z) = 0.37883 0.13964
#
# Static dielectric constant tensor:
#      x y z
#    x 1.709300 0.000000 0.000000 
#    y 0.000000 1.720860 0.000000 
#    z 0.000000 0.000000 1.880340 
# 
# From -- ./inp_files/4316.got.cif
#   From: 2010.05.17/outbox.cif.g08.bks.cpg/sg53_3_cif.got.tgz:4316.got - 2010.06.03 12:45:16.
