data_PCOD9418461
_publ_section_title
;
Structure prediction by ZEFSAII (Michael W. Deem and Ramdas Pophale) SiO2 
 PCOD9418461
Probable space group: P M N A
;
_chemical_formula_sum "Si O2"
_cell_formula_units_Z 48
_cell_length_a 8.807751
_cell_length_b 21.727121
_cell_length_c 14.503346
_cell_angle_alpha 90.000000
_cell_angle_beta 90.000000
_cell_angle_gamma 90.000000
_cell_volume 2775.462854
_symmetry_space_group_name_H-M "P M N A"
_symmetry_group_IT_number 53
_symmetry_cell_setting 'orthorhombic'
loop_
_space_group_symop_operation_xyz
x,y,z
1/2-x,-y,1/2+z
x,-y,-z
1/2-x,y,1/2-z
-x,-y,-z
1/2+x,y,1/2-z
-x,y,z
1/2+x,-y,1/2+z
loop_
_atom_site_type_symbol
_atom_site_label
_atom_site_fract_x
_atom_site_fract_y
_atom_site_fract_z
Si Si1 0.318590 0.665907 0.148066
Si Si2 0.182502 0.997159 0.648768
Si Si3 0.683446 0.101189 0.995715
Si Si4 0.818266 0.331603 0.148742
Si Si5 0.316826 0.428336 0.505441
Si Si6 0.682241 0.763296 0.491411
O O1 0.250000 0.664736 0.250000
O O2 0.500000 0.667351 0.151575
O O3 0.261661 0.607072 0.089577
O O4 0.256258 0.724774 0.091716
O O5 0.250000 0.995591 0.750000
O O6 0.225967 0.058233 0.591315
O O7 0.000000 0.997016 0.654081
O O8 0.226164 0.938471 0.586155
O O9 0.500000 0.107848 0.995416
O O10 0.760303 0.167221 0.993133
O O11 0.750000 0.330868 0.250000
O O12 0.000000 0.331636 0.156968
O O13 0.775097 0.391277 0.087674
O O14 0.775249 0.273013 0.085473
O O15 0.277753 0.500000 0.500000
O O16 0.500000 0.422864 0.516439
O O17 0.500000 0.760607 0.482494
#
# Coordination Sequence:
#
# PCOD9418461 Si02
#       6
#     8   8   8   8   8   8
#     4  11  22  37  57  80 108 142 180 222 267 318
#     4   9  19  35  54  76 105 138 174 214 259 312
#     4   9  19  36  54  75 105 140 173 212 264 317
#     4   9  19  34  52  75 104 137 173 213 259 310
#     4   9  19  37  57  79 110 143 176 220 268 313
#     4  10  21  37  55  78 106 138 178 222 268 318
#
# _framework density 17.294412999999999
#
# number of rings (size 3 to 8) (size 9 to 14) (size 15 to 20)
#    0.000    2.500    0.000    4.000    0.000    7.000 
#    0.000    8.333    0.000    0.000    0.000    0.000 
#    0.000    0.000    0.000    0.000    0.000    0.000 
#
# Total GULP energy -267827.676728 kJ/mol
# GULP energy per Si atom -5579.743265 kJ/mol
# Density = 1.725505 g / cm^3
# Si number density = 17.294413 Si / 1000 Ang^3
#
#
#
# Elastic Constant Matrix: (Units=GPa)
#
#
# Indices 1 2 3 4 5 6 
#
# 1 59.0348 65.5177 65.2530 0.0000 0.0000 0.0000
# 2 65.5177 187.9549 103.9628 0.0000 0.0000 0.0000
# 3 65.2530 103.9628 198.2349 0.0000 0.0000 0.0000
# 4 0.0000 0.0000 0.0000 5.4677 0.0000 0.0000
# 5 0.0000 0.0000 0.0000 0.0000 37.4204 0.0000
# 6 0.0000 0.0000 0.0000 0.0000 0.0000 30.3653
#
#
#
# Elastic Compliance Matrix: (Units=1/GPa)
#
#
# Indices 1 2 3 4 5 6 
#
# 1 0.033096 -0.007763 -0.006823 0.000000 0.000000 0.000000
# 2 -0.007763 0.009315 -0.002330 0.000000 0.000000 0.000000
# 3 -0.006823 -0.002330 0.008512 0.000000 0.000000 0.000000
# 4 0.000000 0.000000 0.000000 0.182893 0.000000 0.000000
# 5 0.000000 0.000000 0.000000 0.000000 0.026723 0.000000
# 6 0.000000 0.000000 0.000000 0.000000 0.000000 0.032932
#
#
# Mechanical properties :
#
#
# Convention : Reuss Voigt Hill
#
# Bulk Modulus (GPa) = 58.50680 101.63240 80.06960
# Shear Modulus (GPa) = 15.01494 28.68342 21.84918
#
# Velocity S-wave (km/s) = 2.94971 4.07693 3.55824
# Velocity P-wave (km/s) = 6.74569 9.00308 7.95487
#
# Compressibility (1/GPa) = 0.01709203
#
# Stress axis : x y z
#
# Youngs Moduli (GPa) = 30.21502 107.35225 117.47450
#
# Poissons Ratio (x) = 0.83333 0.80155
# Poissons Ratio (y) = 0.23455 0.27372
# Poissons Ratio (z) = 0.20616 0.25013
#
# Static dielectric constant tensor:
#      x y z
#    x 1.582010 0.000000 0.000000 
#    y 0.000000 1.571000 0.000000 
#    z 0.000000 0.000000 1.563620 
# 
# From -- ./inp_files/20357.got.cif
#   From: 2010.05.17/outbox.cif.g08.bks.cpg/sg53_11_cif.got.tgz:20357.got - 2010.06.03 12:45:16.
