data_PCOD9418149
_publ_section_title
;
Structure prediction by ZEFSAII (Michael W. Deem and Ramdas Pophale) SiO2 
 PCOD9418149
Probable space group: P M N A
;
_chemical_formula_sum "Si O2"
_cell_formula_units_Z 44
_cell_length_a 18.053252
_cell_length_b 8.492959
_cell_length_c 13.849568
_cell_angle_alpha 90.000000
_cell_angle_beta 90.000000
_cell_angle_gamma 90.000000
_cell_volume 2123.492341
_symmetry_space_group_name_H-M "P M N A"
_symmetry_group_IT_number 53
_symmetry_cell_setting 'orthorhombic'
loop_
_space_group_symop_operation_xyz
x,y,z
1/2-x,-y,1/2+z
x,-y,-z
1/2-x,y,1/2-z
-x,-y,-z
1/2+x,y,1/2-z
-x,y,z
1/2+x,-y,1/2+z
loop_
_atom_site_type_symbol
_atom_site_label
_atom_site_fract_x
_atom_site_fract_y
_atom_site_fract_z
Si Si1 0.785125 0.165131 0.042273
Si Si2 0.000000 0.073878 0.685859
Si Si3 0.664627 0.361063 0.281276
Si Si4 0.500000 0.881349 0.409420
Si Si5 0.500000 0.680732 0.034458
Si Si6 0.872477 0.625672 0.079827
Si Si7 0.115875 0.830733 0.605561
O O1 0.832081 0.231249 0.132699
O O2 0.700919 0.142176 0.076661
O O3 0.796075 0.299250 0.960830
O O4 0.811566 0.000000 0.000000
O O5 0.000000 0.051274 0.800820
O O6 0.000000 0.252881 0.644281
O O7 0.071489 0.982865 0.642601
O O8 0.750000 0.380200 0.250000
O O9 0.636988 0.525427 0.323856
O O10 0.617989 0.294446 0.192979
O O11 0.570841 0.767333 0.414469
O O12 0.500000 0.000000 0.500000
O O13 0.500000 0.500000 0.000000
O O14 0.428941 0.758822 0.983069
O O15 0.898434 0.500000 0.000000
#
# Coordination Sequence:
#
# PCOD9418149 Si02
#       7
#     8   4   8   4   4   8   8
#     4  10  20  39  65  92 127 169 224 271 331 396
#     4  11  26  43  67  97 132 178 228 277 339 406
#     4   9  21  39  62  98 131 174 216 276 340 401
#     4  12  28  43  67  98 139 173 228 278 337 414
#     4  11  25  42  65  96 125 171 227 275 333 392
#     4  10  23  41  65  91 133 173 220 271 341 400
#     4  10  22  43  67  89 137 173 220 274 339 394
#
# _framework density 20.720583000000001
#
# number of rings (size 3 to 8) (size 9 to 14) (size 15 to 20)
#    0.000    1.818    0.000    3.000   10.182    4.364 
#    3.273    0.000    0.000    0.000    0.000    0.000 
#    0.000    0.000    0.000    0.000    0.000    0.000 
#
# Total GULP energy -245685.720649 kJ/mol
# GULP energy per Si atom -5583.766378 kJ/mol
# Density = 2.067342 g / cm^3
# Si number density = 20.720583 Si / 1000 Ang^3
#
#
#
# Elastic Constant Matrix: (Units=GPa)
#
#
# Indices 1 2 3 4 5 6 
#
# 1 72.0503 30.9811 25.3876 0.0000 0.0000 0.0000
# 2 30.9811 121.0887 65.0324 0.0000 0.0000 0.0000
# 3 25.3876 65.0324 112.3609 0.0000 0.0000 0.0000
# 4 0.0000 0.0000 0.0000 53.1248 0.0000 0.0000
# 5 0.0000 0.0000 0.0000 0.0000 7.8642 0.0000
# 6 0.0000 0.0000 0.0000 0.0000 0.0000 27.1339
#
#
#
# Elastic Compliance Matrix: (Units=1/GPa)
#
#
# Indices 1 2 3 4 5 6 
#
# 1 0.015839 -0.003091 -0.001790 0.000000 0.000000 0.000000
# 2 -0.003091 0.012587 -0.006586 0.000000 0.000000 0.000000
# 3 -0.001790 -0.006586 0.013116 0.000000 0.000000 0.000000
# 4 0.000000 0.000000 0.000000 0.018824 0.000000 0.000000
# 5 0.000000 0.000000 0.000000 0.000000 0.127159 0.000000
# 6 0.000000 0.000000 0.000000 0.000000 0.000000 0.036854
#
#
# Mechanical properties :
#
#
# Convention : Reuss Voigt Hill
#
# Bulk Modulus (GPa) = 53.74234 60.92245 57.33240
# Shear Modulus (GPa) = 19.72263 29.89784 24.81023
#
# Velocity S-wave (km/s) = 3.08853 3.80268 3.46406
# Velocity P-wave (km/s) = 6.22187 6.98185 6.61279
#
# Compressibility (1/GPa) = 0.01860730
#
# Stress axis : x y z
#
# Youngs Moduli (GPa) = 63.13519 79.44899 76.24072
#
# Poissons Ratio (x) = 0.24561 0.13644
# Poissons Ratio (y) = 0.19517 0.50216
# Poissons Ratio (z) = 0.11298 0.52329
#
# Static dielectric constant tensor:
#      x y z
#    x 1.753990 0.000000 0.000000 
#    y 0.000000 1.736080 0.000000 
#    z 0.000000 0.000000 1.776090 
# 
# From -- ./inp_files/23554.got.cif
#   From: 2010.05.17/outbox.cif.g08.bks.cpg/sg53_12_cif.got.tgz:23554.got - 2010.06.03 12:45:16.
