data_PCOD9418939
_publ_section_title
;
Structure prediction by ZEFSAII (Michael W. Deem and Ramdas Pophale) SiO2 
 PCOD9418939
Probable space group: P M N A
;
_chemical_formula_sum "Si O2"
_cell_formula_units_Z 52
_cell_length_a 15.322879
_cell_length_b 8.277981
_cell_length_c 20.934563
_cell_angle_alpha 90.000000
_cell_angle_beta 90.000000
_cell_angle_gamma 90.000000
_cell_volume 2655.392333
_symmetry_space_group_name_H-M "P M N A"
_symmetry_group_IT_number 53
_symmetry_cell_setting 'orthorhombic'
loop_
_space_group_symop_operation_xyz
x,y,z
1/2-x,-y,1/2+z
x,-y,-z
1/2-x,y,1/2-z
-x,-y,-z
1/2+x,y,1/2-z
-x,y,z
1/2+x,-y,1/2+z
loop_
_atom_site_type_symbol
_atom_site_label
_atom_site_fract_x
_atom_site_fract_y
_atom_site_fract_z
Si Si1 0.267939 0.917932 0.182256
Si Si2 0.756560 0.794896 0.899075
Si Si3 0.399951 0.622807 0.199855
Si Si4 0.594739 0.218982 0.616705
Si Si5 0.397865 0.432897 0.331845
Si Si6 0.095288 0.582103 0.569392
Si Si7 0.363289 0.000000 0.500000
O O1 0.250000 0.996237 0.250000
O O2 0.334136 0.771767 0.193798
O O3 0.177087 0.850411 0.154424
O O4 0.295057 0.062590 0.137030
O O5 0.826819 0.698151 0.855006
O O6 0.682899 0.682668 0.927494
O O7 0.808638 0.882888 0.954787
O O8 0.500000 0.676258 0.210157
O O9 0.378685 0.507272 0.260918
O O10 0.398007 0.532783 0.131676
O O11 0.500000 0.187464 0.647694
O O12 0.605983 0.413067 0.619615
O O13 0.592522 0.125905 0.549210
O O14 0.500000 0.375702 0.331792
O O15 0.094056 0.500000 0.500000
O O16 0.000000 0.666128 0.575800
#
# Coordination Sequence:
#
# PCOD9418939 Si02
#       7
#     8   8   8   8   8   8   4
#     4  11  23  38  62  94 129 165 201 254 326 377
#     4  11  26  39  65  93 133 167 216 265 318 383
#     4  10  22  43  69  93 124 165 211 263 320 375
#     4  10  21  40  64  91 126 166 212 259 312 378
#     4  10  22  41  67  98 126 166 214 264 319 381
#     4  10  24  43  66  92 122 167 219 266 313 369
#     4  10  25  42  59  96 130 178 207 258 329 380
#
# _framework density 19.582794
#
# number of rings (size 3 to 8) (size 9 to 14) (size 15 to 20)
#    0.000    1.692    1.538    1.154    8.615    3.692 
#    0.000    1.923    0.000    0.000    0.000    0.000 
#    0.000    0.000    0.000    0.000    0.000    0.000 
#
# Total GULP energy -289749.185205 kJ/mol
# GULP energy per Si atom -5572.099715 kJ/mol
# Density = 1.953822 g / cm^3
# Si number density = 19.582794 Si / 1000 Ang^3
#
#
#
# Elastic Constant Matrix: (Units=GPa)
#
#
# Indices 1 2 3 4 5 6 
#
# 1 114.1377 56.1225 54.0401 0.0000 0.0000 0.0000
# 2 56.1225 69.8590 50.9997 0.0000 0.0000 0.0000
# 3 54.0401 50.9997 123.7554 0.0000 0.0000 0.0000
# 4 0.0000 0.0000 0.0000 33.5445 0.0000 0.0000
# 5 0.0000 0.0000 0.0000 0.0000 -101.4668 0.0000
# 6 0.0000 0.0000 0.0000 0.0000 0.0000 -60.7610
#
#
#
# Elastic Compliance Matrix: (Units=1/GPa)
#
#
# Indices 1 2 3 4 5 6 
#
# 1 0.014908 -0.010333 -0.002252 0.000000 0.000000 0.000000
# 2 -0.010333 0.027636 -0.006877 0.000000 0.000000 0.000000
# 3 -0.002252 -0.006877 0.011898 0.000000 0.000000 0.000000
# 4 0.000000 0.000000 0.000000 0.029811 0.000000 0.000000
# 5 0.000000 0.000000 0.000000 0.000000 -0.009855 0.000000
# 6 0.000000 0.000000 0.000000 0.000000 0.000000 -0.016458
#
#
# Mechanical properties :
#
#
# Convention : Reuss Voigt Hill
#
# Bulk Modulus (GPa) = 64.43714 70.00851 67.22283
# Shear Modulus (GPa) = 49.00251 -15.96402 16.51924
#
# Velocity S-wave (km/s) = 5.00775 -2.85828 2.90756
# Velocity P-wave (km/s) = 8.14943 4.99346 6.75825
#
# Compressibility (1/GPa) = 0.01551900
#
# Stress axis : x y z
#
# Youngs Moduli (GPa) = 67.07683 36.18471 84.05036
#
# Poissons Ratio (x) = 0.37390 0.18926
# Poissons Ratio (y) = 0.69310 0.57799
# Poissons Ratio (z) = 0.15104 0.24883
#
# Static dielectric constant tensor:
#      x y z
#    x 1.695730 0.000000 0.000000 
#    y 0.000000 1.686750 0.000000 
#    z 0.000000 0.000000 1.969940 
# 
# From -- ./inp_files/32343.got.cif
#   From: 2010.05.17/outbox.cif.g08.bks.cpg/sg53_17_cif.got.tgz:32343.got - 2010.06.03 12:45:16.
