data_PCOD9418802
_publ_section_title
;
Structure prediction by ZEFSAII (Michael W. Deem and Ramdas Pophale) SiO2 
 PCOD9418802
Probable space group: P M N A
;
_chemical_formula_sum "Si O2"
_cell_formula_units_Z 48
_cell_length_a 10.180304
_cell_length_b 30.362126
_cell_length_c 8.912813
_cell_angle_alpha 90.000000
_cell_angle_beta 90.000000
_cell_angle_gamma 90.000000
_cell_volume 2754.911930
_symmetry_space_group_name_H-M "P M N A"
_symmetry_group_IT_number 53
_symmetry_cell_setting 'orthorhombic'
loop_
_space_group_symop_operation_xyz
x,y,z
1/2-x,-y,1/2+z
x,-y,-z
1/2-x,y,1/2-z
-x,-y,-z
1/2+x,y,1/2-z
-x,y,z
1/2+x,-y,1/2+z
loop_
_atom_site_type_symbol
_atom_site_label
_atom_site_fract_x
_atom_site_fract_y
_atom_site_fract_z
Si Si1 0.157408 0.181216 0.102083
Si Si2 0.000000 0.950011 0.565052
Si Si3 0.651190 0.717768 0.613822
Si Si4 0.847945 0.361806 0.888272
Si Si5 0.245921 0.901880 0.070013
Si Si6 0.346889 0.459765 0.610044
Si Si7 0.500000 0.047946 0.427815
O O1 0.250000 0.175970 0.250000
O O2 0.166041 0.232328 0.053773
O O3 0.000000 0.171835 0.129490
O O4 0.217401 0.148226 0.979773
O O5 0.875233 0.923143 0.503026
O O6 0.000000 0.952123 0.746603
O O7 0.000000 0.000000 0.500000
O O8 0.750000 0.713093 0.750000
O O9 0.500000 0.713849 0.665196
O O10 0.675979 0.678972 0.497066
O O11 0.750000 0.359261 0.750000
O O12 0.831403 0.410655 0.959068
O O13 0.000000 0.359107 0.838201
O O14 0.250000 0.906456 0.250000
O O15 0.126545 0.927923 0.993904
O O16 0.318871 0.500000 0.500000
O O17 0.250000 0.462113 0.750000
O O18 0.500000 0.463513 0.656594
O O19 0.500000 0.000000 0.500000
#
# Coordination Sequence:
#
# PCOD9418802 Si02
#       7
#     8   4   8   8   8   8   4
#     4  10  21  39  61  85 114 151 189 230 281 338
#     4  12  26  44  66  92 120 156 192 232 283 334
#     4   9  19  35  55  80 110 143 183 227 274 329
#     4   9  18  33  52  74 105 144 182 228 279 333
#     4  12  25  41  62  91 121 151 191 236 280 334
#     4   9  18  32  49  72 103 139 182 228 280 335
#     4  12  24  44  66  88 120 156 192 232 279 334
#
# _framework density 17.423425000000002
#
# number of rings (size 3 to 8) (size 9 to 14) (size 15 to 20)
#    0.000    1.833    0.833    3.500    1.167    2.333 
#    0.000    0.000    0.000    0.000    0.000    0.000 
#    0.000    0.000    0.000    0.000    0.000    0.000 
#
# Total GULP energy -267662.707797 kJ/mol
# GULP energy per Si atom -5576.306412 kJ/mol
# Density = 1.738377 g / cm^3
# Si number density = 17.423425 Si / 1000 Ang^3
#
#
#
# Elastic Constant Matrix: (Units=GPa)
#
#
# Indices 1 2 3 4 5 6 
#
# 1 112.0951 87.4520 66.8167 0.0000 0.0000 0.0000
# 2 87.4520 155.4414 85.7824 0.0000 0.0000 0.0000
# 3 66.8167 85.7824 127.9387 0.0000 0.0000 0.0000
# 4 0.0000 0.0000 0.0000 -0.6166 0.0000 0.0000
# 5 0.0000 0.0000 0.0000 0.0000 27.3783 0.0000
# 6 0.0000 0.0000 0.0000 0.0000 0.0000 37.0376
#
#
#
# Elastic Compliance Matrix: (Units=1/GPa)
#
#
# Indices 1 2 3 4 5 6 
#
# 1 0.017058 -0.007430 -0.003927 0.000000 0.000000 0.000000
# 2 -0.007430 0.013448 -0.005137 0.000000 0.000000 0.000000
# 3 -0.003927 -0.005137 0.013311 0.000000 0.000000 0.000000
# 4 0.000000 0.000000 0.000000 -1.621676 0.000000 0.000000
# 5 0.000000 0.000000 0.000000 0.000000 0.036525 0.000000
# 6 0.000000 0.000000 0.000000 0.000000 0.000000 0.027000
#
#
# Mechanical properties :
#
#
# Convention : Reuss Voigt Hill
#
# Bulk Modulus (GPa) = 92.33166 97.28639 94.80903
# Shear Modulus (GPa) = -3.38355 23.12145 9.86895
#
# Velocity S-wave (km/s) = -1.39505 3.64680 2.38254
# Velocity P-wave (km/s) = 7.10725 8.58428 7.88045
#
# Compressibility (1/GPa) = 0.01083052
#
# Stress axis : x y z
#
# Youngs Moduli (GPa) = 58.62252 74.36026 75.12437
#
# Poissons Ratio (x) = 0.55248 0.29502
# Poissons Ratio (y) = 0.43556 0.38588
# Poissons Ratio (z) = 0.23022 0.38196
#
# Static dielectric constant tensor:
#      x y z
#    x 1.559030 0.000000 0.000000 
#    y 0.000000 1.634240 0.000000 
#    z 0.000000 0.000000 1.545820 
# 
# From -- ./inp_files/6776.got.cif
#   From: 2010.05.17/outbox.cif.g08.bks.cpg/sg53_4_cif.got.tgz:6776.got - 2010.06.03 12:45:16.
