data_PCOD9418510
_publ_section_title
;
Structure prediction by ZEFSAII (Michael W. Deem and Ramdas Pophale) SiO2 
 PCOD9418510
Probable space group: P M N A
;
_chemical_formula_sum "Si O2"
_cell_formula_units_Z 48
_cell_length_a 8.577602
_cell_length_b 31.731710
_cell_length_c 9.145198
_cell_angle_alpha 90.000000
_cell_angle_beta 90.000000
_cell_angle_gamma 90.000000
_cell_volume 2489.158091
_symmetry_space_group_name_H-M "P M N A"
_symmetry_group_IT_number 53
_symmetry_cell_setting 'orthorhombic'
loop_
_space_group_symop_operation_xyz
x,y,z
1/2-x,-y,1/2+z
x,-y,-z
1/2-x,y,1/2-z
-x,-y,-z
1/2+x,y,1/2-z
-x,y,z
1/2+x,-y,1/2+z
loop_
_atom_site_type_symbol
_atom_site_label
_atom_site_fract_x
_atom_site_fract_y
_atom_site_fract_z
Si Si1 0.187647 0.289310 0.085184
Si Si2 0.187638 0.126661 0.085175
Si Si3 0.188496 0.542084 0.914531
Si Si4 0.186346 0.207988 0.585236
Si Si5 0.188197 0.041894 0.914498
Si Si6 0.188132 0.374002 0.914425
O O1 0.250000 0.289307 0.250000
O O2 0.000000 0.287245 0.087057
O O3 0.252876 0.249261 0.998470
O O4 0.235801 0.332237 0.002787
O O5 0.250000 0.126361 0.250000
O O6 0.000000 0.128783 0.087099
O O7 0.253075 0.166831 0.999284
O O8 0.235518 0.083856 0.001891
O O9 0.250000 0.542208 0.750000
O O10 0.000000 0.542241 0.910402
O O11 0.238857 0.500000 0.000000
O O12 0.240180 0.583866 0.001208
O O13 0.250000 0.207843 0.750000
O O14 0.000000 0.208019 0.587427
O O15 0.250000 0.042489 0.750000
O O16 0.000000 0.041251 0.909676
O O17 0.240968 0.000000 0.000000
O O18 0.250000 0.373129 0.750000
O O19 0.000000 0.374506 0.909584
#
# Coordination Sequence:
#
# PCOD9418510 Si02
#       6
#     8   8   8   8   8   8
#     4  11  23  40  61  87 118 153 195 240 291 347
#     4  11  23  40  62  89 121 157 198 242 292 347
#     4  10  21  37  57  84 116 150 191 236 284 340
#     4  12  25  42  63  88 119 154 195 242 293 348
#     4  10  22  39  60  88 120 155 196 241 290 345
#     4  10  22  38  58  85 116 151 192 238 287 343
#
# _framework density 19.283628
#
# number of rings (size 3 to 8) (size 9 to 14) (size 15 to 20)
#    0.000    1.333    0.000    5.500    0.000    6.667 
#    0.000    0.000    0.000    0.000    0.000    0.000 
#    0.000    0.000    0.000    0.000    0.000    0.000 
#
# Total GULP energy -268542.917252 kJ/mol
# GULP energy per Si atom -5594.644109 kJ/mol
# Density = 1.923974 g / cm^3
# Si number density = 19.283628 Si / 1000 Ang^3
#
#
#
# Elastic Constant Matrix: (Units=GPa)
#
#
# Indices 1 2 3 4 5 6 
#
# 1 59.0774 60.3459 52.9906 0.0000 0.0000 0.0000
# 2 60.3459 245.2907 149.7549 0.0000 0.0000 0.0000
# 3 52.9906 149.7549 244.0968 0.0000 0.0000 0.0000
# 4 0.0000 0.0000 0.0000 44.3427 0.0000 0.0000
# 5 0.0000 0.0000 0.0000 0.0000 43.9799 0.0000
# 6 0.0000 0.0000 0.0000 0.0000 0.0000 -8.3762
#
#
#
# Elastic Compliance Matrix: (Units=1/GPa)
#
#
# Indices 1 2 3 4 5 6 
#
# 1 0.023517 -0.004267 -0.002487 0.000000 0.000000 0.000000
# 2 -0.004267 0.007292 -0.003548 0.000000 0.000000 0.000000
# 3 -0.002487 -0.003548 0.006813 0.000000 0.000000 0.000000
# 4 0.000000 0.000000 0.000000 0.022552 0.000000 0.000000
# 5 0.000000 0.000000 0.000000 0.000000 0.022738 0.000000
# 6 0.000000 0.000000 0.000000 0.000000 0.000000 -0.119386
#
#
# Mechanical properties :
#
#
# Convention : Reuss Voigt Hill
#
# Bulk Modulus (GPa) = 58.76019 119.40530 89.08274
# Shear Modulus (GPa) = -490.29364 35.01418 -227.63973
#
# Velocity S-wave (km/s) = -15.96264 4.26578 -10.87679
# Velocity P-wave (km/s) = 17.58418 9.29072 10.55665
#
# Compressibility (1/GPa) = 0.01701833
#
# Stress axis : x y z
#
# Youngs Moduli (GPa) = 42.52320 137.12816 146.77287
#
# Poissons Ratio (x) = 0.58511 0.36509
# Poissons Ratio (y) = 0.18144 0.52070
# Poissons Ratio (z) = 0.10577 0.48649
#
# Static dielectric constant tensor:
#      x y z
#    x 1.653420 0.000000 0.000000 
#    y 0.000000 1.657640 0.000000 
#    z 0.000000 0.000000 1.615430 
# 
# From -- ./inp_files/6659.got.cif
#   From: 2010.05.17/outbox.cif.g08.bks.cpg/sg53_4_cif.got.tgz:6659.got - 2010.06.03 12:45:16.
