data_PCOD9418669
_publ_section_title
;
Structure prediction by ZEFSAII (Michael W. Deem and Ramdas Pophale) SiO2 
 PCOD9418669
Probable space group: P M N A
;
_chemical_formula_sum "Si O2"
_cell_formula_units_Z 40
_cell_length_a 16.542170
_cell_length_b 11.379575
_cell_length_c 9.477963
_cell_angle_alpha 90.000000
_cell_angle_beta 90.000000
_cell_angle_gamma 90.000000
_cell_volume 1784.158902
_symmetry_space_group_name_H-M "P M N A"
_symmetry_group_IT_number 53
_symmetry_cell_setting 'orthorhombic'
loop_
_space_group_symop_operation_xyz
x,y,z
1/2-x,-y,1/2+z
x,-y,-z
1/2-x,y,1/2-z
-x,-y,-z
1/2+x,y,1/2-z
-x,y,z
1/2+x,-y,1/2+z
loop_
_atom_site_type_symbol
_atom_site_label
_atom_site_fract_x
_atom_site_fract_y
_atom_site_fract_z
Si Si1 0.593095 0.662458 0.974281
Si Si2 0.176741 0.941981 0.145986
Si Si3 0.652806 0.183566 0.257480
Si Si4 0.904087 0.706620 0.040035
Si Si5 0.658361 0.460247 0.774735
O O1 0.500000 0.659924 0.021095
O O2 0.615462 0.778071 0.889627
O O3 0.608212 0.560225 0.857142
O O4 0.652297 0.641565 0.105738
O O5 0.250000 0.915398 0.250000
O O6 0.126948 0.825138 0.116283
O O7 0.125724 0.051698 0.205561
O O8 0.208965 0.000000 0.000000
O O9 0.750000 0.182899 0.250000
O O10 0.628824 0.274315 0.381674
O O11 0.874481 0.594892 0.130318
O O12 0.000000 0.702809 0.034236
O O13 0.750000 0.499491 0.750000
#
# Coordination Sequence:
#
# PCOD9418669 Si02
#       5
#     8   8   8   8   8
#     4  11  23  41  61  85 118 151 188 237 291 337
#     4   9  20  37  58  83 115 152 192 235 282 337
#     4  10  21  38  59  85 116 154 195 233 280 340
#     4  11  22  37  59  88 118 149 190 238 287 335
#     4  11  23  40  61  83 114 153 192 233 283 343
#
# _framework density 22.419526999999999
#
# number of rings (size 3 to 8) (size 9 to 14) (size 15 to 20)
#    0.000    1.600    0.000    5.400    0.000   10.000 
#    0.000    2.000    0.000    3.000    0.000    0.000 
#    0.000    0.000    0.000    0.000    0.000    0.000 
#
# Total GULP energy -223639.129010 kJ/mol
# GULP energy per Si atom -5590.978225 kJ/mol
# Density = 2.236850 g / cm^3
# Si number density = 22.419527 Si / 1000 Ang^3
#
#
#
# Elastic Constant Matrix: (Units=GPa)
#
#
# Indices 1 2 3 4 5 6 
#
# 1 81.7389 -2.6044 -4.2936 0.0000 0.0000 0.0000
# 2 -2.6044 30.9926 23.6380 0.0000 0.0000 0.0000
# 3 -4.2936 23.6380 55.4107 0.0000 0.0000 0.0000
# 4 0.0000 0.0000 0.0000 43.8075 0.0000 0.0000
# 5 0.0000 0.0000 0.0000 0.0000 18.0227 0.0000
# 6 0.0000 0.0000 0.0000 0.0000 0.0000 3.7731
#
#
#
# Elastic Compliance Matrix: (Units=1/GPa)
#
#
# Indices 1 2 3 4 5 6 
#
# 1 0.012288 0.000454 0.000758 0.000000 0.000000 0.000000
# 2 0.000454 0.047844 -0.020375 0.000000 0.000000 0.000000
# 3 0.000758 -0.020375 0.026798 0.000000 0.000000 0.000000
# 4 0.000000 0.000000 0.000000 0.022827 0.000000 0.000000
# 5 0.000000 0.000000 0.000000 0.000000 0.055486 0.000000
# 6 0.000000 0.000000 0.000000 0.000000 0.000000 0.265034
#
#
# Mechanical properties :
#
#
# Convention : Reuss Voigt Hill
#
# Bulk Modulus (GPa) = 20.57383 22.40246 21.48815
# Shear Modulus (GPa) = 10.31348 23.21412 16.76380
#
# Velocity S-wave (km/s) = 2.14714 3.22132 2.73744
# Velocity P-wave (km/s) = 3.91709 4.88364 4.42683
#
# Compressibility (1/GPa) = 0.04860543
#
# Stress axis : x y z
#
# Youngs Moduli (GPa) = 81.37759 20.90136 37.31672
#
# Poissons Ratio (x) = -0.00949 -0.02830
# Poissons Ratio (y) = -0.03696 0.76032
# Poissons Ratio (z) = -0.06172 0.42586
#
# Static dielectric constant tensor:
#      x y z
#    x 1.752010 0.000000 0.000000 
#    y 0.000000 1.904420 0.000000 
#    z 0.000000 0.000000 1.881240 
# 
# From -- ./inp_files/8349.got.cif
#   From: 2010.05.17/outbox.cif.g08.bks.cpg/sg53_5_cif.got.tgz:8349.got - 2010.06.03 12:45:16.
