data_PCOD9418822
_publ_section_title
;
Structure prediction by ZEFSAII (Michael W. Deem and Ramdas Pophale) SiO2 
 PCOD9418822
Probable space group: P M N A
;
_chemical_formula_sum "Si O2"
_cell_formula_units_Z 48
_cell_length_a 8.747264
_cell_length_b 14.718852
_cell_length_c 20.789410
_cell_angle_alpha 90.000000
_cell_angle_beta 90.000000
_cell_angle_gamma 90.000000
_cell_volume 2676.629973
_symmetry_space_group_name_H-M "P M N A"
_symmetry_group_IT_number 53
_symmetry_cell_setting 'orthorhombic'
loop_
_space_group_symop_operation_xyz
x,y,z
1/2-x,-y,1/2+z
x,-y,-z
1/2-x,y,1/2-z
-x,-y,-z
1/2+x,y,1/2-z
-x,y,z
1/2+x,-y,1/2+z
loop_
_atom_site_type_symbol
_atom_site_label
_atom_site_fract_x
_atom_site_fract_y
_atom_site_fract_z
Si Si1 0.182592 0.939023 0.181175
Si Si2 0.682574 0.555598 0.180010
Si Si3 0.817133 0.056590 0.434704
Si Si4 0.683750 0.443269 0.436701
Si Si5 0.816153 0.754390 0.373307
Si Si6 0.183611 0.242430 0.017404
O O1 0.250000 0.966605 0.250000
O O2 0.242995 0.838177 0.164578
O O3 0.000000 0.939142 0.182786
O O4 0.242919 0.004465 0.124947
O O5 0.750000 0.536534 0.250000
O O6 0.500000 0.551789 0.182666
O O7 0.742365 0.486583 0.126133
O O8 0.726331 0.657765 0.157840
O O9 0.748899 0.156457 0.444631
O O10 0.000000 0.060385 0.426825
O O11 0.784946 0.000000 0.500000
O O12 0.731917 0.500000 0.500000
O O13 0.500000 0.451651 0.431496
O O14 0.720981 0.337992 0.448685
O O15 0.756069 0.757240 0.446308
O O16 0.000000 0.763667 0.373039
O O17 0.000000 0.235594 0.011603
#
# Coordination Sequence:
#
# PCOD9418822 Si02
#       6
#     8   8   8   8   8   8
#     4  12  25  41  63  90 124 162 203 248 304 364
#     4  11  24  39  60  88 123 163 203 249 302 361
#     4  11  23  40  63  90 124 160 201 250 300 356
#     4  10  21  39  62  89 122 159 200 248 299 356
#     4  11  22  37  59  91 126 160 199 248 303 359
#     4  11  22  37  62  93 122 158 203 250 300 355
#
# _framework density 17.932998999999999
#
# number of rings (size 3 to 8) (size 9 to 14) (size 15 to 20)
#    0.000    1.000    3.333    4.000    0.000    5.667 
#    0.000    0.833    0.000    4.000    0.000    0.000 
#    0.000    0.000    0.000    0.000    0.000    0.000 
#
# Total GULP energy -268486.834501 kJ/mol
# GULP energy per Si atom -5593.475719 kJ/mol
# Density = 1.789218 g / cm^3
# Si number density = 17.932999 Si / 1000 Ang^3
#
#
#
# Elastic Constant Matrix: (Units=GPa)
#
#
# Indices 1 2 3 4 5 6 
#
# 1 84.0025 64.3560 65.9719 0.0000 0.0000 0.0000
# 2 64.3560 136.8828 75.0748 0.0000 0.0000 0.0000
# 3 65.9719 75.0748 163.2128 0.0000 0.0000 0.0000
# 4 0.0000 0.0000 0.0000 11.9180 0.0000 0.0000
# 5 0.0000 0.0000 0.0000 0.0000 25.9929 0.0000
# 6 0.0000 0.0000 0.0000 0.0000 0.0000 29.5442
#
#
#
# Elastic Compliance Matrix: (Units=1/GPa)
#
#
# Indices 1 2 3 4 5 6 
#
# 1 0.021723 -0.007218 -0.005460 0.000000 0.000000 0.000000
# 2 -0.007218 0.012169 -0.002680 0.000000 0.000000 0.000000
# 3 -0.005460 -0.002680 0.009567 0.000000 0.000000 0.000000
# 4 0.000000 0.000000 0.000000 0.083907 0.000000 0.000000
# 5 0.000000 0.000000 0.000000 0.000000 0.038472 0.000000
# 6 0.000000 0.000000 0.000000 0.000000 0.000000 0.033848
#
#
# Mechanical properties :
#
#
# Convention : Reuss Voigt Hill
#
# Bulk Modulus (GPa) = 78.48217 88.32260 83.40239
# Shear Modulus (GPa) = 21.30847 25.40406 23.35626
#
# Velocity S-wave (km/s) = 3.45081 3.76787 3.61282
# Velocity P-wave (km/s) = 7.72894 8.26362 8.00075
#
# Compressibility (1/GPa) = 0.01274175
#
# Stress axis : x y z
#
# Youngs Moduli (GPa) = 46.03484 82.17601 104.52936
#
# Poissons Ratio (x) = 0.59317 0.57075
# Poissons Ratio (y) = 0.33229 0.28012
# Poissons Ratio (z) = 0.25136 0.22022
#
# Static dielectric constant tensor:
#      x y z
#    x 1.599480 0.000000 0.000000 
#    y 0.000000 1.596230 0.000000 
#    z 0.000000 0.000000 1.578080 
# 
# From -- ./inp_files/26201.got.cif
#   From: 2010.05.17/outbox.cif.g08.bks.cpg/sg53_14_cif.got.tgz:26201.got - 2010.06.03 12:45:16.
