data_PCOD9418183
_publ_section_title
;
Structure prediction by ZEFSAII (Michael W. Deem and Ramdas Pophale) SiO2 
 PCOD9418183
Probable space group: P M N A
;
_chemical_formula_sum "Si O2"
_cell_formula_units_Z 36
_cell_length_a 14.666218
_cell_length_b 8.250145
_cell_length_c 15.801812
_cell_angle_alpha 90.000000
_cell_angle_beta 90.000000
_cell_angle_gamma 90.000000
_cell_volume 1911.994366
_symmetry_space_group_name_H-M "P M N A"
_symmetry_group_IT_number 53
_symmetry_cell_setting 'orthorhombic'
loop_
_space_group_symop_operation_xyz
x,y,z
1/2-x,-y,1/2+z
x,-y,-z
1/2-x,y,1/2-z
-x,-y,-z
1/2+x,y,1/2-z
-x,y,z
1/2+x,-y,1/2+z
loop_
_atom_site_type_symbol
_atom_site_label
_atom_site_fract_x
_atom_site_fract_y
_atom_site_fract_z
Si Si1 0.500000 0.852986 0.931887
Si Si2 0.000000 0.878354 0.080687
Si Si3 0.662620 0.624052 0.424040
Si Si4 0.200117 0.808930 0.520984
Si Si5 0.179294 0.316553 0.175567
Si Si6 0.500000 0.126007 0.269176
O O1 0.402968 0.766637 0.950515
O O2 0.500000 0.902813 0.832384
O O3 0.500000 0.000000 0.000000
O O4 0.911164 0.765179 0.076912
O O5 0.000000 0.970168 0.170222
O O6 0.000000 0.000000 0.000000
O O7 0.639065 0.500000 0.500000
O O8 0.761247 0.702654 0.443384
O O9 0.662515 0.505435 0.344435
O O10 0.272363 0.767158 0.594724
O O11 0.203578 0.000000 0.500000
O O12 0.250000 0.299951 0.250000
O O13 0.087759 0.228196 0.202794
#
# Coordination Sequence:
#
# PCOD9418183 Si02
#       6
#     4   4   8   8   8   4
#     4  10  22  41  61  87 123 168 220 256 299 362
#     4  12  22  39  65 101 126 154 205 268 323 373
#     4  10  21  38  61  91 124 162 196 250 321 378
#     4  10  20  40  64  89 119 164 213 258 306 368
#     4  11  22  40  61  89 127 162 200 254 316 377
#     4  12  23  40  68  93 124 167 209 262 318 363
#
# _framework density 18.828506999999998
#
# number of rings (size 3 to 8) (size 9 to 14) (size 15 to 20)
#    0.000    1.333    2.222    5.667    0.000    0.000 
#    8.000    6.111    0.000    0.000    0.000    0.000 
#    0.000    0.000    0.000    0.000    0.000    0.000 
#
# Total GULP energy -200873.714006 kJ/mol
# GULP energy per Si atom -5579.825389 kJ/mol
# Density = 1.878565 g / cm^3
# Si number density = 18.828507 Si / 1000 Ang^3
#
#
#
# Elastic Constant Matrix: (Units=GPa)
#
#
# Indices 1 2 3 4 5 6 
#
# 1 165.8152 62.9902 54.6966 0.0000 0.0000 0.0000
# 2 62.9902 109.7044 42.1161 0.0000 0.0000 0.0000
# 3 54.6966 42.1161 69.2703 0.0000 0.0000 0.0000
# 4 0.0000 0.0000 0.0000 26.8403 0.0000 0.0000
# 5 0.0000 0.0000 0.0000 0.0000 6.9805 0.0000
# 6 0.0000 0.0000 0.0000 0.0000 0.0000 20.1500
#
#
#
# Elastic Compliance Matrix: (Units=1/GPa)
#
#
# Indices 1 2 3 4 5 6 
#
# 1 0.008920 -0.003154 -0.005126 0.000000 0.000000 0.000000
# 2 -0.003154 0.013006 -0.005417 0.000000 0.000000 0.000000
# 3 -0.005126 -0.005417 0.021777 0.000000 0.000000 0.000000
# 4 0.000000 0.000000 0.000000 0.037257 0.000000 0.000000
# 5 0.000000 0.000000 0.000000 0.000000 0.143257 0.000000
# 6 0.000000 0.000000 0.000000 0.000000 0.000000 0.049628
#
#
# Mechanical properties :
#
#
# Convention : Reuss Voigt Hill
#
# Bulk Modulus (GPa) = 61.31435 73.82176 67.56806
# Shear Modulus (GPa) = 16.30394 23.12662 19.71528
#
# Velocity S-wave (km/s) = 2.94584 3.50848 3.23940
# Velocity P-wave (km/s) = 6.64876 7.46359 7.06792
#
# Compressibility (1/GPa) = 0.01630940
#
# Stress axis : x y z
#
# Youngs Moduli (GPa) = 112.11271 76.88778 45.91975
#
# Poissons Ratio (x) = 0.24248 0.23536
# Poissons Ratio (y) = 0.35357 0.24876
# Poissons Ratio (z) = 0.57464 0.41653
#
# Static dielectric constant tensor:
#      x y z
#    x 1.596120 0.000000 0.000000 
#    y 0.000000 1.635850 0.000000 
#    z 0.000000 0.000000 1.752660 
# 
# From -- ./inp_files/22353.got.cif
#   From: 2010.05.17/outbox.cif.g08.bks.cpg/sg53_12_cif.got.tgz:22353.got - 2010.06.03 12:45:16.
