data_PCOD9418518
_publ_section_title
;
Structure prediction by ZEFSAII (Michael W. Deem and Ramdas Pophale) SiO2 
 PCOD9418518
Probable space group: P M N A
;
_chemical_formula_sum "Si O2"
_cell_formula_units_Z 56
_cell_length_a 8.659619
_cell_length_b 14.775623
_cell_length_c 21.866735
_cell_angle_alpha 90.000000
_cell_angle_beta 90.000000
_cell_angle_gamma 90.000000
_cell_volume 2797.876419
_symmetry_space_group_name_H-M "P M N A"
_symmetry_group_IT_number 53
_symmetry_cell_setting 'orthorhombic'
loop_
_space_group_symop_operation_xyz
x,y,z
1/2-x,-y,1/2+z
x,-y,-z
1/2-x,y,1/2-z
-x,-y,-z
1/2+x,y,1/2-z
-x,y,z
1/2+x,-y,1/2+z
loop_
_atom_site_type_symbol
_atom_site_label
_atom_site_fract_x
_atom_site_fract_y
_atom_site_fract_z
Si Si1 0.817413 0.264250 0.815981
Si Si2 0.685925 0.539849 0.320191
Si Si3 0.185755 0.556475 0.560747
Si Si4 0.324133 0.070900 0.844911
Si Si5 0.185716 0.769394 0.560149
Si Si6 0.671352 0.093638 0.534662
Si Si7 0.313713 0.129814 0.185727
O O1 0.750000 0.282241 0.750000
O O2 0.771636 0.359229 0.847128
O O3 0.756616 0.165065 0.830274
O O4 0.000000 0.260136 0.816362
O O5 0.750000 0.525139 0.250000
O O6 0.500000 0.535171 0.315237
O O7 0.745000 0.474509 0.373912
O O8 0.237087 0.500000 0.500000
O O9 0.219008 0.663267 0.553712
O O10 0.000000 0.545595 0.564757
O O11 0.500000 0.076378 0.823700
O O12 0.305209 0.071956 0.917364
O O13 0.257982 0.974772 0.822508
O O14 0.276199 0.826553 0.509552
O O15 0.228699 0.810448 0.626762
O O16 0.000000 0.782391 0.552953
O O17 0.500000 0.114441 0.561834
O O18 0.654910 0.000000 0.500000
O O19 0.250000 0.164876 0.250000
O O20 0.500000 0.127138 0.187783
#
# Coordination Sequence:
#
# PCOD9418518 Si02
#       7
#     8   8   8   8   8   8   8
#     4  10  21  37  57  87 122 158 200 245 296 356
#     4  10  22  41  65  91 124 164 207 261 317 378
#     4  10  23  42  65  94 125 160 208 264 319 377
#     4  11  22  36  58  85 118 161 198 242 297 352
#     4  10  22  42  62  86 120 160 202 246 302 369
#     4  11  23  38  59  88 120 155 195 243 292 350
#     4  10  22  38  58  84 117 156 199 243 293 353
#
# _framework density 20.015180000000001
#
# number of rings (size 3 to 8) (size 9 to 14) (size 15 to 20)
#    0.000    1.714    1.429    2.143    2.000    6.571 
#    0.000    1.429    0.000    0.000    0.000    0.000 
#    0.000    0.000    0.000    0.000    0.000    0.000 
#
# Total GULP energy -311987.764207 kJ/mol
# GULP energy per Si atom -5571.210075 kJ/mol
# Density = 1.996962 g / cm^3
# Si number density = 20.015180 Si / 1000 Ang^3
#
#
#
# Elastic Constant Matrix: (Units=GPa)
#
#
# Indices 1 2 3 4 5 6 
#
# 1 21.1295 29.8312 5.6863 0.0000 0.0000 0.0000
# 2 29.8312 115.6497 30.8213 0.0000 0.0000 0.0000
# 3 5.6863 30.8213 74.1456 0.0000 0.0000 0.0000
# 4 0.0000 0.0000 0.0000 8.9228 0.0000 0.0000
# 5 0.0000 0.0000 0.0000 0.0000 33.5613 0.0000
# 6 0.0000 0.0000 0.0000 0.0000 0.0000 33.7248
#
#
#
# Elastic Compliance Matrix: (Units=1/GPa)
#
#
# Indices 1 2 3 4 5 6 
#
# 1 0.074867 -0.019997 0.002571 0.000000 0.000000 0.000000
# 2 -0.019997 0.015065 -0.004729 0.000000 0.000000 0.000000
# 3 0.002571 -0.004729 0.015256 0.000000 0.000000 0.000000
# 4 0.000000 0.000000 0.000000 0.112073 0.000000 0.000000
# 5 0.000000 0.000000 0.000000 0.000000 0.029796 0.000000
# 6 0.000000 0.000000 0.000000 0.000000 0.000000 0.029652
#
#
# Mechanical properties :
#
#
# Convention : Reuss Voigt Hill
#
# Bulk Modulus (GPa) = 16.42617 38.17803 27.30210
# Shear Modulus (GPa) = 14.64939 24.88084 19.76512
#
# Velocity S-wave (km/s) = 2.70833 3.52959 3.14587
# Velocity P-wave (km/s) = 4.24320 5.97717 5.18321
#
# Compressibility (1/GPa) = 0.06087846
#
# Stress axis : x y z
#
# Youngs Moduli (GPa) = 13.35695 66.37855 65.55005
#
# Poissons Ratio (x) = 1.32736 -0.16851
# Poissons Ratio (y) = 0.26710 0.30997
# Poissons Ratio (z) = -0.03434 0.31389
#
# Static dielectric constant tensor:
#      x y z
#    x 1.689790 0.000000 0.000000 
#    y 0.000000 0.745930 0.000000 
#    z 0.000000 0.000000 1.858790 
# 
# From -- ./inp_files/30835.got.cif
#   From: 2010.05.17/outbox.cif.g08.bks.cpg/sg53_16_cif.got.tgz:30835.got - 2010.06.03 12:45:16.
