data_PCOD9418505
_publ_section_title
;
Structure prediction by ZEFSAII (Michael W. Deem and Ramdas Pophale) SiO2 
 PCOD9418505
Probable space group: P M N A
;
_chemical_formula_sum "Si O2"
_cell_formula_units_Z 48
_cell_length_a 8.737265
_cell_length_b 11.125442
_cell_length_c 23.991417
_cell_angle_alpha 90.000000
_cell_angle_beta 90.000000
_cell_angle_gamma 90.000000
_cell_volume 2332.108121
_symmetry_space_group_name_H-M "P M N A"
_symmetry_group_IT_number 53
_symmetry_cell_setting 'orthorhombic'
loop_
_space_group_symop_operation_xyz
x,y,z
1/2-x,-y,1/2+z
x,-y,-z
1/2-x,y,1/2-z
-x,-y,-z
1/2+x,y,1/2-z
-x,y,z
1/2+x,-y,1/2+z
loop_
_atom_site_type_symbol
_atom_site_label
_atom_site_fract_x
_atom_site_fract_y
_atom_site_fract_z
Si Si1 0.183599 0.177286 0.687903
Si Si2 0.682978 0.194958 0.476749
Si Si3 0.683390 0.690138 0.412952
Si Si4 0.317145 0.565534 0.920266
Si Si5 0.818093 0.305211 0.310103
Si Si6 0.815377 0.066647 0.375817
O O1 0.250000 0.182838 0.750000
O O2 0.245629 0.279694 0.646760
O O3 0.000000 0.181802 0.690566
O O4 0.229973 0.053365 0.656699
O O5 0.500000 0.188396 0.473651
O O6 0.727331 0.207618 0.541627
O O7 0.741745 0.320907 0.450666
O O8 0.751012 0.091219 0.437582
O O9 0.500000 0.685505 0.409766
O O10 0.746815 0.562714 0.434303
O O11 0.500000 0.567075 0.929981
O O12 0.287264 0.591056 0.854847
O O13 0.750000 0.326031 0.250000
O O14 0.763839 0.180325 0.338100
O O15 0.000000 0.294653 0.304609
O O16 0.000000 0.069397 0.379666
#
# Coordination Sequence:
#
# PCOD9418505 Si02
#       6
#     8   8   8   8   8   8
#     4  11  24  42  63  86 115 154 197 238 284 339
#     4  10  21  37  60  89 118 149 188 238 293 345
#     4  11  24  40  58  84 118 154 194 238 286 344
#     4  10  21  37  57  83 116 153 194 240 292 349
#     4   9  18  32  52  80 110 141 182 232 284 336
#     4   9  20  38  59  85 115 147 188 237 288 345
#
# _framework density 20.582236999999999
#
# number of rings (size 3 to 8) (size 9 to 14) (size 15 to 20)
#    0.000    2.000    0.000    4.000    0.000   10.667 
#    0.000    5.000    0.000    0.000    0.000    0.000 
#    0.000    0.000    0.000    0.000    0.000    0.000 
#
# Total GULP energy -268154.770193 kJ/mol
# GULP energy per Si atom -5586.557712 kJ/mol
# Density = 2.053539 g / cm^3
# Si number density = 20.582237 Si / 1000 Ang^3
#
#
#
# Elastic Constant Matrix: (Units=GPa)
#
#
# Indices 1 2 3 4 5 6 
#
# 1 17.4700 1.6846 15.1752 0.0000 0.0000 0.0000
# 2 1.6846 52.1373 8.9905 0.0000 0.0000 0.0000
# 3 15.1752 8.9905 108.1230 0.0000 0.0000 0.0000
# 4 0.0000 0.0000 0.0000 22.0506 0.0000 0.0000
# 5 0.0000 0.0000 0.0000 0.0000 28.9116 0.0000
# 6 0.0000 0.0000 0.0000 0.0000 0.0000 28.6302
#
#
#
# Elastic Compliance Matrix: (Units=1/GPa)
#
#
# Indices 1 2 3 4 5 6 
#
# 1 0.065203 -0.000536 -0.009107 0.000000 0.000000 0.000000
# 2 -0.000536 0.019464 -0.001543 0.000000 0.000000 0.000000
# 3 -0.009107 -0.001543 0.010655 0.000000 0.000000 0.000000
# 4 0.000000 0.000000 0.000000 0.045350 0.000000 0.000000
# 5 0.000000 0.000000 0.000000 0.000000 0.034588 0.000000
# 6 0.000000 0.000000 0.000000 0.000000 0.000000 0.034928
#
#
# Mechanical properties :
#
#
# Convention : Reuss Voigt Hill
#
# Bulk Modulus (GPa) = 13.70810 25.49231 19.60020
# Shear Modulus (GPa) = 19.46452 26.04381 22.75416
#
# Velocity S-wave (km/s) = 3.07855 3.56104 3.32855
# Velocity P-wave (km/s) = 4.39446 5.41484 4.93111
#
# Compressibility (1/GPa) = 0.07294957
#
# Stress axis : x y z
#
# Youngs Moduli (GPa) = 15.33663 51.37812 93.85100
#
# Poissons Ratio (x) = 0.02756 0.85468
# Poissons Ratio (y) = 0.00823 0.14482
# Poissons Ratio (z) = 0.13967 0.07928
#
# Static dielectric constant tensor:
#      x y z
#    x 1.685650 0.000000 0.000000 
#    y 0.000000 1.751800 0.000000 
#    z 0.000000 0.000000 1.746060 
# 
# From -- ./inp_files/33918.got.cif
#   From: 2010.05.17/outbox.cif.g08.bks.cpg/sg53_17_cif.got.tgz:33918.got - 2010.06.03 12:45:16.
