data_PCOD9418535
_publ_section_title
;
Structure prediction by ZEFSAII (Michael W. Deem and Ramdas Pophale) SiO2 
 PCOD9418535
Probable space group: P M N A
;
_chemical_formula_sum "Si O2"
_cell_formula_units_Z 64
_cell_length_a 8.985917
_cell_length_b 14.528329
_cell_length_c 26.031365
_cell_angle_alpha 90.000000
_cell_angle_beta 90.000000
_cell_angle_gamma 90.000000
_cell_volume 3398.404034
_symmetry_space_group_name_H-M "P M N A"
_symmetry_group_IT_number 53
_symmetry_cell_setting 'orthorhombic'
loop_
_space_group_symop_operation_xyz
x,y,z
1/2-x,-y,1/2+z
x,-y,-z
1/2-x,y,1/2-z
-x,-y,-z
1/2+x,y,1/2-z
-x,y,z
1/2+x,-y,1/2+z
loop_
_atom_site_type_symbol
_atom_site_label
_atom_site_fract_x
_atom_site_fract_y
_atom_site_fract_z
Si Si1 0.322743 0.801354 0.194585
Si Si2 0.321996 0.421328 0.363193
Si Si3 0.322788 0.586909 0.194386
Si Si4 0.321504 0.763365 0.695301
Si Si5 0.677823 0.404190 0.027166
Si Si6 0.177149 0.794650 0.493249
Si Si7 0.822909 0.095683 0.899785
Si Si8 0.678082 0.122064 0.405308
O O1 0.250000 0.818740 0.250000
O O2 0.500000 0.813858 0.197564
O O3 0.294096 0.693795 0.181189
O O4 0.252806 0.865071 0.151269
O O5 0.500000 0.429511 0.363229
O O6 0.247493 0.515891 0.345307
O O7 0.280302 0.339093 0.324123
O O8 0.264454 0.395510 0.419523
O O9 0.250000 0.569690 0.250000
O O10 0.500000 0.573681 0.197365
O O11 0.250000 0.784515 0.750000
O O12 0.500000 0.766710 0.700386
O O13 0.279715 0.832539 0.649175
O O14 0.500000 0.405183 0.037651
O O15 0.716981 0.500000 0.000000
O O16 0.708189 0.314770 0.992453
O O17 0.258119 0.849619 0.448288
O O18 0.234763 0.831579 0.547947
O O19 0.000000 0.807825 0.488859
O O20 0.000000 0.108975 0.896974
O O21 0.794436 0.986912 0.905292
O O22 0.500000 0.137473 0.412438
#
# Coordination Sequence:
#
# PCOD9418535 Si02
#       8
#     8   8   8   8   8   8   8   8
#     4  10  22  41  63  88 123 161 200 250 303 358
#     4  11  22  37  60  88 119 157 200 247 295 357
#     4  10  21  37  58  84 117 155 195 240 290 348
#     4  10  22  39  60  87 121 158 201 248 300 362
#     4  10  23  41  60  86 122 161 197 242 302 361
#     4  11  23  40  64  92 122 158 202 251 303 361
#     4  11  24  40  64  91 120 160 203 251 306 365
#     4  10  22  43  63  86 121 160 201 252 310 361
#
# _framework density 18.832369
#
# number of rings (size 3 to 8) (size 9 to 14) (size 15 to 20)
#    0.000    1.625    1.250    2.625    1.750    7.750 
#    0.000    1.250    0.000    0.000    0.000    0.000 
#    0.000    0.000    0.000    0.000    0.000    0.000 
#
# Total GULP energy -357749.268229 kJ/mol
# GULP energy per Si atom -5589.832316 kJ/mol
# Density = 1.878951 g / cm^3
# Si number density = 18.832369 Si / 1000 Ang^3
#
#
#
# Elastic Constant Matrix: (Units=GPa)
#
#
# Indices 1 2 3 4 5 6 
#
# 1 52.0783 59.9548 39.4437 0.0000 0.0000 0.0000
# 2 59.9548 111.3906 60.3606 0.0000 0.0000 0.0000
# 3 39.4437 60.3606 97.6675 0.0000 0.0000 0.0000
# 4 0.0000 0.0000 0.0000 -1.0144 0.0000 0.0000
# 5 0.0000 0.0000 0.0000 0.0000 39.1093 0.0000
# 6 0.0000 0.0000 0.0000 0.0000 0.0000 26.0938
#
#
#
# Elastic Compliance Matrix: (Units=1/GPa)
#
#
# Indices 1 2 3 4 5 6 
#
# 1 0.052456 -0.025191 -0.005617 0.000000 0.000000 0.000000
# 2 -0.025191 0.025595 -0.005645 0.000000 0.000000 0.000000
# 3 -0.005617 -0.005645 0.015996 0.000000 0.000000 0.000000
# 4 0.000000 0.000000 0.000000 -0.985816 0.000000 0.000000
# 5 0.000000 0.000000 0.000000 0.000000 0.025569 0.000000
# 6 0.000000 0.000000 0.000000 0.000000 0.000000 0.038323
#
#
# Mechanical properties :
#
#
# Convention : Reuss Voigt Hill
#
# Bulk Modulus (GPa) = 47.29682 64.51720 55.90701
# Shear Modulus (GPa) = -6.68516 19.59621 6.45553
#
# Velocity S-wave (km/s) = -1.88614 3.22927 1.85346
# Velocity P-wave (km/s) = 4.51949 6.94531 5.85931
#
# Compressibility (1/GPa) = 0.02114307
#
# Stress axis : x y z
#
# Youngs Moduli (GPa) = 19.06347 39.07051 62.51687
#
# Poissons Ratio (x) = 0.98421 0.35113
# Poissons Ratio (y) = 0.48022 0.35289
# Poissons Ratio (z) = 0.10707 0.22054
#
# Static dielectric constant tensor:
#      x y z
#    x 1.628790 0.000000 0.000000 
#    y 0.000000 1.653110 0.000000 
#    z 0.000000 0.000000 1.619730 
# 
# From -- ./inp_files/34178.got.cif
#   From: 2010.05.17/outbox.cif.g08.bks.cpg/sg53_18_cif.got.tgz:34178.got - 2010.06.03 12:45:16.
