data_PCOD9418362
_publ_section_title
;
Structure prediction by ZEFSAII (Michael W. Deem and Ramdas Pophale) SiO2 
 PCOD9418362
Probable space group: P M N A
;
_chemical_formula_sum "Si O2"
_cell_formula_units_Z 48
_cell_length_a 18.382133
_cell_length_b 27.857989
_cell_length_c 5.067201
_cell_angle_alpha 90.000000
_cell_angle_beta 90.000000
_cell_angle_gamma 90.000000
_cell_volume 2594.859205
_symmetry_space_group_name_H-M "P M N A"
_symmetry_group_IT_number 53
_symmetry_cell_setting 'orthorhombic'
loop_
_space_group_symop_operation_xyz
x,y,z
1/2-x,-y,1/2+z
x,-y,-z
1/2-x,y,1/2-z
-x,-y,-z
1/2+x,y,1/2-z
-x,y,z
1/2+x,-y,1/2+z
loop_
_atom_site_type_symbol
_atom_site_label
_atom_site_fract_x
_atom_site_fract_y
_atom_site_fract_z
Si Si1 0.697950 0.555132 0.500032
Si Si2 0.085870 0.297244 0.584677
Si Si3 0.914027 0.639179 0.912496
Si Si4 0.698996 0.894271 0.998317
Si Si5 0.418538 0.966274 0.251434
Si Si6 0.300514 0.785421 0.991001
O O1 0.670851 0.500000 0.500000
O O2 0.750000 0.562490 0.250000
O O3 0.633707 0.593289 0.517119
O O4 0.750000 0.561054 0.750000
O O5 0.104128 0.338468 0.371615
O O6 0.133306 0.250477 0.533131
O O7 0.000000 0.286848 0.556747
O O8 0.099253 0.319305 0.872217
O O9 0.000000 0.627680 0.919207
O O10 0.750000 0.889475 0.250000
O O11 0.634716 0.926352 0.125211
O O12 0.674559 0.840125 0.927574
O O13 0.750000 0.912136 0.750000
O O14 0.500000 0.948075 0.326820
O O15 0.392774 0.000000 0.500000
O O16 0.426534 0.000000 0.000000
O O17 0.250000 0.785480 0.250000
O O18 0.250000 0.769101 0.750000
#
# Coordination Sequence:
#
# PCOD9418362 Si02
#       6
#     8   8   8   8   8   8
#     4  10  21  36  54  78 106 137 177 222 268 322
#     4  10  21  36  54  79 109 140 179 223 267 321
#     4  10  21  36  54  78 107 139 177 221 268 321
#     4  10  21  37  56  81 112 144 182 226 271 324
#     4  10  21  37  57  82 111 143 182 226 271 323
#     4  10  21  36  55  80 109 142 181 223 267 320
#
# _framework density 18.498114000000001
#
# number of rings (size 3 to 8) (size 9 to 14) (size 15 to 20)
#    0.000    2.000    0.000    3.000    0.000    6.333 
#    0.000    0.000    0.000   18.000    0.000    0.000 
#    0.000    0.000    0.000    0.000    0.000    0.000 
#
# Total GULP energy -267520.968325 kJ/mol
# GULP energy per Si atom -5573.353507 kJ/mol
# Density = 1.845601 g / cm^3
# Si number density = 18.498114 Si / 1000 Ang^3
#
#
#
# Elastic Constant Matrix: (Units=GPa)
#
#
# Indices 1 2 3 4 5 6 
#
# 1 68.6878 64.3271 6.1898 0.0000 0.0000 0.0000
# 2 64.3271 83.7418 -3.6539 0.0000 0.0000 0.0000
# 3 6.1898 -3.6539 99.0946 0.0000 0.0000 0.0000
# 4 0.0000 0.0000 0.0000 30.9370 0.0000 0.0000
# 5 0.0000 0.0000 0.0000 0.0000 20.2375 0.0000
# 6 0.0000 0.0000 0.0000 0.0000 0.0000 -144.2259
#
#
#
# Elastic Compliance Matrix: (Units=1/GPa)
#
#
# Indices 1 2 3 4 5 6 
#
# 1 0.054182 -0.041836 -0.004927 0.000000 0.000000 0.000000
# 2 -0.041836 0.044263 0.004245 0.000000 0.000000 0.000000
# 3 -0.004927 0.004245 0.010556 0.000000 0.000000 0.000000
# 4 0.000000 0.000000 0.000000 0.032324 0.000000 0.000000
# 5 0.000000 0.000000 0.000000 0.000000 0.049413 0.000000
# 6 0.000000 0.000000 0.000000 0.000000 0.000000 -0.006934
#
#
# Mechanical properties :
#
#
# Convention : Reuss Voigt Hill
#
# Bulk Modulus (GPa) = 41.72506 42.80560 42.26533
# Shear Modulus (GPa) = 18.06177 -6.29952 5.88112
#
# Velocity S-wave (km/s) = 3.12815 -1.84740 1.78500
# Velocity P-wave (km/s) = 5.97097 4.31743 5.21021
#
# Compressibility (1/GPa) = 0.02396641
#
# Stress axis : x y z
#
# Youngs Moduli (GPa) = 18.45622 22.59217 94.73586
#
# Poissons Ratio (x) = 0.94516 0.46677
# Poissons Ratio (y) = 0.77213 -0.40218
# Poissons Ratio (z) = 0.09093 -0.09591
#
# Static dielectric constant tensor:
#      x y z
#    x 1.638030 0.000000 0.000000 
#    y 0.000000 1.659410 0.000000 
#    z 0.000000 0.000000 1.631200 
# 
# From -- ./inp_files/1436.got.cif
#   From: 2010.05.17/outbox.cif.g08.bks.cpg/sg53_1_cif.got.tgz:1436.got - 2010.06.03 12:45:16.
