data_PCOD9418032
_publ_section_title
;
Structure prediction by ZEFSAII (Michael W. Deem and Ramdas Pophale) SiO2 
 PCOD9418032
Probable space group: P M N A
;
_chemical_formula_sum "Si O2"
_cell_formula_units_Z 56
_cell_length_a 17.314666
_cell_length_b 11.157068
_cell_length_c 14.506295
_cell_angle_alpha 90.000000
_cell_angle_beta 90.000000
_cell_angle_gamma 90.000000
_cell_volume 2802.339210
_symmetry_space_group_name_H-M "P M N A"
_symmetry_group_IT_number 53
_symmetry_cell_setting 'orthorhombic'
loop_
_space_group_symop_operation_xyz
x,y,z
1/2-x,-y,1/2+z
x,-y,-z
1/2-x,y,1/2-z
-x,-y,-z
1/2+x,y,1/2-z
-x,y,z
1/2+x,-y,1/2+z
loop_
_atom_site_type_symbol
_atom_site_label
_atom_site_fract_x
_atom_site_fract_y
_atom_site_fract_z
Si Si1 0.347648 0.364673 0.996090
Si Si2 0.091350 0.821588 0.085588
Si Si3 0.588697 0.192222 0.374435
Si Si4 0.277171 0.634303 0.655153
Si Si5 0.714239 0.359865 0.655963
Si Si6 0.341364 0.989772 0.258397
Si Si7 0.908468 0.891943 0.432114
O O1 0.284481 0.364020 0.915137
O O2 0.392917 0.240588 0.975482
O O3 0.385026 0.500000 0.000000
O O4 0.295452 0.356632 0.087393
O O5 0.140439 0.702245 0.109570
O O6 0.135062 0.911766 0.153007
O O7 0.000000 0.811658 0.108847
O O8 0.094809 0.860660 0.978516
O O9 0.500000 0.227772 0.362162
O O10 0.648539 0.299413 0.381418
O O11 0.614122 0.111254 0.287540
O O12 0.250000 0.691088 0.750000
O O13 0.302979 0.498524 0.674962
O O14 0.750000 0.304057 0.750000
O O15 0.250000 0.009092 0.250000
O O16 0.369592 0.921553 0.166350
O O17 0.000000 0.902534 0.418855
O O18 0.882746 0.000000 0.500000
#
# Coordination Sequence:
#
# PCOD9418032 Si02
#       7
#     8   8   8   8   8   8   8
#     4  10  21  41  67  93 128 170 222 274 316 387
#     4  11  22  38  63  93 127 163 205 265 332 390
#     4  11  24  40  62  93 127 162 205 264 334 395
#     4  10  22  39  62  91 126 168 216 265 317 381
#     4  10  20  38  61  92 127 166 216 264 315 379
#     4  12  26  41  65  90 123 167 214 265 320 393
#     4  11  26  44  64  94 133 172 215 271 328 386
#
# _framework density 19.983305999999999
#
# number of rings (size 3 to 8) (size 9 to 14) (size 15 to 20)
#    0.000    1.286    1.429    4.286    4.000    2.000 
#    0.000    1.429    0.000    5.143    0.000    0.000 
#    0.000    0.000    0.000    0.000    0.000    0.000 
#
# Total GULP energy -312105.189823 kJ/mol
# GULP energy per Si atom -5573.306961 kJ/mol
# Density = 1.993782 g / cm^3
# Si number density = 19.983306 Si / 1000 Ang^3
#
#
#
# Elastic Constant Matrix: (Units=GPa)
#
#
# Indices 1 2 3 4 5 6 
#
# 1 76.2834 1.9051 26.8226 0.0000 0.0000 0.0000
# 2 1.9051 42.0911 10.6151 0.0000 0.0000 0.0000
# 3 26.8226 10.6151 104.9659 0.0000 0.0000 0.0000
# 4 0.0000 0.0000 0.0000 28.9893 0.0000 0.0000
# 5 0.0000 0.0000 0.0000 0.0000 27.0533 0.0000
# 6 0.0000 0.0000 0.0000 0.0000 0.0000 16.4877
#
#
#
# Elastic Compliance Matrix: (Units=1/GPa)
#
#
# Indices 1 2 3 4 5 6 
#
# 1 0.014406 0.000284 -0.003710 0.000000 0.000000 0.000000
# 2 0.000284 0.024385 -0.002539 0.000000 0.000000 0.000000
# 3 -0.003710 -0.002539 0.010732 0.000000 0.000000 0.000000
# 4 0.000000 0.000000 0.000000 0.034496 0.000000 0.000000
# 5 0.000000 0.000000 0.000000 0.000000 0.036964 0.000000
# 6 0.000000 0.000000 0.000000 0.000000 0.000000 0.060651
#
#
# Mechanical properties :
#
#
# Convention : Reuss Voigt Hill
#
# Bulk Modulus (GPa) = 26.60034 33.55845 30.07939
# Shear Modulus (GPa) = 24.26058 26.77256 25.51657
#
# Velocity S-wave (km/s) = 3.48809 3.66423 3.57724
# Velocity P-wave (km/s) = 5.43715 5.89337 5.66985
#
# Compressibility (1/GPa) = 0.03759351
#
# Stress axis : x y z
#
# Youngs Moduli (GPa) = 69.41329 41.00823 93.18201
#
# Poissons Ratio (x) = -0.01163 0.34571
# Poissons Ratio (y) = -0.01969 0.23655
# Poissons Ratio (z) = 0.25753 0.10410
#
# Static dielectric constant tensor:
#      x y z
#    x 1.656810 0.000000 0.000000 
#    y 0.000000 1.839870 0.000000 
#    z 0.000000 0.000000 1.718060 
# 
# From -- ./inp_files/22772.got.cif
#   From: 2010.05.17/outbox.cif.g08.bks.cpg/sg53_12_cif.got.tgz:22772.got - 2010.06.03 12:45:16.
