data_PCOD9418871
_publ_section_title
;
Structure prediction by ZEFSAII (Michael W. Deem and Ramdas Pophale) SiO2 
 PCOD9418871
Probable space group: P M N A
;
_chemical_formula_sum "Si O2"
_cell_formula_units_Z 34
_cell_length_a 14.457660
_cell_length_b 21.496138
_cell_length_c 5.052493
_cell_angle_alpha 90.000000
_cell_angle_beta 90.000000
_cell_angle_gamma 90.000000
_cell_volume 1570.233249
_symmetry_space_group_name_H-M "P M N A"
_symmetry_group_IT_number 53
_symmetry_cell_setting 'orthorhombic'
loop_
_space_group_symop_operation_xyz
x,y,z
1/2-x,-y,1/2+z
x,-y,-z
1/2-x,y,1/2-z
-x,-y,-z
1/2+x,y,1/2-z
-x,y,z
1/2+x,-y,1/2+z
loop_
_atom_site_type_symbol
_atom_site_label
_atom_site_fract_x
_atom_site_fract_y
_atom_site_fract_z
Si Si1 0.500000 0.147275 0.918258
Si Si2 0.183229 0.307877 0.000675
Si Si3 0.359666 0.043075 0.753271
Si Si4 0.000000 0.771972 0.934694
Si Si5 0.144228 0.444341 0.813562
Si Si6 0.000000 0.500000 0.500000
O O1 0.413816 0.106018 0.815599
O O2 0.500000 0.207751 0.739994
O O3 0.500000 0.170278 0.223045
O O4 0.250000 0.313171 0.250000
O O5 0.096520 0.265188 0.084867
O O6 0.250000 0.288786 0.750000
O O7 0.143485 0.376165 0.933946
O O8 0.250000 0.055346 0.750000
O O9 0.383374 0.000000 0.500000
O O10 0.381767 0.000000 0.000000
O O11 0.250000 0.459076 0.750000
O O12 0.080964 0.448155 0.558040
O O13 0.105654 0.500000 0.000000
#
# Coordination Sequence:
#
# PCOD9418871 Si02
#       6
#     4   8   8   4   8   2
#     4  12  24  41  69  97 142 182 230 293 332 399
#     4  11  26  48  73  97 140 186 232 300 353 417
#     4  10  21  39  65 101 138 178 226 279 348 411
#     4  12  27  46  66 104 135 188 253 277 338 419
#     4  11  23  43  68 101 135 171 229 286 367 437
#     4  12  24  38  68 100 138 174 202 288 354 440
#
# _framework density 21.652832
#
# number of rings (size 3 to 8) (size 9 to 14) (size 15 to 20)
#    0.000    0.941    1.176    5.294    3.294    2.824 
#    4.235    0.000    0.000    0.000    0.000    0.000 
#    0.000    0.000    0.000    0.000    0.000    0.000 
#
# Total GULP energy -189358.007951 kJ/mol
# GULP energy per Si atom -5569.353175 kJ/mol
# Density = 2.160355 g / cm^3
# Si number density = 21.652832 Si / 1000 Ang^3
#
#
#
# Elastic Constant Matrix: (Units=GPa)
#
#
# Indices 1 2 3 4 5 6 
#
# 1 147.5032 45.9295 23.9734 0.0000 0.0000 0.0000
# 2 45.9295 67.1054 15.0076 0.0000 0.0000 0.0000
# 3 23.9734 15.0076 113.5509 0.0000 0.0000 0.0000
# 4 0.0000 0.0000 0.0000 37.7215 0.0000 0.0000
# 5 0.0000 0.0000 0.0000 0.0000 3.3685 0.0000
# 6 0.0000 0.0000 0.0000 0.0000 0.0000 36.4785
#
#
#
# Elastic Compliance Matrix: (Units=1/GPa)
#
#
# Indices 1 2 3 4 5 6 
#
# 1 0.008744 -0.005742 -0.001087 0.000000 0.000000 0.000000
# 2 -0.005742 0.019126 -0.001316 0.000000 0.000000 0.000000
# 3 -0.001087 -0.001316 0.009210 0.000000 0.000000 0.000000
# 4 0.000000 0.000000 0.000000 0.026510 0.000000 0.000000
# 5 0.000000 0.000000 0.000000 0.000000 0.296865 0.000000
# 6 0.000000 0.000000 0.000000 0.000000 0.000000 0.027413
#
#
# Mechanical properties :
#
#
# Convention : Reuss Voigt Hill
#
# Bulk Modulus (GPa) = 48.09746 55.33116 51.71431
# Shear Modulus (GPa) = 12.16284 31.73030 21.94657
#
# Velocity S-wave (km/s) = 2.37264 3.83222 3.18711
# Velocity P-wave (km/s) = 5.45592 6.72239 6.12199
#
# Compressibility (1/GPa) = 0.02079112
#
# Stress axis : x y z
#
# Youngs Moduli (GPa) = 114.36362 52.28502 108.57707
#
# Poissons Ratio (x) = 0.30020 0.11805
# Poissons Ratio (y) = 0.65663 0.14285
# Poissons Ratio (z) = 0.12434 0.06879
#
# Static dielectric constant tensor:
#      x y z
#    x 1.775170 0.000000 0.000000 
#    y 0.000000 1.690850 0.000000 
#    z 0.000000 0.000000 1.933990 
# 
# From -- ./inp_files/1367.got.cif
#   From: 2010.05.17/outbox.cif.g08.bks.cpg/sg53_1_cif.got.tgz:1367.got - 2010.06.03 12:45:16.
