data_PCOD9418981
_publ_section_title
;
Structure prediction by ZEFSAII (Michael W. Deem and Ramdas Pophale) SiO2 
 PCOD9418981
Probable space group: P M N A
;
_chemical_formula_sum "Si O2"
_cell_formula_units_Z 48
_cell_length_a 29.976062
_cell_length_b 9.617920
_cell_length_c 9.174216
_cell_angle_alpha 90.000000
_cell_angle_beta 90.000000
_cell_angle_gamma 90.000000
_cell_volume 2644.994052
_symmetry_space_group_name_H-M "P M N A"
_symmetry_group_IT_number 53
_symmetry_cell_setting 'orthorhombic'
loop_
_space_group_symop_operation_xyz
x,y,z
1/2-x,-y,1/2+z
x,-y,-z
1/2-x,y,1/2-z
-x,-y,-z
1/2+x,y,1/2-z
-x,y,z
1/2+x,-y,1/2+z
loop_
_atom_site_type_symbol
_atom_site_label
_atom_site_fract_x
_atom_site_fract_y
_atom_site_fract_z
Si Si1 0.500000 0.901865 0.862748
Si Si2 0.203163 0.014189 0.674107
Si Si3 0.405691 0.522632 0.675835
Si Si4 0.349481 0.796354 0.644120
Si Si5 0.571926 0.015017 0.651561
Si Si6 0.500000 0.428842 0.158278
Si Si7 0.360438 0.759618 0.313534
O O1 0.543324 0.950523 0.776673
O O2 0.500000 0.736566 0.872470
O O3 0.500000 0.000000 0.000000
O O4 0.250000 0.048062 0.750000
O O5 0.169081 0.140924 0.711267
O O6 0.206751 0.000000 0.500000
O O7 0.186604 0.869001 0.750533
O O8 0.412000 0.500000 0.500000
O O9 0.376853 0.662828 0.699200
O O10 0.454247 0.533023 0.753241
O O11 0.373746 0.396396 0.728381
O O12 0.385076 0.919439 0.632459
O O13 0.337509 0.763626 0.474916
O O14 0.546913 0.000000 0.500000
O O15 0.590717 0.167780 0.676360
O O16 0.500000 0.500000 0.000000
#
# Coordination Sequence:
#
# PCOD9418981 Si02
#       7
#     4   8   8   8   8   4   8
#     4  12  25  36  50  76 116 154 197 248 292 340
#     4  11  22  38  63  91 121 152 188 235 289 347
#     4  10  21  41  64  83 113 159 201 240 292 353
#     4   9  18  38  60  86 113 145 194 239 291 342
#     4   9  18  35  57  78 104 145 196 244 285 337
#     4  12  27  40  52  82 124 160 201 256 294 342
#     4   9  20  36  62  87 112 146 192 241 289 352
#
# _framework density 18.147489
#
# number of rings (size 3 to 8) (size 9 to 14) (size 15 to 20)
#    0.000    2.000    1.667    3.000    2.333    4.000 
#    0.000    0.833    0.000    0.000    0.000    0.000 
#    0.000    0.000    0.000    0.000    0.000    0.000 
#
# Total GULP energy -267203.296111 kJ/mol
# GULP energy per Si atom -5566.735336 kJ/mol
# Density = 1.810618 g / cm^3
# Si number density = 18.147489 Si / 1000 Ang^3
#
#
#
# Elastic Constant Matrix: (Units=GPa)
#
#
# Indices 1 2 3 4 5 6 
#
# 1 75.2964 29.1992 44.3509 0.0000 0.0000 0.0000
# 2 29.1992 120.2514 39.0376 0.0000 0.0000 0.0000
# 3 44.3509 39.0376 113.1576 0.0000 0.0000 0.0000
# 4 0.0000 0.0000 0.0000 22.4209 0.0000 0.0000
# 5 0.0000 0.0000 0.0000 0.0000 22.8348 0.0000
# 6 0.0000 0.0000 0.0000 0.0000 0.0000 -50.7788
#
#
#
# Elastic Compliance Matrix: (Units=1/GPa)
#
#
# Indices 1 2 3 4 5 6 
#
# 1 0.017824 -0.002320 -0.006186 0.000000 0.000000 0.000000
# 2 -0.002320 0.009667 -0.002426 0.000000 0.000000 0.000000
# 3 -0.006186 -0.002426 0.012098 0.000000 0.000000 0.000000
# 4 0.000000 0.000000 0.000000 0.044601 0.000000 0.000000
# 5 0.000000 0.000000 0.000000 0.000000 0.043793 0.000000
# 6 0.000000 0.000000 0.000000 0.000000 0.000000 -0.019693
#
#
# Mechanical properties :
#
#
# Convention : Reuss Voigt Hill
#
# Bulk Modulus (GPa) = 56.41166 59.32008 57.86587
# Shear Modulus (GPa) = 36.74831 11.96989 24.35910
#
# Velocity S-wave (km/s) = 4.50486 2.57103 3.66770
# Velocity P-wave (km/s) = 7.62961 6.44766 7.06340
#
# Compressibility (1/GPa) = 0.01772683
#
# Stress axis : x y z
#
# Youngs Moduli (GPa) = 56.10448 103.44843 82.65572
#
# Poissons Ratio (x) = 0.23999 0.51127
# Poissons Ratio (y) = 0.13016 0.20049
# Poissons Ratio (z) = 0.34704 0.25092
#
# Static dielectric constant tensor:
#      x y z
#    x 1.626250 0.000000 0.000000 
#    y 0.000000 1.597850 0.000000 
#    z 0.000000 0.000000 1.662780 
# 
# From -- ./inp_files/13113.got.cif
#   From: 2010.05.17/outbox.cif.g08.bks.cpg/sg53_7_cif.got.tgz:13113.got - 2010.06.03 12:45:16.
