data_PCOD9418605
_publ_section_title
;
Structure prediction by ZEFSAII (Michael W. Deem and Ramdas Pophale) SiO2 
 PCOD9418605
Probable space group: P M N A
;
_chemical_formula_sum "Si O2"
_cell_formula_units_Z 44
_cell_length_a 15.372721
_cell_length_b 5.227182
_cell_length_c 25.425912
_cell_angle_alpha 90.000000
_cell_angle_beta 90.000000
_cell_angle_gamma 90.000000
_cell_volume 2043.124852
_symmetry_space_group_name_H-M "P M N A"
_symmetry_group_IT_number 53
_symmetry_cell_setting 'orthorhombic'
loop_
_space_group_symop_operation_xyz
x,y,z
1/2-x,-y,1/2+z
x,-y,-z
1/2-x,y,1/2-z
-x,-y,-z
1/2+x,y,1/2-z
-x,y,z
1/2+x,-y,1/2+z
loop_
_atom_site_type_symbol
_atom_site_label
_atom_site_fract_x
_atom_site_fract_y
_atom_site_fract_z
Si Si1 0.352225 0.171579 0.738153
Si Si2 0.903941 0.886948 0.435293
Si Si3 0.262236 0.725115 0.894413
Si Si4 0.815890 0.500000 0.500000
Si Si5 0.101090 0.678345 0.826037
Si Si6 0.907715 0.521250 0.336423
O O1 0.250000 0.152024 0.750000
O O2 0.370738 0.400543 0.696462
O O3 0.397421 0.270941 0.791087
O O4 0.386205 0.899863 0.717656
O O5 0.878120 0.740765 0.488654
O O6 0.912300 0.660509 0.392373
O O7 0.000000 0.010503 0.435989
O O8 0.821054 0.041652 0.414449
O O9 0.165792 0.758682 0.873025
O O10 0.319038 0.634800 0.843645
O O11 0.262101 0.546551 0.946650
O O12 0.000000 0.667666 0.840776
O O13 0.000000 0.380160 0.328117
#
# Coordination Sequence:
#
# PCOD9418605 Si02
#       6
#     8   8   8   4   8   8
#     4  12  24  45  68 102 138 183 226 283 339 407
#     4  10  21  38  63  96 134 172 218 279 348 418
#     4  11  23  41  63  93 130 176 226 282 345 406
#     4  10  23  40  63  94 128 172 227 288 353 412
#     4  12  27  45  69 100 141 185 234 284 339 404
#     4  10  21  37  60  94 132 171 218 268 331 408
#
# _framework density 21.535639
#
# number of rings (size 3 to 8) (size 9 to 14) (size 15 to 20)
#    0.000    1.091    1.818    4.636    5.091    2.909 
#    0.000    0.455    0.000    2.182    0.000    0.000 
#    0.000    0.000    0.000    0.000    0.000    0.000 
#
# Total GULP energy -245724.900974 kJ/mol
# GULP energy per Si atom -5584.656840 kJ/mol
# Density = 2.148662 g / cm^3
# Si number density = 21.535639 Si / 1000 Ang^3
#
#
#
# Elastic Constant Matrix: (Units=GPa)
#
#
# Indices 1 2 3 4 5 6 
#
# 1 190.0991 14.6845 30.2417 0.0000 0.0000 0.0000
# 2 14.6845 54.0984 -14.2380 0.0000 0.0000 0.0000
# 3 30.2417 -14.2380 68.6500 0.0000 0.0000 0.0000
# 4 0.0000 0.0000 0.0000 33.4157 0.0000 0.0000
# 5 0.0000 0.0000 0.0000 0.0000 -15.8135 0.0000
# 6 0.0000 0.0000 0.0000 0.0000 0.0000 23.9229
#
#
#
# Elastic Compliance Matrix: (Units=1/GPa)
#
#
# Indices 1 2 3 4 5 6 
#
# 1 0.005946 -0.002436 -0.003124 0.000000 0.000000 0.000000
# 2 -0.002436 0.020550 0.005335 0.000000 0.000000 0.000000
# 3 -0.003124 0.005335 0.017050 0.000000 0.000000 0.000000
# 4 0.000000 0.000000 0.000000 0.029926 0.000000 0.000000
# 5 0.000000 0.000000 0.000000 0.000000 -0.063237 0.000000
# 6 0.000000 0.000000 0.000000 0.000000 0.000000 0.041801
#
#
# Mechanical properties :
#
#
# Convention : Reuss Voigt Hill
#
# Bulk Modulus (GPa) = 23.20464 41.58043 32.39254
# Shear Modulus (GPa) = 74.79319 27.11565 50.95442
#
# Velocity S-wave (km/s) = 5.89961 3.55224 4.86948
# Velocity P-wave (km/s) = 7.56343 6.01450 6.83300
#
# Compressibility (1/GPa) = 0.04309483
#
# Stress axis : x y z
#
# Youngs Moduli (GPa) = 168.19021 48.66114 58.65255
#
# Poissons Ratio (x) = 0.11855 0.18326
# Poissons Ratio (y) = 0.40974 -0.31293
# Poissons Ratio (z) = 0.52550 -0.25962
#
# Static dielectric constant tensor:
#      x y z
#    x 1.805910 0.000000 0.000000 
#    y 0.000000 1.872160 0.000000 
#    z 0.000000 0.000000 1.817610 
# 
# From -- ./inp_files/36936.got.cif
#   From: 2010.05.17/outbox.cif.g08.bks.cpg/sg53_19_cif.got.tgz:36936.got - 2010.06.03 12:45:16.
