data_PCOD9418240
_publ_section_title
;
Structure prediction by ZEFSAII (Michael W. Deem and Ramdas Pophale) SiO2 
 PCOD9418240
Probable space group: P M N A
;
_chemical_formula_sum "Si O2"
_cell_formula_units_Z 32
_cell_length_a 15.093426
_cell_length_b 11.676763
_cell_length_c 7.818870
_cell_angle_alpha 90.000000
_cell_angle_beta 90.000000
_cell_angle_gamma 90.000000
_cell_volume 1378.016088
_symmetry_space_group_name_H-M "P M N A"
_symmetry_group_IT_number 53
_symmetry_cell_setting 'orthorhombic'
loop_
_space_group_symop_operation_xyz
x,y,z
1/2-x,-y,1/2+z
x,-y,-z
1/2-x,y,1/2-z
-x,-y,-z
1/2+x,y,1/2-z
-x,y,z
1/2+x,-y,1/2+z
loop_
_atom_site_type_symbol
_atom_site_label
_atom_site_fract_x
_atom_site_fract_y
_atom_site_fract_z
Si Si1 0.344525 0.781035 0.900470
Si Si2 0.643635 0.871728 0.561942
Si Si3 0.356621 0.294906 0.732322
Si Si4 0.900751 0.543977 0.695922
O O1 0.249273 0.840251 0.930806
O O2 0.390828 0.855823 0.754475
O O3 0.340529 0.655894 0.809291
O O4 0.388283 0.754530 0.083926
O O5 0.609237 0.781767 0.422406
O O6 0.631634 0.000000 0.500000
O O7 0.250000 0.288095 0.750000
O O8 0.376308 0.428934 0.703563
O O9 0.900621 0.500000 0.500000
O O10 0.000000 0.579945 0.742632
#
# Coordination Sequence:
#
# PCOD9418240 Si02
#       4
#     8   8   8   8
#     4   9  20  33  53  80 109 142 179 228 276 325
#     4  10  21  33  53  83 110 145 188 229 270 324
#     4   9  19  33  55  83 112 141 179 226 279 326
#     4   9  18  36  59  84 115 146 181 226 283 344
#
# _framework density 23.221793000000002
#
# number of rings (size 3 to 8) (size 9 to 14) (size 15 to 20)
#    0.000    2.750    0.000    0.000   14.000    1.000 
#    0.000    2.500    0.000    3.750    0.000    0.000 
#    0.000    0.000    0.000    0.000    0.000    0.000 
#
# Total GULP energy -178484.807970 kJ/mol
# GULP energy per Si atom -5577.650249 kJ/mol
# Density = 2.316894 g / cm^3
# Si number density = 23.221793 Si / 1000 Ang^3
#
#
#
# Elastic Constant Matrix: (Units=GPa)
#
#
# Indices 1 2 3 4 5 6 
#
# 1 64.5134 -1.4306 3.2361 0.0000 0.0000 0.0000
# 2 -1.4306 112.7973 43.0594 0.0000 0.0000 0.0000
# 3 3.2361 43.0594 119.6936 0.0000 0.0000 0.0000
# 4 0.0000 0.0000 0.0000 42.7939 0.0000 0.0000
# 5 0.0000 0.0000 0.0000 0.0000 -5.3201 0.0000
# 6 0.0000 0.0000 0.0000 0.0000 0.0000 -12.1623
#
#
#
# Elastic Compliance Matrix: (Units=1/GPa)
#
#
# Indices 1 2 3 4 5 6 
#
# 1 0.015538 0.000414 -0.000569 0.000000 0.000000 0.000000
# 2 0.000414 0.010288 -0.003712 0.000000 0.000000 0.000000
# 3 -0.000569 -0.003712 0.009706 0.000000 0.000000 0.000000
# 4 0.000000 0.000000 0.000000 0.023368 0.000000 0.000000
# 5 0.000000 0.000000 0.000000 0.000000 -0.187965 0.000000
# 6 0.000000 0.000000 0.000000 0.000000 0.000000 -0.082221
#
#
# Mechanical properties :
#
#
# Convention : Reuss Voigt Hill
#
# Bulk Modulus (GPa) = 35.97424 42.97046 39.47235
# Shear Modulus (GPa) = -25.73510 21.87158 -1.93176
#
# Velocity S-wave (km/s) = -3.33262 3.07230 -0.91306
# Velocity P-wave (km/s) = 0.84660 5.57942 3.99040
#
# Compressibility (1/GPa) = 0.02779767
#
# Stress axis : x y z
#
# Youngs Moduli (GPa) = 64.35667 97.20231 103.03417
#
# Poissons Ratio (x) = -0.04027 0.05864
# Poissons Ratio (y) = -0.02667 0.38249
# Poissons Ratio (z) = 0.03663 0.36084
#
# Static dielectric constant tensor:
#      x y z
#    x 1.949760 0.000000 0.000000 
#    y 0.000000 1.838270 0.000000 
#    z 0.000000 0.000000 1.941920 
# 
# From -- ./inp_files/9535.got.cif
#   From: 2010.05.17/outbox.cif.g08.bks.cpg/sg53_5_cif.got.tgz:9535.got - 2010.06.03 12:45:16.
