data_PCOD9418112
_publ_section_title
;
Structure prediction by ZEFSAII (Michael W. Deem and Ramdas Pophale) SiO2 
 PCOD9418112
Probable space group: P M N A
;
_chemical_formula_sum "Si O2"
_cell_formula_units_Z 28
_cell_length_a 18.827356
_cell_length_b 9.818128
_cell_length_c 5.526015
_cell_angle_alpha 90.000000
_cell_angle_beta 90.000000
_cell_angle_gamma 90.000000
_cell_volume 1021.480508
_symmetry_space_group_name_H-M "P M N A"
_symmetry_group_IT_number 53
_symmetry_cell_setting 'orthorhombic'
loop_
_space_group_symop_operation_xyz
x,y,z
1/2-x,-y,1/2+z
x,-y,-z
1/2-x,y,1/2-z
-x,-y,-z
1/2+x,y,1/2-z
-x,y,z
1/2+x,-y,1/2+z
loop_
_atom_site_type_symbol
_atom_site_label
_atom_site_fract_x
_atom_site_fract_y
_atom_site_fract_z
Si Si1 0.715675 0.299650 0.007316
Si Si2 0.310313 0.000000 0.000000
Si Si3 0.924915 0.867327 0.155953
Si Si4 0.584500 0.617579 0.699145
O O1 0.750000 0.339554 0.750000
O O2 0.750000 0.360994 0.250000
O O3 0.633769 0.349508 0.063286
O O4 0.735311 0.136838 0.029796
O O5 0.364806 0.080285 0.829059
O O6 0.000000 0.830961 0.279932
O O7 0.905739 0.750765 0.967919
O O8 0.935334 0.000000 0.000000
O O9 0.602043 0.500000 0.500000
O O10 0.500000 0.603046 0.759737
#
# Coordination Sequence:
#
# PCOD9418112 Si02
#       4
#     8   4   8   8
#     4  12  27  48  77 117 168 220 275 344 419 500
#     4  12  23  40  72 110 161 216 284 342 408 494
#     4  10  20  38  70 113 160 207 266 342 413 484
#     4  10  23  49  84 124 171 224 285 352 427 514
#
# _framework density 27.411196
#
# number of rings (size 3 to 8) (size 9 to 14) (size 15 to 20)
#    0.000    1.143    2.857    3.000    0.000    1.143 
#    0.000   11.429    0.000   17.143    0.000    0.000 
#    0.000    3.429    0.000    0.000    0.000    0.000 
#
# Total GULP energy -156029.446203 kJ/mol
# GULP energy per Si atom -5572.480222 kJ/mol
# Density = 2.734881 g / cm^3
# Si number density = 27.411196 Si / 1000 Ang^3
#
#
#
# Elastic Constant Matrix: (Units=GPa)
#
#
# Indices 1 2 3 4 5 6 
#
# 1 134.7964 7.6386 87.6413 0.0000 0.0000 0.0000
# 2 7.6386 238.8366 47.1726 0.0000 0.0000 0.0000
# 3 87.6413 47.1726 191.3845 0.0000 0.0000 0.0000
# 4 0.0000 0.0000 0.0000 33.6676 0.0000 0.0000
# 5 0.0000 0.0000 0.0000 0.0000 84.7772 0.0000
# 6 0.0000 0.0000 0.0000 0.0000 0.0000 16.5039
#
#
#
# Elastic Compliance Matrix: (Units=1/GPa)
#
#
# Indices 1 2 3 4 5 6 
#
# 1 0.010660 0.000655 -0.005043 0.000000 0.000000 0.000000
# 2 0.000655 0.004441 -0.001395 0.000000 0.000000 0.000000
# 3 -0.005043 -0.001395 0.007878 0.000000 0.000000 0.000000
# 4 0.000000 0.000000 0.000000 0.029702 0.000000 0.000000
# 5 0.000000 0.000000 0.000000 0.000000 0.011796 0.000000
# 6 0.000000 0.000000 0.000000 0.000000 0.000000 0.060592
#
#
# Mechanical properties :
#
#
# Convention : Reuss Voigt Hill
#
# Bulk Modulus (GPa) = 87.60744 94.43586 91.02165
# Shear Modulus (GPa) = 35.60225 55.16073 45.38149
#
# Velocity S-wave (km/s) = 3.60783 4.49078 4.07330
# Velocity P-wave (km/s) = 7.02745 7.83683 7.44315
#
# Compressibility (1/GPa) = 0.01141456
#
# Stress axis : x y z
#
# Youngs Moduli (GPa) = 93.80438 225.14984 126.93024
#
# Poissons Ratio (x) = -0.14751 0.64014
# Poissons Ratio (y) = -0.06146 0.17704
# Poissons Ratio (z) = 0.47308 0.31403
#
# Static dielectric constant tensor:
#      x y z
#    x 1.131020 0.000000 0.000000 
#    y 0.000000 2.306060 0.000000 
#    z 0.000000 0.000000 2.259180 
# 
# From -- ./inp_files/2538.got.cif
#   From: 2010.05.17/outbox.cif.g08.bks.cpg/sg53_2_cif.got.tgz:2538.got - 2010.06.03 12:45:16.
