data_PCOD9418841
_publ_section_title
;
Structure prediction by ZEFSAII (Michael W. Deem and Ramdas Pophale) SiO2 
 PCOD9418841
Probable space group: P M N A
;
_chemical_formula_sum "Si O2"
_cell_formula_units_Z 48
_cell_length_a 8.057917
_cell_length_b 9.248742
_cell_length_c 30.911779
_cell_angle_alpha 90.000000
_cell_angle_beta 90.000000
_cell_angle_gamma 90.000000
_cell_volume 2303.718735
_symmetry_space_group_name_H-M "P M N A"
_symmetry_group_IT_number 53
_symmetry_cell_setting 'orthorhombic'
loop_
_space_group_symop_operation_xyz
x,y,z
1/2-x,-y,1/2+z
x,-y,-z
1/2-x,y,1/2-z
-x,-y,-z
1/2+x,y,1/2-z
-x,y,z
1/2+x,-y,1/2+z
loop_
_atom_site_type_symbol
_atom_site_label
_atom_site_fract_x
_atom_site_fract_y
_atom_site_fract_z
Si Si1 0.500000 0.676620 0.500859
Si Si2 0.175848 0.622613 0.463834
Si Si3 0.698677 0.456471 0.202721
Si Si4 0.000000 0.940558 0.949731
Si Si5 0.695401 0.637897 0.378110
Si Si6 0.698850 0.875541 0.797572
Si Si7 0.197876 0.033353 0.612889
O O1 0.500000 0.500000 0.500000
O O2 0.332470 0.718475 0.476166
O O3 0.500000 0.764982 0.544896
O O4 0.165497 0.500000 0.500000
O O5 0.218513 0.553431 0.417780
O O6 0.000000 0.700332 0.462448
O O7 0.750000 0.509118 0.250000
O O8 0.500000 0.457234 0.198689
O O9 0.773294 0.556588 0.166069
O O10 0.759555 0.290464 0.198962
O O11 0.166650 0.984379 0.923116
O O12 0.000000 0.000000 0.000000
O O13 0.500000 0.650849 0.386067
O O14 0.778437 0.795197 0.380239
O O15 0.750000 0.932679 0.750000
O O16 0.500000 0.872209 0.797222
O O17 0.746190 0.960892 0.840892
O O18 0.000000 0.002035 0.604082
#
# Coordination Sequence:
#
# PCOD9418841 Si02
#       7
#     4   8   8   4   8   8   8
#     4  10  22  40  62  94 126 160 214 266 318 389
#     4  10  21  39  63  92 128 167 210 266 331 388
#     4  10  21  40  63  97 134 171 219 271 334 399
#     4  12  26  44  66  94 134 176 228 280 335 409
#     4  12  23  40  65  94 129 171 217 273 327 390
#     4   9  21  40  66  95 130 172 218 272 336 404
#     4  11  25  46  67  97 135 178 229 279 340 404
#
# _framework density 20.835877
#
# number of rings (size 3 to 8) (size 9 to 14) (size 15 to 20)
#    0.000    1.500    1.667    3.000    1.167    5.000 
#    0.000    6.667    0.000    0.000    0.000    0.000 
#    0.000    0.000    0.000    0.000    0.000    0.000 
#
# Total GULP energy -267801.675547 kJ/mol
# GULP energy per Si atom -5579.201574 kJ/mol
# Density = 2.078845 g / cm^3
# Si number density = 20.835877 Si / 1000 Ang^3
#
#
#
# Elastic Constant Matrix: (Units=GPa)
#
#
# Indices 1 2 3 4 5 6 
#
# 1 152.3432 19.0283 57.8870 0.0000 0.0000 0.0000
# 2 19.0283 74.5303 68.8163 0.0000 0.0000 0.0000
# 3 57.8870 68.8163 189.2736 0.0000 0.0000 0.0000
# 4 0.0000 0.0000 0.0000 42.7244 0.0000 0.0000
# 5 0.0000 0.0000 0.0000 0.0000 37.1145 0.0000
# 6 0.0000 0.0000 0.0000 0.0000 0.0000 30.3524
#
#
#
# Elastic Compliance Matrix: (Units=1/GPa)
#
#
# Indices 1 2 3 4 5 6 
#
# 1 0.007432 0.000303 -0.002383 0.000000 0.000000 0.000000
# 2 0.000303 0.020210 -0.007441 0.000000 0.000000 0.000000
# 3 -0.002383 -0.007441 0.008718 0.000000 0.000000 0.000000
# 4 0.000000 0.000000 0.000000 0.023406 0.000000 0.000000
# 5 0.000000 0.000000 0.000000 0.000000 0.026944 0.000000
# 6 0.000000 0.000000 0.000000 0.000000 0.000000 0.032946
#
#
# Mechanical properties :
#
#
# Convention : Reuss Voigt Hill
#
# Bulk Modulus (GPa) = 57.74375 78.62338 68.18357
# Shear Modulus (GPa) = 34.60932 40.06595 37.33763
#
# Velocity S-wave (km/s) = 4.08001 4.38988 4.23778
# Velocity P-wave (km/s) = 7.06888 7.96940 7.53261
#
# Compressibility (1/GPa) = 0.01731789
#
# Stress axis : x y z
#
# Youngs Moduli (GPa) = 134.55686 49.47974 114.71175
#
# Poissons Ratio (x) = -0.01499 0.27337
# Poissons Ratio (y) = -0.04077 0.85354
# Poissons Ratio (z) = 0.32066 0.36817
#
# Static dielectric constant tensor:
#      x y z
#    x 1.792030 0.000000 0.000000 
#    y 0.000000 1.791190 0.000000 
#    z 0.000000 0.000000 1.771010 
# 
# From -- ./inp_files/37857.got.cif
#   From: 2010.05.17/outbox.cif.g08.bks.cpg/sg53_19_cif.got.tgz:37857.got - 2010.06.03 12:45:16.
