data_PCOD9418585
_publ_section_title
;
Structure prediction by ZEFSAII (Michael W. Deem and Ramdas Pophale) SiO2 
 PCOD9418585
Probable space group: P M N A
;
_chemical_formula_sum "Si O2"
_cell_formula_units_Z 32
_cell_length_a 8.122513
_cell_length_b 12.785855
_cell_length_c 11.886679
_cell_angle_alpha 90.000000
_cell_angle_beta 90.000000
_cell_angle_gamma 90.000000
_cell_volume 1234.470525
_symmetry_space_group_name_H-M "P M N A"
_symmetry_group_IT_number 53
_symmetry_cell_setting 'orthorhombic'
loop_
_space_group_symop_operation_xyz
x,y,z
1/2-x,-y,1/2+z
x,-y,-z
1/2-x,y,1/2-z
-x,-y,-z
1/2+x,y,1/2-z
-x,y,z
1/2+x,-y,1/2+z
loop_
_atom_site_type_symbol
_atom_site_label
_atom_site_fract_x
_atom_site_fract_y
_atom_site_fract_z
Si Si1 0.685063 0.491556 0.372564
Si Si2 0.198206 0.951714 0.877246
Si Si3 0.195628 0.813218 0.122805
Si Si4 0.314443 0.717806 0.914552
O O1 0.764160 0.500000 0.500000
O O2 0.750000 0.529494 0.250000
O O3 0.500000 0.532922 0.383112
O O4 0.690127 0.365051 0.363718
O O5 0.250000 0.982625 0.750000
O O6 0.281157 0.837231 0.881284
O O7 0.000000 0.938069 0.883994
O O8 0.233539 0.070023 0.929297
O O9 0.250000 0.803433 0.250000
O O10 0.000000 0.802007 0.113687
O O11 0.285286 0.726903 0.048600
O O12 0.500000 0.686494 0.887972
#
# Coordination Sequence:
#
# PCOD9418585 Si02
#       4
#     8   8   8   8
#     4  11  26  48  74 103 134 171 219 277 340 407
#     4   9  20  35  57  88 127 171 219 265 317 375
#     4  10  21  37  59  90 132 179 226 273 324 384
#     4  11  23  39  64  95 130 172 218 271 330 393
#
# _framework density 25.922046000000002
#
# number of rings (size 3 to 8) (size 9 to 14) (size 15 to 20)
#    0.000    1.750    0.000    3.000    0.000   17.000 
#    0.000    2.500    0.000    0.000    0.000    0.000 
#    0.000    0.000    0.000    0.000    0.000    0.000 
#
# Total GULP energy -178550.188068 kJ/mol
# GULP energy per Si atom -5579.693377 kJ/mol
# Density = 2.586305 g / cm^3
# Si number density = 25.922046 Si / 1000 Ang^3
#
#
#
# Elastic Constant Matrix: (Units=GPa)
#
#
# Indices 1 2 3 4 5 6 
#
# 1 74.9707 0.3114 12.9432 0.0000 0.0000 0.0000
# 2 0.3114 77.2985 17.5435 0.0000 0.0000 0.0000
# 3 12.9432 17.5435 95.4103 0.0000 0.0000 0.0000
# 4 0.0000 0.0000 0.0000 30.0476 0.0000 0.0000
# 5 0.0000 0.0000 0.0000 0.0000 41.0587 0.0000
# 6 0.0000 0.0000 0.0000 0.0000 0.0000 18.5837
#
#
#
# Elastic Compliance Matrix: (Units=1/GPa)
#
#
# Indices 1 2 3 4 5 6 
#
# 1 0.013669 0.000382 -0.001925 0.000000 0.000000 0.000000
# 2 0.000382 0.013511 -0.002536 0.000000 0.000000 0.000000
# 3 -0.001925 -0.002536 0.011208 0.000000 0.000000 0.000000
# 4 0.000000 0.000000 0.000000 0.033281 0.000000 0.000000
# 5 0.000000 0.000000 0.000000 0.000000 0.024355 0.000000
# 6 0.000000 0.000000 0.000000 0.000000 0.000000 0.053811
#
#
# Mechanical properties :
#
#
# Convention : Reuss Voigt Hill
#
# Bulk Modulus (GPa) = 33.07888 34.36397 33.72142
# Shear Modulus (GPa) = 29.74952 32.39675 31.07314
#
# Velocity S-wave (km/s) = 3.39138 3.53905 3.46600
# Velocity P-wave (km/s) = 5.30319 5.47588 5.39023
#
# Compressibility (1/GPa) = 0.03023077
#
# Stress axis : x y z
#
# Youngs Moduli (GPa) = 73.15711 74.01423 89.21841
#
# Poissons Ratio (x) = -0.02825 0.17170
# Poissons Ratio (y) = -0.02793 0.22627
# Poissons Ratio (z) = 0.14079 0.18771
#
# Static dielectric constant tensor:
#      x y z
#    x 1.928800 0.000000 0.000000 
#    y 0.000000 2.028350 0.000000 
#    z 0.000000 0.000000 2.632930 
# 
# From -- ./inp_files/13702.got.cif
#   From: 2010.05.17/outbox.cif.g08.bks.cpg/sg53_7_cif.got.tgz:13702.got - 2010.06.03 12:45:16.
