data_PCOD9418305
_publ_section_title
;
Structure prediction by ZEFSAII (Michael W. Deem and Ramdas Pophale) SiO2 
 PCOD9418305
Probable space group: P M N A
;
_chemical_formula_sum "Si O2"
_cell_formula_units_Z 40
_cell_length_a 20.103971
_cell_length_b 18.894397
_cell_length_c 5.317880
_cell_angle_alpha 90.000000
_cell_angle_beta 90.000000
_cell_angle_gamma 90.000000
_cell_volume 2020.009531
_symmetry_space_group_name_H-M "P M N A"
_symmetry_group_IT_number 53
_symmetry_cell_setting 'orthorhombic'
loop_
_space_group_symop_operation_xyz
x,y,z
1/2-x,-y,1/2+z
x,-y,-z
1/2-x,y,1/2-z
-x,-y,-z
1/2+x,y,1/2-z
-x,y,z
1/2+x,-y,1/2+z
loop_
_atom_site_type_symbol
_atom_site_label
_atom_site_fract_x
_atom_site_fract_y
_atom_site_fract_z
Si Si1 0.143215 0.641751 0.620485
Si Si2 0.295331 0.080251 0.497059
Si Si3 0.500000 0.723853 0.345211
Si Si4 0.750000 0.544563 0.750000
Si Si5 0.750000 0.305298 0.750000
Si Si6 0.000000 0.636583 0.649037
Si Si7 0.138171 0.775240 0.955280
O O1 0.187398 0.595386 0.808836
O O2 0.192605 0.650018 0.386676
O O3 0.072229 0.603923 0.593694
O O4 0.131110 0.722336 0.716107
O O5 0.250000 0.084853 0.250000
O O6 0.349320 0.141371 0.452238
O O7 0.322522 0.000000 0.500000
O O8 0.250000 0.090519 0.750000
O O9 0.500000 0.661697 0.559764
O O10 0.430186 0.762461 0.394728
O O11 0.500000 0.698331 0.060149
O O12 0.764511 0.500000 0.500000
O O13 0.706947 0.255041 0.569915
#
# Coordination Sequence:
#
# PCOD9418305 Si02
#       7
#     8   8   4   4   4   4   8
#     4  11  23  39  63  92 120 157 201 248 301 355
#     4  10  21  35  54  85 121 155 197 251 299 346
#     4  10  22  34  55  89 128 150 196 251 303 336
#     4  12  27  42  62  91 126 154 198 256 299 356
#     4  12  17  32  66  87 116 144 210 246 297 342
#     4  10  22  40  60  91 123 154 192 253 299 356
#     4  11  21  35  59  91 118 158 203 251 295 359
#
# _framework density 19.801888000000002
#
# number of rings (size 3 to 8) (size 9 to 14) (size 15 to 20)
#    0.000    1.200    5.000    1.800    0.000    0.000 
#    0.000    1.500    0.000    0.000    0.000    7.000 
#    0.000    0.000    0.000    0.000    0.000    0.000 
#
# Total GULP energy -222723.668911 kJ/mol
# GULP energy per Si atom -5568.091723 kJ/mol
# Density = 1.975682 g / cm^3
# Si number density = 19.801888 Si / 1000 Ang^3
#
#
#
# Elastic Constant Matrix: (Units=GPa)
#
#
# Indices 1 2 3 4 5 6 
#
# 1 146.5248 17.6491 14.3347 0.0000 0.0000 0.0000
# 2 17.6491 78.0904 16.3398 0.0000 0.0000 0.0000
# 3 14.3347 16.3398 82.0538 0.0000 0.0000 0.0000
# 4 0.0000 0.0000 0.0000 3.9035 0.0000 0.0000
# 5 0.0000 0.0000 0.0000 0.0000 34.9909 0.0000
# 6 0.0000 0.0000 0.0000 0.0000 0.0000 -13.1061
#
#
#
# Elastic Compliance Matrix: (Units=1/GPa)
#
#
# Indices 1 2 3 4 5 6 
#
# 1 0.007087 -0.001401 -0.000959 0.000000 0.000000 0.000000
# 2 -0.001401 0.013639 -0.002471 0.000000 0.000000 0.000000
# 3 -0.000959 -0.002471 0.012847 0.000000 0.000000 0.000000
# 4 0.000000 0.000000 0.000000 0.256182 0.000000 0.000000
# 5 0.000000 0.000000 0.000000 0.000000 0.028579 0.000000
# 6 0.000000 0.000000 0.000000 0.000000 0.000000 -0.076300
#
#
# Mechanical properties :
#
#
# Convention : Reuss Voigt Hill
#
# Bulk Modulus (GPa) = 41.82269 44.81293 43.31781
# Shear Modulus (GPa) = 19.25540 22.38068 20.81804
#
# Velocity S-wave (km/s) = 3.12172 3.36554 3.24592
# Velocity P-wave (km/s) = 5.84465 6.14672 5.99759
#
# Compressibility (1/GPa) = 0.02391047
#
# Stress axis : x y z
#
# Youngs Moduli (GPa) = 141.09579 73.31681 77.84025
#
# Poissons Ratio (x) = 0.10273 0.07466
# Poissons Ratio (y) = 0.19769 0.19237
# Poissons Ratio (z) = 0.13533 0.18119
#
# Static dielectric constant tensor:
#      x y z
#    x 1.796210 0.000000 0.000000 
#    y 0.000000 1.758040 0.000000 
#    z 0.000000 0.000000 1.769080 
# 
# From -- ./inp_files/2146.got.cif
#   From: 2010.05.17/outbox.cif.g08.bks.cpg/sg53_2_cif.got.tgz:2146.got - 2010.06.03 12:45:16.
