data_PCOD9418706
_publ_section_title
;
Structure prediction by ZEFSAII (Michael W. Deem and Ramdas Pophale) SiO2 
 PCOD9418706
Probable space group: P M N A
;
_chemical_formula_sum "Si O2"
_cell_formula_units_Z 48
_cell_length_a 8.884882
_cell_length_b 15.170495
_cell_length_c 19.629104
_cell_angle_alpha 90.000000
_cell_angle_beta 90.000000
_cell_angle_gamma 90.000000
_cell_volume 2645.768808
_symmetry_space_group_name_H-M "P M N A"
_symmetry_group_IT_number 53
_symmetry_cell_setting 'orthorhombic'
loop_
_space_group_symop_operation_xyz
x,y,z
1/2-x,-y,1/2+z
x,-y,-z
1/2-x,y,1/2-z
-x,-y,-z
1/2+x,y,1/2-z
-x,y,z
1/2+x,-y,1/2+z
loop_
_atom_site_type_symbol
_atom_site_label
_atom_site_fract_x
_atom_site_fract_y
_atom_site_fract_z
Si Si1 0.820572 0.134352 0.823412
Si Si2 0.680392 0.612837 0.675117
Si Si3 0.819708 0.455464 0.927893
Si Si4 0.179912 0.072267 0.176232
Si Si5 0.180523 0.225469 0.409288
Si Si6 0.679727 0.735722 0.066455
O O1 0.750000 0.156253 0.750000
O O2 0.753155 0.196034 0.881388
O O3 0.000000 0.144761 0.820170
O O4 0.787862 0.030917 0.836947
O O5 0.750000 0.608459 0.750000
O O6 0.500000 0.622943 0.678912
O O7 0.713776 0.524646 0.631933
O O8 0.749525 0.695064 0.634412
O O9 0.738305 0.362684 0.919593
O O10 0.000000 0.440812 0.929559
O O11 0.776796 0.500000 0.000000
O O12 0.250000 0.094689 0.250000
O O13 0.252560 0.135294 0.120289
O O14 0.000000 0.084414 0.178535
O O15 0.218921 0.239755 0.488498
O O16 0.000000 0.225935 0.402263
O O17 0.500000 0.738641 0.073225
#
# Coordination Sequence:
#
# PCOD9418706 Si02
#       6
#     8   8   8   8   8   8
#     4  10  22  41  64  88 118 155 199 248 297 353
#     4  11  23  39  61  88 119 154 196 246 296 352
#     4  10  21  40  63  85 114 156 200 244 295 350
#     4  10  21  38  61  87 117 157 199 245 298 351
#     4  11  23  38  58  87 122 159 197 241 294 353
#     4  11  24  39  61  90 121 158 197 244 299 354
#
# _framework density 18.142175000000002
#
# number of rings (size 3 to 8) (size 9 to 14) (size 15 to 20)
#    0.000    1.500    1.667    3.000    0.000    7.000 
#    0.000    5.000    0.000    0.000    0.000    0.000 
#    0.000    0.000    0.000    0.000    0.000    0.000 
#
# Total GULP energy -268353.084484 kJ/mol
# GULP energy per Si atom -5590.689260 kJ/mol
# Density = 1.810088 g / cm^3
# Si number density = 18.142175 Si / 1000 Ang^3
#
#
#
# Elastic Constant Matrix: (Units=GPa)
#
#
# Indices 1 2 3 4 5 6 
#
# 1 74.1114 72.6835 84.5209 0.0000 0.0000 0.0000
# 2 72.6835 126.5502 109.9807 0.0000 0.0000 0.0000
# 3 84.5209 109.9807 180.8841 0.0000 0.0000 0.0000
# 4 0.0000 0.0000 0.0000 33.3491 0.0000 0.0000
# 5 0.0000 0.0000 0.0000 0.0000 30.9907 0.0000
# 6 0.0000 0.0000 0.0000 0.0000 0.0000 28.6762
#
#
#
# Elastic Compliance Matrix: (Units=1/GPa)
#
#
# Indices 1 2 3 4 5 6 
#
# 1 0.037009 -0.013205 -0.009265 0.000000 0.000000 0.000000
# 2 -0.013205 0.021467 -0.006882 0.000000 0.000000 0.000000
# 3 -0.009265 -0.006882 0.014042 0.000000 0.000000 0.000000
# 4 0.000000 0.000000 0.000000 0.029986 0.000000 0.000000
# 5 0.000000 0.000000 0.000000 0.000000 0.032268 0.000000
# 6 0.000000 0.000000 0.000000 0.000000 0.000000 0.034872
#
#
# Mechanical properties :
#
#
# Convention : Reuss Voigt Hill
#
# Bulk Modulus (GPa) = 72.38270 101.76845 87.07557
# Shear Modulus (GPa) = 21.46362 26.22725 23.84543
#
# Velocity S-wave (km/s) = 3.44332 3.80630 3.62935
# Velocity P-wave (km/s) = 7.46945 8.69103 8.10329
#
# Compressibility (1/GPa) = 0.01381546
#
# Stress axis : x y z
#
# Youngs Moduli (GPa) = 27.02035 46.58251 71.21464
#
# Poissons Ratio (x) = 0.61510 0.65977
# Poissons Ratio (y) = 0.35679 0.49013
# Poissons Ratio (z) = 0.25033 0.32060
#
# Static dielectric constant tensor:
#      x y z
#    x 1.604600 0.000000 0.000000 
#    y 0.000000 1.595810 0.000000 
#    z 0.000000 0.000000 1.591960 
# 
# From -- ./inp_files/26169.got.cif
#   From: 2010.05.17/outbox.cif.g08.bks.cpg/sg53_14_cif.got.tgz:26169.got - 2010.06.03 12:45:16.
