data_PCOD9418779
_publ_section_title
;
Structure prediction by ZEFSAII (Michael W. Deem and Ramdas Pophale) SiO2 
 PCOD9418779
Probable space group: P M N A
;
_chemical_formula_sum "Si O2"
_cell_formula_units_Z 32
_cell_length_a 13.032527
_cell_length_b 13.402276
_cell_length_c 8.509832
_cell_angle_alpha 90.000000
_cell_angle_beta 90.000000
_cell_angle_gamma 90.000000
_cell_volume 1486.374264
_symmetry_space_group_name_H-M "P M N A"
_symmetry_group_IT_number 53
_symmetry_cell_setting 'orthorhombic'
loop_
_space_group_symop_operation_xyz
x,y,z
1/2-x,-y,1/2+z
x,-y,-z
1/2-x,y,1/2-z
-x,-y,-z
1/2+x,y,1/2-z
-x,y,z
1/2+x,-y,1/2+z
loop_
_atom_site_type_symbol
_atom_site_label
_atom_site_fract_x
_atom_site_fract_y
_atom_site_fract_z
Si Si1 0.327209 0.757262 0.619688
Si Si2 0.000000 0.880587 0.332392
Si Si3 0.500000 0.390627 0.422011
Si Si4 0.000000 0.890122 0.715681
Si Si5 0.500000 0.385961 0.043400
Si Si6 0.326136 0.740650 0.128270
O O1 0.250000 0.712216 0.750000
O O2 0.398650 0.673454 0.539522
O O3 0.402083 0.836260 0.704468
O O4 0.248160 0.798700 0.491843
O O5 0.899990 0.818759 0.285635
O O6 0.000000 0.877333 0.525399
O O7 0.000000 0.991179 0.265429
O O8 0.500000 0.500000 0.500000
O O9 0.500000 0.384660 0.231627
O O10 0.500000 0.500000 0.000000
O O11 0.401118 0.332092 0.967669
O O12 0.250000 0.688007 0.250000
#
# Coordination Sequence:
#
# PCOD9418779 Si02
#       6
#     8   4   4   4   4   8
#     4  11  20  43  67  93 132 184 220 271 340 401
#     4  10  21  42  62 102 136 170 226 285 340 394
#     4  11  25  41  67 102 131 171 231 278 333 418
#     4  10  21  38  70  96 135 175 224 284 339 402
#     4  11  25  45  63  96 141 172 218 287 346 395
#     4  11  24  43  68  94 140 181 221 280 341 402
#
# _framework density 21.528898000000002
#
# number of rings (size 3 to 8) (size 9 to 14) (size 15 to 20)
#    0.000    1.250    5.000    1.500    3.500    5.000 
#    0.000    1.250    0.000    0.000    0.000    0.000 
#    0.000    0.000    0.000    0.000    0.000    0.000 
#
# Total GULP energy -178647.289205 kJ/mol
# GULP energy per Si atom -5582.727788 kJ/mol
# Density = 2.147990 g / cm^3
# Si number density = 21.528898 Si / 1000 Ang^3
#
#
#
# Elastic Constant Matrix: (Units=GPa)
#
#
# Indices 1 2 3 4 5 6 
#
# 1 174.5465 71.2178 59.3474 0.0000 0.0000 0.0000
# 2 71.2178 154.9485 31.1374 0.0000 0.0000 0.0000
# 3 59.3474 31.1374 78.5804 0.0000 0.0000 0.0000
# 4 0.0000 0.0000 0.0000 36.2477 0.0000 0.0000
# 5 0.0000 0.0000 0.0000 0.0000 35.1920 0.0000
# 6 0.0000 0.0000 0.0000 0.0000 0.0000 2.2450
#
#
#
# Elastic Compliance Matrix: (Units=1/GPa)
#
#
# Indices 1 2 3 4 5 6 
#
# 1 0.008790 -0.002940 -0.005473 0.000000 0.000000 0.000000
# 2 -0.002940 0.007996 -0.000948 0.000000 0.000000 0.000000
# 3 -0.005473 -0.000948 0.017235 0.000000 0.000000 0.000000
# 4 0.000000 0.000000 0.000000 0.027588 0.000000 0.000000
# 5 0.000000 0.000000 0.000000 0.000000 0.028416 0.000000
# 6 0.000000 0.000000 0.000000 0.000000 0.000000 0.445425
#
#
# Mechanical properties :
#
#
# Convention : Reuss Voigt Hill
#
# Bulk Modulus (GPa) = 65.36824 81.27562 73.32193
# Shear Modulus (GPa) = 8.94021 31.16181 20.05101
#
# Velocity S-wave (km/s) = 2.04002 3.80865 3.05512
# Velocity P-wave (km/s) = 5.99815 7.56141 6.82469
#
# Compressibility (1/GPa) = 0.01529795
#
# Stress axis : x y z
#
# Youngs Moduli (GPa) = 113.76928 125.06994 58.02110
#
# Poissons Ratio (x) = 0.36771 0.31757
# Poissons Ratio (y) = 0.33449 0.05499
# Poissons Ratio (z) = 0.62270 0.11854
#
# Static dielectric constant tensor:
#      x y z
#    x 1.773570 0.000000 0.000000 
#    y 0.000000 1.747500 0.000000 
#    z 0.000000 0.000000 1.991780 
# 
# From -- ./inp_files/7354.got.cif
#   From: 2010.05.17/outbox.cif.g08.bks.cpg/sg53_4_cif.got.tgz:7354.got - 2010.06.03 12:45:16.
