data_PCOD9418543
_publ_section_title
;
Structure prediction by ZEFSAII (Michael W. Deem and Ramdas Pophale) SiO2 
 PCOD9418543
Probable space group: P M N A
;
_chemical_formula_sum "Si O2"
_cell_formula_units_Z 64
_cell_length_a 8.837259
_cell_length_b 24.726632
_cell_length_c 15.395885
_cell_angle_alpha 90.000000
_cell_angle_beta 90.000000
_cell_angle_gamma 90.000000
_cell_volume 3364.241836
_symmetry_space_group_name_H-M "P M N A"
_symmetry_group_IT_number 53
_symmetry_cell_setting 'orthorhombic'
loop_
_space_group_symop_operation_xyz
x,y,z
1/2-x,-y,1/2+z
x,-y,-z
1/2-x,y,1/2-z
-x,-y,-z
1/2+x,y,1/2-z
-x,y,z
1/2+x,-y,1/2+z
loop_
_atom_site_type_symbol
_atom_site_label
_atom_site_fract_x
_atom_site_fract_y
_atom_site_fract_z
Si Si1 0.818997 0.881779 0.341450
Si Si2 0.180976 0.691685 0.996604
Si Si3 0.818509 0.606833 0.847064
Si Si4 0.180768 0.108449 0.339584
Si Si5 0.681262 0.624825 0.152992
Si Si6 0.181958 0.809732 0.506012
Si Si7 0.323703 0.995746 0.395729
Si Si8 0.318806 0.503567 0.153127
O O1 0.750000 0.864982 0.250000
O O2 0.777050 0.839519 0.416432
O O3 0.000000 0.884755 0.336720
O O4 0.755730 0.940944 0.365272
O O5 0.252875 0.666426 0.083589
O O6 0.238905 0.752405 0.984511
O O7 0.000000 0.690667 0.004748
O O8 0.221999 0.654747 0.913243
O O9 0.750000 0.614419 0.750000
O O10 0.755273 0.550184 0.885598
O O11 0.000000 0.603417 0.839280
O O12 0.250000 0.128897 0.250000
O O13 0.222185 0.148708 0.417371
O O14 0.246013 0.048932 0.357517
O O15 0.000000 0.105288 0.334435
O O16 0.750000 0.630947 0.250000
O O17 0.500000 0.629942 0.159348
O O18 0.715183 0.563629 0.119019
O O19 0.000000 0.802288 0.507370
O O20 0.500000 0.994410 0.370265
O O21 0.314022 0.000000 0.500000
O O22 0.250000 0.504690 0.250000
O O23 0.500000 0.497002 0.155381
#
# Coordination Sequence:
#
# PCOD9418543 Si02
#       8
#     8   8   8   8   8   8   8   8
#     4  11  23  41  64  91 121 156 197 240 293 352
#     4  11  25  41  60  86 117 155 201 249 297 351
#     4  10  21  37  58  86 118 155 195 241 296 353
#     4  11  23  41  64  91 122 158 198 243 295 352
#     4  10  21  38  61  88 120 155 195 241 295 354
#     4  10  24  44  63  83 115 157 200 248 299 348
#     4  11  22  37  62  94 126 160 195 238 292 348
#     4   9  17  31  55  86 117 152 190 236 292 352
#
# _framework density 19.023603999999999
#
# number of rings (size 3 to 8) (size 9 to 14) (size 15 to 20)
#    0.000    1.625    1.250    3.750    0.000    7.500 
#    0.000    6.250    0.000    0.000    0.000    0.000 
#    0.000    0.000    0.000    0.000    0.000    0.000 
#
# Total GULP energy -357625.017570 kJ/mol
# GULP energy per Si atom -5587.890900 kJ/mol
# Density = 1.898031 g / cm^3
# Si number density = 19.023604 Si / 1000 Ang^3
#
#
#
# Elastic Constant Matrix: (Units=GPa)
#
#
# Indices 1 2 3 4 5 6 
#
# 1 54.2436 19.9213 20.1113 0.0000 0.0000 0.0000
# 2 19.9213 63.6777 -0.5065 0.0000 0.0000 0.0000
# 3 20.1113 -0.5065 65.9378 0.0000 0.0000 0.0000
# 4 0.0000 0.0000 0.0000 -36.8330 0.0000 0.0000
# 5 0.0000 0.0000 0.0000 0.0000 17.8542 0.0000
# 6 0.0000 0.0000 0.0000 0.0000 0.0000 33.9856
#
#
#
# Elastic Compliance Matrix: (Units=1/GPa)
#
#
# Indices 1 2 3 4 5 6 
#
# 1 0.023935 -0.007546 -0.007358 0.000000 0.000000 0.000000
# 2 -0.007546 0.018084 0.002441 0.000000 0.000000 0.000000
# 3 -0.007358 0.002441 0.017429 0.000000 0.000000 0.000000
# 4 0.000000 0.000000 0.000000 -0.027150 0.000000 0.000000
# 5 0.000000 0.000000 0.000000 0.000000 0.056009 0.000000
# 6 0.000000 0.000000 0.000000 0.000000 0.000000 0.029424
#
#
# Mechanical properties :
#
#
# Convention : Reuss Voigt Hill
#
# Bulk Modulus (GPa) = 28.96868 29.21235 29.09051
# Shear Modulus (GPa) = 32.43237 12.62355 22.52796
#
# Velocity S-wave (km/s) = 4.13346 2.57879 3.44497
# Velocity P-wave (km/s) = 6.16778 4.92504 5.58111
#
# Compressibility (1/GPa) = 0.03452004
#
# Stress axis : x y z
#
# Youngs Moduli (GPa) = 41.77982 55.29629 57.37614
#
# Poissons Ratio (x) = 0.41729 0.42219
# Poissons Ratio (y) = 0.31529 -0.14003
# Poissons Ratio (z) = 0.30743 -0.13496
#
# Static dielectric constant tensor:
#      x y z
#    x 1.636790 0.000000 0.000000 
#    y 0.000000 1.644070 0.000000 
#    z 0.000000 0.000000 1.649800 
# 
# From -- ./inp_files/20876.got.cif
#   From: 2010.05.17/outbox.cif.g08.bks.cpg/sg53_11_cif.got.tgz:20876.got - 2010.06.03 12:45:16.
