data_PCOD9418799
_publ_section_title
;
Structure prediction by ZEFSAII (Michael W. Deem and Ramdas Pophale) SiO2 
 PCOD9418799
Probable space group: P M N A
;
_chemical_formula_sum "Si O2"
_cell_formula_units_Z 48
_cell_length_a 28.349852
_cell_length_b 8.979041
_cell_length_c 9.608489
_cell_angle_alpha 90.000000
_cell_angle_beta 90.000000
_cell_angle_gamma 90.000000
_cell_volume 2445.883954
_symmetry_space_group_name_H-M "P M N A"
_symmetry_group_IT_number 53
_symmetry_cell_setting 'orthorhombic'
loop_
_space_group_symop_operation_xyz
x,y,z
1/2-x,-y,1/2+z
x,-y,-z
1/2-x,y,1/2-z
-x,-y,-z
1/2+x,y,1/2-z
-x,y,z
1/2+x,-y,1/2+z
loop_
_atom_site_type_symbol
_atom_site_label
_atom_site_fract_x
_atom_site_fract_y
_atom_site_fract_z
Si Si1 0.403791 0.539937 0.161502
Si Si2 0.445610 0.809076 0.324400
Si Si3 0.592639 0.640025 0.586027
Si Si4 0.367408 0.947895 0.646940
Si Si5 0.207248 0.929207 0.351374
Si Si6 0.706300 0.427602 0.851017
O O1 0.421293 0.703439 0.208036
O O2 0.428273 0.429115 0.272751
O O3 0.347266 0.526074 0.189307
O O4 0.412155 0.500000 0.000000
O O5 0.500000 0.833980 0.292741
O O6 0.440373 0.719256 0.470936
O O7 0.416587 0.961555 0.341776
O O8 0.613908 0.500000 0.500000
O O9 0.626716 0.772018 0.633938
O O10 0.345146 0.000000 0.500000
O O11 0.337990 0.000345 0.777852
O O12 0.250000 0.965549 0.250000
O O13 0.203758 0.751259 0.361789
O O14 0.214605 0.000000 0.500000
O O15 0.750000 0.465733 0.750000
O O16 0.715946 0.500000 0.000000
#
# Coordination Sequence:
#
# PCOD9418799 Si02
#       6
#     8   8   8   8   8   8
#     4  10  21  39  60  91 123 162 203 252 307 363
#     4  10  21  40  63  89 122 159 204 256 311 370
#     4   9  21  37  60  89 118 160 203 248 301 365
#     4  10  21  39  62  91 122 163 201 257 309 360
#     4  11  24  42  63  92 126 162 205 249 303 365
#     4  10  23  41  61  92 125 164 203 250 299 362
#
# _framework density 19.624804999999999
#
# number of rings (size 3 to 8) (size 9 to 14) (size 15 to 20)
#    0.000    2.000    1.667    0.500    4.667    9.000 
#    3.000    0.000    0.000    3.500    0.000    0.000 
#    0.000    0.000    0.000    0.000    0.000    0.000 
#
# Total GULP energy -267720.787514 kJ/mol
# GULP energy per Si atom -5577.516407 kJ/mol
# Density = 1.958014 g / cm^3
# Si number density = 19.624805 Si / 1000 Ang^3
#
#
#
# Elastic Constant Matrix: (Units=GPa)
#
#
# Indices 1 2 3 4 5 6 
#
# 1 94.2394 31.8381 45.6482 0.0000 0.0000 0.0000
# 2 31.8381 109.3613 51.8171 0.0000 0.0000 0.0000
# 3 45.6482 51.8171 142.8363 0.0000 0.0000 0.0000
# 4 0.0000 0.0000 0.0000 31.9686 0.0000 0.0000
# 5 0.0000 0.0000 0.0000 0.0000 15.7350 0.0000
# 6 0.0000 0.0000 0.0000 0.0000 0.0000 82.8557
#
#
#
# Elastic Compliance Matrix: (Units=1/GPa)
#
#
# Indices 1 2 3 4 5 6 
#
# 1 0.012975 -0.002189 -0.003352 0.000000 0.000000 0.000000
# 2 -0.002189 0.011411 -0.003440 0.000000 0.000000 0.000000
# 3 -0.003352 -0.003440 0.009320 0.000000 0.000000 0.000000
# 4 0.000000 0.000000 0.000000 0.031281 0.000000 0.000000
# 5 0.000000 0.000000 0.000000 0.000000 0.063553 0.000000
# 6 0.000000 0.000000 0.000000 0.000000 0.000000 0.012069
#
#
# Mechanical properties :
#
#
# Convention : Reuss Voigt Hill
#
# Bulk Modulus (GPa) = 63.51872 67.22709 65.37290
# Shear Modulus (GPa) = 30.52140 40.58744 35.55442
#
# Velocity S-wave (km/s) = 3.94794 4.55265 4.26103
# Velocity P-wave (km/s) = 7.29510 7.87185 7.58895
#
# Compressibility (1/GPa) = 0.01574339
#
# Stress axis : x y z
#
# Youngs Moduli (GPa) = 77.07353 87.63293 107.29153
#
# Poissons Ratio (x) = 0.19181 0.35969
# Poissons Ratio (y) = 0.16870 0.36910
# Poissons Ratio (z) = 0.25838 0.30147
#
# Static dielectric constant tensor:
#      x y z
#    x 1.696440 0.000000 0.000000 
#    y 0.000000 1.690090 0.000000 
#    z 0.000000 0.000000 1.685780 
# 
# From -- ./inp_files/13026.got.cif
#   From: 2010.05.17/outbox.cif.g08.bks.cpg/sg53_7_cif.got.tgz:13026.got - 2010.06.03 12:45:16.
