data_PCOD9418753
_publ_section_title
;
Structure prediction by ZEFSAII (Michael W. Deem and Ramdas Pophale) SiO2 
 PCOD9418753
Probable space group: P M N A
;
_chemical_formula_sum "Si O2"
_cell_formula_units_Z 64
_cell_length_a 15.070181
_cell_length_b 9.773171
_cell_length_c 21.266250
_cell_angle_alpha 90.000000
_cell_angle_beta 90.000000
_cell_angle_gamma 90.000000
_cell_volume 3132.166794
_symmetry_space_group_name_H-M "P M N A"
_symmetry_group_IT_number 53
_symmetry_cell_setting 'orthorhombic'
loop_
_space_group_symop_operation_xyz
x,y,z
1/2-x,-y,1/2+z
x,-y,-z
1/2-x,y,1/2-z
-x,-y,-z
1/2+x,y,1/2-z
-x,y,z
1/2+x,-y,1/2+z
loop_
_atom_site_type_symbol
_atom_site_label
_atom_site_fract_x
_atom_site_fract_y
_atom_site_fract_z
Si Si1 0.597421 0.953670 0.186950
Si Si2 0.750142 0.437280 0.931534
Si Si3 0.601532 0.498062 0.829068
Si Si4 0.100813 0.059518 0.070166
Si Si5 0.898197 0.645530 0.883708
Si Si6 0.400198 0.295015 0.716985
Si Si7 0.230618 0.837344 0.120616
Si Si8 0.144349 0.245135 0.255178
O O1 0.500000 0.965569 0.156284
O O2 0.592348 0.836106 0.238775
O O3 0.676172 0.901487 0.141938
O O4 0.618559 0.092872 0.224219
O O5 0.668139 0.458648 0.883997
O O6 0.832600 0.522352 0.901311
O O7 0.762671 0.273032 0.935315
O O8 0.734106 0.500000 0.000000
O O9 0.500000 0.463727 0.845276
O O10 0.621903 0.418463 0.764022
O O11 0.611331 0.655505 0.810283
O O12 0.123590 0.219276 0.075285
O O13 0.000000 0.045951 0.094906
O O14 0.166829 0.964929 0.108669
O O15 0.102062 0.000000 0.000000
O O16 0.891201 0.699915 0.811791
O O17 0.000000 0.605950 0.896046
O O18 0.500000 0.318801 0.688943
O O19 0.319443 0.257686 0.671793
O O20 0.250000 0.253008 0.250000
#
# Coordination Sequence:
#
# PCOD9418753 Si02
#       8
#     8   8   8   8   8   8   8   8
#     4  11  23  38  59  95 135 165 200 253 321 389
#     4  12  27  44  64  91 127 176 230 272 315 377
#     4  11  24  43  65  92 127 166 210 267 326 383
#     4  10  22  41  63  91 130 174 219 266 318 383
#     4  11  23  41  65  96 134 171 211 266 328 390
#     4  10  21  38  63  95 129 160 200 255 323 388
#     4  12  23  38  66  93 128 170 216 263 320 380
#     4  12  22  38  66  98 131 161 203 263 332 396
#
# _framework density 20.433139000000001
#
# number of rings (size 3 to 8) (size 9 to 14) (size 15 to 20)
#    0.000    0.875    2.500    5.625    0.000    4.500 
#    0.000    0.000    0.000    0.375    0.000    0.000 
#    0.000    0.000    0.000    0.000    0.000    0.000 
#
# Total GULP energy -357710.546516 kJ/mol
# GULP energy per Si atom -5589.227289 kJ/mol
# Density = 2.038663 g / cm^3
# Si number density = 20.433139 Si / 1000 Ang^3
#
#
#
# Elastic Constant Matrix: (Units=GPa)
#
#
# Indices 1 2 3 4 5 6 
#
# 1 148.2167 26.9564 43.1055 0.0000 0.0000 0.0000
# 2 26.9564 81.6296 7.8761 0.0000 0.0000 0.0000
# 3 43.1055 7.8761 38.6377 0.0000 0.0000 0.0000
# 4 0.0000 0.0000 0.0000 23.2796 0.0000 0.0000
# 5 0.0000 0.0000 0.0000 0.0000 17.7898 0.0000
# 6 0.0000 0.0000 0.0000 0.0000 0.0000 29.4165
#
#
#
# Elastic Compliance Matrix: (Units=1/GPa)
#
#
# Indices 1 2 3 4 5 6 
#
# 1 0.010417 -0.002365 -0.011139 0.000000 0.000000 0.000000
# 2 -0.002365 0.013033 -0.000018 0.000000 0.000000 0.000000
# 3 -0.011139 -0.000018 0.038312 0.000000 0.000000 0.000000
# 4 0.000000 0.000000 0.000000 0.042956 0.000000 0.000000
# 5 0.000000 0.000000 0.000000 0.000000 0.056212 0.000000
# 6 0.000000 0.000000 0.000000 0.000000 0.000000 0.033995
#
#
# Mechanical properties :
#
#
# Convention : Reuss Voigt Hill
#
# Bulk Modulus (GPa) = 28.80390 47.15113 37.97752
# Shear Modulus (GPa) = 21.40949 26.80025 24.10487
#
# Velocity S-wave (km/s) = 3.24046 3.62554 3.43839
# Velocity P-wave (km/s) = 5.30359 6.37589 5.86430
#
# Compressibility (1/GPa) = 0.03471751
#
# Stress axis : x y z
#
# Youngs Moduli (GPa) = 96.00129 76.72695 26.10137
#
# Poissons Ratio (x) = 0.18147 0.29074
# Poissons Ratio (y) = 0.22705 0.00047
# Poissons Ratio (z) = 1.06935 0.00140
#
# Static dielectric constant tensor:
#      x y z
#    x 1.757140 0.000000 0.000000 
#    y 0.000000 1.720550 0.000000 
#    z 0.000000 0.000000 1.720370 
# 
# From -- ./inp_files/35350.got.cif
#   From: 2010.05.17/outbox.cif.g08.bks.cpg/sg53_18_cif.got.tgz:35350.got - 2010.06.03 12:45:16.
