data_PCOD9418475
_publ_section_title
;
Structure prediction by ZEFSAII (Michael W. Deem and Ramdas Pophale) SiO2 
 PCOD9418475
Probable space group: P M N A
;
_chemical_formula_sum "Si O2"
_cell_formula_units_Z 40
_cell_length_a 8.831816
_cell_length_b 16.675973
_cell_length_c 14.464157
_cell_angle_alpha 90.000000
_cell_angle_beta 90.000000
_cell_angle_gamma 90.000000
_cell_volume 2130.268389
_symmetry_space_group_name_H-M "P M N A"
_symmetry_group_IT_number 53
_symmetry_cell_setting 'orthorhombic'
loop_
_space_group_symop_operation_xyz
x,y,z
1/2-x,-y,1/2+z
x,-y,-z
1/2-x,y,1/2-z
-x,-y,-z
1/2+x,y,1/2-z
-x,y,z
1/2+x,-y,1/2+z
loop_
_atom_site_type_symbol
_atom_site_label
_atom_site_fract_x
_atom_site_fract_y
_atom_site_fract_z
Si Si1 0.682695 0.874051 0.466787
Si Si2 0.320440 0.390000 0.150153
Si Si3 0.180869 0.557959 0.147616
Si Si4 0.320716 0.298272 0.968813
Si Si5 0.682187 0.030115 0.350875
O O1 0.500000 0.866651 0.465392
O O2 0.757775 0.789241 0.447100
O O3 0.726401 0.906859 0.568814
O O4 0.724469 0.942919 0.392854
O O5 0.250000 0.372425 0.250000
O O6 0.500000 0.403681 0.159764
O O7 0.244793 0.472216 0.113974
O O8 0.295384 0.320075 0.076444
O O9 0.250000 0.566870 0.250000
O O10 0.237714 0.632396 0.088137
O O11 0.000000 0.555059 0.150759
O O12 0.500000 0.302725 0.950619
O O13 0.750000 0.044172 0.250000
O O14 0.500000 0.032210 0.344596
#
# Coordination Sequence:
#
# PCOD9418475 Si02
#       5
#     8   8   8   8   8
#     4   9  20  38  56  79 111 144 179 219 268 328
#     4  10  21  37  56  79 110 146 186 230 273 322
#     4  11  22  37  58  81 108 145 187 229 274 325
#     4  11  23  37  55  82 114 146 182 227 275 322
#     4   9  19  37  60  82 107 141 178 219 270 325
#
# _framework density 18.776976999999999
#
# number of rings (size 3 to 8) (size 9 to 14) (size 15 to 20)
#    0.000    2.000    0.000    6.000    0.000    8.800 
#    0.000    8.000    0.000    0.000    0.000    0.000 
#    0.000    0.000    0.000    0.000    0.000    0.000 
#
# Total GULP energy -223413.238629 kJ/mol
# GULP energy per Si atom -5585.330966 kJ/mol
# Density = 1.873424 g / cm^3
# Si number density = 18.776977 Si / 1000 Ang^3
#
#
#
# Elastic Constant Matrix: (Units=GPa)
#
#
# Indices 1 2 3 4 5 6 
#
# 1 58.5208 5.7789 1.9314 0.0000 0.0000 0.0000
# 2 5.7789 34.2613 -23.2842 0.0000 0.0000 0.0000
# 3 1.9314 -23.2842 35.3829 0.0000 0.0000 0.0000
# 4 0.0000 0.0000 0.0000 6.0199 0.0000 0.0000
# 5 0.0000 0.0000 0.0000 0.0000 38.8841 0.0000
# 6 0.0000 0.0000 0.0000 0.0000 0.0000 56.0875
#
#
#
# Elastic Compliance Matrix: (Units=1/GPa)
#
#
# Indices 1 2 3 4 5 6 
#
# 1 0.017924 -0.006672 -0.005369 0.000000 0.000000 0.000000
# 2 -0.006672 0.055286 0.036746 0.000000 0.000000 0.000000
# 3 -0.005369 0.036746 0.052736 0.000000 0.000000 0.000000
# 4 0.000000 0.000000 0.000000 0.166115 0.000000 0.000000
# 5 0.000000 0.000000 0.000000 0.000000 0.025717 0.000000
# 6 0.000000 0.000000 0.000000 0.000000 0.000000 0.017829
#
#
# Mechanical properties :
#
#
# Convention : Reuss Voigt Hill
#
# Bulk Modulus (GPa) = 5.70273 10.77967 8.24120
# Shear Modulus (GPa) = 14.50745 29.78090 22.14417
#
# Velocity S-wave (km/s) = 2.78262 3.98682 3.43786
# Velocity P-wave (km/s) = 3.65618 5.19099 4.48965
#
# Compressibility (1/GPa) = 0.17535474
#
# Stress axis : x y z
#
# Youngs Moduli (GPa) = 55.79105 18.08790 18.96226
#
# Poissons Ratio (x) = 0.12069 0.10181
# Poissons Ratio (y) = 0.37225 -0.69678
# Poissons Ratio (z) = 0.29955 -0.66465
#
# Static dielectric constant tensor:
#      x y z
#    x 1.627750 0.000000 0.000000 
#    y 0.000000 1.624580 0.000000 
#    z 0.000000 0.000000 1.669490 
# 
# From -- ./inp_files/19834.got.cif
#   From: 2010.05.17/outbox.cif.g08.bks.cpg/sg53_10_cif.got.tgz:19834.got - 2010.06.03 12:45:16.
