data_PCOD9418774
_publ_section_title
;
Structure prediction by ZEFSAII (Michael W. Deem and Ramdas Pophale) SiO2 
 PCOD9418774
Probable space group: P M N A
;
_chemical_formula_sum "Si O2"
_cell_formula_units_Z 40
_cell_length_a 17.796791
_cell_length_b 5.782624
_cell_length_c 18.123917
_cell_angle_alpha 90.000000
_cell_angle_beta 90.000000
_cell_angle_gamma 90.000000
_cell_volume 1865.171279
_symmetry_space_group_name_H-M "P M N A"
_symmetry_group_IT_number 53
_symmetry_cell_setting 'orthorhombic'
loop_
_space_group_symop_operation_xyz
x,y,z
1/2-x,-y,1/2+z
x,-y,-z
1/2-x,y,1/2-z
-x,-y,-z
1/2+x,y,1/2-z
-x,y,z
1/2+x,-y,1/2+z
loop_
_atom_site_type_symbol
_atom_site_label
_atom_site_fract_x
_atom_site_fract_y
_atom_site_fract_z
Si Si1 0.203595 0.619544 0.076921
Si Si2 0.418427 0.026828 0.835093
Si Si3 0.588040 0.656883 0.296938
Si Si4 0.641163 0.757203 0.035497
Si Si5 0.805944 0.336544 0.307159
O O1 0.132036 0.690329 0.126014
O O2 0.269815 0.791848 0.051570
O O3 0.253351 0.467152 0.134530
O O4 0.179906 0.500000 0.000000
O O5 0.500000 0.928109 0.848880
O O6 0.412750 0.108256 0.750785
O O7 0.403643 0.245036 0.887358
O O8 0.355474 0.842379 0.850820
O O9 0.500000 0.584339 0.304561
O O10 0.638683 0.486875 0.245411
O O11 0.633009 0.500000 0.000000
O O12 0.613160 0.000000 0.000000
O O13 0.750000 0.211752 0.250000
#
# Coordination Sequence:
#
# PCOD9418774 Si02
#       5
#     8   8   8   8   8
#     4  10  21  41  64  94 124 167 221 272 330 394
#     4  11  23  38  61  90 127 169 213 270 331 396
#     4  10  22  40  62  91 129 166 217 275 334 398
#     4  11  24  42  65  97 132 174 222 270 326 393
#     4  10  21  38  66  92 123 171 219 273 326 393
#
# _framework density 21.445753
#
# number of rings (size 3 to 8) (size 9 to 14) (size 15 to 20)
#    0.000    1.600    2.000    3.000    2.800    1.200 
#    0.000    0.000    0.000    1.800    0.000    0.000 
#    0.000    0.000    0.000    0.000    0.000    0.000 
#
# Total GULP energy -222792.318661 kJ/mol
# GULP energy per Si atom -5569.807967 kJ/mol
# Density = 2.139694 g / cm^3
# Si number density = 21.445753 Si / 1000 Ang^3
#
#
#
# Elastic Constant Matrix: (Units=GPa)
#
#
# Indices 1 2 3 4 5 6 
#
# 1 98.4709 28.9655 28.0518 0.0000 0.0000 0.0000
# 2 28.9655 64.0313 25.1089 0.0000 0.0000 0.0000
# 3 28.0518 25.1089 87.9282 0.0000 0.0000 0.0000
# 4 0.0000 0.0000 0.0000 27.2345 0.0000 0.0000
# 5 0.0000 0.0000 0.0000 0.0000 17.0398 0.0000
# 6 0.0000 0.0000 0.0000 0.0000 0.0000 20.3517
#
#
#
# Elastic Compliance Matrix: (Units=1/GPa)
#
#
# Indices 1 2 3 4 5 6 
#
# 1 0.012225 -0.004505 -0.002614 0.000000 0.000000 0.000000
# 2 -0.004505 0.019247 -0.004059 0.000000 0.000000 0.000000
# 3 -0.002614 -0.004059 0.013366 0.000000 0.000000 0.000000
# 4 0.000000 0.000000 0.000000 0.036718 0.000000 0.000000
# 5 0.000000 0.000000 0.000000 0.000000 0.058686 0.000000
# 6 0.000000 0.000000 0.000000 0.000000 0.000000 0.049136
#
#
# Mechanical properties :
#
#
# Convention : Reuss Voigt Hill
#
# Bulk Modulus (GPa) = 44.47947 46.07587 45.27767
# Shear Modulus (GPa) = 22.80730 24.14547 23.47639
#
# Velocity S-wave (km/s) = 3.26465 3.35906 3.31219
# Velocity P-wave (km/s) = 5.91575 6.04780 5.98214
#
# Compressibility (1/GPa) = 0.02248228
#
# Stress axis : x y z
#
# Youngs Moduli (GPa) = 81.79902 51.95608 74.81778
#
# Poissons Ratio (x) = 0.23408 0.19555
# Poissons Ratio (y) = 0.36853 0.30368
# Poissons Ratio (z) = 0.21379 0.21088
#
# Static dielectric constant tensor:
#      x y z
#    x 1.768310 0.000000 0.000000 
#    y 0.000000 1.821160 0.000000 
#    z 0.000000 0.000000 1.880350 
# 
# From -- ./inp_files/28771.got.cif
#   From: 2010.05.17/outbox.cif.g08.bks.cpg/sg53_15_cif.got.tgz:28771.got - 2010.06.03 12:45:16.
