data_PCOD9418972
_publ_section_title
;
Structure prediction by ZEFSAII (Michael W. Deem and Ramdas Pophale) SiO2 
 PCOD9418972
Probable space group: P M N A
;
_chemical_formula_sum "Si O2"
_cell_formula_units_Z 64
_cell_length_a 30.914967
_cell_length_b 18.377467
_cell_length_c 5.294944
_cell_angle_alpha 90.000000
_cell_angle_beta 90.000000
_cell_angle_gamma 90.000000
_cell_volume 3008.263055
_symmetry_space_group_name_H-M "P M N A"
_symmetry_group_IT_number 53
_symmetry_cell_setting 'orthorhombic'
loop_
_space_group_symop_operation_xyz
x,y,z
1/2-x,-y,1/2+z
x,-y,-z
1/2-x,y,1/2-z
-x,-y,-z
1/2+x,y,1/2-z
-x,y,z
1/2+x,-y,1/2+z
loop_
_atom_site_type_symbol
_atom_site_label
_atom_site_fract_x
_atom_site_fract_y
_atom_site_fract_z
Si Si1 0.814811 0.203913 0.691279
Si Si2 0.212213 0.916357 0.943705
Si Si3 0.548828 0.766383 0.545250
Si Si4 0.133626 0.676788 0.981750
Si Si5 0.332199 0.453591 0.749918
Si Si6 0.548739 0.136252 0.953121
Si Si7 0.863215 0.078495 0.404357
Si Si8 0.290809 0.659319 0.919744
O O1 0.846690 0.153580 0.528407
O O2 0.786793 0.259171 0.524864
O O3 0.789484 0.143456 0.843593
O O4 0.841529 0.258649 0.870002
O O5 0.250000 0.894118 0.750000
O O6 0.161523 0.916765 0.859960
O O7 0.222758 0.000000 0.000000
O O8 0.500000 0.738585 0.498296
O O9 0.586011 0.706502 0.565823
O O10 0.548572 0.807607 0.812891
O O11 0.558194 0.822308 0.312125
O O12 0.164490 0.659868 0.742088
O O13 0.132386 0.603698 0.148885
O O14 0.319892 0.500000 0.500000
O O15 0.344106 0.500000 0.000000
O O16 0.295840 0.398922 0.857299
O O17 0.500000 0.105527 0.931065
O O18 0.586097 0.081129 0.039074
O O19 0.846342 0.000000 0.500000
O O20 0.250000 0.641001 0.750000
#
# Coordination Sequence:
#
# PCOD9418972 Si02
#       8
#     8   8   8   8   8   8   8   8
#     4  11  24  43  65  93 129 176 232 300 345 410
#     4  12  27  45  62  88 127 182 242 296 359 420
#     4  10  21  40  69 102 137 179 232 292 352 415
#     4  11  23  43  72 103 139 178 235 280 349 405
#     4  11  24  48  75 107 145 192 225 278 339 425
#     4  10  22  40  65 100 137 178 231 295 364 426
#     4  12  24  41  65  91 131 185 235 295 369 425
#     4  11  26  47  72 107 138 183 235 286 347 412
#
# _framework density 21.274733999999999
#
# number of rings (size 3 to 8) (size 9 to 14) (size 15 to 20)
#    0.000    1.000    3.750    2.625    1.750    5.250 
#    2.250    0.000    0.000    3.375    0.000    0.000 
#    0.000    0.000    0.000    0.000    0.000    0.000 
#
# Total GULP energy -357305.295468 kJ/mol
# GULP energy per Si atom -5582.895242 kJ/mol
# Density = 2.122631 g / cm^3
# Si number density = 21.274734 Si / 1000 Ang^3
#
#
#
# Elastic Constant Matrix: (Units=GPa)
#
#
# Indices 1 2 3 4 5 6 
#
# 1 78.5309 22.5203 13.5673 0.0000 0.0000 0.0000
# 2 22.5203 125.6230 36.0259 0.0000 0.0000 0.0000
# 3 13.5673 36.0259 85.3385 0.0000 0.0000 0.0000
# 4 0.0000 0.0000 0.0000 51.5246 0.0000 0.0000
# 5 0.0000 0.0000 0.0000 0.0000 25.2542 0.0000
# 6 0.0000 0.0000 0.0000 0.0000 0.0000 78.9587
#
#
#
# Elastic Compliance Matrix: (Units=1/GPa)
#
#
# Indices 1 2 3 4 5 6 
#
# 1 0.013546 -0.002060 -0.001284 0.000000 0.000000 0.000000
# 2 -0.002060 0.009370 -0.003628 0.000000 0.000000 0.000000
# 3 -0.001284 -0.003628 0.013454 0.000000 0.000000 0.000000
# 4 0.000000 0.000000 0.000000 0.019408 0.000000 0.000000
# 5 0.000000 0.000000 0.000000 0.000000 0.039597 0.000000
# 6 0.000000 0.000000 0.000000 0.000000 0.000000 0.012665
#
#
# Mechanical properties :
#
#
# Convention : Reuss Voigt Hill
#
# Bulk Modulus (GPa) = 44.59137 48.19105 46.39121
# Shear Modulus (GPa) = 38.62182 45.63944 42.13063
#
# Velocity S-wave (km/s) = 4.26535 4.63670 4.45490
# Velocity P-wave (km/s) = 6.72777 7.16703 6.95087
#
# Compressibility (1/GPa) = 0.02242586
#
# Stress axis : x y z
#
# Youngs Moduli (GPa) = 73.81993 106.72222 74.32863
#
# Poissons Ratio (x) = 0.21988 0.09543
# Poissons Ratio (y) = 0.15209 0.26967
# Poissons Ratio (z) = 0.09478 0.38720
#
# Static dielectric constant tensor:
#      x y z
#    x 1.811220 0.000000 0.000000 
#    y 0.000000 1.763490 0.000000 
#    z 0.000000 0.000000 1.827830 
# 
# From -- ./inp_files/5453.got.cif
#   From: 2010.05.17/outbox.cif.g08.bks.cpg/sg53_3_cif.got.tgz:5453.got - 2010.06.03 12:45:16.
