data_PCOD9418670
_publ_section_title
;
Structure prediction by ZEFSAII (Michael W. Deem and Ramdas Pophale) SiO2 
 PCOD9418670
Probable space group: P M N A
;
_chemical_formula_sum "Si O2"
_cell_formula_units_Z 40
_cell_length_a 13.535402
_cell_length_b 8.067787
_cell_length_c 15.081998
_cell_angle_alpha 90.000000
_cell_angle_beta 90.000000
_cell_angle_gamma 90.000000
_cell_volume 1646.965347
_symmetry_space_group_name_H-M "P M N A"
_symmetry_group_IT_number 53
_symmetry_cell_setting 'orthorhombic'
loop_
_space_group_symop_operation_xyz
x,y,z
1/2-x,-y,1/2+z
x,-y,-z
1/2-x,y,1/2-z
-x,-y,-z
1/2+x,y,1/2-z
-x,y,z
1/2+x,-y,1/2+z
loop_
_atom_site_type_symbol
_atom_site_label
_atom_site_fract_x
_atom_site_fract_y
_atom_site_fract_z
Si Si1 0.142837 0.690183 0.281836
Si Si2 0.111232 0.801895 0.820153
Si Si3 0.394820 0.172025 0.600403
Si Si4 0.174429 0.184897 0.535601
Si Si5 0.824794 0.325480 0.355152
O O1 0.250000 0.749097 0.250000
O O2 0.093153 0.717867 0.188281
O O3 0.119671 0.788839 0.371344
O O4 0.146509 0.501361 0.314085
O O5 0.131235 0.808441 0.713928
O O6 0.205551 0.697078 0.853377
O O7 0.000000 0.736252 0.833630
O O8 0.116283 0.982445 0.865064
O O9 0.500000 0.184175 0.549666
O O10 0.292324 0.216034 0.552694
O O11 0.141053 0.301446 0.455210
O O12 0.164417 0.000000 0.500000
#
# Coordination Sequence:
#
# PCOD9418670 Si02
#       5
#     8   8   8   8   8
#     4  10  21  38  59  85 119 165 205 245 307 371
#     4  10  21  38  63  91 123 164 210 253 308 374
#     4  10  22  39  62  93 125 162 209 259 310 376
#     4  11  21  35  62  91 120 162 208 251 309 369
#     4  11  21  39  60  93 127 168 204 259 317 366
#
# _framework density 24.287092000000001
#
# number of rings (size 3 to 8) (size 9 to 14) (size 15 to 20)
#    0.000    1.600    4.000    1.800    5.600    2.000 
#    0.000    1.000    0.000    9.600    0.000    0.000 
#    0.000    0.000    0.000    0.000    0.000    0.000 
#
# Total GULP energy -223375.188979 kJ/mol
# GULP energy per Si atom -5584.379724 kJ/mol
# Density = 2.423181 g / cm^3
# Si number density = 24.287092 Si / 1000 Ang^3
#
#
#
# Elastic Constant Matrix: (Units=GPa)
#
#
# Indices 1 2 3 4 5 6 
#
# 1 78.7945 3.3642 -22.6872 0.0000 0.0000 0.0000
# 2 3.3642 66.1976 37.7072 0.0000 0.0000 0.0000
# 3 -22.6872 37.7072 144.9062 0.0000 0.0000 0.0000
# 4 0.0000 0.0000 0.0000 38.9552 0.0000 0.0000
# 5 0.0000 0.0000 0.0000 0.0000 -0.1395 0.0000
# 6 0.0000 0.0000 0.0000 0.0000 0.0000 7.3450
#
#
#
# Elastic Compliance Matrix: (Units=1/GPa)
#
#
# Indices 1 2 3 4 5 6 
#
# 1 0.013565 -0.002230 0.002704 0.000000 0.000000 0.000000
# 2 -0.002230 0.018102 -0.005059 0.000000 0.000000 0.000000
# 3 0.002704 -0.005059 0.008641 0.000000 0.000000 0.000000
# 4 0.000000 0.000000 0.000000 0.025670 0.000000 0.000000
# 5 0.000000 0.000000 0.000000 0.000000 -7.166779 0.000000
# 6 0.000000 0.000000 0.000000 0.000000 0.000000 0.136146
#
#
# Mechanical properties :
#
#
# Convention : Reuss Voigt Hill
#
# Bulk Modulus (GPa) = 32.11578 36.29629 34.20603
# Shear Modulus (GPa) = -0.71993 27.33310 13.30658
#
# Velocity S-wave (km/s) = -0.54504 3.35836 2.34324
# Velocity P-wave (km/s) = 3.58553 5.47862 4.62986
#
# Compressibility (1/GPa) = 0.03113735
#
# Stress axis : x y z
#
# Youngs Moduli (GPa) = 73.71918 55.24401 115.72853
#
# Poissons Ratio (x) = 0.12317 -0.31293
# Poissons Ratio (y) = 0.16436 0.58552
# Poissons Ratio (z) = -0.19934 0.27950
#
# Static dielectric constant tensor:
#      x y z
#    x 1.959880 0.000000 0.000000 
#    y 0.000000 1.949430 0.000000 
#    z 0.000000 0.000000 1.962080 
# 
# From -- ./inp_files/22443.got.cif
#   From: 2010.05.17/outbox.cif.g08.bks.cpg/sg53_12_cif.got.tgz:22443.got - 2010.06.03 12:45:16.
