data_PCOD9418079
_publ_section_title
;
Structure prediction by ZEFSAII (Michael W. Deem and Ramdas Pophale) SiO2 
 PCOD9418079
Probable space group: P M N A
;
_chemical_formula_sum "Si O2"
_cell_formula_units_Z 32
_cell_length_a 29.408365
_cell_length_b 5.066067
_cell_length_c 10.402548
_cell_angle_alpha 90.000000
_cell_angle_beta 90.000000
_cell_angle_gamma 90.000000
_cell_volume 1549.820987
_symmetry_space_group_name_H-M "P M N A"
_symmetry_group_IT_number 53
_symmetry_cell_setting 'orthorhombic'
loop_
_space_group_symop_operation_xyz
x,y,z
1/2-x,-y,1/2+z
x,-y,-z
1/2-x,y,1/2-z
-x,-y,-z
1/2+x,y,1/2-z
-x,y,z
1/2+x,-y,1/2+z
loop_
_atom_site_type_symbol
_atom_site_label
_atom_site_fract_x
_atom_site_fract_y
_atom_site_fract_z
Si Si1 0.312069 0.000000 0.500000
Si Si2 0.350218 0.081367 0.232330
Si Si3 0.500000 0.744487 0.096274
Si Si4 0.403192 0.408012 0.853456
Si Si5 0.765381 0.357432 0.381810
O O1 0.342947 0.033535 0.624769
O O2 0.277837 0.769992 0.546193
O O3 0.381079 0.347042 0.225048
O O4 0.300818 0.148852 0.174685
O O5 0.372005 0.847238 0.153659
O O6 0.453910 0.701829 0.177851
O O7 0.500000 0.500000 0.000000
O O8 0.500000 0.000000 0.000000
O O9 0.404886 0.500000 0.000000
O O10 0.789804 0.500000 0.500000
O O11 0.750000 0.507181 0.250000
#
# Coordination Sequence:
#
# PCOD9418079 Si02
#       5
#     4   8   4   8   8
#     4  10  26  42  58  87 124 177 210 264 314 364
#     4  11  25  41  64  89 128 167 216 260 312 386
#     4  10  20  38  64  97 132 159 196 260 333 386
#     4  11  23  40  65  97 126 160 202 263 323 386
#     4  10  24  40  60  88 123 170 216 266 314 372
#
# _framework density 20.647548
#
# number of rings (size 3 to 8) (size 9 to 14) (size 15 to 20)
#    0.000    1.500    0.000    4.500   14.000    1.000 
#    0.000    0.000    0.000    4.500    0.000    0.000 
#    0.000    0.000    0.000    0.000    0.000    0.000 
#
# Total GULP energy -178494.726291 kJ/mol
# GULP energy per Si atom -5577.960197 kJ/mol
# Density = 2.060055 g / cm^3
# Si number density = 20.647548 Si / 1000 Ang^3
#
#
#
# Elastic Constant Matrix: (Units=GPa)
#
#
# Indices 1 2 3 4 5 6 
#
# 1 106.6805 31.6829 33.6922 0.0000 0.0000 0.0000
# 2 31.6829 105.9383 28.8707 0.0000 0.0000 0.0000
# 3 33.6922 28.8707 118.8059 0.0000 0.0000 0.0000
# 4 0.0000 0.0000 0.0000 25.6118 0.0000 0.0000
# 5 0.0000 0.0000 0.0000 0.0000 113.9831 0.0000
# 6 0.0000 0.0000 0.0000 0.0000 0.0000 30.0175
#
#
#
# Elastic Compliance Matrix: (Units=1/GPa)
#
#
# Indices 1 2 3 4 5 6 
#
# 1 0.010924 -0.002595 -0.002467 0.000000 0.000000 0.000000
# 2 -0.002595 0.010725 -0.001871 0.000000 0.000000 0.000000
# 3 -0.002467 -0.001871 0.009571 0.000000 0.000000 0.000000
# 4 0.000000 0.000000 0.000000 0.039044 0.000000 0.000000
# 5 0.000000 0.000000 0.000000 0.000000 0.008773 0.000000
# 6 0.000000 0.000000 0.000000 0.000000 0.000000 0.033314
#
#
# Mechanical properties :
#
#
# Convention : Reuss Voigt Hill
#
# Bulk Modulus (GPa) = 57.61906 57.76849 57.69378
# Shear Modulus (GPa) = 37.87836 49.73440 43.80638
#
# Velocity S-wave (km/s) = 4.28778 4.91321 4.61111
# Velocity P-wave (km/s) = 7.24431 7.76049 7.50684
#
# Compressibility (1/GPa) = 0.01735537
#
# Stress axis : x y z
#
# Youngs Moduli (GPa) = 91.54516 93.23872 104.47838
#
# Poissons Ratio (x) = 0.24191 0.25778
# Poissons Ratio (y) = 0.23751 0.19543
# Poissons Ratio (z) = 0.22587 0.17440
#
# Static dielectric constant tensor:
#      x y z
#    x 1.848900 0.000000 0.000000 
#    y 0.000000 1.798320 0.000000 
#    z 0.000000 0.000000 1.887620 
# 
# From -- ./inp_files/12794.got.cif
#   From: 2010.05.17/outbox.cif.g08.bks.cpg/sg53_7_cif.got.tgz:12794.got - 2010.06.03 12:45:16.
