data_PCOD9418620
_publ_section_title
;
Structure prediction by ZEFSAII (Michael W. Deem and Ramdas Pophale) SiO2 
 PCOD9418620
Probable space group: P M N A
;
_chemical_formula_sum "Si O2"
_cell_formula_units_Z 32
_cell_length_a 27.920165
_cell_length_b 8.083234
_cell_length_c 6.134473
_cell_angle_alpha 90.000000
_cell_angle_beta 90.000000
_cell_angle_gamma 90.000000
_cell_volume 1384.459932
_symmetry_space_group_name_H-M "P M N A"
_symmetry_group_IT_number 53
_symmetry_cell_setting 'orthorhombic'
loop_
_space_group_symop_operation_xyz
x,y,z
1/2-x,-y,1/2+z
x,-y,-z
1/2-x,y,1/2-z
-x,-y,-z
1/2+x,y,1/2-z
-x,y,z
1/2+x,-y,1/2+z
loop_
_atom_site_type_symbol
_atom_site_label
_atom_site_fract_x
_atom_site_fract_y
_atom_site_fract_z
Si Si1 0.876201 0.320489 0.607279
Si Si2 0.855972 0.856582 0.811709
Si Si3 0.553734 0.302366 0.530985
Si Si4 0.714053 0.675092 0.421667
O O1 0.882947 0.500000 0.500000
O O2 0.858334 0.174577 0.448943
O O3 0.924573 0.268349 0.730041
O O4 0.835325 0.352412 0.788602
O O5 0.906471 0.767775 0.869216
O O6 0.805263 0.771928 0.871291
O O7 0.856398 0.000000 0.000000
O O8 0.552921 0.500000 0.500000
O O9 0.500000 0.238557 0.500977
O O10 0.734941 0.500000 0.500000
O O11 0.750000 0.756554 0.250000
#
# Coordination Sequence:
#
# PCOD9418620 Si02
#       4
#     8   8   8   8
#     4  11  19  39  65  86 120 165 210 258 320 387
#     4  11  24  42  60  90 131 168 205 267 332 393
#     4  10  21  37  62  95 123 158 218 271 318 390
#     4  11  23  39  63  94 118 157 215 267 317 390
#
# _framework density 23.113706000000001
#
# number of rings (size 3 to 8) (size 9 to 14) (size 15 to 20)
#    0.000    1.250    5.000    2.250    0.000    6.000 
#    4.500    1.250    0.000    0.000    0.000    0.000 
#    0.000    0.000    0.000    0.000    0.000    0.000 
#
# Total GULP energy -178268.008820 kJ/mol
# GULP energy per Si atom -5570.875276 kJ/mol
# Density = 2.306110 g / cm^3
# Si number density = 23.113706 Si / 1000 Ang^3
#
#
#
# Elastic Constant Matrix: (Units=GPa)
#
#
# Indices 1 2 3 4 5 6 
#
# 1 95.7887 -18.7216 -8.5557 0.0000 0.0000 0.0000
# 2 -18.7216 59.2588 2.4928 0.0000 0.0000 0.0000
# 3 -8.5557 2.4928 81.3846 0.0000 0.0000 0.0000
# 4 0.0000 0.0000 0.0000 30.3508 0.0000 0.0000
# 5 0.0000 0.0000 0.0000 0.0000 17.7135 0.0000
# 6 0.0000 0.0000 0.0000 0.0000 0.0000 -16.9155
#
#
#
# Elastic Compliance Matrix: (Units=1/GPa)
#
#
# Indices 1 2 3 4 5 6 
#
# 1 0.011219 0.003499 0.001072 0.000000 0.000000 0.000000
# 2 0.003499 0.017988 -0.000183 0.000000 0.000000 0.000000
# 3 0.001072 -0.000183 0.012406 0.000000 0.000000 0.000000
# 4 0.000000 0.000000 0.000000 0.032948 0.000000 0.000000
# 5 0.000000 0.000000 0.000000 0.000000 0.056454 0.000000
# 6 0.000000 0.000000 0.000000 0.000000 0.000000 -0.059117
#
#
# Mechanical properties :
#
#
# Convention : Reuss Voigt Hill
#
# Bulk Modulus (GPa) = 19.84497 20.76257 20.30377
# Shear Modulus (GPa) = 62.56408 23.64420 43.10414
#
# Velocity S-wave (km/s) = 5.20833 3.20183 4.32310
# Velocity P-wave (km/s) = 6.69129 4.76143 5.80709
#
# Compressibility (1/GPa) = 0.05039061
#
# Stress axis : x y z
#
# Youngs Moduli (GPa) = 89.13162 55.59141 80.60831
#
# Poissons Ratio (x) = -0.19454 -0.08643
# Poissons Ratio (y) = -0.31191 0.01476
# Poissons Ratio (z) = -0.09557 0.01018
#
# Static dielectric constant tensor:
#      x y z
#    x 1.807430 0.000000 0.000000 
#    y 0.000000 2.009860 0.000000 
#    z 0.000000 0.000000 2.001220 
# 
# From -- ./inp_files/4916.got.cif
#   From: 2010.05.17/outbox.cif.g08.bks.cpg/sg53_3_cif.got.tgz:4916.got - 2010.06.03 12:45:16.
