data_PCOD9418850
_publ_section_title
;
Structure prediction by ZEFSAII (Michael W. Deem and Ramdas Pophale) SiO2 
 PCOD9418850
Probable space group: P M N A
;
_chemical_formula_sum "Si O2"
_cell_formula_units_Z 64
_cell_length_a 18.281737
_cell_length_b 14.364975
_cell_length_c 13.791969
_cell_angle_alpha 90.000000
_cell_angle_beta 90.000000
_cell_angle_gamma 90.000000
_cell_volume 3622.001316
_symmetry_space_group_name_H-M "P M N A"
_symmetry_group_IT_number 53
_symmetry_cell_setting 'orthorhombic'
loop_
_space_group_symop_operation_xyz
x,y,z
1/2-x,-y,1/2+z
x,-y,-z
1/2-x,y,1/2-z
-x,-y,-z
1/2+x,y,1/2-z
-x,y,z
1/2+x,-y,1/2+z
loop_
_atom_site_type_symbol
_atom_site_label
_atom_site_fract_x
_atom_site_fract_y
_atom_site_fract_z
Si Si1 0.586851 0.499362 0.386702
Si Si2 0.586226 0.283859 0.353126
Si Si3 0.914880 0.959827 0.163947
Si Si4 0.414667 0.187359 0.841654
Si Si5 0.163110 0.132215 0.262277
Si Si6 0.337457 0.187931 0.533415
Si Si7 0.318854 0.890763 0.982019
Si Si8 0.830960 0.331038 0.788023
O O1 0.608266 0.500000 0.500000
O O2 0.500000 0.520531 0.382310
O O3 0.598442 0.394244 0.351029
O O4 0.629785 0.576840 0.327032
O O5 0.500000 0.266255 0.341514
O O6 0.632350 0.230385 0.272644
O O7 0.612787 0.240567 0.455181
O O8 0.910705 0.891659 0.257758
O O9 0.876517 0.903630 0.077086
O O10 0.000000 0.977284 0.142187
O O11 0.874241 0.053693 0.195194
O O12 0.500000 0.202729 0.863722
O O13 0.377719 0.278594 0.794838
O O14 0.370129 0.151704 0.934458
O O15 0.250000 0.125118 0.250000
O O16 0.147007 0.118469 0.375492
O O17 0.259742 0.159669 0.488127
O O18 0.325504 0.257794 0.623251
O O19 0.307379 0.000000 0.000000
O O20 0.750000 0.350818 0.750000
#
# Coordination Sequence:
#
# PCOD9418850 Si02
#       8
#     8   8   8   8   8   8   8   8
#     4  10  21  39  64  91 119 155 198 248 309 371
#     4  11  24  41  62  91 123 157 200 253 311 369
#     4  10  22  37  58  88 120 156 199 247 298 357
#     4  10  22  37  59  89 118 154 201 251 297 346
#     4  12  24  39  59  84 123 166 203 248 298 357
#     4  11  22  38  62  90 123 155 200 247 310 364
#     4  12  23  40  61  83 121 170 211 247 292 357
#     4  11  21  38  65  93 122 153 195 255 307 365
#
# _framework density 17.669789999999999
#
# number of rings (size 3 to 8) (size 9 to 14) (size 15 to 20)
#    0.000    1.125    5.000    1.875    0.000    2.750 
#    0.000    1.250    0.000    0.000    0.000    2.625 
#    0.000    0.000    0.000    0.000    0.000    0.000 
#
# Total GULP energy -357755.072512 kJ/mol
# GULP energy per Si atom -5589.923008 kJ/mol
# Density = 1.762957 g / cm^3
# Si number density = 17.669790 Si / 1000 Ang^3
#
#
#
# Elastic Constant Matrix: (Units=GPa)
#
#
# Indices 1 2 3 4 5 6 
#
# 1 94.7862 49.8584 2.3754 0.0000 0.0000 0.0000
# 2 49.8584 92.1188 23.2957 0.0000 0.0000 0.0000
# 3 2.3754 23.2957 43.7137 0.0000 0.0000 0.0000
# 4 0.0000 0.0000 0.0000 30.3791 0.0000 0.0000
# 5 0.0000 0.0000 0.0000 0.0000 -14.9835 0.0000
# 6 0.0000 0.0000 0.0000 0.0000 0.0000 29.1579
#
#
#
# Elastic Compliance Matrix: (Units=1/GPa)
#
#
# Indices 1 2 3 4 5 6 
#
# 1 0.015377 -0.009375 0.004160 0.000000 0.000000 0.000000
# 2 -0.009375 0.018262 -0.009223 0.000000 0.000000 0.000000
# 3 0.004160 -0.009223 0.027565 0.000000 0.000000 0.000000
# 4 0.000000 0.000000 0.000000 0.032917 0.000000 0.000000
# 5 0.000000 0.000000 0.000000 0.000000 -0.066740 0.000000
# 6 0.000000 0.000000 0.000000 0.000000 0.000000 0.034296
#
#
# Mechanical properties :
#
#
# Convention : Reuss Voigt Hill
#
# Bulk Modulus (GPa) = 30.93121 42.40863 36.66992
# Shear Modulus (GPa) = 49.34483 19.24996 34.29740
#
# Velocity S-wave (km/s) = 5.29025 3.30423 4.41048
# Velocity P-wave (km/s) = 7.40667 6.21369 6.83625
#
# Compressibility (1/GPa) = 0.03232981
#
# Stress axis : x y z
#
# Youngs Moduli (GPa) = 65.03211 54.75905 36.27799
#
# Poissons Ratio (x) = 0.51335 -0.15093
# Poissons Ratio (y) = 0.60966 0.33458
# Poissons Ratio (z) = -0.27056 0.50502
#
# Static dielectric constant tensor:
#      x y z
#    x 1.579660 0.000000 0.000000 
#    y 0.000000 1.579250 0.000000 
#    z 0.000000 0.000000 1.601090 
# 
# From -- ./inp_files/23871.got.cif
#   From: 2010.05.17/outbox.cif.g08.bks.cpg/sg53_12_cif.got.tgz:23871.got - 2010.06.03 12:45:16.
