data_PCOD9418872
_publ_section_title
;
Structure prediction by ZEFSAII (Michael W. Deem and Ramdas Pophale) SiO2 
 PCOD9418872
Probable space group: P M N A
;
_chemical_formula_sum "Si O2"
_cell_formula_units_Z 64
_cell_length_a 18.669808
_cell_length_b 16.895298
_cell_length_c 9.711280
_cell_angle_alpha 90.000000
_cell_angle_beta 90.000000
_cell_angle_gamma 90.000000
_cell_volume 3063.248179
_symmetry_space_group_name_H-M "P M N A"
_symmetry_group_IT_number 53
_symmetry_cell_setting 'orthorhombic'
loop_
_space_group_symop_operation_xyz
x,y,z
1/2-x,-y,1/2+z
x,-y,-z
1/2-x,y,1/2-z
-x,-y,-z
1/2+x,y,1/2-z
-x,y,z
1/2+x,-y,1/2+z
loop_
_atom_site_type_symbol
_atom_site_label
_atom_site_fract_x
_atom_site_fract_y
_atom_site_fract_z
Si Si1 0.080696 0.903996 0.483242
Si Si2 0.585265 0.051216 0.681258
Si Si3 0.080602 0.288439 0.768528
Si Si4 0.165575 0.109718 0.258402
Si Si5 0.078033 0.405673 0.993594
Si Si6 0.156844 0.818750 0.017594
Si Si7 0.283583 0.289129 0.895580
Si Si8 0.229867 0.419780 0.091618
O O1 0.092100 0.896436 0.320462
O O2 0.138786 0.870442 0.588432
O O3 0.000000 0.878185 0.519821
O O4 0.082131 0.000000 0.500000
O O5 0.500000 0.047814 0.647150
O O6 0.635402 0.094209 0.570755
O O7 0.616805 0.965177 0.714603
O O8 0.100507 0.235901 0.902037
O O9 0.135520 0.273260 0.646807
O O10 0.000000 0.274841 0.725504
O O11 0.088157 0.375722 0.836472
O O12 0.250000 0.089327 0.250000
O O13 0.153471 0.178110 0.146367
O O14 0.148846 0.385626 0.078607
O O15 0.000000 0.374283 0.038956
O O16 0.074411 0.500000 0.000000
O O17 0.233571 0.785583 0.066455
O O18 0.250000 0.320313 0.750000
O O19 0.276892 0.353502 0.014898
O O20 0.250000 0.433278 0.250000
O O21 0.233653 0.500000 0.000000
#
# Coordination Sequence:
#
# PCOD9418872 Si02
#       8
#     8   8   8   8   8   8   8   8
#     4   8  17  36  58  78 108 147 186 239 302 364
#     4  10  22  41  64  88 114 150 202 259 314 377
#     4  10  21  39  65  91 124 169 212 256 314 372
#     4  11  24  37  56  87 119 155 199 251 316 373
#     4   9  18  35  62  94 126 164 210 259 312 363
#     4  11  23  38  58  88 123 159 203 257 306 367
#     4  10  21  41  60  89 126 164 207 259 306 368
#     4  11  22  37  66  98 130 169 215 259 312 371
#
# _framework density 20.892854
#
# number of rings (size 3 to 8) (size 9 to 14) (size 15 to 20)
#    0.000    2.000    2.500    2.250    1.750   10.500 
#    0.000    0.625    0.000    1.500    0.000    0.000 
#    0.000    0.000    0.000    0.000    0.000    0.000 
#
# Total GULP energy -357111.490018 kJ/mol
# GULP energy per Si atom -5579.867032 kJ/mol
# Density = 2.084530 g / cm^3
# Si number density = 20.892854 Si / 1000 Ang^3
#
#
#
# Elastic Constant Matrix: (Units=GPa)
#
#
# Indices 1 2 3 4 5 6 
#
# 1 170.3864 29.9845 65.6591 0.0000 0.0000 0.0000
# 2 29.9845 62.1641 28.3386 0.0000 0.0000 0.0000
# 3 65.6591 28.3386 138.8295 0.0000 0.0000 0.0000
# 4 0.0000 0.0000 0.0000 32.3019 0.0000 0.0000
# 5 0.0000 0.0000 0.0000 0.0000 6.2522 0.0000
# 6 0.0000 0.0000 0.0000 0.0000 0.0000 12.7201
#
#
#
# Elastic Compliance Matrix: (Units=1/GPa)
#
#
# Indices 1 2 3 4 5 6 
#
# 1 0.007437 -0.002187 -0.003071 0.000000 0.000000 0.000000
# 2 -0.002187 0.018380 -0.002717 0.000000 0.000000 0.000000
# 3 -0.003071 -0.002717 0.009210 0.000000 0.000000 0.000000
# 4 0.000000 0.000000 0.000000 0.030958 0.000000 0.000000
# 5 0.000000 0.000000 0.000000 0.000000 0.159944 0.000000
# 6 0.000000 0.000000 0.000000 0.000000 0.000000 0.078615
#
#
# Mechanical properties :
#
#
# Convention : Reuss Voigt Hill
#
# Bulk Modulus (GPa) = 52.42094 68.81603 60.61849
# Shear Modulus (GPa) = 15.29727 26.74804 21.02265
#
# Velocity S-wave (km/s) = 2.70881 3.58194 3.17553
# Velocity P-wave (km/s) = 5.91002 7.07927 6.52091
#
# Compressibility (1/GPa) = 0.01907635
#
# Stress axis : x y z
#
# Youngs Moduli (GPa) = 134.45620 54.40614 108.57561
#
# Poissons Ratio (x) = 0.11901 0.33343
# Poissons Ratio (y) = 0.29411 0.29504
# Poissons Ratio (z) = 0.41291 0.14784
#
# Static dielectric constant tensor:
#      x y z
#    x 1.769960 0.000000 0.000000 
#    y 0.000000 1.808500 0.000000 
#    z 0.000000 0.000000 1.797560 
# 
# From -- ./inp_files/11208.got.cif
#   From: 2010.05.17/outbox.cif.g08.bks.cpg/sg53_6_cif.got.tgz:11208.got - 2010.06.03 12:45:16.
