data_PCOD9418402
_publ_section_title
;
Structure prediction by ZEFSAII (Michael W. Deem and Ramdas Pophale) SiO2 
 PCOD9418402
Probable space group: P M N A
;
_chemical_formula_sum "Si O2"
_cell_formula_units_Z 64
_cell_length_a 14.734256
_cell_length_b 11.011353
_cell_length_c 17.972656
_cell_angle_alpha 90.000000
_cell_angle_beta 90.000000
_cell_angle_gamma 90.000000
_cell_volume 2915.957290
_symmetry_space_group_name_H-M "P M N A"
_symmetry_group_IT_number 53
_symmetry_cell_setting 'orthorhombic'
loop_
_space_group_symop_operation_xyz
x,y,z
1/2-x,-y,1/2+z
x,-y,-z
1/2-x,y,1/2-z
-x,-y,-z
1/2+x,y,1/2-z
-x,y,z
1/2+x,-y,1/2+z
loop_
_atom_site_type_symbol
_atom_site_label
_atom_site_fract_x
_atom_site_fract_y
_atom_site_fract_z
Si Si1 0.103676 0.156320 0.957579
Si Si2 0.397303 0.633645 0.334996
Si Si3 0.773429 0.795479 0.898751
Si Si4 0.605540 0.691778 0.073098
Si Si5 0.255583 0.514571 0.583150
Si Si6 0.609300 0.167437 0.787951
Si Si7 0.401283 0.885488 0.944916
Si Si8 0.608034 0.033711 0.324611
O O1 0.103159 0.273224 0.904290
O O2 0.000000 0.142465 0.987178
O O3 0.122715 0.045451 0.900831
O O4 0.176103 0.177275 0.022354
O O5 0.500000 0.586177 0.326480
O O6 0.323006 0.535954 0.354736
O O7 0.374492 0.715806 0.264114
O O8 0.744552 0.655721 0.899281
O O9 0.684561 0.878799 0.892725
O O10 0.842331 0.839495 0.835765
O O11 0.500000 0.662707 0.090661
O O12 0.667059 0.572295 0.078158
O O13 0.642697 0.792368 0.131529
O O14 0.604422 0.763718 0.995423
O O15 0.297454 0.500000 0.500000
O O16 0.500000 0.152936 0.793842
O O17 0.641327 0.050132 0.743316
O O18 0.500000 0.891231 0.907795
O O19 0.395942 0.000000 0.000000
O O20 0.500000 0.048502 0.317829
#
# Coordination Sequence:
#
# PCOD9418402 Si02
#       8
#     8   8   8   8   8   8   8   8
#     4   9  16  28  49  78 113 153 191 227 281 348
#     4   9  18  33  52  78 116 156 196 240 279 338
#     4  12  21  32  50  78 122 158 188 232 290 351
#     4  10  21  40  65  86 109 150 203 263 308 338
#     4  12  23  35  50  84 122 162 208 236 282 364
#     4   8  17  37  64  89 109 140 197 253 300 353
#     4  10  21  36  56  82 110 143 190 248 305 349
#     4   9  18  32  55  89 120 149 188 237 295 358
#
# _framework density 21.948194999999998
#
# number of rings (size 3 to 8) (size 9 to 14) (size 15 to 20)
#    0.000    2.125    2.500    3.000    0.000    4.500 
#    0.000    0.000    0.000    3.000    0.000    5.250 
#    0.000    0.000    0.000    0.000    0.000    0.000 
#
# Total GULP energy -357584.352900 kJ/mol
# GULP energy per Si atom -5587.255514 kJ/mol
# Density = 2.189824 g / cm^3
# Si number density = 21.948195 Si / 1000 Ang^3
#
#
#
# Elastic Constant Matrix: (Units=GPa)
#
#
# Indices 1 2 3 4 5 6 
#
# 1 85.5059 41.5323 10.3547 0.0000 0.0000 0.0000
# 2 41.5323 106.3360 9.5570 0.0000 0.0000 0.0000
# 3 10.3547 9.5570 45.1755 0.0000 0.0000 0.0000
# 4 0.0000 0.0000 0.0000 12.9814 0.0000 0.0000
# 5 0.0000 0.0000 0.0000 0.0000 16.8299 0.0000
# 6 0.0000 0.0000 0.0000 0.0000 0.0000 22.6622
#
#
#
# Elastic Compliance Matrix: (Units=1/GPa)
#
#
# Indices 1 2 3 4 5 6 
#
# 1 0.014642 -0.005522 -0.002188 0.000000 0.000000 0.000000
# 2 -0.005522 0.011669 -0.001203 0.000000 0.000000 0.000000
# 3 -0.002188 -0.001203 0.022892 0.000000 0.000000 0.000000
# 4 0.000000 0.000000 0.000000 0.077033 0.000000 0.000000
# 5 0.000000 0.000000 0.000000 0.000000 0.059418 0.000000
# 6 0.000000 0.000000 0.000000 0.000000 0.000000 0.044126
#
#
# Mechanical properties :
#
#
# Convention : Reuss Voigt Hill
#
# Bulk Modulus (GPa) = 31.87032 39.98950 35.92991
# Shear Modulus (GPa) = 19.37489 22.19961 20.78725
#
# Velocity S-wave (km/s) = 2.97434 3.18379 3.08085
# Velocity P-wave (km/s) = 5.13302 5.63692 5.39086
#
# Compressibility (1/GPa) = 0.03137715
#
# Stress axis : x y z
#
# Youngs Moduli (GPa) = 68.29487 85.69601 43.68365
#
# Poissons Ratio (x) = 0.47324 0.09558
# Poissons Ratio (y) = 0.37715 0.05255
# Poissons Ratio (z) = 0.14942 0.10308
#
# Static dielectric constant tensor:
#      x y z
#    x 1.835170 0.000000 0.000000 
#    y 0.000000 1.789540 0.000000 
#    z 0.000000 0.000000 1.812260 
# 
# From -- ./inp_files/28529.got.cif
#   From: 2010.05.17/outbox.cif.g08.bks.cpg/sg53_15_cif.got.tgz:28529.got - 2010.06.03 12:45:16.
