data_PCOD9418797
_publ_section_title
;
Structure prediction by ZEFSAII (Michael W. Deem and Ramdas Pophale) SiO2 
 PCOD9418797
Probable space group: P M N A
;
_chemical_formula_sum "Si O2"
_cell_formula_units_Z 64
_cell_length_a 22.363924
_cell_length_b 16.242052
_cell_length_c 8.244445
_cell_angle_alpha 90.000000
_cell_angle_beta 90.000000
_cell_angle_gamma 90.000000
_cell_volume 2994.679360
_symmetry_space_group_name_H-M "P M N A"
_symmetry_group_IT_number 53
_symmetry_cell_setting 'orthorhombic'
loop_
_space_group_symop_operation_xyz
x,y,z
1/2-x,-y,1/2+z
x,-y,-z
1/2-x,y,1/2-z
-x,-y,-z
1/2+x,y,1/2-z
-x,y,z
1/2+x,-y,1/2+z
loop_
_atom_site_type_symbol
_atom_site_label
_atom_site_fract_x
_atom_site_fract_y
_atom_site_fract_z
Si Si1 0.286064 0.640465 0.513707
Si Si2 0.568232 0.131498 0.942565
Si Si3 0.613612 0.454176 0.662053
Si Si4 0.682341 0.075172 0.123014
Si Si5 0.777646 0.829674 0.073252
Si Si6 0.340933 0.604734 0.854864
Si Si7 0.875774 0.042910 0.852663
Si Si8 0.432598 0.320531 0.895641
O O1 0.323219 0.582924 0.394728
O O2 0.281792 0.732014 0.445357
O O3 0.322663 0.645100 0.682824
O O4 0.221776 0.601333 0.550756
O O5 0.500000 0.120868 0.999077
O O6 0.584354 0.068063 0.799603
O O7 0.574288 0.223134 0.868448
O O8 0.619107 0.117992 0.077768
O O9 0.588545 0.500000 0.500000
O O10 0.627487 0.520090 0.802016
O O11 0.577903 0.378262 0.739305
O O12 0.672710 0.025149 0.289402
O O13 0.734361 0.138069 0.070886
O O14 0.692343 0.000000 0.000000
O O15 0.750000 0.847946 0.250000
O O16 0.840341 0.877240 0.083308
O O17 0.385742 0.654939 0.966649
O O18 0.909462 0.000000 0.000000
O O19 0.500000 0.334869 0.954443
#
# Coordination Sequence:
#
# PCOD9418797 Si02
#       8
#     8   8   8   8   8   8   8   8
#     4  10  24  40  62  94 131 164 202 257 315 373
#     4  10  22  42  64  86 116 159 208 253 306 363
#     4  10  23  41  63  92 130 164 205 261 312 369
#     4  10  21  39  60  88 120 155 201 247 298 362
#     4  12  22  38  62  91 123 166 203 247 308 375
#     4  10  23  41  61  96 127 164 208 256 310 374
#     4  11  25  38  62  91 124 160 201 253 306 365
#     4  11  24  43  67  89 119 167 216 258 308 380
#
# _framework density 21.371238000000002
#
# number of rings (size 3 to 8) (size 9 to 14) (size 15 to 20)
#    0.000    1.500    2.500    2.250    1.750   12.750 
#    0.000    3.125    0.000    6.750    0.000    0.000 
#    0.000    0.000    0.000    0.000    0.000    0.000 
#
# Total GULP energy -357573.034931 kJ/mol
# GULP energy per Si atom -5587.078671 kJ/mol
# Density = 2.132260 g / cm^3
# Si number density = 21.371238 Si / 1000 Ang^3
#
#
#
# Elastic Constant Matrix: (Units=GPa)
#
#
# Indices 1 2 3 4 5 6 
#
# 1 75.3060 8.1817 6.4844 0.0000 0.0000 0.0000
# 2 8.1817 80.7898 7.2910 0.0000 0.0000 0.0000
# 3 6.4844 7.2910 49.2742 0.0000 0.0000 0.0000
# 4 0.0000 0.0000 0.0000 30.1111 0.0000 0.0000
# 5 0.0000 0.0000 0.0000 0.0000 13.5853 0.0000
# 6 0.0000 0.0000 0.0000 0.0000 0.0000 41.8625
#
#
#
# Elastic Compliance Matrix: (Units=1/GPa)
#
#
# Indices 1 2 3 4 5 6 
#
# 1 0.013550 -0.001228 -0.001602 0.000000 0.000000 0.000000
# 2 -0.001228 0.012657 -0.001711 0.000000 0.000000 0.000000
# 3 -0.001602 -0.001711 0.020759 0.000000 0.000000 0.000000
# 4 0.000000 0.000000 0.000000 0.033210 0.000000 0.000000
# 5 0.000000 0.000000 0.000000 0.000000 0.073609 0.000000
# 6 0.000000 0.000000 0.000000 0.000000 0.000000 0.023888
#
#
# Mechanical properties :
#
#
# Convention : Reuss Voigt Hill
#
# Bulk Modulus (GPa) = 26.39594 27.69824 27.04709
# Shear Modulus (GPa) = 25.07754 29.33933 27.20843
#
# Velocity S-wave (km/s) = 3.42924 3.70921 3.57197
# Velocity P-wave (km/s) = 5.29694 5.59758 5.44934
#
# Compressibility (1/GPa) = 0.03788461
#
# Stress axis : x y z
#
# Youngs Moduli (GPa) = 73.79832 79.01042 48.17290
#
# Poissons Ratio (x) = 0.09700 0.07715
# Poissons Ratio (y) = 0.09060 0.08243
# Poissons Ratio (z) = 0.11819 0.13520
#
# Static dielectric constant tensor:
#      x y z
#    x 1.774270 0.000000 0.000000 
#    y 0.000000 1.784380 0.000000 
#    z 0.000000 0.000000 1.821220 
# 
# From -- ./inp_files/11948.got.cif
#   From: 2010.05.17/outbox.cif.g08.bks.cpg/sg53_6_cif.got.tgz:11948.got - 2010.06.03 12:45:16.
