data_PCOD9418397
_publ_section_title
;
Structure prediction by ZEFSAII (Michael W. Deem and Ramdas Pophale) SiO2 
 PCOD9418397
Probable space group: P M N A
;
_chemical_formula_sum "Si O2"
_cell_formula_units_Z 64
_cell_length_a 15.159543
_cell_length_b 9.310663
_cell_length_c 23.816044
_cell_angle_alpha 90.000000
_cell_angle_beta 90.000000
_cell_angle_gamma 90.000000
_cell_volume 3361.524964
_symmetry_space_group_name_H-M "P M N A"
_symmetry_group_IT_number 53
_symmetry_cell_setting 'orthorhombic'
loop_
_space_group_symop_operation_xyz
x,y,z
1/2-x,-y,1/2+z
x,-y,-z
1/2-x,y,1/2-z
-x,-y,-z
1/2+x,y,1/2-z
-x,y,z
1/2+x,-y,1/2+z
loop_
_atom_site_type_symbol
_atom_site_label
_atom_site_fract_x
_atom_site_fract_y
_atom_site_fract_z
Si Si1 0.595299 0.595161 0.944851
Si Si2 0.135514 0.333427 0.625836
Si Si3 0.599991 0.691296 0.660965
Si Si4 0.800628 0.590991 0.193913
Si Si5 0.096018 0.821425 0.258841
Si Si6 0.850264 0.147543 0.270051
Si Si7 0.715772 0.198614 0.113739
Si Si8 0.397829 0.045982 0.934921
O O1 0.500000 0.671773 0.948116
O O2 0.593836 0.480363 0.894718
O O3 0.676164 0.699541 0.933906
O O4 0.606144 0.500000 0.000000
O O5 0.234903 0.373869 0.643263
O O6 0.098636 0.267343 0.683372
O O7 0.120954 0.212672 0.578491
O O8 0.500000 0.699749 0.637596
O O9 0.630357 0.527735 0.673172
O O10 0.600054 0.767502 0.721785
O O11 0.681413 0.768227 0.626882
O O12 0.750000 0.530788 0.250000
O O13 0.838990 0.741479 0.216389
O O14 0.000000 0.813096 0.232832
O O15 0.114993 0.985670 0.273922
O O16 0.750000 0.131978 0.250000
O O17 0.840474 0.227403 0.329263
O O18 0.680119 0.041297 0.096687
O O19 0.500000 0.017494 0.915552
O O20 0.394271 0.000000 0.000000
#
# Coordination Sequence:
#
# PCOD9418397 Si02
#       8
#     8   8   8   8   8   8   8   8
#     4  11  23  38  58  87 117 149 194 241 290 353
#     4  11  21  37  57  82 118 156 187 230 288 347
#     4  11  23  39  59  86 118 155 202 245 284 340
#     4  10  21  37  55  82 117 157 193 238 284 345
#     4  11  21  33  54  85 117 154 192 230 281 345
#     4  10  21  36  55  83 118 153 191 233 285 347
#     4  11  22  39  61  86 120 159 191 237 297 348
#     4  11  23  39  61  91 122 152 192 238 290 356
#
# _framework density 19.038978
#
# number of rings (size 3 to 8) (size 9 to 14) (size 15 to 20)
#    0.000    1.250    2.500    5.250    3.500    3.500 
#    0.000    0.000    0.000    0.750    0.000    0.000 
#    0.000    0.000    0.000    0.000    0.000    0.000 
#
# Total GULP energy -356982.475309 kJ/mol
# GULP energy per Si atom -5577.851177 kJ/mol
# Density = 1.899564 g / cm^3
# Si number density = 19.038978 Si / 1000 Ang^3
#
#
#
# Elastic Constant Matrix: (Units=GPa)
#
#
# Indices 1 2 3 4 5 6 
#
# 1 126.8904 30.3320 22.3074 0.0000 0.0000 0.0000
# 2 30.3320 69.4390 -1.8665 0.0000 0.0000 0.0000
# 3 22.3074 -1.8665 40.1724 0.0000 0.0000 0.0000
# 4 0.0000 0.0000 0.0000 27.9980 0.0000 0.0000
# 5 0.0000 0.0000 0.0000 0.0000 17.2168 0.0000
# 6 0.0000 0.0000 0.0000 0.0000 0.0000 -11.4722
#
#
#
# Elastic Compliance Matrix: (Units=1/GPa)
#
#
# Indices 1 2 3 4 5 6 
#
# 1 0.009969 -0.004509 -0.005745 0.000000 0.000000 0.000000
# 2 -0.004509 0.016459 0.003268 0.000000 0.000000 0.000000
# 3 -0.005745 0.003268 0.028235 0.000000 0.000000 0.000000
# 4 0.000000 0.000000 0.000000 0.035717 0.000000 0.000000
# 5 0.000000 0.000000 0.000000 0.000000 0.058083 0.000000
# 6 0.000000 0.000000 0.000000 0.000000 0.000000 -0.087167
#
#
# Mechanical properties :
#
#
# Convention : Reuss Voigt Hill
#
# Bulk Modulus (GPa) = 24.57542 37.56084 31.06813
# Shear Modulus (GPa) = 56.28778 19.13042 37.70910
#
# Velocity S-wave (km/s) = 5.44322 3.17330 4.45525
# Velocity P-wave (km/s) = 7.24161 5.76174 6.54364
#
# Compressibility (1/GPa) = 0.04069106
#
# Stress axis : x y z
#
# Youngs Moduli (GPa) = 100.31508 60.75883 35.41737
#
# Poissons Ratio (x) = 0.27395 0.20347
# Poissons Ratio (y) = 0.45231 -0.11576
# Poissons Ratio (z) = 0.57631 -0.19859
#
# Static dielectric constant tensor:
#      x y z
#    x 1.688180 0.000000 0.000000 
#    y 0.000000 1.695410 0.000000 
#    z 0.000000 0.000000 1.684340 
# 
# From -- ./inp_files/35311.got.cif
#   From: 2010.05.17/outbox.cif.g08.bks.cpg/sg53_18_cif.got.tgz:35311.got - 2010.06.03 12:45:16.
