data_PCOD9418544
_publ_section_title
;
Structure prediction by ZEFSAII (Michael W. Deem and Ramdas Pophale) SiO2 
 PCOD9418544
Probable space group: P M N A
;
_chemical_formula_sum "Si O2"
_cell_formula_units_Z 40
_cell_length_a 9.673567
_cell_length_b 25.089728
_cell_length_c 8.905262
_cell_angle_alpha 90.000000
_cell_angle_beta 90.000000
_cell_angle_gamma 90.000000
_cell_volume 2161.370892
_symmetry_space_group_name_H-M "P M N A"
_symmetry_group_IT_number 53
_symmetry_cell_setting 'orthorhombic'
loop_
_space_group_symop_operation_xyz
x,y,z
1/2-x,-y,1/2+z
x,-y,-z
1/2-x,y,1/2-z
-x,-y,-z
1/2+x,y,1/2-z
-x,y,z
1/2+x,-y,1/2+z
loop_
_atom_site_type_symbol
_atom_site_label
_atom_site_fract_x
_atom_site_fract_y
_atom_site_fract_z
Si Si1 0.500000 0.559779 0.567594
Si Si2 0.665292 0.153195 0.094823
Si Si3 0.836848 0.740511 0.399882
Si Si4 0.500000 0.558190 0.928131
Si Si5 0.665976 0.054051 0.406224
Si Si6 0.252812 0.376109 0.931816
O O1 0.500000 0.500000 0.500000
O O2 0.500000 0.555725 0.747913
O O3 0.375456 0.594641 0.504533
O O4 0.750000 0.160704 0.250000
O O5 0.500000 0.141478 0.113985
O O6 0.750182 0.103865 0.021346
O O7 0.673972 0.207837 0.003564
O O8 0.750000 0.750851 0.250000
O O9 0.773573 0.686276 0.467949
O O10 0.000000 0.730643 0.367571
O O11 0.500000 0.500000 0.000000
O O12 0.374246 0.590876 0.994657
O O13 0.750000 0.046459 0.250000
O O14 0.500000 0.064812 0.387394
O O15 0.677627 0.000000 0.500000
O O16 0.250000 0.380015 0.750000
#
# Coordination Sequence:
#
# PCOD9418544 Si02
#       6
#     4   8   8   4   8   8
#     4  12  26  42  64  96 122 162 205 248 313 364
#     4  10  21  38  59  88 122 159 201 250 303 358
#     4  10  23  41  63  90 121 158 200 246 299 357
#     4  12  24  42  66  90 126 160 201 256 299 372
#     4  10  21  37  58  86 120 160 206 253 306 362
#     4  11  23  43  64  90 124 161 204 252 308 367
#
# _framework density 18.506772000000002
#
# number of rings (size 3 to 8) (size 9 to 14) (size 15 to 20)
#    0.000    1.400    1.000    5.400    4.200    5.600 
#    0.000    4.000    0.000    0.000    0.000    0.000 
#    0.000    0.000    0.000    0.000    0.000    0.000 
#
# Total GULP energy -223034.604489 kJ/mol
# GULP energy per Si atom -5575.865112 kJ/mol
# Density = 1.846465 g / cm^3
# Si number density = 18.506772 Si / 1000 Ang^3
#
#
#
# Elastic Constant Matrix: (Units=GPa)
#
#
# Indices 1 2 3 4 5 6 
#
# 1 196.0501 95.0582 50.3991 0.0000 0.0000 0.0000
# 2 95.0582 190.2756 75.4180 0.0000 0.0000 0.0000
# 3 50.3991 75.4180 83.2414 0.0000 0.0000 0.0000
# 4 0.0000 0.0000 0.0000 41.2542 0.0000 0.0000
# 5 0.0000 0.0000 0.0000 0.0000 31.4864 0.0000
# 6 0.0000 0.0000 0.0000 0.0000 0.0000 38.6994
#
#
#
# Elastic Compliance Matrix: (Units=1/GPa)
#
#
# Indices 1 2 3 4 5 6 
#
# 1 0.006872 -0.002783 -0.001639 0.000000 0.000000 0.000000
# 2 -0.002783 0.009328 -0.006766 0.000000 0.000000 0.000000
# 3 -0.001639 -0.006766 0.019135 0.000000 0.000000 0.000000
# 4 0.000000 0.000000 0.000000 0.024240 0.000000 0.000000
# 5 0.000000 0.000000 0.000000 0.000000 0.031760 0.000000
# 6 0.000000 0.000000 0.000000 0.000000 0.000000 0.025840
#
#
# Mechanical properties :
#
#
# Convention : Reuss Voigt Hill
#
# Bulk Modulus (GPa) = 77.16716 101.25753 89.21235
# Shear Modulus (GPa) = 34.75353 38.86745 36.81049
#
# Velocity S-wave (km/s) = 4.33815 4.58774 4.46469
# Velocity P-wave (km/s) = 8.17802 9.10471 8.65378
#
# Compressibility (1/GPa) = 0.01295888
#
# Stress axis : x y z
#
# Youngs Moduli (GPa) = 145.52716 107.20601 52.25919
#
# Poissons Ratio (x) = 0.29840 0.08563
# Poissons Ratio (y) = 0.40506 0.35358
# Poissons Ratio (z) = 0.23846 0.72535
#
# Static dielectric constant tensor:
#      x y z
#    x 1.597380 0.000000 0.000000 
#    y 0.000000 1.655890 0.000000 
#    z 0.000000 0.000000 1.611530 
# 
# From -- ./inp_files/6378.got.cif
#   From: 2010.05.17/outbox.cif.g08.bks.cpg/sg53_4_cif.got.tgz:6378.got - 2010.06.03 12:45:16.
