data_PCOD9418265
_publ_section_title
;
Structure prediction by ZEFSAII (Michael W. Deem and Ramdas Pophale) SiO2 
 PCOD9418265
Probable space group: P M N A
;
_chemical_formula_sum "Si O2"
_cell_formula_units_Z 40
_cell_length_a 27.359468
_cell_length_b 8.249312
_cell_length_c 10.065897
_cell_angle_alpha 90.000000
_cell_angle_beta 90.000000
_cell_angle_gamma 90.000000
_cell_volume 2271.840618
_symmetry_space_group_name_H-M "P M N A"
_symmetry_group_IT_number 53
_symmetry_cell_setting 'orthorhombic'
loop_
_space_group_symop_operation_xyz
x,y,z
1/2-x,-y,1/2+z
x,-y,-z
1/2-x,y,1/2-z
-x,-y,-z
1/2+x,y,1/2-z
-x,y,z
1/2+x,-y,1/2+z
loop_
_atom_site_type_symbol
_atom_site_label
_atom_site_fract_x
_atom_site_fract_y
_atom_site_fract_z
Si Si1 0.630775 0.673741 0.545107
Si Si2 0.292955 0.932507 0.645892
Si Si3 0.387639 0.882775 0.288428
Si Si4 0.941949 0.773319 0.755482
Si Si5 0.055719 0.808268 0.460744
O O1 0.648833 0.500000 0.500000
O O2 0.674126 0.775748 0.612779
O O3 0.609847 0.778513 0.422072
O O4 0.586645 0.654291 0.648360
O O5 0.250000 0.903404 0.750000
O O6 0.277359 0.000000 0.500000
O O7 0.331577 0.057310 0.713024
O O8 0.406799 0.788477 0.159220
O O9 0.420413 0.047247 0.290064
O O10 0.931550 0.729740 0.601827
O O11 0.000000 0.775627 0.772275
O O12 0.000000 0.765343 0.421780
O O13 0.055186 0.000000 0.500000
#
# Coordination Sequence:
#
# PCOD9418265 Si02
#       5
#     8   8   8   8   8
#     4  10  21  35  48  70 106 137 163 196 242 300
#     4   9  19  35  56  77  93 117 159 209 253 296
#     4   9  17  31  52  74  97 125 162 209 249 290
#     4   9  17  30  50  75 100 132 174 211 242 280
#     4   8  14  26  47  74  99 124 161 206 245 280
#
# _framework density 17.606867999999999
#
# number of rings (size 3 to 8) (size 9 to 14) (size 15 to 20)
#    0.000    3.000    0.000    3.600    0.000    6.800 
#    0.000    5.000    0.000    2.400    0.000    0.000 
#    0.000    0.000    0.000    0.000    0.000    0.000 
#
# Total GULP energy -222745.914799 kJ/mol
# GULP energy per Si atom -5568.647870 kJ/mol
# Density = 1.756679 g / cm^3
# Si number density = 17.606868 Si / 1000 Ang^3
#
#
#
# Elastic Constant Matrix: (Units=GPa)
#
#
# Indices 1 2 3 4 5 6 
#
# 1 94.0113 20.1931 95.6036 0.0000 0.0000 0.0000
# 2 20.1931 22.4977 29.0734 0.0000 0.0000 0.0000
# 3 95.6036 29.0734 141.3586 0.0000 0.0000 0.0000
# 4 0.0000 0.0000 0.0000 4.8294 0.0000 0.0000
# 5 0.0000 0.0000 0.0000 0.0000 40.6913 0.0000
# 6 0.0000 0.0000 0.0000 0.0000 0.0000 7.7322
#
#
#
# Elastic Compliance Matrix: (Units=1/GPa)
#
#
# Indices 1 2 3 4 5 6 
#
# 1 0.034088 -0.001094 -0.022830 0.000000 0.000000 0.000000
# 2 -0.001094 0.060574 -0.011719 0.000000 0.000000 0.000000
# 3 -0.022830 -0.011719 0.024924 0.000000 0.000000 0.000000
# 4 0.000000 0.000000 0.000000 0.207064 0.000000 0.000000
# 5 0.000000 0.000000 0.000000 0.000000 0.024575 0.000000
# 6 0.000000 0.000000 0.000000 0.000000 0.000000 0.129330
#
#
# Mechanical properties :
#
#
# Convention : Reuss Voigt Hill
#
# Bulk Modulus (GPa) = 20.70266 60.84532 40.77399
# Shear Modulus (GPa) = 8.80372 18.18374 13.49373
#
# Velocity S-wave (km/s) = 2.23853 3.21715 2.77138
# Velocity P-wave (km/s) = 4.29711 6.95937 5.78351
#
# Compressibility (1/GPa) = 0.04830297
#
# Stress axis : x y z
#
# Youngs Moduli (GPa) = 29.33565 16.50860 40.12128
#
# Poissons Ratio (x) = 0.01806 0.91595
# Poissons Ratio (y) = 0.03209 0.47016
# Poissons Ratio (z) = 0.66972 0.19346
#
# Static dielectric constant tensor:
#      x y z
#    x 1.572830 0.000000 0.000000 
#    y 0.000000 1.611060 0.000000 
#    z 0.000000 0.000000 1.634280 
# 
# From -- ./inp_files/12243.got.cif
#   From: 2010.05.17/outbox.cif.g08.bks.cpg/sg53_7_cif.got.tgz:12243.got - 2010.06.03 12:45:16.
