data_PCOD9418845
_publ_section_title
;
Structure prediction by ZEFSAII (Michael W. Deem and Ramdas Pophale) SiO2 
 PCOD9418845
Probable space group: P M N A
;
_chemical_formula_sum "Si O2"
_cell_formula_units_Z 40
_cell_length_a 17.134735
_cell_length_b 10.925152
_cell_length_c 9.638452
_cell_angle_alpha 90.000000
_cell_angle_beta 90.000000
_cell_angle_gamma 90.000000
_cell_volume 1804.314208
_symmetry_space_group_name_H-M "P M N A"
_symmetry_group_IT_number 53
_symmetry_cell_setting 'orthorhombic'
loop_
_space_group_symop_operation_xyz
x,y,z
1/2-x,-y,1/2+z
x,-y,-z
1/2-x,y,1/2-z
-x,-y,-z
1/2+x,y,1/2-z
-x,y,z
1/2+x,-y,1/2+z
loop_
_atom_site_type_symbol
_atom_site_label
_atom_site_fract_x
_atom_site_fract_y
_atom_site_fract_z
Si Si1 0.349313 0.227847 0.339838
Si Si2 0.588210 0.111341 0.580727
Si Si3 0.093365 0.271887 0.679105
Si Si4 0.179178 0.137931 0.439688
Si Si5 0.169982 0.494505 0.829735
O O1 0.410453 0.214793 0.463179
O O2 0.265345 0.191041 0.405627
O O3 0.363616 0.139755 0.209710
O O4 0.348202 0.366290 0.288574
O O5 0.500000 0.074937 0.615984
O O6 0.624949 0.166742 0.716173
O O7 0.627268 0.000000 0.500000
O O8 0.137031 0.236890 0.538346
O O9 0.110957 0.397464 0.761057
O O10 0.000000 0.261369 0.661303
O O11 0.180116 0.000000 0.500000
O O12 0.250000 0.461263 0.750000
O O13 0.175174 0.500000 0.000000
#
# Coordination Sequence:
#
# PCOD9418845 Si02
#       5
#     8   8   8   8   8
#     4  11  23  42  65  98 130 175 230 270 338 395
#     4  10  21  39  63  94 131 171 218 270 329 398
#     4  11  26  43  67 102 135 180 225 271 343 399
#     4  11  24  43  68  98 136 176 224 287 329 401
#     4  12  24  44  70  94 134 175 221 285 325 398
#
# _framework density 22.169086
#
# number of rings (size 3 to 8) (size 9 to 14) (size 15 to 20)
#    0.000    1.000    4.000    3.000    0.000    4.000 
#    0.000    1.000    0.000    0.000    0.000    0.000 
#    0.000    0.000    0.000    0.000    0.000    0.000 
#
# Total GULP energy -223143.947554 kJ/mol
# GULP energy per Si atom -5578.598689 kJ/mol
# Density = 2.211863 g / cm^3
# Si number density = 22.169086 Si / 1000 Ang^3
#
#
#
# Elastic Constant Matrix: (Units=GPa)
#
#
# Indices 1 2 3 4 5 6 
#
# 1 52.4946 24.5581 38.5405 0.0000 0.0000 0.0000
# 2 24.5581 114.5727 34.6579 0.0000 0.0000 0.0000
# 3 38.5405 34.6579 151.2244 0.0000 0.0000 0.0000
# 4 0.0000 0.0000 0.0000 40.2006 0.0000 0.0000
# 5 0.0000 0.0000 0.0000 0.0000 14.6082 0.0000
# 6 0.0000 0.0000 0.0000 0.0000 0.0000 18.5149
#
#
#
# Elastic Compliance Matrix: (Units=1/GPa)
#
#
# Indices 1 2 3 4 5 6 
#
# 1 0.024781 -0.003655 -0.005478 0.000000 0.000000 0.000000
# 2 -0.003655 0.009917 -0.001341 0.000000 0.000000 0.000000
# 3 -0.005478 -0.001341 0.008316 0.000000 0.000000 0.000000
# 4 0.000000 0.000000 0.000000 0.024875 0.000000 0.000000
# 5 0.000000 0.000000 0.000000 0.000000 0.068455 0.000000
# 6 0.000000 0.000000 0.000000 0.000000 0.000000 0.054011
#
#
# Mechanical properties :
#
#
# Convention : Reuss Voigt Hill
#
# Bulk Modulus (GPa) = 45.31785 57.08942 51.20363
# Shear Modulus (GPa) = 22.86666 29.36708 26.11687
#
# Velocity S-wave (km/s) = 3.21513 3.64357 3.43603
# Velocity P-wave (km/s) = 5.85398 6.59610 6.23609
#
# Compressibility (1/GPa) = 0.02206636
#
# Stress axis : x y z
#
# Youngs Moduli (GPa) = 40.35326 100.83480 120.24659
#
# Poissons Ratio (x) = 0.36851 0.65872
# Poissons Ratio (y) = 0.14748 0.16130
# Poissons Ratio (z) = 0.22106 0.13526
#
# Static dielectric constant tensor:
#      x y z
#    x 1.834610 0.000000 0.000000 
#    y 0.000000 1.887090 0.000000 
#    z 0.000000 0.000000 1.841800 
# 
# From -- ./inp_files/10778.got.cif
#   From: 2010.05.17/outbox.cif.g08.bks.cpg/sg53_6_cif.got.tgz:10778.got - 2010.06.03 12:45:16.
