data_PCOD9418021
_publ_section_title
;
Structure prediction by ZEFSAII (Michael W. Deem and Ramdas Pophale) SiO2 
 PCOD9418021
Probable space group: P M N A
;
_chemical_formula_sum "Si O2"
_cell_formula_units_Z 36
_cell_length_a 14.761426
_cell_length_b 14.278482
_cell_length_c 9.274920
_cell_angle_alpha 90.000000
_cell_angle_beta 90.000000
_cell_angle_gamma 90.000000
_cell_volume 1954.881895
_symmetry_space_group_name_H-M "P M N A"
_symmetry_group_IT_number 53
_symmetry_cell_setting 'orthorhombic'
loop_
_space_group_symop_operation_xyz
x,y,z
1/2-x,-y,1/2+z
x,-y,-z
1/2-x,y,1/2-z
-x,-y,-z
1/2+x,y,1/2-z
-x,y,z
1/2+x,-y,1/2+z
loop_
_atom_site_type_symbol
_atom_site_label
_atom_site_fract_x
_atom_site_fract_y
_atom_site_fract_z
Si Si1 0.000000 0.770510 0.753013
Si Si2 0.000000 0.891555 0.033643
Si Si3 0.000000 0.438545 0.147854
Si Si4 0.672694 0.452252 0.150748
Si Si5 0.795684 0.095247 0.903781
Si Si6 0.193307 0.766421 0.612251
O O1 0.000000 0.675274 0.851030
O O2 0.911991 0.778620 0.652245
O O3 0.000000 0.846924 0.875854
O O4 0.098268 0.872020 0.106722
O O5 0.000000 0.000000 0.000000
O O6 0.913285 0.457843 0.246133
O O7 0.000000 0.500000 0.000000
O O8 0.750000 0.496576 0.250000
O O9 0.703482 0.346358 0.109294
O O10 0.654766 0.500000 0.000000
O O11 0.750000 0.075789 0.750000
O O12 0.735518 0.176274 0.980582
O O13 0.793159 0.000000 0.000000
O O14 0.250000 0.800603 0.750000
#
# Coordination Sequence:
#
# PCOD9418021 Si02
#       6
#     4   4   4   8   8   8
#     4  10  20  38  65  87 119 160 206 246 306 369
#     4  10  22  39  64  88 117 156 201 245 301 360
#     4  10  21  39  61  88 118 165 202 248 309 359
#     4  10  21  37  59  86 120 158 203 250 305 362
#     4  11  24  41  63  91 123 157 202 252 310 367
#     4  10  20  38  61  84 117 161 199 249 305 359
#
# _framework density 18.415434000000001
#
# number of rings (size 3 to 8) (size 9 to 14) (size 15 to 20)
#    0.000    1.778    2.222    1.667    3.111    1.778 
#    4.000    1.111    0.000    0.000    0.000    0.000 
#    0.000    0.000    0.000    0.000    0.000    0.000 
#
# Total GULP energy -200476.870796 kJ/mol
# GULP energy per Si atom -5568.801967 kJ/mol
# Density = 1.837352 g / cm^3
# Si number density = 18.415434 Si / 1000 Ang^3
#
#
#
# Elastic Constant Matrix: (Units=GPa)
#
#
# Indices 1 2 3 4 5 6 
#
# 1 96.9420 32.5808 29.8756 0.0000 0.0000 0.0000
# 2 32.5808 74.6447 55.3038 0.0000 0.0000 0.0000
# 3 29.8756 55.3038 119.7025 0.0000 0.0000 0.0000
# 4 0.0000 0.0000 0.0000 31.2183 0.0000 0.0000
# 5 0.0000 0.0000 0.0000 0.0000-7822.1409 0.0000
# 6 0.0000 0.0000 0.0000 0.0000 0.0000 17.9283
#
#
#
# Elastic Compliance Matrix: (Units=1/GPa)
#
#
# Indices 1 2 3 4 5 6 
#
# 1 0.012150 -0.004647 -0.000885 0.000000 0.000000 0.000000
# 2 -0.004647 0.022147 -0.009072 0.000000 0.000000 0.000000
# 3 -0.000885 -0.009072 0.012766 0.000000 0.000000 0.000000
# 4 0.000000 0.000000 0.000000 0.032032 0.000000 0.000000
# 5 0.000000 0.000000 0.000000 0.000000 -0.000128 0.000000
# 6 0.000000 0.000000 0.000000 0.000000 0.000000 0.055778
#
#
# Mechanical properties :
#
#
# Convention : Reuss Voigt Hill
#
# Bulk Modulus (GPa) = 56.01075 58.53441 57.27258
# Shear Modulus (GPa) = 29.42793 -1543.03024 -756.80116
#
# Velocity S-wave (km/s) = 4.00184 -28.97792 -20.29415
# Velocity P-wave (km/s) = 7.19959 32.98138 22.75893
#
# Compressibility (1/GPa) = 0.01785372
#
# Stress axis : x y z
#
# Youngs Moduli (GPa) = 82.30315 45.15336 78.33053
#
# Poissons Ratio (x) = 0.20984 0.06935
# Poissons Ratio (y) = 0.38249 0.71062
# Poissons Ratio (z) = 0.07287 0.40964
#
# Static dielectric constant tensor:
#      x y z
#    x 1.568590 0.000000 0.000000 
#    y 0.000000 1.680790 0.000000 
#    z 0.000000 0.000000 1.575480 
# 
# From -- ./inp_files/8287.got.cif
#   From: 2010.05.17/outbox.cif.g08.bks.cpg/sg53_5_cif.got.tgz:8287.got - 2010.06.03 12:45:16.
