data_PCOD9418794
_publ_section_title
;
Structure prediction by ZEFSAII (Michael W. Deem and Ramdas Pophale) SiO2 
 PCOD9418794
Probable space group: P M N A
;
_chemical_formula_sum "Si O2"
_cell_formula_units_Z 64
_cell_length_a 8.678976
_cell_length_b 20.228820
_cell_length_c 20.507239
_cell_angle_alpha 90.000000
_cell_angle_beta 90.000000
_cell_angle_gamma 90.000000
_cell_volume 3600.362506
_symmetry_space_group_name_H-M "P M N A"
_symmetry_group_IT_number 53
_symmetry_cell_setting 'orthorhombic'
loop_
_space_group_symop_operation_xyz
x,y,z
1/2-x,-y,1/2+z
x,-y,-z
1/2-x,y,1/2-z
-x,-y,-z
1/2+x,y,1/2-z
-x,y,z
1/2+x,-y,1/2+z
loop_
_atom_site_type_symbol
_atom_site_label
_atom_site_fract_x
_atom_site_fract_y
_atom_site_fract_z
Si Si1 0.814401 0.816596 0.435149
Si Si2 0.184695 0.945180 0.679293
Si Si3 0.315833 0.569335 0.820805
Si Si4 0.815609 0.699033 0.604818
Si Si5 0.683436 0.472720 0.570692
Si Si6 0.817033 0.666258 0.454260
Si Si7 0.815286 0.092542 0.820654
Si Si8 0.183423 0.839406 0.920885
O O1 0.775232 0.738748 0.427467
O O2 0.743242 0.859763 0.377635
O O3 0.751223 0.838865 0.505769
O O4 0.000000 0.822112 0.435666
O O5 0.250000 0.923860 0.750000
O O6 0.242203 0.896157 0.623294
O O7 0.000000 0.947195 0.681700
O O8 0.250124 0.018774 0.667572
O O9 0.250000 0.555031 0.750000
O O10 0.500000 0.568698 0.819518
O O11 0.267432 0.642583 0.844837
O O12 0.258806 0.516310 0.873184
O O13 0.787962 0.670733 0.532031
O O14 0.728671 0.768268 0.609440
O O15 0.000000 0.711075 0.610117
O O16 0.735936 0.500000 0.500000
O O17 0.500000 0.479972 0.574262
O O18 0.729137 0.395988 0.574695
O O19 0.000000 0.656591 0.445141
O O20 0.750000 0.113595 0.750000
O O21 0.000000 0.090528 0.818515
O O22 0.000000 0.846976 0.923222
#
# Coordination Sequence:
#
# PCOD9418794 Si02
#       8
#     8   8   8   8   8   8   8   8
#     4  10  21  39  60  87 119 152 192 240 290 342
#     4  11  22  39  60  83 114 153 196 241 287 344
#     4  11  23  39  58  81 115 152 192 238 288 342
#     4   9  19  36  56  79 110 151 190 230 281 341
#     4  11  22  35  57  87 115 147 190 237 283 340
#     4   9  18  35  59  84 111 146 190 233 280 337
#     4  11  22  39  62  88 116 151 193 238 291 350
#     4  11  22  36  57  87 120 154 192 239 288 341
#
# _framework density 17.775987000000001
#
# number of rings (size 3 to 8) (size 9 to 14) (size 15 to 20)
#    0.000    1.625    1.250    6.000    0.000    5.000 
#    0.000    4.375    0.000    3.000    0.000    0.000 
#    0.000    0.000    0.000    0.000    0.000    0.000 
#
# Total GULP energy -357567.371060 kJ/mol
# GULP energy per Si atom -5586.990173 kJ/mol
# Density = 1.773553 g / cm^3
# Si number density = 17.775987 Si / 1000 Ang^3
#
#
#
# Elastic Constant Matrix: (Units=GPa)
#
#
# Indices 1 2 3 4 5 6 
#
# 1 116.1539 61.6777 63.4695 0.0000 0.0000 0.0000
# 2 61.6777 112.7517 95.2316 0.0000 0.0000 0.0000
# 3 63.4695 95.2316 135.8526 0.0000 0.0000 0.0000
# 4 0.0000 0.0000 0.0000 27.1871 0.0000 0.0000
# 5 0.0000 0.0000 0.0000 0.0000 22.5374 0.0000
# 6 0.0000 0.0000 0.0000 0.0000 0.0000 27.0838
#
#
#
# Elastic Compliance Matrix: (Units=1/GPa)
#
#
# Indices 1 2 3 4 5 6 
#
# 1 0.012488 -0.004666 -0.002563 0.000000 0.000000 0.000000
# 2 -0.004666 0.023485 -0.014283 0.000000 0.000000 0.000000
# 3 -0.002563 -0.014283 0.018571 0.000000 0.000000 0.000000
# 4 0.000000 0.000000 0.000000 0.036782 0.000000 0.000000
# 5 0.000000 0.000000 0.000000 0.000000 0.044371 0.000000
# 6 0.000000 0.000000 0.000000 0.000000 0.000000 0.036922
#
#
# Mechanical properties :
#
#
# Convention : Reuss Voigt Hill
#
# Bulk Modulus (GPa) = 86.81389 89.50176 88.15783
# Shear Modulus (GPa) = 22.78092 24.98698 23.88395
#
# Velocity S-wave (km/s) = 3.58377 3.75328 3.66950
# Velocity P-wave (km/s) = 8.12824 8.32117 8.22527
#
# Compressibility (1/GPa) = 0.01151889
#
# Stress axis : x y z
#
# Youngs Moduli (GPa) = 80.07978 42.58054 53.84855
#
# Poissons Ratio (x) = 0.19868 0.13803
# Poissons Ratio (y) = 0.37365 0.76911
# Poissons Ratio (z) = 0.20527 0.60817
#
# Static dielectric constant tensor:
#      x y z
#    x 1.593830 0.000000 0.000000 
#    y 0.000000 1.592590 0.000000 
#    z 0.000000 0.000000 1.581580 
# 
# From -- ./inp_files/31240.got.cif
#   From: 2010.05.17/outbox.cif.g08.bks.cpg/sg53_16_cif.got.tgz:31240.got - 2010.06.03 12:45:16.
