data_PCOD9418768
_publ_section_title
;
Structure prediction by ZEFSAII (Michael W. Deem and Ramdas Pophale) SiO2 
 PCOD9418768
Probable space group: P M N A
;
_chemical_formula_sum "Si O2"
_cell_formula_units_Z 32
_cell_length_a 21.068235
_cell_length_b 11.462069
_cell_length_c 5.300197
_cell_angle_alpha 90.000000
_cell_angle_beta 90.000000
_cell_angle_gamma 90.000000
_cell_volume 1279.921058
_symmetry_space_group_name_H-M "P M N A"
_symmetry_group_IT_number 53
_symmetry_cell_setting 'orthorhombic'
loop_
_space_group_symop_operation_xyz
x,y,z
1/2-x,-y,1/2+z
x,-y,-z
1/2-x,y,1/2-z
-x,-y,-z
1/2+x,y,1/2-z
-x,y,z
1/2+x,-y,1/2+z
loop_
_atom_site_type_symbol
_atom_site_label
_atom_site_fract_x
_atom_site_fract_y
_atom_site_fract_z
Si Si1 0.931765 0.892673 0.685556
Si Si2 0.699602 0.864546 0.545320
Si Si3 0.154406 0.619875 0.086930
Si Si4 0.573564 0.640865 0.924909
O O1 0.870938 0.889032 0.858420
O O2 0.928782 0.778287 0.515255
O O3 0.000000 0.890846 0.821025
O O4 0.928136 0.000000 0.500000
O O5 0.750000 0.820833 0.750000
O O6 0.689332 0.745748 0.378642
O O7 0.722913 0.000000 0.500000
O O8 0.113549 0.593263 0.338253
O O9 0.191097 0.500000 0.000000
O O10 0.107225 0.635885 0.847718
O O11 0.500000 0.605215 0.901186
#
# Coordination Sequence:
#
# PCOD9418768 Si02
#       4
#     8   8   8   8
#     4   9  18  35  61  95 132 171 218 275 337 399
#     4  11  24  43  67  97 133 177 227 279 337 405
#     4  11  24  42  65  98 137 178 225 280 339 402
#     4  10  21  38  64  99 139 182 227 276 335 404
#
# _framework density 25.001539999999999
#
# number of rings (size 3 to 8) (size 9 to 14) (size 15 to 20)
#    0.000    1.750    0.000    3.750    0.000    6.500 
#    0.000    6.250    0.000    0.000    0.000    0.000 
#    0.000    0.000    0.000    0.000    0.000    0.000 
#
# Total GULP energy -178244.050989 kJ/mol
# GULP energy per Si atom -5570.126593 kJ/mol
# Density = 2.494464 g / cm^3
# Si number density = 25.001540 Si / 1000 Ang^3
#
#
#
# Elastic Constant Matrix: (Units=GPa)
#
#
# Indices 1 2 3 4 5 6 
#
# 1 116.7060 -11.7222 58.4572 0.0000 0.0000 0.0000
# 2 -11.7222 152.1076 23.4089 0.0000 0.0000 0.0000
# 3 58.4572 23.4089 124.5667 0.0000 0.0000 0.0000
# 4 0.0000 0.0000 0.0000 43.1812 0.0000 0.0000
# 5 0.0000 0.0000 0.0000 0.0000 32.8961 0.0000
# 6 0.0000 0.0000 0.0000 0.0000 0.0000 14.4356
#
#
#
# Elastic Compliance Matrix: (Units=1/GPa)
#
#
# Indices 1 2 3 4 5 6 
#
# 1 0.011657 0.001792 -0.005807 0.000000 0.000000 0.000000
# 2 0.001792 0.007046 -0.002165 0.000000 0.000000 0.000000
# 3 -0.005807 -0.002165 0.011160 0.000000 0.000000 0.000000
# 4 0.000000 0.000000 0.000000 0.023158 0.000000 0.000000
# 5 0.000000 0.000000 0.000000 0.000000 0.030399 0.000000
# 6 0.000000 0.000000 0.000000 0.000000 0.000000 0.069273
#
#
# Mechanical properties :
#
#
# Convention : Reuss Voigt Hill
#
# Bulk Modulus (GPa) = 57.13510 59.29643 58.21577
# Shear Modulus (GPa) = 29.25890 39.65168 34.45529
#
# Velocity S-wave (km/s) = 3.42465 3.98674 3.71634
# Velocity P-wave (km/s) = 6.20805 6.70528 6.46145
#
# Compressibility (1/GPa) = 0.01750237
#
# Stress axis : x y z
#
# Youngs Moduli (GPa) = 85.78210 141.93261 89.60557
#
# Poissons Ratio (x) = -0.25436 0.52038
# Poissons Ratio (y) = -0.15373 0.19400
# Poissons Ratio (z) = 0.49817 0.30729
#
# Static dielectric constant tensor:
#      x y z
#    x 1.919710 0.000000 0.000000 
#    y 0.000000 2.175320 0.000000 
#    z 0.000000 0.000000 2.077140 
# 
# From -- ./inp_files/2625.got.cif
#   From: 2010.05.17/outbox.cif.g08.bks.cpg/sg53_2_cif.got.tgz:2625.got - 2010.06.03 12:45:16.
