data_PCOD9418731
_publ_section_title
;
Structure prediction by ZEFSAII (Michael W. Deem and Ramdas Pophale) SiO2 
 PCOD9418731
Probable space group: P M N A
;
_chemical_formula_sum "Si O2"
_cell_formula_units_Z 48
_cell_length_a 8.679267
_cell_length_b 15.454917
_cell_length_c 19.407194
_cell_angle_alpha 90.000000
_cell_angle_beta 90.000000
_cell_angle_gamma 90.000000
_cell_volume 2603.229596
_symmetry_space_group_name_H-M "P M N A"
_symmetry_group_IT_number 53
_symmetry_cell_setting 'orthorhombic'
loop_
_space_group_symop_operation_xyz
x,y,z
1/2-x,-y,1/2+z
x,-y,-z
1/2-x,y,1/2-z
-x,-y,-z
1/2+x,y,1/2-z
-x,y,z
1/2+x,-y,1/2+z
loop_
_atom_site_type_symbol
_atom_site_label
_atom_site_fract_x
_atom_site_fract_y
_atom_site_fract_z
Si Si1 0.814725 0.128968 0.673185
Si Si2 0.315218 0.529675 0.077696
Si Si3 0.685321 0.378566 0.326918
Si Si4 0.814751 0.720852 0.077112
Si Si5 0.685677 0.969965 0.923691
Si Si6 0.814553 0.780653 0.923289
O O1 0.750000 0.127291 0.750000
O O2 0.750752 0.211008 0.631539
O O3 0.000000 0.132824 0.674402
O O4 0.767877 0.042669 0.631267
O O5 0.500000 0.530999 0.083056
O O6 0.247119 0.460909 0.131085
O O7 0.249014 0.625082 0.089637
O O8 0.273524 0.500000 0.000000
O O9 0.750000 0.377511 0.250000
O O10 0.500000 0.381364 0.325493
O O11 0.733726 0.292478 0.368875
O O12 0.000000 0.719888 0.080027
O O13 0.767093 0.751241 0.000194
O O14 0.500000 0.965894 0.924544
O O15 0.749223 0.875182 0.908161
O O16 0.737120 0.000000 0.000000
O O17 0.000000 0.784860 0.922553
#
# Coordination Sequence:
#
# PCOD9418731 Si02
#       6
#     8   8   8   8   8   8
#     4  11  24  42  62  90 126 162 203 254 310 365
#     4  11  23  39  64  95 124 161 206 252 304 366
#     4  11  24  43  63  91 128 164 204 253 309 363
#     4  11  22  39  64  93 123 161 205 253 305 363
#     4  10  21  38  62  90 121 159 204 252 301 357
#     4  10  22  38  62  92 123 160 204 251 303 361
#
# _framework density 18.438634
#
# number of rings (size 3 to 8) (size 9 to 14) (size 15 to 20)
#    0.000    1.333    3.333    2.000    0.000    5.667 
#    0.000    6.667    0.000    0.000    0.000    0.000 
#    0.000    0.000    0.000    0.000    0.000    0.000 
#
# Total GULP energy -268371.444957 kJ/mol
# GULP energy per Si atom -5591.071770 kJ/mol
# Density = 1.839667 g / cm^3
# Si number density = 18.438634 Si / 1000 Ang^3
#
#
#
# Elastic Constant Matrix: (Units=GPa)
#
#
# Indices 1 2 3 4 5 6 
#
# 1 49.7609 56.6748 56.8936 0.0000 0.0000 0.0000
# 2 56.6748 227.6651 121.5141 0.0000 0.0000 0.0000
# 3 56.8936 121.5141 195.6350 0.0000 0.0000 0.0000
# 4 0.0000 0.0000 0.0000 34.5289 0.0000 0.0000
# 5 0.0000 0.0000 0.0000 0.0000 14.8905 0.0000
# 6 0.0000 0.0000 0.0000 0.0000 0.0000 38.8893
#
#
#
# Elastic Compliance Matrix: (Units=1/GPa)
#
#
# Indices 1 2 3 4 5 6 
#
# 1 0.033086 -0.004639 -0.006741 0.000000 0.000000 0.000000
# 2 -0.004639 0.007221 -0.003136 0.000000 0.000000 0.000000
# 3 -0.006741 -0.003136 0.009020 0.000000 0.000000 0.000000
# 4 0.000000 0.000000 0.000000 0.028961 0.000000 0.000000
# 5 0.000000 0.000000 0.000000 0.000000 0.067157 0.000000
# 6 0.000000 0.000000 0.000000 0.000000 0.000000 0.025714
#
#
# Mechanical properties :
#
#
# Convention : Reuss Voigt Hill
#
# Bulk Modulus (GPa) = 49.27098 104.80291 77.03695
# Shear Modulus (GPa) = 24.15974 33.52699 28.84336
#
# Velocity S-wave (km/s) = 3.62370 4.26878 3.95940
# Velocity P-wave (km/s) = 6.65492 9.01437 7.92296
#
# Compressibility (1/GPa) = 0.02029592
#
# Stress axis : x y z
#
# Youngs Moduli (GPa) = 30.22397 138.48329 110.86611
#
# Poissons Ratio (x) = 0.64237 0.74733
# Poissons Ratio (y) = 0.14020 0.34770
# Poissons Ratio (z) = 0.20373 0.43431
#
# Static dielectric constant tensor:
#      x y z
#    x 1.621650 0.000000 0.000000 
#    y 0.000000 1.598070 0.000000 
#    z 0.000000 0.000000 1.610720 
# 
# From -- ./inp_files/26238.got.cif
#   From: 2010.05.17/outbox.cif.g08.bks.cpg/sg53_14_cif.got.tgz:26238.got - 2010.06.03 12:45:16.
