data_PCOD9418866
_publ_section_title
;
Structure prediction by ZEFSAII (Michael W. Deem and Ramdas Pophale) SiO2 
 PCOD9418866
Probable space group: P M N A
;
_chemical_formula_sum "Si O2"
_cell_formula_units_Z 64
_cell_length_a 14.069724
_cell_length_b 8.828652
_cell_length_c 23.536278
_cell_angle_alpha 90.000000
_cell_angle_beta 90.000000
_cell_angle_gamma 90.000000
_cell_volume 2923.598711
_symmetry_space_group_name_H-M "P M N A"
_symmetry_group_IT_number 53
_symmetry_cell_setting 'orthorhombic'
loop_
_space_group_symop_operation_xyz
x,y,z
1/2-x,-y,1/2+z
x,-y,-z
1/2-x,y,1/2-z
-x,-y,-z
1/2+x,y,1/2-z
-x,y,z
1/2+x,-y,1/2+z
loop_
_atom_site_type_symbol
_atom_site_label
_atom_site_fract_x
_atom_site_fract_y
_atom_site_fract_z
Si Si1 0.741779 0.704639 0.552786
Si Si2 0.608699 0.858262 0.637619
Si Si3 0.609123 0.171732 0.135518
Si Si4 0.607143 0.808314 0.150388
Si Si5 0.745216 0.646579 0.073182
Si Si6 0.708775 0.104728 0.697288
Si Si7 0.110637 0.658323 0.749179
Si Si8 0.109403 0.623622 0.177637
O O1 0.649564 0.747518 0.589952
O O2 0.826648 0.799124 0.580959
O O3 0.770241 0.530605 0.562331
O O4 0.725561 0.724529 0.485955
O O5 0.500000 0.902081 0.626187
O O6 0.611428 0.779332 0.699532
O O7 0.679546 0.999692 0.645103
O O8 0.500000 0.217924 0.125633
O O9 0.647726 0.268947 0.190139
O O10 0.606096 0.991706 0.147771
O O11 0.500000 0.757779 0.164527
O O12 0.648210 0.726442 0.094440
O O13 0.701017 0.784273 0.188645
O O14 0.829408 0.644124 0.120192
O O15 0.750000 0.011096 0.750000
O O16 0.617802 0.210689 0.706052
O O17 0.147722 0.505477 0.779413
O O18 0.000000 0.625522 0.736369
O O19 0.000000 0.585561 0.164597
#
# Coordination Sequence:
#
# PCOD9418866 Si02
#       8
#     8   8   8   8   8   8   8   8
#     4  11  23  41  63  94 130 172 226 280 329 392
#     4  11  22  39  63  95 129 166 213 266 328 391
#     4  10  21  39  64  95 127 165 219 278 336 399
#     4  10  22  42  65  91 127 171 220 272 330 390
#     4  10  24  42  63  92 131 174 225 279 331 390
#     4  11  23  39  62  95 129 171 207 263 327 398
#     4   9  19  36  63  95 127 164 209 263 325 396
#     4  10  21  41  63  93 132 172 217 265 327 397
#
# _framework density 21.890829
#
# number of rings (size 3 to 8) (size 9 to 14) (size 15 to 20)
#    0.000    1.750    2.500    1.125    0.000    6.000 
#    0.000    5.000    0.000    2.250    0.000    0.000 
#    0.000    0.000    0.000    0.000    0.000    0.000 
#
# Total GULP energy -356542.010247 kJ/mol
# GULP energy per Si atom -5570.968910 kJ/mol
# Density = 2.184100 g / cm^3
# Si number density = 21.890829 Si / 1000 Ang^3
#
#
#
# Elastic Constant Matrix: (Units=GPa)
#
#
# Indices 1 2 3 4 5 6 
#
# 1 134.3794 17.0686 42.8041 0.0000 0.0000 0.0000
# 2 17.0686 57.7085 27.5956 0.0000 0.0000 0.0000
# 3 42.8041 27.5956 68.6980 0.0000 0.0000 0.0000
# 4 0.0000 0.0000 0.0000 24.5629 0.0000 0.0000
# 5 0.0000 0.0000 0.0000 0.0000 22.5398 0.0000
# 6 0.0000 0.0000 0.0000 0.0000 0.0000 27.4121
#
#
#
# Elastic Compliance Matrix: (Units=1/GPa)
#
#
# Indices 1 2 3 4 5 6 
#
# 1 0.009284 0.000025 -0.005795 0.000000 0.000000 0.000000
# 2 0.000025 0.021448 -0.008631 0.000000 0.000000 0.000000
# 3 -0.005795 -0.008631 0.021634 0.000000 0.000000 0.000000
# 4 0.000000 0.000000 0.000000 0.040712 0.000000 0.000000
# 5 0.000000 0.000000 0.000000 0.000000 0.044366 0.000000
# 6 0.000000 0.000000 0.000000 0.000000 0.000000 0.036480
#
#
# Mechanical properties :
#
#
# Convention : Reuss Voigt Hill
#
# Bulk Modulus (GPa) = 42.43638 48.41359 45.42499
# Shear Modulus (GPa) = 23.74370 26.45748 25.10059
#
# Velocity S-wave (km/s) = 3.29696 3.48028 3.38986
# Velocity P-wave (km/s) = 5.82416 6.18981 6.00977
#
# Compressibility (1/GPa) = 0.02356469
#
# Stress axis : x y z
#
# Youngs Moduli (GPa) = 107.70886 46.62333 46.22300
#
# Poissons Ratio (x) = -0.00117 0.26786
# Poissons Ratio (y) = -0.00269 0.39897
# Poissons Ratio (z) = 0.62416 0.40242
#
# Static dielectric constant tensor:
#      x y z
#    x 1.827250 0.000000 0.000000 
#    y 0.000000 1.859410 0.000000 
#    z 0.000000 0.000000 1.896780 
# 
# From -- ./inp_files/35387.got.cif
#   From: 2010.05.17/outbox.cif.g08.bks.cpg/sg53_18_cif.got.tgz:35387.got - 2010.06.03 12:45:16.
