data_PCOD9418663
_publ_section_title
;
Structure prediction by ZEFSAII (Michael W. Deem and Ramdas Pophale) SiO2 
 PCOD9418663
Probable space group: P M N A
;
_chemical_formula_sum "Si O2"
_cell_formula_units_Z 28
_cell_length_a 25.106861
_cell_length_b 11.559007
_cell_length_c 5.014942
_cell_angle_alpha 90.000000
_cell_angle_beta 90.000000
_cell_angle_gamma 90.000000
_cell_volume 1455.388234
_symmetry_space_group_name_H-M "P M N A"
_symmetry_group_IT_number 53
_symmetry_cell_setting 'orthorhombic'
loop_
_space_group_symop_operation_xyz
x,y,z
1/2-x,-y,1/2+z
x,-y,-z
1/2-x,y,1/2-z
-x,-y,-z
1/2+x,y,1/2-z
-x,y,z
1/2+x,-y,1/2+z
loop_
_atom_site_type_symbol
_atom_site_label
_atom_site_fract_x
_atom_site_fract_y
_atom_site_fract_z
Si Si1 0.064060 0.102858 0.720416
Si Si2 0.096736 0.238538 0.232961
Si Si3 0.686841 0.581417 0.747663
Si Si4 0.000000 0.415778 0.241728
O O1 0.087390 0.204072 0.539430
O O2 0.000000 0.104937 0.755438
O O3 0.073764 0.000000 0.500000
O O4 0.087291 0.133608 0.016913
O O5 0.153131 0.301997 0.217017
O O6 0.050787 0.333419 0.200489
O O7 0.674777 0.500000 0.500000
O O8 0.750000 0.606614 0.750000
O O9 0.673609 0.500000 0.000000
O O10 0.000000 0.500000 0.500000
O O11 0.000000 0.500000 0.000000
#
# Coordination Sequence:
#
# PCOD9418663 Si02
#       4
#     8   8   8   4
#     4  11  22  38  57  82 114 151 196 238 284 345
#     4  12  21  37  57  83 115 152 190 236 288 342
#     4  10  21  38  59  84 114 152 193 232 280 347
#     4  12  22  32  49  80 117 146 178 226 286 342
#
# _framework density 19.238852000000001
#
# number of rings (size 3 to 8) (size 9 to 14) (size 15 to 20)
#    0.000    0.857    2.857    6.000    0.000    2.286 
#    0.000    0.000    0.000    3.429    0.000    0.000 
#    0.000    0.000    0.000    0.000    0.000    0.000 
#
# Total GULP energy -155881.459743 kJ/mol
# GULP energy per Si atom -5567.194991 kJ/mol
# Density = 1.919506 g / cm^3
# Si number density = 19.238852 Si / 1000 Ang^3
#
#
#
# Elastic Constant Matrix: (Units=GPa)
#
#
# Indices 1 2 3 4 5 6 
#
# 1 50.9879 26.6907 18.4004 0.0000 0.0000 0.0000
# 2 26.6907 45.0904 22.3248 0.0000 0.0000 0.0000
# 3 18.4004 22.3248 166.4360 0.0000 0.0000 0.0000
# 4 0.0000 0.0000 0.0000 59.0131 0.0000 0.0000
# 5 0.0000 0.0000 0.0000 0.0000 15.8894 0.0000
# 6 0.0000 0.0000 0.0000 0.0000 0.0000 18.3759
#
#
#
# Elastic Compliance Matrix: (Units=1/GPa)
#
#
# Indices 1 2 3 4 5 6 
#
# 1 0.028559 -0.016433 -0.000953 0.000000 0.000000 0.000000
# 2 -0.016433 0.033211 -0.002638 0.000000 0.000000 0.000000
# 3 -0.000953 -0.002638 0.006468 0.000000 0.000000 0.000000
# 4 0.000000 0.000000 0.000000 0.016945 0.000000 0.000000
# 5 0.000000 0.000000 0.000000 0.000000 0.062935 0.000000
# 6 0.000000 0.000000 0.000000 0.000000 0.000000 0.054419
#
#
# Mechanical properties :
#
#
# Convention : Reuss Voigt Hill
#
# Bulk Modulus (GPa) = 35.47478 44.14959 39.81219
# Shear Modulus (GPa) = 19.84273 31.66224 25.75248
#
# Velocity S-wave (km/s) = 3.21501 4.06118 3.66261
# Velocity P-wave (km/s) = 5.67986 6.70737 6.21489
#
# Compressibility (1/GPa) = 0.02818904
#
# Stress axis : x y z
#
# Youngs Moduli (GPa) = 35.01564 30.11040 154.61853
#
# Poissons Ratio (x) = 0.49481 0.14736
# Poissons Ratio (y) = 0.57541 0.40788
# Poissons Ratio (z) = 0.03337 0.07943
#
# Static dielectric constant tensor:
#      x y z
#    x 1.639920 0.000000 0.000000 
#    y 0.000000 1.684310 0.000000 
#    z 0.000000 0.000000 1.641170 
# 
# From -- ./inp_files/3359.got.cif
#   From: 2010.05.17/outbox.cif.g08.bks.cpg/sg53_2_cif.got.tgz:3359.got - 2010.06.03 12:45:16.
