data_PCOD9418335
_publ_section_title
;
Structure prediction by ZEFSAII (Michael W. Deem and Ramdas Pophale) SiO2 
 PCOD9418335
Probable space group: P M N A
;
_chemical_formula_sum "Si O2"
_cell_formula_units_Z 32
_cell_length_a 15.353141
_cell_length_b 5.152194
_cell_length_c 17.722863
_cell_angle_alpha 90.000000
_cell_angle_beta 90.000000
_cell_angle_gamma 90.000000
_cell_volume 1401.920306
_symmetry_space_group_name_H-M "P M N A"
_symmetry_group_IT_number 53
_symmetry_cell_setting 'orthorhombic'
loop_
_space_group_symop_operation_xyz
x,y,z
1/2-x,-y,1/2+z
x,-y,-z
1/2-x,y,1/2-z
-x,-y,-z
1/2+x,y,1/2-z
-x,y,z
1/2+x,-y,1/2+z
loop_
_atom_site_type_symbol
_atom_site_label
_atom_site_fract_x
_atom_site_fract_y
_atom_site_fract_z
Si Si1 0.595685 0.832615 0.719436
Si Si2 0.602279 0.744175 0.451481
Si Si3 0.094767 0.668648 0.328285
Si Si4 0.775058 0.454625 0.836196
O O1 0.500000 0.859829 0.679794
O O2 0.605211 0.069526 0.777982
O O3 0.678054 0.737267 0.668738
O O4 0.587991 0.576379 0.771858
O O5 0.634362 0.500000 0.500000
O O6 0.500000 0.705992 0.437661
O O7 0.653305 0.728721 0.373559
O O8 0.614690 0.000000 0.500000
O O9 0.000000 0.690853 0.367175
O O10 0.181859 0.599418 0.375318
O O11 0.750000 0.390286 0.750000
#
# Coordination Sequence:
#
# PCOD9418335 Si02
#       4
#     8   8   8   8
#     4   9  18  32  50  78 115 149 188 246 309 361
#     4  10  23  42  62  88 127 170 207 254 323 394
#     4   9  19  33  50  79 117 150 186 245 314 365
#     4  10  21  35  61  91 118 156 214 267 309 363
#
# _framework density 22.825832999999999
#
# number of rings (size 3 to 8) (size 9 to 14) (size 15 to 20)
#    0.000    2.500    0.000    0.750    0.000   18.000 
#    0.000   12.500    0.000    3.000    0.000    0.000 
#    0.000    0.000    0.000    0.000    0.000    0.000 
#
# Total GULP energy -178317.914347 kJ/mol
# GULP energy per Si atom -5572.434823 kJ/mol
# Density = 2.277388 g / cm^3
# Si number density = 22.825833 Si / 1000 Ang^3
#
#
#
# Elastic Constant Matrix: (Units=GPa)
#
#
# Indices 1 2 3 4 5 6 
#
# 1 149.4481 57.0009 16.5003 0.0000 0.0000 0.0000
# 2 57.0009 147.5249 12.9972 0.0000 0.0000 0.0000
# 3 16.5003 12.9972 53.6313 0.0000 0.0000 0.0000
# 4 0.0000 0.0000 0.0000 23.3717 0.0000 0.0000
# 5 0.0000 0.0000 0.0000 0.0000 27.7665 0.0000
# 6 0.0000 0.0000 0.0000 0.0000 0.0000 0.6374
#
#
#
# Elastic Compliance Matrix: (Units=1/GPa)
#
#
# Indices 1 2 3 4 5 6 
#
# 1 0.008006 -0.002939 -0.001751 0.000000 0.000000 0.000000
# 2 -0.002939 0.008005 -0.001036 0.000000 0.000000 0.000000
# 3 -0.001751 -0.001036 0.019435 0.000000 0.000000 0.000000
# 4 0.000000 0.000000 0.000000 0.042787 0.000000 0.000000
# 5 0.000000 0.000000 0.000000 0.000000 0.036015 0.000000
# 6 0.000000 0.000000 0.000000 0.000000 0.000000 1.568777
#
#
# Mechanical properties :
#
#
# Convention : Reuss Voigt Hill
#
# Bulk Modulus (GPa) = 41.67490 58.17791 49.92641
# Shear Modulus (GPa) = 2.93690 27.96218 15.44954
#
# Velocity S-wave (km/s) = 1.13554 3.50383 2.60445
# Velocity P-wave (km/s) = 4.47400 6.47396 5.56457
#
# Compressibility (1/GPa) = 0.02399526
#
# Stress axis : x y z
#
# Youngs Moduli (GPa) = 124.91373 124.91681 51.45227
#
# Poissons Ratio (x) = 0.36712 0.09008
# Poissons Ratio (y) = 0.36711 0.05330
# Poissons Ratio (z) = 0.21869 0.12939
#
# Static dielectric constant tensor:
#      x y z
#    x 2.114450 0.000000 0.000000 
#    y 0.000000 1.899630 0.000000 
#    z 0.000000 0.000000 1.880490 
# 
# From -- ./inp_files/27836.got.cif
#   From: 2010.05.17/outbox.cif.g08.bks.cpg/sg53_14_cif.got.tgz:27836.got - 2010.06.03 12:45:16.
