data_PCOD9418691
_publ_section_title
;
Structure prediction by ZEFSAII (Michael W. Deem and Ramdas Pophale) SiO2 
 PCOD9418691
Probable space group: P M N A
;
_chemical_formula_sum "Si O2"
_cell_formula_units_Z 32
_cell_length_a 22.218622
_cell_length_b 13.465157
_cell_length_c 5.034665
_cell_angle_alpha 90.000000
_cell_angle_beta 90.000000
_cell_angle_gamma 90.000000
_cell_volume 1506.257147
_symmetry_space_group_name_H-M "P M N A"
_symmetry_group_IT_number 53
_symmetry_cell_setting 'orthorhombic'
loop_
_space_group_symop_operation_xyz
x,y,z
1/2-x,-y,1/2+z
x,-y,-z
1/2-x,y,1/2-z
-x,-y,-z
1/2+x,y,1/2-z
-x,y,z
1/2+x,-y,1/2+z
loop_
_atom_site_type_symbol
_atom_site_label
_atom_site_fract_x
_atom_site_fract_y
_atom_site_fract_z
Si Si1 0.714444 0.500000 0.000000
Si Si2 0.369345 0.810447 0.395698
Si Si3 0.500000 0.318535 0.222888
Si Si4 0.372922 0.672482 0.896398
Si Si5 0.250000 0.067214 0.750000
Si Si6 0.500000 0.817517 0.280363
O O1 0.750000 0.456247 0.750000
O O2 0.676024 0.588185 0.872527
O O3 0.365893 0.762711 0.687797
O O4 0.309176 0.871242 0.334189
O O5 0.434434 0.864697 0.346874
O O6 0.371065 0.719560 0.187637
O O7 0.438439 0.372869 0.161465
O O8 0.500000 0.277554 0.521210
O O9 0.500000 0.222651 0.021660
O O10 0.232704 0.000000 0.500000
#
# Coordination Sequence:
#
# PCOD9418691 Si02
#       6
#     4   8   4   8   4   4
#     4  12  26  37  52  87 132 154 210 246 276 344
#     4  10  21  39  65  83 119 158 196 238 304 359
#     4   8  16  33  58  83 112 145 205 242 284 342
#     4  10  21  38  60  87 115 162 196 244 293 342
#     4  12  26  42  60  92 120 150 198 250 296 368
#     4   8  16  34  58  90 108 147 199 240 282 361
#
# _framework density 21.244713999999998
#
# number of rings (size 3 to 8) (size 9 to 14) (size 15 to 20)
#    0.000    2.000    0.000    3.000    5.250    0.500 
#    0.000    1.250    0.000   10.500    0.000    0.000 
#    0.000    0.000    0.000    0.000    0.000    0.000 
#
# Total GULP energy -178544.512801 kJ/mol
# GULP energy per Si atom -5579.516025 kJ/mol
# Density = 2.119636 g / cm^3
# Si number density = 21.244714 Si / 1000 Ang^3
#
#
#
# Elastic Constant Matrix: (Units=GPa)
#
#
# Indices 1 2 3 4 5 6 
#
# 1 176.4634 38.8581 12.1436 0.0000 0.0000 0.0000
# 2 38.8581 20.1994 2.1161 0.0000 0.0000 0.0000
# 3 12.1436 2.1161 92.7550 0.0000 0.0000 0.0000
# 4 0.0000 0.0000 0.0000 22.8009 0.0000 0.0000
# 5 0.0000 0.0000 0.0000 0.0000 44.8281 0.0000
# 6 0.0000 0.0000 0.0000 0.0000 0.0000 15.1616
#
#
#
# Elastic Compliance Matrix: (Units=1/GPa)
#
#
# Indices 1 2 3 4 5 6 
#
# 1 0.009900 -0.018955 -0.000864 0.000000 0.000000 0.000000
# 2 -0.018955 0.085916 0.000522 0.000000 0.000000 0.000000
# 3 -0.000864 0.000522 0.010882 0.000000 0.000000 0.000000
# 4 0.000000 0.000000 0.000000 0.043858 0.000000 0.000000
# 5 0.000000 0.000000 0.000000 0.000000 0.022307 0.000000
# 6 0.000000 0.000000 0.000000 0.000000 0.000000 0.065956
#
#
# Mechanical properties :
#
#
# Convention : Reuss Voigt Hill
#
# Bulk Modulus (GPa) = 14.68337 43.96148 29.32242
# Shear Modulus (GPa) = 16.66024 32.31147 24.48585
#
# Velocity S-wave (km/s) = 2.80341 3.90413 3.39862
# Velocity P-wave (km/s) = 4.17197 6.40787 5.40676
#
# Compressibility (1/GPa) = 0.06810425
#
# Stress axis : x y z
#
# Youngs Moduli (GPa) = 101.00687 11.63928 91.89259
#
# Poissons Ratio (x) = 0.22062 0.07937
# Poissons Ratio (y) = 1.91458 -0.04793
# Poissons Ratio (z) = 0.08724 -0.00607
#
# Static dielectric constant tensor:
#      x y z
#    x 1.866350 0.000000 0.000000 
#    y 0.000000 1.697870 0.000000 
#    z 0.000000 0.000000 1.728360 
# 
# From -- ./inp_files/2674.got.cif
#   From: 2010.05.17/outbox.cif.g08.bks.cpg/sg53_2_cif.got.tgz:2674.got - 2010.06.03 12:45:16.
