data_PCOD9418047
_publ_section_title
;
Structure prediction by ZEFSAII (Michael W. Deem and Ramdas Pophale) SiO2 
 PCOD9418047
Probable space group: P M N A
;
_chemical_formula_sum "Si O2"
_cell_formula_units_Z 32
_cell_length_a 18.884562
_cell_length_b 7.354576
_cell_length_c 10.520722
_cell_angle_alpha 90.000000
_cell_angle_beta 90.000000
_cell_angle_gamma 90.000000
_cell_volume 1461.201474
_symmetry_space_group_name_H-M "P M N A"
_symmetry_group_IT_number 53
_symmetry_cell_setting 'orthorhombic'
loop_
_space_group_symop_operation_xyz
x,y,z
1/2-x,-y,1/2+z
x,-y,-z
1/2-x,y,1/2-z
-x,-y,-z
1/2+x,y,1/2-z
-x,y,z
1/2+x,-y,1/2+z
loop_
_atom_site_type_symbol
_atom_site_label
_atom_site_fract_x
_atom_site_fract_y
_atom_site_fract_z
Si Si1 0.695077 0.754566 0.594957
Si Si2 0.583465 0.258809 0.898750
Si Si3 0.354847 0.143706 0.143317
Si Si4 0.682980 0.343156 0.678301
O O1 0.643764 0.818564 0.706816
O O2 0.771551 0.849474 0.606518
O O3 0.706508 0.542322 0.631116
O O4 0.666731 0.764246 0.451306
O O5 0.500000 0.280922 0.892968
O O6 0.622505 0.360069 0.783532
O O7 0.607764 0.049723 0.874562
O O8 0.609919 0.285305 0.043990
O O9 0.750000 0.256310 0.750000
#
# Coordination Sequence:
#
# PCOD9418047 Si02
#       4
#     8   8   8   8
#     4  10  22  36  65  98 115 155 212 264 312 339
#     4  11  25  41  61  91 129 172 202 246 316 378
#     4  10  20  38  62  91 128 153 210 257 301 366
#     4  11  21  40  64  92 126 157 209 261 303 371
#
# _framework density 21.899785999999999
#
# number of rings (size 3 to 8) (size 9 to 14) (size 15 to 20)
#    0.000    1.500    5.000    1.500    3.500    2.000 
#    0.000   10.000    0.000    0.000    0.000    0.000 
#    0.000    0.000    0.000    0.000    0.000    0.000 
#
# Total GULP energy -178719.751497 kJ/mol
# GULP energy per Si atom -5584.992234 kJ/mol
# Density = 2.184994 g / cm^3
# Si number density = 21.899786 Si / 1000 Ang^3
#
#
#
# Elastic Constant Matrix: (Units=GPa)
#
#
# Indices 1 2 3 4 5 6 
#
# 1 127.2680 8.2474 74.3939 0.0000 0.0000 0.0000
# 2 8.2474 36.4089 30.1567 0.0000 0.0000 0.0000
# 3 74.3939 30.1567 235.7620 0.0000 0.0000 0.0000
# 4 0.0000 0.0000 0.0000 36.2594 0.0000 0.0000
# 5 0.0000 0.0000 0.0000 0.0000 27.1777 0.0000
# 6 0.0000 0.0000 0.0000 0.0000 0.0000 24.1747
#
#
#
# Elastic Compliance Matrix: (Units=1/GPa)
#
#
# Indices 1 2 3 4 5 6 
#
# 1 0.009639 0.000376 -0.003090 0.000000 0.000000 0.000000
# 2 0.000376 0.030735 -0.004050 0.000000 0.000000 0.000000
# 3 -0.003090 -0.004050 0.005735 0.000000 0.000000 0.000000
# 4 0.000000 0.000000 0.000000 0.027579 0.000000 0.000000
# 5 0.000000 0.000000 0.000000 0.000000 0.036795 0.000000
# 6 0.000000 0.000000 0.000000 0.000000 0.000000 0.041366
#
#
# Mechanical properties :
#
#
# Convention : Reuss Voigt Hill
#
# Bulk Modulus (GPa) = 30.69281 69.44834 50.07057
# Shear Modulus (GPa) = 28.37097 36.63175 32.50136
#
# Velocity S-wave (km/s) = 3.60320 4.09430 3.85657
# Velocity P-wave (km/s) = 5.59967 7.35743 6.53789
#
# Compressibility (1/GPa) = 0.03258092
#
# Stress axis : x y z
#
# Youngs Moduli (GPa) = 103.74384 32.53603 174.38248
#
# Poissons Ratio (x) = -0.01222 0.53878
# Poissons Ratio (y) = -0.03897 0.70623
# Poissons Ratio (z) = 0.32053 0.13177
#
# Static dielectric constant tensor:
#      x y z
#    x 1.714030 0.000000 0.000000 
#    y 0.000000 1.920060 0.000000 
#    z 0.000000 0.000000 1.885490 
# 
# From -- ./inp_files/16533.got.cif
#   From: 2010.05.17/outbox.cif.g08.bks.cpg/sg53_9_cif.got.tgz:16533.got - 2010.06.03 12:45:16.
