data_PCOD9418331
_publ_section_title
;
Structure prediction by ZEFSAII (Michael W. Deem and Ramdas Pophale) SiO2 
 PCOD9418331
Probable space group: P M N A
;
_chemical_formula_sum "Si O2"
_cell_formula_units_Z 48
_cell_length_a 31.047810
_cell_length_b 8.574247
_cell_length_c 8.239901
_cell_angle_alpha 90.000000
_cell_angle_beta 90.000000
_cell_angle_gamma 90.000000
_cell_volume 2193.557161
_symmetry_space_group_name_H-M "P M N A"
_symmetry_group_IT_number 53
_symmetry_cell_setting 'orthorhombic'
loop_
_space_group_symop_operation_xyz
x,y,z
1/2-x,-y,1/2+z
x,-y,-z
1/2-x,y,1/2-z
-x,-y,-z
1/2+x,y,1/2-z
-x,y,z
1/2+x,-y,1/2+z
loop_
_atom_site_type_symbol
_atom_site_label
_atom_site_fract_x
_atom_site_fract_y
_atom_site_fract_z
Si Si1 0.953914 0.938910 0.814689
Si Si2 0.782201 0.618063 0.617048
Si Si3 0.215309 0.879535 0.377993
Si Si4 0.140232 0.054611 0.186300
Si Si5 0.453815 0.562422 0.684940
Si Si6 0.640291 0.568000 0.681601
O O1 0.907574 0.987977 0.746222
O O2 0.953881 0.750623 0.818556
O O3 0.000000 0.990001 0.740855
O O4 0.953996 0.000000 0.000000
O O5 0.756968 0.500000 0.500000
O O6 0.750000 0.686323 0.750000
O O7 0.801022 0.748306 0.499806
O O8 0.819681 0.523891 0.707097
O O9 0.250000 0.818771 0.250000
O O10 0.238701 0.000000 0.500000
O O11 0.177063 0.969254 0.287823
O O12 0.143323 0.242792 0.180690
O O13 0.142804 0.000000 0.000000
O O14 0.453900 0.500000 0.500000
O O15 0.500000 0.511320 0.758727
O O16 0.406622 0.517610 0.750108
O O17 0.643952 0.500000 0.500000
#
# Coordination Sequence:
#
# PCOD9418331 Si02
#       6
#     8   8   8   8   8   8
#     4   8  14  27  48  79 118 152 189 237 283 336
#     4  12  27  45  63  87 116 154 197 247 305 369
#     4  12  25  42  64  87 118 152 196 248 299 363
#     4  10  21  35  60  92 119 156 200 244 294 348
#     4   8  14  27  50  81 113 150 195 239 282 334
#     4  10  21  37  60  88 122 158 198 245 295 351
#
# _framework density 21.882266000000001
#
# number of rings (size 3 to 8) (size 9 to 14) (size 15 to 20)
#    0.000    2.000    1.667    2.000    4.667    0.000 
#    0.000    0.000    0.000    2.000    0.000    0.000 
#    0.000    0.000    0.000    0.000    0.000    0.000 
#
# Total GULP energy -267566.632228 kJ/mol
# GULP energy per Si atom -5574.304838 kJ/mol
# Density = 2.183246 g / cm^3
# Si number density = 21.882266 Si / 1000 Ang^3
#
#
#
# Elastic Constant Matrix: (Units=GPa)
#
#
# Indices 1 2 3 4 5 6 
#
# 1 178.3290 22.8260 57.4637 0.0000 0.0000 0.0000
# 2 22.8260 37.4572 26.8880 0.0000 0.0000 0.0000
# 3 57.4637 26.8880 72.8737 0.0000 0.0000 0.0000
# 4 0.0000 0.0000 0.0000 34.0376 0.0000 0.0000
# 5 0.0000 0.0000 0.0000 0.0000 1.7698 0.0000
# 6 0.0000 0.0000 0.0000 0.0000 0.0000 14.3753
#
#
#
# Elastic Compliance Matrix: (Units=1/GPa)
#
#
# Indices 1 2 3 4 5 6 
#
# 1 0.007523 -0.000444 -0.005769 0.000000 0.000000 0.000000
# 2 -0.000444 0.036342 -0.013059 0.000000 0.000000 0.000000
# 3 -0.005769 -0.013059 0.023090 0.000000 0.000000 0.000000
# 4 0.000000 0.000000 0.000000 0.029379 0.000000 0.000000
# 5 0.000000 0.000000 0.000000 0.000000 0.565043 0.000000
# 6 0.000000 0.000000 0.000000 0.000000 0.000000 0.069564
#
#
# Mechanical properties :
#
#
# Convention : Reuss Voigt Hill
#
# Bulk Modulus (GPa) = 35.19671 55.89060 45.54365
# Shear Modulus (GPa) = 6.41887 22.13536 14.27711
#
# Velocity S-wave (km/s) = 1.71456 3.18396 2.55708
# Velocity P-wave (km/s) = 4.47651 6.25410 5.43842
#
# Compressibility (1/GPa) = 0.02841174
#
# Stress axis : x y z
#
# Youngs Moduli (GPa) = 132.92085 27.51657 43.30953
#
# Poissons Ratio (x) = 0.01221 0.24984
# Poissons Ratio (y) = 0.05897 0.56558
# Poissons Ratio (z) = 0.76678 0.35934
#
# Static dielectric constant tensor:
#      x y z
#    x 1.871540 0.000000 0.000000 
#    y 0.000000 1.845390 0.000000 
#    z 0.000000 0.000000 1.813580 
# 
# From -- ./inp_files/13039.got.cif
#   From: 2010.05.17/outbox.cif.g08.bks.cpg/sg53_7_cif.got.tgz:13039.got - 2010.06.03 12:45:16.
