data_PCOD9418769
_publ_section_title
;
Structure prediction by ZEFSAII (Michael W. Deem and Ramdas Pophale) SiO2 
 PCOD9418769
Probable space group: P M N A
;
_chemical_formula_sum "Si O2"
_cell_formula_units_Z 64
_cell_length_a 18.785857
_cell_length_b 14.487302
_cell_length_c 12.036252
_cell_angle_alpha 90.000000
_cell_angle_beta 90.000000
_cell_angle_gamma 90.000000
_cell_volume 3275.742817
_symmetry_space_group_name_H-M "P M N A"
_symmetry_group_IT_number 53
_symmetry_cell_setting 'orthorhombic'
loop_
_space_group_symop_operation_xyz
x,y,z
1/2-x,-y,1/2+z
x,-y,-z
1/2-x,y,1/2-z
-x,-y,-z
1/2+x,y,1/2-z
-x,y,z
1/2+x,-y,1/2+z
loop_
_atom_site_type_symbol
_atom_site_label
_atom_site_fract_x
_atom_site_fract_y
_atom_site_fract_z
Si Si1 0.414240 0.576386 0.258368
Si Si2 0.331056 0.602794 0.780318
Si Si3 0.584632 0.752782 0.403859
Si Si4 0.334093 0.875864 0.228090
Si Si5 0.417935 0.062284 0.191098
Si Si6 0.420851 0.809298 0.024341
Si Si7 0.391716 0.602342 0.011639
Si Si8 0.083156 0.760870 0.835465
O O1 0.500000 0.571199 0.242312
O O2 0.380294 0.476453 0.274591
O O3 0.400292 0.651588 0.352660
O O4 0.378947 0.609332 0.142717
O O5 0.250000 0.591569 0.750000
O O6 0.364592 0.697216 0.735642
O O7 0.334367 0.595442 0.914106
O O8 0.500000 0.769468 0.389610
O O9 0.627342 0.827221 0.332225
O O10 0.600303 0.755289 0.534373
O O11 0.250000 0.874482 0.250000
O O12 0.361110 0.822424 0.117638
O O13 0.364343 0.978594 0.207898
O O14 0.500000 0.028920 0.188933
O O15 0.411111 0.135454 0.290462
O O16 0.407541 0.121199 0.077769
O O17 0.500000 0.830106 0.070923
O O18 0.424557 0.702636 0.985706
O O19 0.427121 0.500000 0.000000
O O20 0.000000 0.732185 0.819373
#
# Coordination Sequence:
#
# PCOD9418769 Si02
#       8
#     8   8   8   8   8   8   8   8
#     4  10  21  40  67  94 123 165 218 271 310 367
#     4  11  24  40  59  92 136 172 203 255 326 390
#     4  10  22  43  67  91 121 164 217 262 312 375
#     4  12  26  42  61  95 131 169 205 260 329 393
#     4  10  22  43  70  95 121 161 219 276 317 369
#     4  11  21  41  72  99 126 164 215 274 321 371
#     4  10  21  38  65 100 128 161 213 262 318 369
#     4  10  22  42  67  93 119 164 219 261 310 378
#
# _framework density 19.537552999999999
#
# number of rings (size 3 to 8) (size 9 to 14) (size 15 to 20)
#    0.000    1.500    2.500    2.250    0.000    9.000 
#   11.250    3.750    0.000    0.000    0.000    0.000 
#    0.000    0.000    0.000    0.000    0.000    0.000 
#
# Total GULP energy -356896.684328 kJ/mol
# GULP energy per Si atom -5576.510693 kJ/mol
# Density = 1.949308 g / cm^3
# Si number density = 19.537553 Si / 1000 Ang^3
#
#
#
# Elastic Constant Matrix: (Units=GPa)
#
#
# Indices 1 2 3 4 5 6 
#
# 1 90.9019 43.5136 54.3589 0.0000 0.0000 0.0000
# 2 43.5136 116.1110 25.0261 0.0000 0.0000 0.0000
# 3 54.3589 25.0261 97.2361 0.0000 0.0000 0.0000
# 4 0.0000 0.0000 0.0000 20.3838 0.0000 0.0000
# 5 0.0000 0.0000 0.0000 0.0000 31.0162 0.0000
# 6 0.0000 0.0000 0.0000 0.0000 0.0000-1042.0364
#
#
#
# Elastic Compliance Matrix: (Units=1/GPa)
#
#
# Indices 1 2 3 4 5 6 
#
# 1 0.019024 -0.005121 -0.009317 0.000000 0.000000 0.000000
# 2 -0.005121 0.010497 0.000161 0.000000 0.000000 0.000000
# 3 -0.009317 0.000161 0.015451 0.000000 0.000000 0.000000
# 4 0.000000 0.000000 0.000000 0.049058 0.000000 0.000000
# 5 0.000000 0.000000 0.000000 0.000000 0.032241 0.000000
# 6 0.000000 0.000000 0.000000 0.000000 0.000000 -0.000960
#
#
# Mechanical properties :
#
#
# Convention : Reuss Voigt Hill
#
# Bulk Modulus (GPa) = 60.90782 61.11623 61.01202
# Shear Modulus (GPa) = 31.37969 -186.03724 -77.32878
#
# Velocity S-wave (km/s) = 4.01199 -9.76868 -6.29805
# Velocity P-wave (km/s) = 7.25974 9.79218 4.64666
#
# Compressibility (1/GPa) = 0.01641825
#
# Stress axis : x y z
#
# Youngs Moduli (GPa) = 52.56557 95.26627 64.71937
#
# Poissons Ratio (x) = 0.48788 0.60299
# Poissons Ratio (y) = 0.26920 -0.01044
# Poissons Ratio (z) = 0.48976 -0.01537
#
# Static dielectric constant tensor:
#      x y z
#    x 1.659610 0.000000 0.000000 
#    y 0.000000 1.705360 0.000000 
#    z 0.000000 0.000000 1.685320 
# 
# From -- ./inp_files/17096.got.cif
#   From: 2010.05.17/outbox.cif.g08.bks.cpg/sg53_9_cif.got.tgz:17096.got - 2010.06.03 12:45:16.
