data_PCOD9418306
_publ_section_title
;
Structure prediction by ZEFSAII (Michael W. Deem and Ramdas Pophale) SiO2 
 PCOD9418306
Probable space group: P M N A
;
_chemical_formula_sum "Si O2"
_cell_formula_units_Z 28
_cell_length_a 15.004285
_cell_length_b 18.138072
_cell_length_c 5.151463
_cell_angle_alpha 90.000000
_cell_angle_beta 90.000000
_cell_angle_gamma 90.000000
_cell_volume 1401.964482
_symmetry_space_group_name_H-M "P M N A"
_symmetry_group_IT_number 53
_symmetry_cell_setting 'orthorhombic'
loop_
_space_group_symop_operation_xyz
x,y,z
1/2-x,-y,1/2+z
x,-y,-z
1/2-x,y,1/2-z
-x,-y,-z
1/2+x,y,1/2-z
-x,y,z
1/2+x,-y,1/2+z
loop_
_atom_site_type_symbol
_atom_site_label
_atom_site_fract_x
_atom_site_fract_y
_atom_site_fract_z
Si Si1 0.103269 0.735626 0.881023
Si Si2 0.894463 0.832263 0.399500
Si Si3 0.250000 0.952291 0.250000
Si Si4 0.312349 0.421290 0.497570
O O1 0.140924 0.781214 0.636146
O O2 0.137627 0.654647 0.947181
O O3 0.000000 0.726614 0.812703
O O4 0.111209 0.784699 0.137483
O O5 0.831285 0.901972 0.353937
O O6 0.000000 0.851069 0.442805
O O7 0.279209 0.000000 0.500000
O O8 0.364212 0.500000 0.500000
O O9 0.250000 0.430209 0.250000
O O10 0.250000 0.412962 0.750000
#
# Coordination Sequence:
#
# PCOD9418306 Si02
#       4
#     8   8   4   8
#     4  10  21  38  60  87 117 159 204 243 296 350
#     4  10  23  41  62  91 122 155 200 249 296 355
#     4  12  26  42  64  94 120 156 200 238 308 378
#     4  10  21  35  54  86 122 159 201 247 299 346
#
# _framework density 19.971972999999998
#
# number of rings (size 3 to 8) (size 9 to 14) (size 15 to 20)
#    0.000    1.714    0.000    3.429    6.000    1.714 
#    0.000    0.000    0.000   10.286    0.000    0.000 
#    0.000    0.000    0.000    0.000    0.000    0.000 
#
# Total GULP energy -156224.677595 kJ/mol
# GULP energy per Si atom -5579.452771 kJ/mol
# Density = 1.992652 g / cm^3
# Si number density = 19.971973 Si / 1000 Ang^3
#
#
#
# Elastic Constant Matrix: (Units=GPa)
#
#
# Indices 1 2 3 4 5 6 
#
# 1 53.3984 63.8542 34.5254 0.0000 0.0000 0.0000
# 2 63.8542 161.1484 52.3523 0.0000 0.0000 0.0000
# 3 34.5254 52.3523 131.6830 0.0000 0.0000 0.0000
# 4 0.0000 0.0000 0.0000 38.8157 0.0000 0.0000
# 5 0.0000 0.0000 0.0000 0.0000 5.5250 0.0000
# 6 0.0000 0.0000 0.0000 0.0000 0.0000 -7.6671
#
#
#
# Elastic Compliance Matrix: (Units=1/GPa)
#
#
# Indices 1 2 3 4 5 6 
#
# 1 0.037821 -0.013510 -0.004545 0.000000 0.000000 0.000000
# 2 -0.013510 0.011952 -0.001209 0.000000 0.000000 0.000000
# 3 -0.004545 -0.001209 0.009266 0.000000 0.000000 0.000000
# 4 0.000000 0.000000 0.000000 0.025763 0.000000 0.000000
# 5 0.000000 0.000000 0.000000 0.000000 0.180995 0.000000
# 6 0.000000 0.000000 0.000000 0.000000 0.000000 -0.130427
#
#
# Mechanical properties :
#
#
# Convention : Reuss Voigt Hill
#
# Bulk Modulus (GPa) = 48.75590 71.96595 60.36093
# Shear Modulus (GPa) = 27.66487 20.36792 24.01640
#
# Velocity S-wave (km/s) = 3.72584 3.19693 3.47148
# Velocity P-wave (km/s) = 6.55548 7.05258 6.80857
#
# Compressibility (1/GPa) = 0.02051034
#
# Stress axis : x y z
#
# Youngs Moduli (GPa) = 26.44036 83.67111 107.91590
#
# Poissons Ratio (x) = 1.13038 0.49049
# Poissons Ratio (y) = 0.35720 0.13052
# Poissons Ratio (z) = 0.12017 0.10119
#
# Static dielectric constant tensor:
#      x y z
#    x 1.727390 0.000000 0.000000 
#    y 0.000000 1.767940 0.000000 
#    z 0.000000 0.000000 1.697060 
# 
# From -- ./inp_files/1154.got.cif
#   From: 2010.05.17/outbox.cif.g08.bks.cpg/sg53_1_cif.got.tgz:1154.got - 2010.06.03 12:45:16.
