data_PCOD9418519
_publ_section_title
;
Structure prediction by ZEFSAII (Michael W. Deem and Ramdas Pophale) SiO2 
 PCOD9418519
Probable space group: P M N A
;
_chemical_formula_sum "Si O2"
_cell_formula_units_Z 48
_cell_length_a 7.761611
_cell_length_b 16.819075
_cell_length_c 20.039088
_cell_angle_alpha 90.000000
_cell_angle_beta 90.000000
_cell_angle_gamma 90.000000
_cell_volume 2615.965020
_symmetry_space_group_name_H-M "P M N A"
_symmetry_group_IT_number 53
_symmetry_cell_setting 'orthorhombic'
loop_
_space_group_symop_operation_xyz
x,y,z
1/2-x,-y,1/2+z
x,-y,-z
1/2-x,y,1/2-z
-x,-y,-z
1/2+x,y,1/2-z
-x,y,z
1/2+x,-y,1/2+z
loop_
_atom_site_type_symbol
_atom_site_label
_atom_site_fract_x
_atom_site_fract_y
_atom_site_fract_z
Si Si1 0.295376 0.376429 0.825867
Si Si2 0.303315 0.557026 0.673199
Si Si3 0.710142 0.749134 0.060031
Si Si4 0.000000 0.878849 0.049109
Si Si5 0.000000 0.945076 0.898453
Si Si6 0.707586 0.848886 0.827919
Si Si7 0.800108 0.698830 0.585580
O O1 0.250000 0.353854 0.750000
O O2 0.500000 0.387203 0.829428
O O3 0.218088 0.463403 0.839808
O O4 0.246769 0.310105 0.879340
O O5 0.250000 0.570897 0.750000
O O6 0.500000 0.579848 0.667799
O O7 0.212575 0.613542 0.620230
O O8 0.500000 0.763116 0.061397
O O9 0.828442 0.827270 0.063940
O O10 0.764077 0.707524 0.989916
O O11 0.000000 0.960814 0.089748
O O12 0.000000 0.902865 0.970987
O O13 0.171611 0.916590 0.859775
O O14 0.750000 0.841882 0.750000
O O15 0.500000 0.861140 0.836018
O O16 0.766091 0.767662 0.865281
O O17 0.000000 0.717523 0.579293
#
# Coordination Sequence:
#
# PCOD9418519 Si02
#       7
#     8   8   8   4   4   8   8
#     4  10  21  39  61  83 116 160 206 255 309 355
#     4  11  22  34  54  85 121 162 205 249 296 358
#     4  10  23  41  64  91 120 159 205 255 304 364
#     4  11  24  42  70  88 127 153 209 255 304 385
#     4  11  24  42  64  99 120 167 195 252 320 366
#     4  11  22  38  64  92 129 166 200 247 305 370
#     4  10  21  37  57  87 122 160 200 245 299 356
#
# _framework density 18.348869000000001
#
# number of rings (size 3 to 8) (size 9 to 14) (size 15 to 20)
#    0.000    1.500    2.500    3.500    4.667    2.667 
#    0.000    5.833    0.000    0.000    0.000    0.000 
#    0.000    0.000    0.000    0.000    0.000    0.000 
#
# Total GULP energy -267763.178988 kJ/mol
# GULP energy per Si atom -5578.399562 kJ/mol
# Density = 1.830711 g / cm^3
# Si number density = 18.348869 Si / 1000 Ang^3
#
#
#
# Elastic Constant Matrix: (Units=GPa)
#
#
# Indices 1 2 3 4 5 6 
#
# 1 65.6647 28.2007 32.5498 0.0000 0.0000 0.0000
# 2 28.2007 116.9733 91.5186 0.0000 0.0000 0.0000
# 3 32.5498 91.5186 136.6713 0.0000 0.0000 0.0000
# 4 0.0000 0.0000 0.0000 39.9359 0.0000 0.0000
# 5 0.0000 0.0000 0.0000 0.0000 21.3539 0.0000
# 6 0.0000 0.0000 0.0000 0.0000 0.0000 8.6895
#
#
#
# Elastic Compliance Matrix: (Units=1/GPa)
#
#
# Indices 1 2 3 4 5 6 
#
# 1 0.017490 -0.002011 -0.002819 0.000000 0.000000 0.000000
# 2 -0.002011 0.018188 -0.011700 0.000000 0.000000 0.000000
# 3 -0.002819 -0.011700 0.015823 0.000000 0.000000 0.000000
# 4 0.000000 0.000000 0.000000 0.025040 0.000000 0.000000
# 5 0.000000 0.000000 0.000000 0.000000 0.046830 0.000000
# 6 0.000000 0.000000 0.000000 0.000000 0.000000 0.115081
#
#
# Mechanical properties :
#
#
# Convention : Reuss Voigt Hill
#
# Bulk Modulus (GPa) = 54.22831 69.31640 61.77236
# Shear Modulus (GPa) = 18.00775 25.13187 21.56981
#
# Velocity S-wave (km/s) = 3.13614 3.70492 3.43233
# Velocity P-wave (km/s) = 6.53698 7.49405 7.03182
#
# Compressibility (1/GPa) = 0.01844055
#
# Stress axis : x y z
#
# Youngs Moduli (GPa) = 57.17605 54.98183 63.20027
#
# Poissons Ratio (x) = 0.11059 0.17813
# Poissons Ratio (y) = 0.11500 0.73944
# Poissons Ratio (z) = 0.16115 0.64329
#
# Static dielectric constant tensor:
#      x y z
#    x 1.657980 0.000000 0.000000 
#    y 0.000000 1.603210 0.000000 
#    z 0.000000 0.000000 1.587700 
# 
# From -- ./inp_files/26318.got.cif
#   From: 2010.05.17/outbox.cif.g08.bks.cpg/sg53_14_cif.got.tgz:26318.got - 2010.06.03 12:45:16.
