data_PCOD9418815
_publ_section_title
;
Structure prediction by ZEFSAII (Michael W. Deem and Ramdas Pophale) SiO2 
 PCOD9418815
Probable space group: P M N A
;
_chemical_formula_sum "Si O2"
_cell_formula_units_Z 64
_cell_length_a 8.508706
_cell_length_b 18.120649
_cell_length_c 20.568349
_cell_angle_alpha 90.000000
_cell_angle_beta 90.000000
_cell_angle_gamma 90.000000
_cell_volume 3171.295407
_symmetry_space_group_name_H-M "P M N A"
_symmetry_group_IT_number 53
_symmetry_cell_setting 'orthorhombic'
loop_
_space_group_symop_operation_xyz
x,y,z
1/2-x,-y,1/2+z
x,-y,-z
1/2-x,y,1/2-z
-x,-y,-z
1/2+x,y,1/2-z
-x,y,z
1/2+x,-y,1/2+z
loop_
_atom_site_type_symbol
_atom_site_label
_atom_site_fract_x
_atom_site_fract_y
_atom_site_fract_z
Si Si1 0.690356 0.714721 0.676793
Si Si2 0.322515 0.192161 0.438566
Si Si3 0.815308 0.450797 0.815708
Si Si4 0.188492 0.926490 0.463342
Si Si5 0.182120 0.704753 0.344294
Si Si6 0.308292 0.572352 0.591769
Si Si7 0.190585 0.127462 0.679443
Si Si8 0.178995 0.338300 0.975799
O O1 0.750000 0.718199 0.750000
O O2 0.500000 0.716174 0.676214
O O3 0.743455 0.784156 0.631873
O O4 0.738160 0.638017 0.641514
O O5 0.500000 0.162123 0.431049
O O6 0.230068 0.139642 0.487442
O O7 0.335682 0.270973 0.474087
O O8 0.750000 0.485531 0.750000
O O9 0.772238 0.365273 0.816650
O O10 0.754467 0.495240 0.878135
O O11 0.000000 0.458500 0.814265
O O12 0.243503 0.911395 0.388593
O O13 0.000000 0.931795 0.458517
O O14 0.247735 0.000000 0.500000
O O15 0.241035 0.786273 0.326605
O O16 0.207506 0.691023 0.420569
O O17 0.000000 0.700128 0.325986
O O18 0.500000 0.572373 0.588759
O O19 0.260518 0.594108 0.519106
O O20 0.250000 0.099600 0.750000
O O21 0.000000 0.125850 0.680068
O O22 0.000000 0.353588 0.950390
#
# Coordination Sequence:
#
# PCOD9418815 Si02
#       8
#     8   8   8   8   8   8   8   8
#     4   9  17  31  51  78 108 143 188 234 279 329
#     4   9  18  33  55  82 112 143 182 227 271 325
#     4  11  22  36  52  72 102 142 186 234 288 340
#     4  10  21  39  62  87 115 147 182 221 273 332
#     4  11  22  36  54  79 110 142 184 233 279 333
#     4   8  17  33  52  73 103 142 186 233 282 339
#     4  10  22  39  60  86 114 147 185 227 273 328
#     4   9  17  33  56  79 103 140 183 225 276 331
#
# _framework density 20.181027
#
# number of rings (size 3 to 8) (size 9 to 14) (size 15 to 20)
#    0.000    2.375    1.250    3.000    0.000    3.750 
#    0.000    6.875    0.000    3.000    0.000    0.000 
#    0.000    0.000    0.000    0.000    0.000    0.000 
#
# Total GULP energy -356711.844223 kJ/mol
# GULP energy per Si atom -5573.622566 kJ/mol
# Density = 2.013509 g / cm^3
# Si number density = 20.181027 Si / 1000 Ang^3
#
#
#
# Elastic Constant Matrix: (Units=GPa)
#
#
# Indices 1 2 3 4 5 6 
#
# 1 7.0055 10.6577 10.7634 0.0000 0.0000 0.0000
# 2 10.6577 76.4132 46.8798 0.0000 0.0000 0.0000
# 3 10.7634 46.8798 142.2969 0.0000 0.0000 0.0000
# 4 0.0000 0.0000 0.0000 -1.6243 0.0000 0.0000
# 5 0.0000 0.0000 0.0000 0.0000 30.1150 0.0000
# 6 0.0000 0.0000 0.0000 0.0000 0.0000 28.4220
#
#
#
# Elastic Compliance Matrix: (Units=1/GPa)
#
#
# Indices 1 2 3 4 5 6 
#
# 1 0.186503 -0.021755 -0.006940 0.000000 0.000000 0.000000
# 2 -0.021755 0.018939 -0.004594 0.000000 0.000000 0.000000
# 3 -0.006940 -0.004594 0.009066 0.000000 0.000000 0.000000
# 4 0.000000 0.000000 0.000000 -0.615639 0.000000 0.000000
# 5 0.000000 0.000000 0.000000 0.000000 0.033206 0.000000
# 6 0.000000 0.000000 0.000000 0.000000 0.000000 0.035184
#
#
# Mechanical properties :
#
#
# Convention : Reuss Voigt Hill
#
# Bulk Modulus (GPa) = 6.75992 40.25752 23.50872
# Shear Modulus (GPa) = -23.05716 21.87686 -0.59015
#
# Velocity S-wave (km/s) = -3.38378 3.29603 -0.54135
# Velocity P-wave (km/s) = 3.45105 5.87168 3.35909
#
# Compressibility (1/GPa) = 0.14793076
#
# Stress axis : x y z
#
# Youngs Moduli (GPa) = 5.36184 52.79981 110.30181
#
# Poissons Ratio (x) = 1.14865 0.76550
# Poissons Ratio (y) = 0.11665 0.50674
# Poissons Ratio (z) = 0.03721 0.24257
#
# Static dielectric constant tensor:
#      x y z
#    x 1.703840 0.000000 0.000000 
#    y 0.000000 1.738510 0.000000 
#    z 0.000000 0.000000 1.813240 
# 
# From -- ./inp_files/31157.got.cif
#   From: 2010.05.17/outbox.cif.g08.bks.cpg/sg53_16_cif.got.tgz:31157.got - 2010.06.03 12:45:16.
