data_PCOD9418067
_publ_section_title
;
Structure prediction by ZEFSAII (Michael W. Deem and Ramdas Pophale) SiO2 
 PCOD9418067
Probable space group: P M N A
;
_chemical_formula_sum "Si O2"
_cell_formula_units_Z 64
_cell_length_a 18.834769
_cell_length_b 13.559853
_cell_length_c 12.799918
_cell_angle_alpha 90.000000
_cell_angle_beta 90.000000
_cell_angle_gamma 90.000000
_cell_volume 3269.056804
_symmetry_space_group_name_H-M "P M N A"
_symmetry_group_IT_number 53
_symmetry_cell_setting 'orthorhombic'
loop_
_space_group_symop_operation_xyz
x,y,z
1/2-x,-y,1/2+z
x,-y,-z
1/2-x,y,1/2-z
-x,-y,-z
1/2+x,y,1/2-z
-x,y,z
1/2+x,-y,1/2+z
loop_
_atom_site_type_symbol
_atom_site_label
_atom_site_fract_x
_atom_site_fract_y
_atom_site_fract_z
Si Si1 0.417791 0.567277 0.395920
Si Si2 0.333375 0.577474 0.736535
Si Si3 0.583027 0.801615 0.427924
Si Si4 0.334731 0.902253 0.242882
Si Si5 0.418103 0.089735 0.161848
Si Si6 0.416344 0.805087 0.057784
Si Si7 0.420288 0.604129 0.942685
Si Si8 0.081549 0.753469 0.845332
O O1 0.409432 0.500000 0.500000
O O2 0.500000 0.555843 0.362055
O O3 0.365581 0.522646 0.310026
O O4 0.405630 0.683475 0.413836
O O5 0.250000 0.574761 0.750000
O O6 0.366889 0.600292 0.848188
O O7 0.362884 0.665167 0.663259
O O8 0.500000 0.821777 0.404394
O O9 0.631466 0.865121 0.351567
O O10 0.594981 0.818316 0.551425
O O11 0.250000 0.902685 0.250000
O O12 0.365821 0.007549 0.206271
O O13 0.365637 0.830986 0.152838
O O14 0.500000 0.053208 0.163177
O O15 0.402974 0.126202 0.044087
O O16 0.414957 0.182027 0.240782
O O17 0.500000 0.816348 0.086021
O O18 0.405372 0.693315 0.020659
O O19 0.500000 0.621971 0.900375
O O20 0.419394 0.500000 0.000000
O O21 0.000000 0.714975 0.856842
#
# Coordination Sequence:
#
# PCOD9418067 Si02
#       8
#     8   8   8   8   8   8   8   8
#     4  10  20  38  64  87 114 161 216 254 287 358
#     4  12  24  36  57  91 133 167 198 248 317 388
#     4  10  22  41  67  94 122 162 213 262 310 371
#     4  12  27  43  59  92 135 167 201 258 326 389
#     4  10  21  43  73  94 115 158 221 273 306 362
#     4  10  21  43  72  94 120 166 220 264 304 367
#     4  10  22  41  65  94 123 160 214 267 309 356
#     4  10  20  41  69  95 120 156 213 265 307 367
#
# _framework density 19.577513
#
# number of rings (size 3 to 8) (size 9 to 14) (size 15 to 20)
#    0.000    1.500    2.500    2.625    1.750    4.000 
#    4.500    1.875    0.000    0.000    0.000    0.000 
#    0.000    0.000    0.000    0.000    0.000    0.000 
#
# Total GULP energy -357692.053879 kJ/mol
# GULP energy per Si atom -5588.938342 kJ/mol
# Density = 1.953295 g / cm^3
# Si number density = 19.577513 Si / 1000 Ang^3
#
#
#
# Elastic Constant Matrix: (Units=GPa)
#
#
# Indices 1 2 3 4 5 6 
#
# 1 104.1018 20.8884 45.3613 0.0000 0.0000 0.0000
# 2 20.8884 45.7263 1.3978 0.0000 0.0000 0.0000
# 3 45.3613 1.3978 75.4357 0.0000 0.0000 0.0000
# 4 0.0000 0.0000 0.0000 26.2153 0.0000 0.0000
# 5 0.0000 0.0000 0.0000 0.0000 6.6742 0.0000
# 6 0.0000 0.0000 0.0000 0.0000 0.0000 -86.6611
#
#
#
# Elastic Compliance Matrix: (Units=1/GPa)
#
#
# Indices 1 2 3 4 5 6 
#
# 1 0.014699 -0.006448 -0.008720 0.000000 0.000000 0.000000
# 2 -0.006448 0.024710 0.003420 0.000000 0.000000 0.000000
# 3 -0.008720 0.003420 0.018436 0.000000 0.000000 0.000000
# 4 0.000000 0.000000 0.000000 0.038146 0.000000 0.000000
# 5 0.000000 0.000000 0.000000 0.000000 0.149830 0.000000
# 6 0.000000 0.000000 0.000000 0.000000 0.000000 -0.011539
#
#
# Mechanical properties :
#
#
# Convention : Reuss Voigt Hill
#
# Bulk Modulus (GPa) = 29.11250 40.06209 34.58729
# Shear Modulus (GPa) = 18.57156 -0.24658 9.16249
#
# Velocity S-wave (km/s) = 3.08330 -0.35528 2.16570
# Velocity P-wave (km/s) = 5.25151 4.50993 4.89478
#
# Compressibility (1/GPa) = 0.03434951
#
# Stress axis : x y z
#
# Youngs Moduli (GPa) = 68.03031 40.46879 54.24094
#
# Poissons Ratio (x) = 0.26096 0.47296
# Poissons Ratio (y) = 0.43868 -0.18549
# Poissons Ratio (z) = 0.59320 -0.13839
#
# Static dielectric constant tensor:
#      x y z
#    x 1.637470 0.000000 0.000000 
#    y 0.000000 1.722070 0.000000 
#    z 0.000000 0.000000 1.695490 
# 
# From -- ./inp_files/17097.got.cif
#   From: 2010.05.17/outbox.cif.g08.bks.cpg/sg53_9_cif.got.tgz:17097.got - 2010.06.03 12:45:16.
