data_PCOD9418216
_publ_section_title
;
Structure prediction by ZEFSAII (Michael W. Deem and Ramdas Pophale) SiO2 
 PCOD9418216
Probable space group: P M N A
;
_chemical_formula_sum "Si O2"
_cell_formula_units_Z 40
_cell_length_a 14.472955
_cell_length_b 8.471068
_cell_length_c 15.765621
_cell_angle_alpha 90.000000
_cell_angle_beta 90.000000
_cell_angle_gamma 90.000000
_cell_volume 1932.886985
_symmetry_space_group_name_H-M "P M N A"
_symmetry_group_IT_number 53
_symmetry_cell_setting 'orthorhombic'
loop_
_space_group_symop_operation_xyz
x,y,z
1/2-x,-y,1/2+z
x,-y,-z
1/2-x,y,1/2-z
-x,-y,-z
1/2+x,y,1/2-z
-x,y,z
1/2+x,-y,1/2+z
loop_
_atom_site_type_symbol
_atom_site_label
_atom_site_fract_x
_atom_site_fract_y
_atom_site_fract_z
Si Si1 0.394741 0.790461 0.784345
Si Si2 0.196845 0.828341 0.040373
Si Si3 0.163953 0.135377 0.685734
Si Si4 0.214164 0.660956 0.866936
Si Si5 0.398279 0.642072 0.322647
O O1 0.500000 0.733580 0.788156
O O2 0.319556 0.694751 0.839800
O O3 0.351520 0.774639 0.690028
O O4 0.390777 0.972123 0.813257
O O5 0.291605 0.831433 0.094682
O O6 0.119193 0.778256 0.107887
O O7 0.200857 0.703221 0.964472
O O8 0.182408 0.000000 0.000000
O O9 0.250000 0.108468 0.750000
O O10 0.112008 0.280060 0.730278
O O11 0.179463 0.487888 0.841256
O O12 0.500000 0.573264 0.333831
#
# Coordination Sequence:
#
# PCOD9418216 Si02
#       5
#     8   8   8   8   8
#     4  11  22  40  69  96 129 180 227 270 331 402
#     4  11  22  41  67  96 136 184 218 274 343 392
#     4  10  20  41  65  93 131 178 223 269 331 397
#     4  11  23  42  63 101 139 173 219 281 340 397
#     4  11  25  42  68 101 136 181 224 278 343 403
#
# _framework density 20.694431999999999
#
# number of rings (size 3 to 8) (size 9 to 14) (size 15 to 20)
#    0.000    1.200    4.000    3.000    8.400    2.800 
#    0.000    3.000    0.000    2.400    0.000    0.000 
#    0.000    0.000    0.000    0.000    0.000    0.000 
#
# Total GULP energy -223469.408240 kJ/mol
# GULP energy per Si atom -5586.735206 kJ/mol
# Density = 2.064733 g / cm^3
# Si number density = 20.694432 Si / 1000 Ang^3
#
#
#
# Elastic Constant Matrix: (Units=GPa)
#
#
# Indices 1 2 3 4 5 6 
#
# 1 132.4588 28.7732 -3.6660 0.0000 0.0000 0.0000
# 2 28.7732 109.7955 31.0869 0.0000 0.0000 0.0000
# 3 -3.6660 31.0869 36.1537 0.0000 0.0000 0.0000
# 4 0.0000 0.0000 0.0000 28.8285 0.0000 0.0000
# 5 0.0000 0.0000 0.0000 0.0000 1.8422 0.0000
# 6 0.0000 0.0000 0.0000 0.0000 0.0000 12.2723
#
#
#
# Elastic Compliance Matrix: (Units=1/GPa)
#
#
# Indices 1 2 3 4 5 6 
#
# 1 0.008346 -0.003208 0.003604 0.000000 0.000000 0.000000
# 2 -0.003208 0.013272 -0.011737 0.000000 0.000000 0.000000
# 3 0.003604 -0.011737 0.038117 0.000000 0.000000 0.000000
# 4 0.000000 0.000000 0.000000 0.034688 0.000000 0.000000
# 5 0.000000 0.000000 0.000000 0.000000 0.542828 0.000000
# 6 0.000000 0.000000 0.000000 0.000000 0.000000 0.081484
#
#
# Mechanical properties :
#
#
# Convention : Reuss Voigt Hill
#
# Bulk Modulus (GPa) = 26.98721 43.42178 35.20450
# Shear Modulus (GPa) = 6.63335 23.40286 15.01811
#
# Velocity S-wave (km/s) = 1.79230 3.36650 2.69682
# Velocity P-wave (km/s) = 4.16560 6.01157 5.17162
#
# Compressibility (1/GPa) = 0.03705459
#
# Stress axis : x y z
#
# Youngs Moduli (GPa) = 119.81680 75.34898 26.23485
#
# Poissons Ratio (x) = 0.24170 -0.09456
# Poissons Ratio (y) = 0.38434 0.30792
# Poissons Ratio (z) = -0.43188 0.88436
#
# Static dielectric constant tensor:
#      x y z
#    x 1.738410 0.000000 0.000000 
#    y 0.000000 1.804890 0.000000 
#    z 0.000000 0.000000 1.733770 
# 
# From -- ./inp_files/22382.got.cif
#   From: 2010.05.17/outbox.cif.g08.bks.cpg/sg53_12_cif.got.tgz:22382.got - 2010.06.03 12:45:16.
