data_PCOD9418956
_publ_section_title
;
Structure prediction by ZEFSAII (Michael W. Deem and Ramdas Pophale) SiO2 
 PCOD9418956
Probable space group: P M N A
;
_chemical_formula_sum "Si O2"
_cell_formula_units_Z 32
_cell_length_a 10.945347
_cell_length_b 6.928815
_cell_length_c 18.287529
_cell_angle_alpha 90.000000
_cell_angle_beta 90.000000
_cell_angle_gamma 90.000000
_cell_volume 1386.894827
_symmetry_space_group_name_H-M "P M N A"
_symmetry_group_IT_number 53
_symmetry_cell_setting 'orthorhombic'
loop_
_space_group_symop_operation_xyz
x,y,z
1/2-x,-y,1/2+z
x,-y,-z
1/2-x,y,1/2-z
-x,-y,-z
1/2+x,y,1/2-z
-x,y,z
1/2+x,-y,1/2+z
loop_
_atom_site_type_symbol
_atom_site_label
_atom_site_fract_x
_atom_site_fract_y
_atom_site_fract_z
Si Si1 0.694293 0.258919 0.073230
Si Si2 0.136142 0.973626 0.132921
Si Si3 0.140615 0.288554 0.590351
Si Si4 0.126502 0.249546 0.269067
O O1 0.825083 0.153853 0.080153
O O2 0.681088 0.487566 0.085407
O O3 0.630078 0.183426 0.147112
O O4 0.639786 0.218926 0.994295
O O5 0.130701 0.071364 0.213082
O O6 0.000000 0.900753 0.115493
O O7 0.246306 0.822044 0.127239
O O8 0.000000 0.274573 0.618166
O O9 0.250000 0.363386 0.250000
O O10 0.000000 0.357533 0.255934
#
# Coordination Sequence:
#
# PCOD9418956 Si02
#       4
#     8   8   8   8
#     4  10  21  40  66  93 126 166 214 267 321 377
#     4  10  23  41  62  91 129 173 213 254 314 385
#     4  11  23  38  65 101 129 161 212 271 325 379
#     4   9  18  36  60  82 114 160 206 252 302 362
#
# _framework density 23.073126999999999
#
# number of rings (size 3 to 8) (size 9 to 14) (size 15 to 20)
#    0.000    2.000    0.000    3.750    0.000   10.000 
#    0.000   13.750    0.000   12.000    0.000    0.000 
#    0.000    0.000    0.000    0.000    0.000    0.000 
#
# Total GULP energy -178252.468825 kJ/mol
# GULP energy per Si atom -5570.389651 kJ/mol
# Density = 2.302061 g / cm^3
# Si number density = 23.073127 Si / 1000 Ang^3
#
#
#
# Elastic Constant Matrix: (Units=GPa)
#
#
# Indices 1 2 3 4 5 6 
#
# 1 203.1950 43.5000 10.0586 0.0000 0.0000 0.0000
# 2 43.5000 107.3093 -4.9787 0.0000 0.0000 0.0000
# 3 10.0586 -4.9787 65.4027 0.0000 0.0000 0.0000
# 4 0.0000 0.0000 0.0000 21.0173 0.0000 0.0000
# 5 0.0000 0.0000 0.0000 0.0000 1.4123 0.0000
# 6 0.0000 0.0000 0.0000 0.0000 0.0000 -1.5805
#
#
#
# Elastic Compliance Matrix: (Units=1/GPa)
#
#
# Indices 1 2 3 4 5 6 
#
# 1 0.005455 -0.002258 -0.001011 0.000000 0.000000 0.000000
# 2 -0.002258 0.010287 0.001130 0.000000 0.000000 0.000000
# 3 -0.001011 0.001130 0.015531 0.000000 0.000000 0.000000
# 4 0.000000 0.000000 0.000000 0.047580 0.000000 0.000000
# 5 0.000000 0.000000 0.000000 0.000000 0.708057 0.000000
# 6 0.000000 0.000000 0.000000 0.000000 0.000000 -0.632703
#
#
# Mechanical properties :
#
#
# Convention : Reuss Voigt Hill
#
# Bulk Modulus (GPa) = 37.04292 52.56299 44.80296
# Shear Modulus (GPa) = 29.85385 25.99161 27.92273
#
# Velocity S-wave (km/s) = 3.60096 3.35996 3.48254
# Velocity P-wave (km/s) = 5.77742 6.15491 5.96915
#
# Compressibility (1/GPa) = 0.02699571
#
# Stress axis : x y z
#
# Youngs Moduli (GPa) = 183.32342 97.21305 64.38570
#
# Poissons Ratio (x) = 0.21952 0.06508
# Poissons Ratio (y) = 0.41397 -0.07278
# Poissons Ratio (z) = 0.18531 -0.10989
#
# Static dielectric constant tensor:
#      x y z
#    x 1.997350 0.000000 0.000000 
#    y 0.000000 1.930470 0.000000 
#    z 0.000000 0.000000 1.904160 
# 
# From -- ./inp_files/30014.got.cif
#   From: 2010.05.17/outbox.cif.g08.bks.cpg/sg53_16_cif.got.tgz:30014.got - 2010.06.03 12:45:16.
