data_PCOD9418387
_publ_section_title
;
Structure prediction by ZEFSAII (Michael W. Deem and Ramdas Pophale) SiO2 
 PCOD9418387
Probable space group: P M N A
;
_chemical_formula_sum "Si O2"
_cell_formula_units_Z 48
_cell_length_a 8.604864
_cell_length_b 31.852371
_cell_length_c 9.246286
_cell_angle_alpha 90.000000
_cell_angle_beta 90.000000
_cell_angle_gamma 90.000000
_cell_volume 2534.271262
_symmetry_space_group_name_H-M "P M N A"
_symmetry_group_IT_number 53
_symmetry_cell_setting 'orthorhombic'
loop_
_space_group_symop_operation_xyz
x,y,z
1/2-x,-y,1/2+z
x,-y,-z
1/2-x,y,1/2-z
-x,-y,-z
1/2+x,y,1/2-z
-x,y,z
1/2+x,-y,1/2+z
loop_
_atom_site_type_symbol
_atom_site_label
_atom_site_fract_x
_atom_site_fract_y
_atom_site_fract_z
Si Si1 0.313091 0.290458 0.912161
Si Si2 0.813560 0.458468 0.411891
Si Si3 0.814477 0.369591 0.086377
Si Si4 0.312196 0.958513 0.912673
Si Si5 0.187874 0.875502 0.412637
Si Si6 0.687552 0.207259 0.087583
O O1 0.250000 0.287147 0.750000
O O2 0.500000 0.292064 0.909486
O O3 0.248807 0.331963 0.989276
O O4 0.264667 0.249598 0.004544
O O5 0.770580 0.500000 0.500000
O O6 0.750000 0.462991 0.250000
O O7 0.743231 0.414911 0.469774
O O8 0.000000 0.454719 0.409264
O O9 0.750000 0.364991 0.250000
O O10 0.000000 0.368866 0.091200
O O11 0.250000 0.958644 0.750000
O O12 0.500000 0.958558 0.907197
O O13 0.262422 0.916841 0.999053
O O14 0.262142 0.000000 0.000000
O O15 0.250000 0.876054 0.250000
O O16 0.238571 0.833682 0.497736
O O17 0.000000 0.875432 0.407343
O O18 0.750000 0.206413 0.250000
O O19 0.500000 0.206750 0.093116
#
# Coordination Sequence:
#
# PCOD9418387 Si02
#       6
#     8   8   8   8   8   8
#     4  11  23  39  58  83 113 145 185 230 280 334
#     4  10  21  37  58  84 114 148 188 232 278 331
#     4  11  22  38  60  84 113 149 188 231 279 332
#     4  10  21  36  55  81 112 146 187 232 278 333
#     4  10  21  37  56  82 113 145 185 230 278 332
#     4  10  22  38  58  83 111 145 185 229 276 332
#
# _framework density 18.940356000000001
#
# number of rings (size 3 to 8) (size 9 to 14) (size 15 to 20)
#    0.000    1.667    0.000    5.500    0.000    6.333 
#    0.000    1.667    0.000    0.000    0.000    0.000 
#    0.000    0.000    0.000    0.000    0.000    0.000 
#
# Total GULP energy -268313.211493 kJ/mol
# GULP energy per Si atom -5589.858573 kJ/mol
# Density = 1.889725 g / cm^3
# Si number density = 18.940356 Si / 1000 Ang^3
#
#
#
# Elastic Constant Matrix: (Units=GPa)
#
#
# Indices 1 2 3 4 5 6 
#
# 1 52.1894 55.8123 39.6246 0.0000 0.0000 0.0000
# 2 55.8123 230.3075 128.3574 0.0000 0.0000 0.0000
# 3 39.6246 128.3574 173.6794 0.0000 0.0000 0.0000
# 4 0.0000 0.0000 0.0000 44.3061 0.0000 0.0000
# 5 0.0000 0.0000 0.0000 0.0000 39.1633 0.0000
# 6 0.0000 0.0000 0.0000 0.0000 0.0000 -11.2133
#
#
#
# Elastic Compliance Matrix: (Units=1/GPa)
#
#
# Indices 1 2 3 4 5 6 
#
# 1 0.026348 -0.005160 -0.002197 0.000000 0.000000 0.000000
# 2 -0.005160 0.008394 -0.005026 0.000000 0.000000 0.000000
# 3 -0.002197 -0.005026 0.009974 0.000000 0.000000 0.000000
# 4 0.000000 0.000000 0.000000 0.022570 0.000000 0.000000
# 5 0.000000 0.000000 0.000000 0.000000 0.025534 0.000000
# 6 0.000000 0.000000 0.000000 0.000000 0.000000 -0.089180
#
#
# Mechanical properties :
#
#
# Convention : Reuss Voigt Hill
#
# Bulk Modulus (GPa) = 50.13155 100.41832 75.27493
# Shear Modulus (GPa) = 142.62475 29.94336 86.28406
#
# Velocity S-wave (km/s) = 8.68709 3.98040 6.75682
# Velocity P-wave (km/s) = 11.27592 8.61731 10.03505
#
# Compressibility (1/GPa) = 0.01994752
#
# Stress axis : x y z
#
# Youngs Moduli (GPa) = 37.95348 119.13617 100.26508
#
# Poissons Ratio (x) = 0.61479 0.22033
# Poissons Ratio (y) = 0.19586 0.50394
# Poissons Ratio (z) = 0.08340 0.59878
#
# Static dielectric constant tensor:
#      x y z
#    x 1.640680 0.000000 0.000000 
#    y 0.000000 1.656920 0.000000 
#    z 0.000000 0.000000 1.605700 
# 
# From -- ./inp_files/6644.got.cif
#   From: 2010.05.17/outbox.cif.g08.bks.cpg/sg53_4_cif.got.tgz:6644.got - 2010.06.03 12:45:16.
