data_PCOD9418953
_publ_section_title
;
Structure prediction by ZEFSAII (Michael W. Deem and Ramdas Pophale) SiO2 
 PCOD9418953
Probable space group: P M N A
;
_chemical_formula_sum "Si O2"
_cell_formula_units_Z 64
_cell_length_a 14.674491
_cell_length_b 18.031447
_cell_length_c 11.186590
_cell_angle_alpha 90.000000
_cell_angle_beta 90.000000
_cell_angle_gamma 90.000000
_cell_volume 2959.997518
_symmetry_space_group_name_H-M "P M N A"
_symmetry_group_IT_number 53
_symmetry_cell_setting 'orthorhombic'
loop_
_space_group_symop_operation_xyz
x,y,z
1/2-x,-y,1/2+z
x,-y,-z
1/2-x,y,1/2-z
-x,-y,-z
1/2+x,y,1/2-z
-x,y,z
1/2+x,-y,1/2+z
loop_
_atom_site_type_symbol
_atom_site_label
_atom_site_fract_x
_atom_site_fract_y
_atom_site_fract_z
Si Si1 0.395614 0.214433 0.472373
Si Si2 0.711622 0.846068 0.926113
Si Si3 0.663434 0.568924 0.839033
Si Si4 0.900604 0.976961 0.640429
Si Si5 0.349404 0.136388 0.808018
Si Si6 0.102115 0.290249 0.796735
Si Si7 0.891717 0.407702 0.603233
Si Si8 0.098479 0.727802 0.704680
O O1 0.500000 0.192120 0.504305
O O2 0.317879 0.152337 0.460073
O O3 0.360431 0.274100 0.570731
O O4 0.399718 0.248345 0.341547
O O5 0.675683 0.914503 0.847426
O O6 0.679419 0.770379 0.863149
O O7 0.658747 0.850825 0.050976
O O8 0.750000 0.565592 0.750000
O O9 0.616252 0.488636 0.836983
O O10 0.607708 0.640013 0.797034
O O11 0.668825 0.587255 0.982447
O O12 0.000000 0.944895 0.668922
O O13 0.899716 0.000000 0.500000
O O14 0.887270 0.053772 0.710460
O O15 0.250000 0.138715 0.750000
O O16 0.399994 0.207213 0.755872
O O17 0.141787 0.345015 0.696491
O O18 0.000000 0.319705 0.815118
O O19 0.000000 0.394542 0.572786
O O20 0.000000 0.749814 0.651344
#
# Coordination Sequence:
#
# PCOD9418953 Si02
#       8
#     8   8   8   8   8   8   8   8
#     4  10  22  40  61  92 132 170 214 270 330 398
#     4  11  21  39  63  92 125 166 218 268 327 394
#     4  11  22  40  61  97 131 169 215 279 336 394
#     4   9  20  37  59  87 121 158 209 274 326 380
#     4  11  21  35  59  93 126 163 208 271 329 395
#     4  10  21  40  65  93 126 170 219 270 334 401
#     4  10  22  43  69  93 129 177 228 281 335 406
#     4  11  23  40  65  91 123 170 222 273 330 397
#
# _framework density 21.621639999999999
#
# number of rings (size 3 to 8) (size 9 to 14) (size 15 to 20)
#    0.000    1.625    1.250    4.125    0.000    4.000 
#    9.000    0.000    0.000    7.125    0.000    0.000 
#    0.000    0.000    0.000    0.000    0.000    0.000 
#
# Total GULP energy -356902.452143 kJ/mol
# GULP energy per Si atom -5576.600815 kJ/mol
# Density = 2.157243 g / cm^3
# Si number density = 21.621640 Si / 1000 Ang^3
#
#
#
# Elastic Constant Matrix: (Units=GPa)
#
#
# Indices 1 2 3 4 5 6 
#
# 1 105.1761 33.1783 33.3023 0.0000 0.0000 0.0000
# 2 33.1783 86.0000 14.3049 0.0000 0.0000 0.0000
# 3 33.3023 14.3049 78.4581 0.0000 0.0000 0.0000
# 4 0.0000 0.0000 0.0000 10.3261 0.0000 0.0000
# 5 0.0000 0.0000 0.0000 0.0000 74.8870 0.0000
# 6 0.0000 0.0000 0.0000 0.0000 0.0000 -23.3111
#
#
#
# Elastic Compliance Matrix: (Units=1/GPa)
#
#
# Indices 1 2 3 4 5 6 
#
# 1 0.012161 -0.003953 -0.004441 0.000000 0.000000 0.000000
# 2 -0.003953 0.013276 -0.000743 0.000000 0.000000 0.000000
# 3 -0.004441 -0.000743 0.014766 0.000000 0.000000 0.000000
# 4 0.000000 0.000000 0.000000 0.096842 0.000000 0.000000
# 5 0.000000 0.000000 0.000000 0.000000 0.013353 0.000000
# 6 0.000000 0.000000 0.000000 0.000000 0.000000 -0.042898
#
#
# Mechanical properties :
#
#
# Convention : Reuss Voigt Hill
#
# Bulk Modulus (GPa) = 45.59972 47.91169 46.75570
# Shear Modulus (GPa) = 37.56998 24.97032 31.27015
#
# Velocity S-wave (km/s) = 4.17299 3.40203 3.80708
# Velocity P-wave (km/s) = 6.65988 6.13506 6.40285
#
# Compressibility (1/GPa) = 0.02192996
#
# Stress axis : x y z
#
# Youngs Moduli (GPa) = 82.22978 75.32121 67.72240
#
# Poissons Ratio (x) = 0.29774 0.30076
# Poissons Ratio (y) = 0.32505 0.05030
# Poissons Ratio (z) = 0.36519 0.05595
#
# Static dielectric constant tensor:
#      x y z
#    x 1.856560 0.000000 0.000000 
#    y 0.000000 1.779750 0.000000 
#    z 0.000000 0.000000 1.817530 
# 
# From -- ./inp_files/16206.got.cif
#   From: 2010.05.17/outbox.cif.g08.bks.cpg/sg53_9_cif.got.tgz:16206.got - 2010.06.03 12:45:16.
