data_PCOD9418361
_publ_section_title
;
Structure prediction by ZEFSAII (Michael W. Deem and Ramdas Pophale) SiO2 
 PCOD9418361
Probable space group: P M N A
;
_chemical_formula_sum "Si O2"
_cell_formula_units_Z 32
_cell_length_a 10.905056
_cell_length_b 8.451186
_cell_length_c 15.984685
_cell_angle_alpha 90.000000
_cell_angle_beta 90.000000
_cell_angle_gamma 90.000000
_cell_volume 1473.159065
_symmetry_space_group_name_H-M "P M N A"
_symmetry_group_IT_number 53
_symmetry_cell_setting 'orthorhombic'
loop_
_space_group_symop_operation_xyz
x,y,z
1/2-x,-y,1/2+z
x,-y,-z
1/2-x,y,1/2-z
-x,-y,-z
1/2+x,y,1/2-z
-x,y,z
1/2+x,-y,1/2+z
loop_
_atom_site_type_symbol
_atom_site_label
_atom_site_fract_x
_atom_site_fract_y
_atom_site_fract_z
Si Si1 0.630489 0.496655 0.800166
Si Si2 0.365423 0.053668 0.402642
Si Si3 0.230688 0.343361 0.455332
Si Si4 0.137906 0.158773 0.616935
O O1 0.750000 0.542794 0.750000
O O2 0.500000 0.525812 0.757871
O O3 0.637058 0.589841 0.887442
O O4 0.639641 0.310500 0.822439
O O5 0.500000 0.023576 0.364721
O O6 0.331109 0.237303 0.409012
O O7 0.371957 0.000000 0.500000
O O8 0.249610 0.960052 0.364634
O O9 0.283612 0.500000 0.500000
O O10 0.166051 0.233852 0.525123
O O11 0.000000 0.089847 0.617980
#
# Coordination Sequence:
#
# PCOD9418361 Si02
#       4
#     8   8   8   8
#     4  10  21  36  54  78 106 137 174 216 264 315
#     4   9  18  31  50  80 111 136 169 215 264 310
#     4   9  18  33  55  81 107 136 174 217 258 306
#     4   9  18  34  56  78 102 137 178 217 257 306
#
# _framework density 21.722026
#
# number of rings (size 3 to 8) (size 9 to 14) (size 15 to 20)
#    0.000    2.750    0.000    0.750    0.000   11.000 
#    0.000    6.250    0.000    0.000    0.000    0.000 
#    0.000    0.000    0.000    0.000    0.000    0.000 
#
# Total GULP energy -178472.088702 kJ/mol
# GULP energy per Si atom -5577.252772 kJ/mol
# Density = 2.167259 g / cm^3
# Si number density = 21.722026 Si / 1000 Ang^3
#
#
#
# Elastic Constant Matrix: (Units=GPa)
#
#
# Indices 1 2 3 4 5 6 
#
# 1 199.3802 70.3768 24.1961 0.0000 0.0000 0.0000
# 2 70.3768 92.5963 5.2715 0.0000 0.0000 0.0000
# 3 24.1961 5.2715 27.4290 0.0000 0.0000 0.0000
# 4 0.0000 0.0000 0.0000 6.1217 0.0000 0.0000
# 5 0.0000 0.0000 0.0000 0.0000 -0.8443 0.0000
# 6 0.0000 0.0000 0.0000 0.0000 0.0000 -7.8918
#
#
#
# Elastic Compliance Matrix: (Units=1/GPa)
#
#
# Indices 1 2 3 4 5 6 
#
# 1 0.007641 -0.005484 -0.005687 0.000000 0.000000 0.000000
# 2 -0.005484 0.014855 0.001983 0.000000 0.000000 0.000000
# 3 -0.005687 0.001983 0.041093 0.000000 0.000000 0.000000
# 4 0.000000 0.000000 0.000000 0.163354 0.000000 0.000000
# 5 0.000000 0.000000 0.000000 0.000000 -1.184390 0.000000
# 6 0.000000 0.000000 0.000000 0.000000 0.000000 -0.126714
#
#
# Mechanical properties :
#
#
# Convention : Reuss Voigt Hill
#
# Bulk Modulus (GPa) = 22.11745 57.67716 39.89730
# Shear Modulus (GPa) = -4.75867 14.11452 4.67793
#
# Velocity S-wave (km/s) = -1.48171 2.55184 1.46909
# Velocity P-wave (km/s) = 2.69756 5.94075 4.61354
#
# Compressibility (1/GPa) = 0.04521318
#
# Stress axis : x y z
#
# Youngs Moduli (GPa) = 130.86593 67.31847 24.33495
#
# Poissons Ratio (x) = 0.36918 0.13839
# Poissons Ratio (y) = 0.71767 -0.04825
# Poissons Ratio (z) = 0.74421 -0.13347
#
# Static dielectric constant tensor:
#      x y z
#    x 1.800940 0.000000 0.000000 
#    y 0.000000 1.800540 0.000000 
#    z 0.000000 0.000000 1.800620 
# 
# From -- ./inp_files/21454.got.cif
#   From: 2010.05.17/outbox.cif.g08.bks.cpg/sg53_11_cif.got.tgz:21454.got - 2010.06.03 12:45:16.
