data_PCOD9418973
_publ_section_title
;
Structure prediction by ZEFSAII (Michael W. Deem and Ramdas Pophale) SiO2 
 PCOD9418973
Probable space group: P M N A
;
_chemical_formula_sum "Si O2"
_cell_formula_units_Z 44
_cell_length_a 16.747375
_cell_length_b 10.271090
_cell_length_c 12.521714
_cell_angle_alpha 90.000000
_cell_angle_beta 90.000000
_cell_angle_gamma 90.000000
_cell_volume 2153.907556
_symmetry_space_group_name_H-M "P M N A"
_symmetry_group_IT_number 53
_symmetry_cell_setting 'orthorhombic'
loop_
_space_group_symop_operation_xyz
x,y,z
1/2-x,-y,1/2+z
x,-y,-z
1/2-x,y,1/2-z
-x,-y,-z
1/2+x,y,1/2-z
-x,y,z
1/2+x,-y,1/2+z
loop_
_atom_site_type_symbol
_atom_site_label
_atom_site_fract_x
_atom_site_fract_y
_atom_site_fract_z
Si Si1 0.216051 0.500000 0.000000
Si Si2 0.590778 0.876623 0.779584
Si Si3 0.409499 0.362360 0.636442
Si Si4 0.378757 0.857960 0.536736
Si Si5 0.200999 0.228643 0.461445
Si Si6 0.405418 0.824945 0.167694
O O1 0.156756 0.535976 0.097878
O O2 0.270149 0.377067 0.028394
O O3 0.500000 0.859960 0.819369
O O4 0.595476 0.832650 0.657546
O O5 0.652103 0.802200 0.854983
O O6 0.609605 0.031384 0.784293
O O7 0.500000 0.415052 0.644741
O O8 0.387816 0.286462 0.745044
O O9 0.408409 0.251589 0.544554
O O10 0.282691 0.852527 0.535349
O O11 0.406229 0.000000 0.500000
O O12 0.146334 0.192763 0.562270
O O13 0.500000 0.817503 0.143748
#
# Coordination Sequence:
#
# PCOD9418973 Si02
#       6
#     4   8   8   8   8   8
#     4  10  25  44  61  86 130 178 216 266 299 380
#     4  11  22  39  65  96 130 163 206 264 326 387
#     4  10  21  41  66  93 124 167 216 260 316 379
#     4  11  21  36  62  96 130 163 201 264 327 384
#     4  11  24  42  60  92 129 167 216 255 315 375
#     4  10  21  40  69  95 124 163 207 268 328 385
#
# _framework density 20.427990000000001
#
# number of rings (size 3 to 8) (size 9 to 14) (size 15 to 20)
#    0.000    1.455    1.818    3.545    0.000    5.091 
#   13.091    1.818    0.000    0.000    0.000    0.000 
#    0.000    0.000    0.000    0.000    0.000    0.000 
#
# Total GULP energy -246117.405420 kJ/mol
# GULP energy per Si atom -5593.577396 kJ/mol
# Density = 2.038150 g / cm^3
# Si number density = 20.427990 Si / 1000 Ang^3
#
#
#
# Elastic Constant Matrix: (Units=GPa)
#
#
# Indices 1 2 3 4 5 6 
#
# 1 72.8071 10.3997 31.0200 0.0000 0.0000 0.0000
# 2 10.3997 43.3331 -8.6398 0.0000 0.0000 0.0000
# 3 31.0200 -8.6398 90.8241 0.0000 0.0000 0.0000
# 4 0.0000 0.0000 0.0000 17.2218 0.0000 0.0000
# 5 0.0000 0.0000 0.0000 0.0000 59.3008 0.0000
# 6 0.0000 0.0000 0.0000 0.0000 0.0000 28.7594
#
#
#
# Elastic Compliance Matrix: (Units=1/GPa)
#
#
# Indices 1 2 3 4 5 6 
#
# 1 0.017235 -0.005413 -0.006401 0.000000 0.000000 0.000000
# 2 -0.005413 0.025223 0.004248 0.000000 0.000000 0.000000
# 3 -0.006401 0.004248 0.013601 0.000000 0.000000 0.000000
# 4 0.000000 0.000000 0.000000 0.058066 0.000000 0.000000
# 5 0.000000 0.000000 0.000000 0.000000 0.016863 0.000000
# 6 0.000000 0.000000 0.000000 0.000000 0.000000 0.034771
#
#
# Mechanical properties :
#
#
# Convention : Reuss Voigt Hill
#
# Bulk Modulus (GPa) = 24.43383 30.28047 27.35715
# Shear Modulus (GPa) = 25.70242 32.66870 29.18556
#
# Velocity S-wave (km/s) = 3.55095 4.00335 3.78392
# Velocity P-wave (km/s) = 5.36650 6.01867 5.70191
#
# Compressibility (1/GPa) = 0.04092686
#
# Stress axis : x y z
#
# Youngs Moduli (GPa) = 58.01983 39.64630 73.52537
#
# Poissons Ratio (x) = 0.21460 0.47067
# Poissons Ratio (y) = 0.31405 -0.31234
# Poissons Ratio (z) = 0.37141 -0.16842
#
# Static dielectric constant tensor:
#      x y z
#    x 1.726490 0.000000 0.000000 
#    y 0.000000 1.719440 0.000000 
#    z 0.000000 0.000000 1.687760 
# 
# From -- ./inp_files/23521.got.cif
#   From: 2010.05.17/outbox.cif.g08.bks.cpg/sg53_12_cif.got.tgz:23521.got - 2010.06.03 12:45:16.
