data_PCOD9418756
_publ_section_title
;
Structure prediction by ZEFSAII (Michael W. Deem and Ramdas Pophale) SiO2 
 PCOD9418756
Probable space group: P M N A
;
_chemical_formula_sum "Si O2"
_cell_formula_units_Z 20
_cell_length_a 11.419759
_cell_length_b 14.090615
_cell_length_c 5.138086
_cell_angle_alpha 90.000000
_cell_angle_beta 90.000000
_cell_angle_gamma 90.000000
_cell_volume 826.776753
_symmetry_space_group_name_H-M "P M N A"
_symmetry_group_IT_number 53
_symmetry_cell_setting 'orthorhombic'
loop_
_space_group_symop_operation_xyz
x,y,z
1/2-x,-y,1/2+z
x,-y,-z
1/2-x,y,1/2-z
-x,-y,-z
1/2+x,y,1/2-z
-x,y,z
1/2+x,-y,1/2+z
loop_
_atom_site_type_symbol
_atom_site_label
_atom_site_fract_x
_atom_site_fract_y
_atom_site_fract_z
Si Si1 0.873722 0.806254 0.388298
Si Si2 0.124091 0.395732 0.377292
Si Si3 0.250000 0.066021 0.250000
O O1 0.750000 0.822737 0.250000
O O2 0.879552 0.693552 0.430596
O O3 0.854378 0.864457 0.656992
O O4 0.000000 0.836227 0.275486
O O5 0.123882 0.500000 0.500000
O O6 0.250000 0.385502 0.250000
O O7 0.000000 0.388599 0.221603
O O8 0.277273 0.000000 0.500000
#
# Coordination Sequence:
#
# PCOD9418756 Si02
#       3
#     8   8   4
#     4  11  25  46  73 106 146 188 240 303 368 440
#     4  10  21  38  63  98 139 184 234 291 358 437
#     4  12  26  50  74 110 142 194 252 312 370 432
#
# _framework density 24.190325000000001
#
# number of rings (size 3 to 8) (size 9 to 14) (size 15 to 20)
#    0.000    1.200    4.000    1.200    0.000    5.600 
#    0.000    0.000    0.000    0.000    0.000    0.000 
#    0.000    0.000    0.000    0.000    0.000    0.000 
#
# Total GULP energy -111442.523605 kJ/mol
# GULP energy per Si atom -5572.126180 kJ/mol
# Density = 2.413527 g / cm^3
# Si number density = 24.190325 Si / 1000 Ang^3
#
#
#
# Elastic Constant Matrix: (Units=GPa)
#
#
# Indices 1 2 3 4 5 6 
#
# 1 300.1420 11.4990 58.1472 0.0000 0.0000 0.0000
# 2 11.4990 146.7145 31.4374 0.0000 0.0000 0.0000
# 3 58.1472 31.4374 70.3831 0.0000 0.0000 0.0000
# 4 0.0000 0.0000 0.0000 19.2730 0.0000 0.0000
# 5 0.0000 0.0000 0.0000 0.0000 45.5968 0.0000
# 6 0.0000 0.0000 0.0000 0.0000 0.0000 -60.2719
#
#
#
# Elastic Compliance Matrix: (Units=1/GPa)
#
#
# Indices 1 2 3 4 5 6 
#
# 1 0.003992 0.000435 -0.003492 0.000000 0.000000 0.000000
# 2 0.000435 0.007585 -0.003748 0.000000 0.000000 0.000000
# 3 -0.003492 -0.003748 0.018767 0.000000 0.000000 0.000000
# 4 0.000000 0.000000 0.000000 0.051886 0.000000 0.000000
# 5 0.000000 0.000000 0.000000 0.000000 0.021931 0.000000
# 6 0.000000 0.000000 0.000000 0.000000 0.000000 -0.016591
#
#
# Mechanical properties :
#
#
# Convention : Reuss Voigt Hill
#
# Bulk Modulus (GPa) = 59.75599 79.93409 69.84504
# Shear Modulus (GPa) = 46.83564 28.66331 37.74947
#
# Velocity S-wave (km/s) = 4.40492 3.44598 3.95463
# Velocity P-wave (km/s) = 7.11528 6.99633 7.05605
#
# Compressibility (1/GPa) = 0.01673472
#
# Stress axis : x y z
#
# Youngs Moduli (GPa) = 250.52470 131.84174 53.28519
#
# Poissons Ratio (x) = -0.05741 0.18608
# Poissons Ratio (y) = -0.10909 0.19969
# Poissons Ratio (z) = 0.87488 0.49409
#
# Static dielectric constant tensor:
#      x y z
#    x 2.009880 0.000000 0.000000 
#    y 0.000000 2.097520 0.000000 
#    z 0.000000 0.000000 2.075690 
# 
# From -- ./inp_files/392.got.cif
#   From: 2010.05.17/outbox.cif.g08.bks.cpg/sg53_1_cif.got.tgz:392.got - 2010.06.03 12:45:16.
