data_PCOD9418420
_publ_section_title
;
Structure prediction by ZEFSAII (Michael W. Deem and Ramdas Pophale) SiO2 
 PCOD9418420
Probable space group: P M N A
;
_chemical_formula_sum "Si O2"
_cell_formula_units_Z 20
_cell_length_a 5.386751
_cell_length_b 21.672518
_cell_length_c 8.053012
_cell_angle_alpha 90.000000
_cell_angle_beta 90.000000
_cell_angle_gamma 90.000000
_cell_volume 940.144521
_symmetry_space_group_name_H-M "P M N A"
_symmetry_group_IT_number 53
_symmetry_cell_setting 'orthorhombic'
loop_
_space_group_symop_operation_xyz
x,y,z
1/2-x,-y,1/2+z
x,-y,-z
1/2-x,y,1/2-z
-x,-y,-z
1/2+x,y,1/2-z
-x,y,z
1/2+x,-y,1/2+z
loop_
_atom_site_type_symbol
_atom_site_label
_atom_site_fract_x
_atom_site_fract_y
_atom_site_fract_z
Si Si1 0.000000 0.983984 0.804227
Si Si2 0.500000 0.203470 0.142051
Si Si3 0.500000 0.449512 0.857184
Si Si4 0.500000 0.692936 0.140500
Si Si5 0.500000 0.121251 0.837262
O O1 0.750000 0.951159 0.750000
O O2 0.000000 0.047517 0.695079
O O3 0.000000 0.000000 0.000000
O O4 0.250000 0.205364 0.250000
O O5 0.500000 0.260421 0.012719
O O6 0.500000 0.143741 0.023244
O O7 0.750000 0.457262 0.750000
O O8 0.500000 0.378421 0.917882
O O9 0.500000 0.500000 0.000000
O O10 0.750000 0.701932 0.250000
O O11 0.250000 0.144535 0.750000
#
# Coordination Sequence:
#
# PCOD9418420 Si02
#       5
#     4   4   4   4   4
#     4  10  21  40  63  89 117 152 192 232 282 340
#     4  12  24  38  60  91 118 149 195 246 294 344
#     4  10  21  36  57  84 116 156 199 244 296 348
#     4  10  21  39  60  82 116 161 198 237 295 355
#     4  10  21  41  62  84 117 156 188 231 288 345
#
# _framework density 21.273323999999999
#
# number of rings (size 3 to 8) (size 9 to 14) (size 15 to 20)
#    0.000    1.600    0.000    4.800    0.000    1.600 
#    0.000   24.000    0.000    0.000    0.000    0.000 
#    0.000    0.000    0.000    0.000    0.000    0.000 
#
# Total GULP energy -111899.502539 kJ/mol
# GULP energy per Si atom -5594.975127 kJ/mol
# Density = 2.122491 g / cm^3
# Si number density = 21.273324 Si / 1000 Ang^3
#
#
#
# Elastic Constant Matrix: (Units=GPa)
#
#
# Indices 1 2 3 4 5 6 
#
# 1 248.8276 45.6560 97.4778 0.0000 0.0000 0.0000
# 2 45.6560 149.2405 94.1428 0.0000 0.0000 0.0000
# 3 97.4778 94.1428 158.6901 0.0000 0.0000 0.0000
# 4 0.0000 0.0000 0.0000 56.5126 0.0000 0.0000
# 5 0.0000 0.0000 0.0000 0.0000 45.0750 0.0000
# 6 0.0000 0.0000 0.0000 0.0000 0.0000 53.2961
#
#
#
# Elastic Compliance Matrix: (Units=1/GPa)
#
#
# Indices 1 2 3 4 5 6 
#
# 1 0.005337 0.000696 -0.003691 0.000000 0.000000 0.000000
# 2 0.000696 0.010798 -0.006833 0.000000 0.000000 0.000000
# 3 -0.003691 -0.006833 0.012623 0.000000 0.000000 0.000000
# 4 0.000000 0.000000 0.000000 0.017695 0.000000 0.000000
# 5 0.000000 0.000000 0.000000 0.000000 0.022185 0.000000
# 6 0.000000 0.000000 0.000000 0.000000 0.000000 0.018763
#
#
# Mechanical properties :
#
#
# Convention : Reuss Voigt Hill
#
# Bulk Modulus (GPa) = 109.88320 114.59015 112.23667
# Shear Modulus (GPa) = 45.41596 52.27552 48.84574
#
# Velocity S-wave (km/s) = 4.62549 4.96252 4.79697
# Velocity P-wave (km/s) = 8.96058 9.31762 9.14085
#
# Compressibility (1/GPa) = 0.00910057
#
# Stress axis : x y z
#
# Youngs Moduli (GPa) = 187.36381 92.60623 79.22119
#
# Poissons Ratio (x) = -0.06442 0.29242
# Poissons Ratio (y) = -0.13034 0.54136
# Poissons Ratio (z) = 0.69159 0.63282
#
# Static dielectric constant tensor:
#      x y z
#    x 1.851850 0.000000 0.000000 
#    y 0.000000 1.783170 0.000000 
#    z 0.000000 0.000000 1.779410 
# 
# From -- ./inp_files/68.got.cif
#   From: 2010.05.17/outbox.cif.g08.bks.cpg/sg53_1_cif.got.tgz:68.got - 2010.06.03 12:45:16.
