data_PCOD9418941
_publ_section_title
;
Structure prediction by ZEFSAII (Michael W. Deem and Ramdas Pophale) SiO2 
 PCOD9418941
Probable space group: P M N A
;
_chemical_formula_sum "Si O2"
_cell_formula_units_Z 44
_cell_length_a 15.337604
_cell_length_b 5.579879
_cell_length_c 26.134600
_cell_angle_alpha 90.000000
_cell_angle_beta 90.000000
_cell_angle_gamma 90.000000
_cell_volume 2236.650670
_symmetry_space_group_name_H-M "P M N A"
_symmetry_group_IT_number 53
_symmetry_cell_setting 'orthorhombic'
loop_
_space_group_symop_operation_xyz
x,y,z
1/2-x,-y,1/2+z
x,-y,-z
1/2-x,y,1/2-z
-x,-y,-z
1/2+x,y,1/2-z
-x,y,z
1/2+x,-y,1/2+z
loop_
_atom_site_type_symbol
_atom_site_label
_atom_site_fract_x
_atom_site_fract_y
_atom_site_fract_z
Si Si1 0.646160 0.387709 0.451211
Si Si2 0.263530 0.782653 0.102797
Si Si3 0.854828 0.237362 0.249599
Si Si4 0.905488 0.921766 0.860929
Si Si5 0.773095 0.000000 0.500000
Si Si6 0.100243 0.733763 0.306867
O O1 0.597960 0.500000 0.500000
O O2 0.710235 0.562027 0.420328
O O3 0.590776 0.254579 0.409082
O O4 0.710317 0.204953 0.479277
O O5 0.332504 0.722694 0.146223
O O6 0.184162 0.934865 0.128037
O O7 0.312400 0.904039 0.053551
O O8 0.750000 0.242383 0.250000
O O9 0.891087 0.214948 0.192198
O O10 0.885750 0.489273 0.274178
O O11 0.882457 0.987322 0.277521
O O12 0.000000 0.053138 0.858312
O O13 0.000000 0.736889 0.323898
#
# Coordination Sequence:
#
# PCOD9418941 Si02
#       6
#     8   8   8   8   4   8
#     4   9  19  38  62  88 124 168 219 270 331 396
#     4  10  21  40  64  92 126 173 216 273 341 393
#     4  12  25  46  67  98 136 180 223 278 334 401
#     4  11  23  38  60  93 129 170 222 274 332 401
#     4   8  18  38  64  92 122 164 220 274 326 404
#     4  12  26  44  68 100 138 177 226 277 335 400
#
# _framework density 19.672273000000001
#
# number of rings (size 3 to 8) (size 9 to 14) (size 15 to 20)
#    0.000    1.455    1.818    3.273    5.091    1.091 
#    0.000   15.909    0.000    4.909    0.000    0.000 
#    0.000    0.000    0.000    0.000    0.000    0.000 
#
# Total GULP energy -245090.600555 kJ/mol
# GULP energy per Si atom -5570.240922 kJ/mol
# Density = 1.962750 g / cm^3
# Si number density = 19.672273 Si / 1000 Ang^3
#
#
#
# Elastic Constant Matrix: (Units=GPa)
#
#
# Indices 1 2 3 4 5 6 
#
# 1 137.3081 38.6627 56.3037 0.0000 0.0000 0.0000
# 2 38.6627 105.3080 56.6192 0.0000 0.0000 0.0000
# 3 56.3037 56.6192 158.9530 0.0000 0.0000 0.0000
# 4 0.0000 0.0000 0.0000 35.2316 0.0000 0.0000
# 5 0.0000 0.0000 0.0000 0.0000 -161.6543 0.0000
# 6 0.0000 0.0000 0.0000 0.0000 0.0000 13.0076
#
#
#
# Elastic Compliance Matrix: (Units=1/GPa)
#
#
# Indices 1 2 3 4 5 6 
#
# 1 0.008826 -0.001929 -0.002439 0.000000 0.000000 0.000000
# 2 -0.001929 0.012167 -0.003651 0.000000 0.000000 0.000000
# 3 -0.002439 -0.003651 0.008456 0.000000 0.000000 0.000000
# 4 0.000000 0.000000 0.000000 0.028384 0.000000 0.000000
# 5 0.000000 0.000000 0.000000 0.000000 -0.006186 0.000000
# 6 0.000000 0.000000 0.000000 0.000000 0.000000 0.076878
#
#
# Mechanical properties :
#
#
# Convention : Reuss Voigt Hill
#
# Bulk Modulus (GPa) = 74.56564 78.30449 76.43507
# Shear Modulus (GPa) = 33.54978 -6.01743 13.76618
#
# Velocity S-wave (km/s) = 4.13417 -1.75085 2.64820
# Velocity P-wave (km/s) = 7.79581 5.98361 6.94904
#
# Compressibility (1/GPa) = 0.01341100
#
# Stress axis : x y z
#
# Youngs Moduli (GPa) = 113.29786 82.19007 118.26547
#
# Poissons Ratio (x) = 0.15854 0.28849
# Poissons Ratio (y) = 0.21855 0.43174
# Poissons Ratio (z) = 0.27637 0.30004
#
# Static dielectric constant tensor:
#      x y z
#    x 1.650170 0.000000 0.000000 
#    y 0.000000 1.733990 0.000000 
#    z 0.000000 0.000000 1.705970 
# 
# From -- ./inp_files/36937.got.cif
#   From: 2010.05.17/outbox.cif.g08.bks.cpg/sg53_19_cif.got.tgz:36937.got - 2010.06.03 12:45:16.
