data_PCOD9418180
_publ_section_title
;
Structure prediction by ZEFSAII (Michael W. Deem and Ramdas Pophale) SiO2 
 PCOD9418180
Probable space group: P M N A
;
_chemical_formula_sum "Si O2"
_cell_formula_units_Z 52
_cell_length_a 22.125644
_cell_length_b 13.578867
_cell_length_c 7.493694
_cell_angle_alpha 90.000000
_cell_angle_beta 90.000000
_cell_angle_gamma 90.000000
_cell_volume 2251.414247
_symmetry_space_group_name_H-M "P M N A"
_symmetry_group_IT_number 53
_symmetry_cell_setting 'orthorhombic'
loop_
_space_group_symop_operation_xyz
x,y,z
1/2-x,-y,1/2+z
x,-y,-z
1/2-x,y,1/2-z
-x,-y,-z
1/2+x,y,1/2-z
-x,y,z
1/2+x,-y,1/2+z
loop_
_atom_site_type_symbol
_atom_site_label
_atom_site_fract_x
_atom_site_fract_y
_atom_site_fract_z
Si Si1 0.608356 0.057847 0.160425
Si Si2 0.500000 0.109251 0.369814
Si Si3 0.368503 0.272759 0.597558
Si Si4 0.500000 0.746279 0.350024
Si Si5 0.866767 0.720790 0.529366
Si Si6 0.753930 0.384659 0.964249
Si Si7 0.303697 0.079688 0.642193
Si Si8 0.000000 0.285635 0.424909
O O1 0.561682 0.058215 0.320958
O O2 0.661981 0.986284 0.214650
O O3 0.629119 0.167619 0.104720
O O4 0.576339 0.000000 0.000000
O O5 0.500000 0.144529 0.571578
O O6 0.500000 0.199259 0.222362
O O7 0.438555 0.296709 0.565294
O O8 0.366778 0.276039 0.813517
O O9 0.320496 0.341296 0.498359
O O10 0.346296 0.162019 0.555942
O O11 0.500000 0.746281 0.135547
O O12 0.802319 0.668371 0.563479
O O13 0.931131 0.670349 0.589036
O O14 0.750000 0.370693 0.750000
O O15 0.750614 0.500000 0.000000
O O16 0.250000 0.132174 0.750000
O O17 0.281601 0.000000 0.500000
#
# Coordination Sequence:
#
# PCOD9418180 Si02
#       8
#     8   4   8   4   8   8   8   4
#     4  11  21  37  60  88 123 168 208 254 304 370
#     4  10  21  37  54  92 128 160 221 255 302 364
#     4  10  21  39  65  85 124 167 202 261 314 375
#     4  10  20  40  63  89 121 168 215 258 321 380
#     4   9  18  38  65  86 124 166 204 253 311 372
#     4  10  22  43  66  93 122 160 207 261 329 390
#     4  12  25  37  55  89 126 166 212 252 309 373
#     4   8  18  35  63  90 121 170 206 255 324 367
#
# _framework density 23.096592000000001
#
# number of rings (size 3 to 8) (size 9 to 14) (size 15 to 20)
#    0.000    1.846    1.538    3.000    2.154    0.615 
#    8.308    2.308    0.000    0.000    0.000    0.000 
#    0.000    0.000    0.000    0.000    0.000    0.000 
#
# Total GULP energy -290106.808579 kJ/mol
# GULP energy per Si atom -5578.977088 kJ/mol
# Density = 2.304402 g / cm^3
# Si number density = 23.096592 Si / 1000 Ang^3
#
#
#
# Elastic Constant Matrix: (Units=GPa)
#
#
# Indices 1 2 3 4 5 6 
#
# 1 211.9004 67.2576 14.6835 0.0000 0.0000 0.0000
# 2 67.2576 92.3817 -2.2501 0.0000 0.0000 0.0000
# 3 14.6835 -2.2501 53.6061 0.0000 0.0000 0.0000
# 4 0.0000 0.0000 0.0000 19.8915 0.0000 0.0000
# 5 0.0000 0.0000 0.0000 0.0000 -1.6939 0.0000
# 6 0.0000 0.0000 0.0000 0.0000 0.0000 0.8268
#
#
#
# Elastic Compliance Matrix: (Units=1/GPa)
#
#
# Indices 1 2 3 4 5 6 
#
# 1 0.006331 -0.004656 -0.001930 0.000000 0.000000 0.000000
# 2 -0.004656 0.014260 0.001874 0.000000 0.000000 0.000000
# 3 -0.001930 0.001874 0.019262 0.000000 0.000000 0.000000
# 4 0.000000 0.000000 0.000000 0.050273 0.000000 0.000000
# 5 0.000000 0.000000 0.000000 0.000000 -0.590369 0.000000
# 6 0.000000 0.000000 0.000000 0.000000 0.000000 1.209505
#
#
# Mechanical properties :
#
#
# Convention : Reuss Voigt Hill
#
# Bulk Modulus (GPa) = 32.86303 57.47446 45.16875
# Shear Modulus (GPa) = 6.86033 22.35137 14.60585
#
# Velocity S-wave (km/s) = 1.72532 3.11422 2.51745
# Velocity P-wave (km/s) = 4.26947 6.15382 5.29613
#
# Compressibility (1/GPa) = 0.03042933
#
# Stress axis : x y z
#
# Youngs Moduli (GPa) = 157.95945 70.12583 51.91631
#
# Poissons Ratio (x) = 0.32651 0.10017
# Poissons Ratio (y) = 0.73546 -0.09729
# Poissons Ratio (z) = 0.30479 -0.13141
#
# Static dielectric constant tensor:
#      x y z
#    x 1.967810 0.000000 0.000000 
#    y 0.000000 1.823010 0.000000 
#    z 0.000000 0.000000 1.928970 
# 
# From -- ./inp_files/11015.got.cif
#   From: 2010.05.17/outbox.cif.g08.bks.cpg/sg53_6_cif.got.tgz:11015.got - 2010.06.03 12:45:16.
