data_PCOD9418828
_publ_section_title
;
Structure prediction by ZEFSAII (Michael W. Deem and Ramdas Pophale) SiO2 
 PCOD9418828
Probable space group: P M N A
;
_chemical_formula_sum "Si O2"
_cell_formula_units_Z 58
_cell_length_a 28.540703
_cell_length_b 7.477169
_cell_length_c 12.079033
_cell_angle_alpha 90.000000
_cell_angle_beta 90.000000
_cell_angle_gamma 90.000000
_cell_volume 2577.709848
_symmetry_space_group_name_H-M "P M N A"
_symmetry_group_IT_number 53
_symmetry_cell_setting 'orthorhombic'
loop_
_space_group_symop_operation_xyz
x,y,z
1/2-x,-y,1/2+z
x,-y,-z
1/2-x,y,1/2-z
-x,-y,-z
1/2+x,y,1/2-z
-x,y,z
1/2+x,-y,1/2+z
loop_
_atom_site_type_symbol
_atom_site_label
_atom_site_fract_x
_atom_site_fract_y
_atom_site_fract_z
Si Si1 0.500000 0.000000 0.500000
Si Si2 0.297757 0.301848 0.686724
Si Si3 0.881108 0.371805 0.661465
Si Si4 0.741500 0.212967 0.462743
Si Si5 0.348354 0.731364 0.939247
Si Si6 0.918347 0.227885 0.077311
Si Si7 0.055057 0.378303 0.850251
Si Si8 0.171651 0.106555 0.208804
O O1 0.540833 0.916072 0.580419
O O2 0.250000 0.347470 0.750000
O O3 0.341208 0.395989 0.744300
O O4 0.288587 0.311293 0.556758
O O5 0.310086 0.094364 0.706885
O O6 0.878752 0.565210 0.604866
O O7 0.868063 0.235003 0.562713
O O8 0.927358 0.324145 0.729500
O O9 0.792814 0.298293 0.459462
O O10 0.714371 0.217409 0.346451
O O11 0.746336 0.000000 0.500000
O O12 0.345184 0.857435 0.832907
O O13 0.935367 0.410210 0.136688
O O14 0.871464 0.148204 0.127628
O O15 0.915546 0.285069 0.947934
O O16 0.000000 0.336703 0.873429
#
# Coordination Sequence:
#
# PCOD9418828 Si02
#       8
#     2   8   8   8   8   8   8   8
#     4  12  24  38  68 108 124 160 204 270 350 402
#     4  11  22  40  63  94 131 175 223 269 322 390
#     4  11  25  41  62  91 126 174 225 263 326 391
#     4  10  21  39  62  91 124 173 218 261 324 379
#     4  11  23  43  57  86 133 169 220 264 315 381
#     4  11  23  41  68 100 134 160 212 268 344 399
#     4  11  22  47  68  94 131 173 208 277 347 403
#     4  11  23  38  65  93 130 171 218 268 320 392
#
# _framework density 22.500592999999999
#
# number of rings (size 3 to 8) (size 9 to 14) (size 15 to 20)
#    0.000    1.103    4.138    3.310    4.828    1.103 
#    0.000    1.379    1.517    0.000    0.000    1.931 
#    0.000    0.000    0.000    0.000    0.000    0.000 
#
# Total GULP energy -323579.925834 kJ/mol
# GULP energy per Si atom -5578.964239 kJ/mol
# Density = 2.244938 g / cm^3
# Si number density = 22.500593 Si / 1000 Ang^3
#
#
#
# Elastic Constant Matrix: (Units=GPa)
#
#
# Indices 1 2 3 4 5 6 
#
# 1 70.9639 -10.1821 39.6634 0.0000 0.0000 0.0000
# 2 -10.1821 30.7248 23.4874 0.0000 0.0000 0.0000
# 3 39.6634 23.4874 139.0442 0.0000 0.0000 0.0000
# 4 0.0000 0.0000 0.0000 23.6610 0.0000 0.0000
# 5 0.0000 0.0000 0.0000 0.0000 7.4727 0.0000
# 6 0.0000 0.0000 0.0000 0.0000 0.0000 19.2561
#
#
#
# Elastic Compliance Matrix: (Units=1/GPa)
#
#
# Indices 1 2 3 4 5 6 
#
# 1 0.020409 0.012877 -0.007997 0.000000 0.000000 0.000000
# 2 0.012877 0.045497 -0.011359 0.000000 0.000000 0.000000
# 3 -0.007997 -0.011359 0.011392 0.000000 0.000000 0.000000
# 4 0.000000 0.000000 0.000000 0.042264 0.000000 0.000000
# 5 0.000000 0.000000 0.000000 0.000000 0.133820 0.000000
# 6 0.000000 0.000000 0.000000 0.000000 0.000000 0.051932
#
#
# Mechanical properties :
#
#
# Convention : Reuss Voigt Hill
#
# Bulk Modulus (GPa) = 15.54234 38.51894 27.03064
# Shear Modulus (GPa) = 14.71807 22.59555 18.65681
#
# Velocity S-wave (km/s) = 2.56035 3.17238 2.88265
# Velocity P-wave (km/s) = 3.95766 5.52946 4.80822
#
# Compressibility (1/GPa) = 0.06434037
#
# Stress axis : x y z
#
# Youngs Moduli (GPa) = 48.99815 21.97931 87.78201
#
# Poissons Ratio (x) = -0.28302 0.70199
# Poissons Ratio (y) = -0.63093 0.99708
# Poissons Ratio (z) = 0.39184 0.24965
#
# Static dielectric constant tensor:
#      x y z
#    x 1.712710 0.000000 0.000000 
#    y 0.000000 2.015840 0.000000 
#    z 0.000000 0.000000 1.934130 
# 
# From -- ./inp_files/18793.got.cif
#   From: 2010.05.17/outbox.cif.g08.bks.cpg/sg53_10_cif.got.tgz:18793.got - 2010.06.03 12:45:16.
