data_PCOD9418638
_publ_section_title
;
Structure prediction by ZEFSAII (Michael W. Deem and Ramdas Pophale) SiO2 
 PCOD9418638
Probable space group: P M N A
;
_chemical_formula_sum "Si O2"
_cell_formula_units_Z 48
_cell_length_a 19.298916
_cell_length_b 5.046159
_cell_length_c 22.406602
_cell_angle_alpha 90.000000
_cell_angle_beta 90.000000
_cell_angle_gamma 90.000000
_cell_volume 2182.075868
_symmetry_space_group_name_H-M "P M N A"
_symmetry_group_IT_number 53
_symmetry_cell_setting 'orthorhombic'
loop_
_space_group_symop_operation_xyz
x,y,z
1/2-x,-y,1/2+z
x,-y,-z
1/2-x,y,1/2-z
-x,-y,-z
1/2+x,y,1/2-z
-x,y,z
1/2+x,-y,1/2+z
loop_
_atom_site_type_symbol
_atom_site_label
_atom_site_fract_x
_atom_site_fract_y
_atom_site_fract_z
Si Si1 0.859246 0.074652 0.570023
Si Si2 0.779801 0.260074 0.959255
Si Si3 0.419256 0.556851 0.870656
Si Si4 0.076923 0.133341 0.935076
Si Si5 0.915577 0.289769 0.753268
Si Si6 0.083345 0.213365 0.178776
O O1 0.781844 0.181082 0.584819
O O2 0.909881 0.320161 0.582046
O O3 0.860729 0.000000 0.500000
O O4 0.879504 0.818316 0.608258
O O5 0.856844 0.324624 0.936539
O O6 0.754225 0.500000 0.000000
O O7 0.788851 0.000000 0.000000
O O8 0.500000 0.629625 0.863574
O O9 0.394614 0.420542 0.809070
O O10 0.095497 0.912867 0.885743
O O11 0.000000 0.247546 0.920512
O O12 0.070391 0.000000 0.000000
O O13 0.891473 0.998076 0.771578
O O14 0.000000 0.276181 0.751398
O O15 0.893133 0.493829 0.804923
O O16 0.000000 0.222666 0.184020
#
# Coordination Sequence:
#
# PCOD9418638 Si02
#       6
#     8   8   8   8   8   8
#     4  11  22  37  56  81 114 150 184 226 290 350
#     4  10  21  38  57  78 113 156 186 214 269 347
#     4  11  22  36  58  84 110 144 191 242 279 325
#     4   9  19  35  59  91 118 143 185 239 285 326
#     4   9  18  33  52  76 106 145 187 223 273 334
#     4   9  17  31  52  78 111 145 179 225 277 332
#
# _framework density 21.997402000000001
#
# number of rings (size 3 to 8) (size 9 to 14) (size 15 to 20)
#    0.000    2.167    0.000    4.000    0.000    7.667 
#    0.000    5.000    0.000    6.000    0.000    0.000 
#    0.000    0.000    0.000    0.000    0.000    0.000 
#
# Total GULP energy -267886.002721 kJ/mol
# GULP energy per Si atom -5580.958390 kJ/mol
# Density = 2.194734 g / cm^3
# Si number density = 21.997402 Si / 1000 Ang^3
#
#
#
# Elastic Constant Matrix: (Units=GPa)
#
#
# Indices 1 2 3 4 5 6 
#
# 1 62.2090 7.7700 20.8994 0.0000 0.0000 0.0000
# 2 7.7700 100.3843 7.2504 0.0000 0.0000 0.0000
# 3 20.8994 7.2504 70.7505 0.0000 0.0000 0.0000
# 4 0.0000 0.0000 0.0000 31.9625 0.0000 0.0000
# 5 0.0000 0.0000 0.0000 0.0000 -3.5947 0.0000
# 6 0.0000 0.0000 0.0000 0.0000 0.0000 16.7702
#
#
#
# Elastic Compliance Matrix: (Units=1/GPa)
#
#
# Indices 1 2 3 4 5 6 
#
# 1 0.017948 -0.001014 -0.005198 0.000000 0.000000 0.000000
# 2 -0.001014 0.010093 -0.000735 0.000000 0.000000 0.000000
# 3 -0.005198 -0.000735 0.015745 0.000000 0.000000 0.000000
# 4 0.000000 0.000000 0.000000 0.031287 0.000000 0.000000
# 5 0.000000 0.000000 0.000000 0.000000 -0.278184 0.000000
# 6 0.000000 0.000000 0.000000 0.000000 0.000000 0.059630
#
#
# Mechanical properties :
#
#
# Convention : Reuss Voigt Hill
#
# Bulk Modulus (GPa) = 33.45269 33.90927 33.68098
# Shear Modulus (GPa) = -41.79730 22.18918 -9.80406
#
# Velocity S-wave (km/s) = -4.36374 3.17948 -2.11343
# Velocity P-wave (km/s) = 3.18577 5.37842 3.06417
#
# Compressibility (1/GPa) = 0.02989297
#
# Stress axis : x y z
#
# Youngs Moduli (GPa) = 55.71745 99.07599 63.51264
#
# Poissons Ratio (x) = 0.10044 0.33013
# Poissons Ratio (y) = 0.05649 0.04667
# Poissons Ratio (z) = 0.28961 0.07281
#
# Static dielectric constant tensor:
#      x y z
#    x 1.864490 0.000000 0.000000 
#    y 0.000000 1.787730 0.000000 
#    z 0.000000 0.000000 1.857190 
# 
# From -- ./inp_files/35494.got.cif
#   From: 2010.05.17/outbox.cif.g08.bks.cpg/sg53_18_cif.got.tgz:35494.got - 2010.06.03 12:45:16.
