data_PCOD9418679
_publ_section_title
;
Structure prediction by ZEFSAII (Michael W. Deem and Ramdas Pophale) SiO2 
 PCOD9418679
Probable space group: P M N A
;
_chemical_formula_sum "Si O2"
_cell_formula_units_Z 56
_cell_length_a 13.877231
_cell_length_b 12.240105
_cell_length_c 15.403700
_cell_angle_alpha 90.000000
_cell_angle_beta 90.000000
_cell_angle_gamma 90.000000
_cell_volume 2616.453451
_symmetry_space_group_name_H-M "P M N A"
_symmetry_group_IT_number 53
_symmetry_cell_setting 'orthorhombic'
loop_
_space_group_symop_operation_xyz
x,y,z
1/2-x,-y,1/2+z
x,-y,-z
1/2-x,y,1/2-z
-x,-y,-z
1/2+x,y,1/2-z
-x,y,z
1/2+x,-y,1/2+z
loop_
_atom_site_type_symbol
_atom_site_label
_atom_site_fract_x
_atom_site_fract_y
_atom_site_fract_z
Si Si1 0.393606 0.946930 0.274407
Si Si2 0.606220 0.783524 0.109271
Si Si3 0.759865 0.662083 0.644602
Si Si4 0.770203 0.590229 0.352706
Si Si5 0.111228 0.631836 0.006472
Si Si6 0.113129 0.873997 0.640413
Si Si7 0.251983 0.059042 0.571978
O O1 0.500000 0.940979 0.312889
O O2 0.379092 0.069450 0.236362
O O3 0.391526 0.858826 0.196080
O O4 0.313063 0.920845 0.343027
O O5 0.500000 0.794030 0.071836
O O6 0.635401 0.661064 0.129035
O O7 0.691611 0.833416 0.052498
O O8 0.750000 0.663899 0.750000
O O9 0.786841 0.536417 0.623315
O O10 0.666750 0.677404 0.580097
O O11 0.838500 0.756543 0.630650
O O12 0.750000 0.597268 0.250000
O O13 0.681261 0.640565 0.409038
O O14 0.000000 0.672958 0.015085
O O15 0.103525 0.500000 0.000000
O O16 0.000000 0.874509 0.619921
O O17 0.172602 0.965039 0.588512
O O18 0.316451 0.000000 0.500000
#
# Coordination Sequence:
#
# PCOD9418679 Si02
#       7
#     8   8   8   8   8   8   8
#     4   9  19  39  63  85 113 155 199 246 301 358
#     4  10  21  38  60  84 116 156 201 245 295 360
#     4  10  21  38  62  92 127 164 205 252 306 370
#     4  10  21  38  62  92 127 164 205 252 306 370
#     4   9  20  40  63  88 121 164 213 260 306 361
#     4  10  21  38  60  84 116 156 201 245 295 360
#     4  11  22  36  59  85 115 152 195 249 302 358
#
# _framework density 21.403019
#
# number of rings (size 3 to 8) (size 9 to 14) (size 15 to 20)
#    0.000    2.143    0.000    4.714    2.000    3.143 
#    0.000    4.286    0.000    2.571    0.000    0.000 
#    0.000    0.000    0.000    0.000    0.000    0.000 
#
# Total GULP energy -312039.635020 kJ/mol
# GULP energy per Si atom -5572.136340 kJ/mol
# Density = 2.135430 g / cm^3
# Si number density = 21.403019 Si / 1000 Ang^3
#
#
#
# Elastic Constant Matrix: (Units=GPa)
#
#
# Indices 1 2 3 4 5 6 
#
# 1 117.8860 46.4338 32.2300 0.0000 0.0000 0.0000
# 2 46.4338 105.7708 11.5387 0.0000 0.0000 0.0000
# 3 32.2300 11.5387 77.2310 0.0000 0.0000 0.0000
# 4 0.0000 0.0000 0.0000 11.0366 0.0000 0.0000
# 5 0.0000 0.0000 0.0000 0.0000 0.7418 0.0000
# 6 0.0000 0.0000 0.0000 0.0000 0.0000 15.1060
#
#
#
# Elastic Compliance Matrix: (Units=1/GPa)
#
#
# Indices 1 2 3 4 5 6 
#
# 1 0.011391 -0.004556 -0.004073 0.000000 0.000000 0.000000
# 2 -0.004556 0.011434 0.000193 0.000000 0.000000 0.000000
# 3 -0.004073 0.000193 0.014619 0.000000 0.000000 0.000000
# 4 0.000000 0.000000 0.000000 0.090608 0.000000 0.000000
# 5 0.000000 0.000000 0.000000 0.000000 1.348042 0.000000
# 6 0.000000 0.000000 0.000000 0.000000 0.000000 0.066199
#
#
# Mechanical properties :
#
#
# Convention : Reuss Voigt Hill
#
# Bulk Modulus (GPa) = 48.61108 53.47697 51.04402
# Shear Modulus (GPa) = 3.19280 19.42256 11.30768
#
# Velocity S-wave (km/s) = 1.22270 3.01569 2.30102
# Velocity P-wave (km/s) = 4.97543 6.09638 5.56420
#
# Compressibility (1/GPa) = 0.02057144
#
# Stress axis : x y z
#
# Youngs Moduli (GPa) = 87.78854 87.46161 68.40403
#
# Poissons Ratio (x) = 0.39851 0.27861
# Poissons Ratio (y) = 0.40000 -0.01322
# Poissons Ratio (z) = 0.35756 -0.01690
#
# Static dielectric constant tensor:
#      x y z
#    x 1.770000 0.000000 0.000000 
#    y 0.000000 1.776240 0.000000 
#    z 0.000000 0.000000 1.940260 
# 
# From -- ./inp_files/22861.got.cif
#   From: 2010.05.17/outbox.cif.g08.bks.cpg/sg53_12_cif.got.tgz:22861.got - 2010.06.03 12:45:16.
