data_PCOD9418717
_publ_section_title
;
Structure prediction by ZEFSAII (Michael W. Deem and Ramdas Pophale) SiO2 
 PCOD9418717
Probable space group: P M N A
;
_chemical_formula_sum "Si O2"
_cell_formula_units_Z 44
_cell_length_a 14.318658
_cell_length_b 5.573870
_cell_length_c 26.648167
_cell_angle_alpha 90.000000
_cell_angle_beta 90.000000
_cell_angle_gamma 90.000000
_cell_volume 2126.799222
_symmetry_space_group_name_H-M "P M N A"
_symmetry_group_IT_number 53
_symmetry_cell_setting 'orthorhombic'
loop_
_space_group_symop_operation_xyz
x,y,z
1/2-x,-y,1/2+z
x,-y,-z
1/2-x,y,1/2-z
-x,-y,-z
1/2+x,y,1/2-z
-x,y,z
1/2+x,-y,1/2+z
loop_
_atom_site_type_symbol
_atom_site_label
_atom_site_fract_x
_atom_site_fract_y
_atom_site_fract_z
Si Si1 0.613158 0.286503 0.730962
Si Si2 0.898744 0.881195 0.434877
Si Si3 0.252998 0.743032 0.903945
Si Si4 0.813411 0.500000 0.500000
Si Si5 0.112409 0.791261 0.821878
Si Si6 0.894866 0.535895 0.338989
O O1 0.500000 0.275588 0.729066
O O2 0.639773 0.534359 0.702778
O O3 0.637927 0.327855 0.789122
O O4 0.645121 0.032300 0.707653
O O5 0.881007 0.714575 0.482820
O O6 0.902454 0.716115 0.385441
O O7 0.000000 0.006250 0.437113
O O8 0.806761 0.035124 0.427631
O O9 0.156208 0.796142 0.877298
O O10 0.321965 0.657590 0.859047
O O11 0.253179 0.558667 0.950492
O O12 0.000000 0.796268 0.822983
O O13 0.000000 0.435890 0.329174
#
# Coordination Sequence:
#
# PCOD9418717 Si02
#       6
#     8   8   8   4   8   8
#     4   9  20  40  63  89 126 169 207 253 314 372
#     4  10  21  38  61  89 124 164 205 254 318 386
#     4  11  23  38  61  90 122 163 213 265 314 381
#     4  10  23  40  59  88 124 160 207 266 325 380
#     4  10  23  42  65  90 126 170 214 263 314 371
#     4   9  20  37  58  90 128 162 202 252 309 375
#
# _framework density 20.688365000000001
#
# number of rings (size 3 to 8) (size 9 to 14) (size 15 to 20)
#    0.000    2.182    0.000    1.364    7.636    3.636 
#    0.000    0.455    0.000    2.182    0.000    0.000 
#    0.000    0.000    0.000    0.000    0.000    0.000 
#
# Total GULP energy -245475.980041 kJ/mol
# GULP energy per Si atom -5578.999546 kJ/mol
# Density = 2.064128 g / cm^3
# Si number density = 20.688365 Si / 1000 Ang^3
#
#
#
# Elastic Constant Matrix: (Units=GPa)
#
#
# Indices 1 2 3 4 5 6 
#
# 1 50.4690 22.7980 29.9803 0.0000 0.0000 0.0000
# 2 22.7980 81.9134 22.3964 0.0000 0.0000 0.0000
# 3 29.9803 22.3964 105.4515 0.0000 0.0000 0.0000
# 4 0.0000 0.0000 0.0000 33.8904 0.0000 0.0000
# 5 0.0000 0.0000 0.0000 0.0000 -37.9331 0.0000
# 6 0.0000 0.0000 0.0000 0.0000 0.0000 14.2955
#
#
#
# Elastic Compliance Matrix: (Units=1/GPa)
#
#
# Indices 1 2 3 4 5 6 
#
# 1 0.026010 -0.005539 -0.006218 0.000000 0.000000 0.000000
# 2 -0.005539 0.014140 -0.001428 0.000000 0.000000 0.000000
# 3 -0.006218 -0.001428 0.011554 0.000000 0.000000 0.000000
# 4 0.000000 0.000000 0.000000 0.029507 0.000000 0.000000
# 5 0.000000 0.000000 0.000000 0.000000 -0.026362 0.000000
# 6 0.000000 0.000000 0.000000 0.000000 0.000000 0.069952
#
#
# Mechanical properties :
#
#
# Convention : Reuss Voigt Hill
#
# Bulk Modulus (GPa) = 39.47398 43.13148 41.30273
# Shear Modulus (GPa) = 31.32494 12.89451 22.10972
#
# Velocity S-wave (km/s) = 3.89541 2.49925 3.27265
# Velocity P-wave (km/s) = 6.27327 5.40572 5.85559
#
# Compressibility (1/GPa) = 0.02533314
#
# Stress axis : x y z
#
# Youngs Moduli (GPa) = 38.44654 70.72061 86.54758
#
# Poissons Ratio (x) = 0.39171 0.53819
# Poissons Ratio (y) = 0.21295 0.12363
# Poissons Ratio (z) = 0.23908 0.10102
#
# Static dielectric constant tensor:
#      x y z
#    x 1.751670 0.000000 0.000000 
#    y 0.000000 1.804500 0.000000 
#    z 0.000000 0.000000 1.739620 
# 
# From -- ./inp_files/36934.got.cif
#   From: 2010.05.17/outbox.cif.g08.bks.cpg/sg53_19_cif.got.tgz:36934.got - 2010.06.03 12:45:16.
