data_PCOD9418912
_publ_section_title
;
Structure prediction by ZEFSAII (Michael W. Deem and Ramdas Pophale) SiO2 
 PCOD9418912
Probable space group: P M N A
;
_chemical_formula_sum "Si O2"
_cell_formula_units_Z 40
_cell_length_a 16.495534
_cell_length_b 13.796405
_cell_length_c 7.047786
_cell_angle_alpha 90.000000
_cell_angle_beta 90.000000
_cell_angle_gamma 90.000000
_cell_volume 1603.928568
_symmetry_space_group_name_H-M "P M N A"
_symmetry_group_IT_number 53
_symmetry_cell_setting 'orthorhombic'
loop_
_space_group_symop_operation_xyz
x,y,z
1/2-x,-y,1/2+z
x,-y,-z
1/2-x,y,1/2-z
-x,-y,-z
1/2+x,y,1/2-z
-x,y,z
1/2+x,-y,1/2+z
loop_
_atom_site_type_symbol
_atom_site_label
_atom_site_fract_x
_atom_site_fract_y
_atom_site_fract_z
Si Si1 0.762110 0.886388 0.477558
Si Si2 0.411610 0.798248 0.163953
Si Si3 0.906992 0.815405 0.913586
Si Si4 0.156874 0.403492 0.695955
Si Si5 0.405734 0.394540 0.222840
O O1 0.750000 0.864858 0.250000
O O2 0.847793 0.831054 0.493272
O O3 0.685511 0.856765 0.606324
O O4 0.775251 0.000000 0.500000
O O5 0.500000 0.799460 0.077885
O O6 0.413819 0.852255 0.364698
O O7 0.391837 0.692363 0.245309
O O8 0.896561 0.701514 0.849720
O O9 0.000000 0.839913 0.843429
O O10 0.250000 0.395970 0.750000
O O11 0.117977 0.497887 0.791465
O O12 0.148717 0.396181 0.467340
O O13 0.500000 0.398592 0.164816
#
# Coordination Sequence:
#
# PCOD9418912 Si02
#       5
#     8   8   8   8   8
#     4  10  22  40  62  94 130 168 221 281 336 392
#     4  10  21  40  62  85 122 170 218 270 328 388
#     4   9  20  39  63  90 124 168 215 267 326 389
#     4  11  22  36  58  91 127 163 208 263 323 387
#     4  10  22  41  62  89 126 170 218 263 319 395
#
# _framework density 24.938768
#
# number of rings (size 3 to 8) (size 9 to 14) (size 15 to 20)
#    0.000    2.000    0.000    4.200    0.000    9.600 
#    0.000    3.000    0.000    0.000    0.000    2.800 
#    0.000    0.000    0.000    0.000    0.000    0.000 
#
# Total GULP energy -222670.439310 kJ/mol
# GULP energy per Si atom -5566.760983 kJ/mol
# Density = 2.488201 g / cm^3
# Si number density = 24.938768 Si / 1000 Ang^3
#
#
#
# Elastic Constant Matrix: (Units=GPa)
#
#
# Indices 1 2 3 4 5 6 
#
# 1 195.8266 76.1997 56.7613 0.0000 0.0000 0.0000
# 2 76.1997 106.3028 13.8182 0.0000 0.0000 0.0000
# 3 56.7613 13.8182 124.0790 0.0000 0.0000 0.0000
# 4 0.0000 0.0000 0.0000 12.6439 0.0000 0.0000
# 5 0.0000 0.0000 0.0000 0.0000 32.4233 0.0000
# 6 0.0000 0.0000 0.0000 0.0000 0.0000 61.7952
#
#
#
# Elastic Compliance Matrix: (Units=1/GPa)
#
#
# Indices 1 2 3 4 5 6 
#
# 1 0.008114 -0.005412 -0.003109 0.000000 0.000000 0.000000
# 2 -0.005412 0.013155 0.001011 0.000000 0.000000 0.000000
# 3 -0.003109 0.001011 0.009369 0.000000 0.000000 0.000000
# 4 0.000000 0.000000 0.000000 0.079089 0.000000 0.000000
# 5 0.000000 0.000000 0.000000 0.000000 0.030842 0.000000
# 6 0.000000 0.000000 0.000000 0.000000 0.000000 0.016182
#
#
# Mechanical properties :
#
#
# Convention : Reuss Voigt Hill
#
# Bulk Modulus (GPa) = 64.03100 79.97408 72.00254
# Shear Modulus (GPa) = 28.25219 40.00108 34.12664
#
# Velocity S-wave (km/s) = 3.36945 4.00931 3.70323
# Velocity P-wave (km/s) = 6.39286 7.31919 6.87165
#
# Compressibility (1/GPa) = 0.01561744
#
# Stress axis : x y z
#
# Youngs Moduli (GPa) = 123.25098 76.01681 106.73447
#
# Poissons Ratio (x) = 0.41139 0.33183
# Poissons Ratio (y) = 0.66701 -0.10787
# Poissons Ratio (z) = 0.38318 -0.07683
#
# Static dielectric constant tensor:
#      x y z
#    x 2.127280 0.000000 0.000000 
#    y 0.000000 1.992880 0.000000 
#    z 0.000000 0.000000 2.274770 
# 
# From -- ./inp_files/8378.got.cif
#   From: 2010.05.17/outbox.cif.g08.bks.cpg/sg53_5_cif.got.tgz:8378.got - 2010.06.03 12:45:16.
