data_PCOD9418384
_publ_section_title
;
Structure prediction by ZEFSAII (Michael W. Deem and Ramdas Pophale) SiO2 
 PCOD9418384
Probable space group: P M N A
;
_chemical_formula_sum "Si O2"
_cell_formula_units_Z 56
_cell_length_a 17.054722
_cell_length_b 33.378497
_cell_length_c 5.132645
_cell_angle_alpha 90.000000
_cell_angle_beta 90.000000
_cell_angle_gamma 90.000000
_cell_volume 2921.814559
_symmetry_space_group_name_H-M "P M N A"
_symmetry_group_IT_number 53
_symmetry_cell_setting 'orthorhombic'
loop_
_space_group_symop_operation_xyz
x,y,z
1/2-x,-y,1/2+z
x,-y,-z
1/2-x,y,1/2-z
-x,-y,-z
1/2+x,y,1/2-z
-x,y,z
1/2+x,-y,1/2+z
loop_
_atom_site_type_symbol
_atom_site_label
_atom_site_fract_x
_atom_site_fract_y
_atom_site_fract_z
Si Si1 0.194273 0.044840 0.000372
Si Si2 0.094201 0.826955 0.408527
Si Si3 0.091968 0.620163 0.143072
Si Si4 0.804333 0.749105 0.503325
Si Si5 0.906010 0.877390 0.907673
Si Si6 0.839588 0.660491 0.655804
Si Si7 0.805641 0.454364 0.999264
O O1 0.250000 0.049347 0.750000
O O2 0.132989 0.080558 0.023849
O O3 0.250000 0.046932 0.250000
O O4 0.158517 0.000000 0.000000
O O5 0.135589 0.784873 0.455149
O O6 0.115339 0.845215 0.129115
O O7 0.000000 0.822380 0.422342
O O8 0.117812 0.859053 0.629825
O O9 0.136342 0.633897 0.406583
O O10 0.127938 0.578817 0.033571
O O11 0.000000 0.616947 0.197942
O O12 0.108076 0.651232 0.908183
O O13 0.750000 0.759317 0.750000
O O14 0.844219 0.706658 0.568721
O O15 0.750000 0.743593 0.250000
O O16 0.000000 0.881812 0.908855
O O17 0.750000 0.652968 0.750000
O O18 0.750000 0.450832 0.750000
O O19 0.836721 0.500000 0.000000
O O20 0.750000 0.448307 0.250000
#
# Coordination Sequence:
#
# PCOD9418384 Si02
#       7
#     8   8   8   8   8   8   8
#     4  10  21  36  55  81 110 140 179 228 277 321
#     4  10  22  38  56  81 114 146 179 227 281 332
#     4  12  24  38  61  92 121 152 194 244 295 342
#     4  11  23  39  60  86 111 145 194 238 278 331
#     4  10  21  37  56  80 110 147 185 219 270 336
#     4  11  23  42  62  84 118 158 197 239 287 348
#     4  10  21  38  61  86 115 157 200 235 284 349
#
# _framework density 19.166172
#
# number of rings (size 3 to 8) (size 9 to 14) (size 15 to 20)
#    0.000    1.429    0.000    6.429    0.000    5.143 
#    0.000    1.429    0.000    9.429    0.000    0.000 
#    0.000    0.000    0.000    0.000    0.000    0.000 
#
# Total GULP energy -313043.189345 kJ/mol
# GULP energy per Si atom -5590.056953 kJ/mol
# Density = 1.912255 g / cm^3
# Si number density = 19.166172 Si / 1000 Ang^3
#
#
#
# Elastic Constant Matrix: (Units=GPa)
#
#
# Indices 1 2 3 4 5 6 
#
# 1 49.1279 49.3470 15.8960 0.0000 0.0000 0.0000
# 2 49.3470 113.2019 9.7691 0.0000 0.0000 0.0000
# 3 15.8960 9.7691 112.3313 0.0000 0.0000 0.0000
# 4 0.0000 0.0000 0.0000 48.7966 0.0000 0.0000
# 5 0.0000 0.0000 0.0000 0.0000 19.0923 0.0000
# 6 0.0000 0.0000 0.0000 0.0000 0.0000 2.7100
#
#
#
# Elastic Compliance Matrix: (Units=1/GPa)
#
#
# Indices 1 2 3 4 5 6 
#
# 1 0.037876 -0.016170 -0.003954 0.000000 0.000000 0.000000
# 2 -0.016170 0.015804 0.000914 0.000000 0.000000 0.000000
# 3 -0.003954 0.000914 0.009382 0.000000 0.000000 0.000000
# 4 0.000000 0.000000 0.000000 0.020493 0.000000 0.000000
# 5 0.000000 0.000000 0.000000 0.000000 0.052377 0.000000
# 6 0.000000 0.000000 0.000000 0.000000 0.000000 0.369006
#
#
# Mechanical properties :
#
#
# Convention : Reuss Voigt Hill
#
# Bulk Modulus (GPa) = 40.57973 47.18724 43.88349
# Shear Modulus (GPa) = 9.06500 27.42971 18.24735
#
# Velocity S-wave (km/s) = 2.17714 3.78716 3.08890
# Velocity P-wave (km/s) = 5.24771 6.61793 5.97225
#
# Compressibility (1/GPa) = 0.02464284
#
# Stress axis : x y z
#
# Youngs Moduli (GPa) = 26.40182 63.27655 106.58432
#
# Poissons Ratio (x) = 1.02317 0.42139
# Poissons Ratio (y) = 0.42691 -0.09740
# Poissons Ratio (z) = 0.10438 -0.05782
#
# Static dielectric constant tensor:
#      x y z
#    x 1.607980 0.000000 0.000000 
#    y 0.000000 1.674610 0.000000 
#    z 0.000000 0.000000 1.668440 
# 
# From -- ./inp_files/1469.got.cif
#   From: 2010.05.17/outbox.cif.g08.bks.cpg/sg53_1_cif.got.tgz:1469.got - 2010.06.03 12:45:16.
