data_PCOD9418775
_publ_section_title
;
Structure prediction by ZEFSAII (Michael W. Deem and Ramdas Pophale) SiO2 
 PCOD9418775
Probable space group: P M N A
;
_chemical_formula_sum "Si O2"
_cell_formula_units_Z 36
_cell_length_a 9.669331
_cell_length_b 20.806581
_cell_length_c 8.945771
_cell_angle_alpha 90.000000
_cell_angle_beta 90.000000
_cell_angle_gamma 90.000000
_cell_volume 1799.761368
_symmetry_space_group_name_H-M "P M N A"
_symmetry_group_IT_number 53
_symmetry_cell_setting 'orthorhombic'
loop_
_space_group_symop_operation_xyz
x,y,z
1/2-x,-y,1/2+z
x,-y,-z
1/2-x,y,1/2-z
-x,-y,-z
1/2+x,y,1/2-z
-x,y,z
1/2+x,-y,1/2+z
loop_
_atom_site_type_symbol
_atom_site_label
_atom_site_fract_x
_atom_site_fract_y
_atom_site_fract_z
Si Si1 0.341797 0.634259 0.888242
Si Si2 0.340340 0.438559 0.608269
Si Si3 0.500000 0.756752 0.826443
Si Si4 0.775264 0.064727 0.927739
Si Si5 0.500000 0.103452 0.091810
Si Si6 0.500000 0.856402 0.577712
O O1 0.250000 0.610594 0.750000
O O2 0.500000 0.606383 0.894219
O O3 0.127404 0.709660 0.638938
O O4 0.248619 0.617473 0.029341
O O5 0.343112 0.500000 0.500000
O O6 0.250000 0.456827 0.750000
O O7 0.500000 0.420716 0.640308
O O8 0.500000 0.819416 0.929051
O O9 0.500000 0.786604 0.658481
O O10 0.750000 0.060167 0.750000
O O11 0.632693 0.074009 0.015575
O O12 0.869728 0.124718 0.977196
O O13 0.837766 0.000000 0.000000
O O14 0.500000 0.098616 0.272078
#
# Coordination Sequence:
#
# PCOD9418775 Si02
#       6
#     8   8   4   8   4   4
#     4  10  21  38  66  96 128 174 232 275 328 410
#     4  11  24  42  67 102 143 182 226 284 345 394
#     4   8  24  38  71  88 130 172 237 259 342 402
#     4  12  24  40  63  96 128 165 218 278 346 415
#     4  10  22  40  65  88 127 165 218 270 333 404
#     4  10  22  40  67  88 129 171 212 277 336 403
#
# _framework density 20.002652000000001
#
# number of rings (size 3 to 8) (size 9 to 14) (size 15 to 20)
#    1.333    0.222    0.000    5.333    3.111    3.556 
#    0.000    1.111    4.889    0.000    0.000    0.000 
#    0.000    0.000    0.000    0.000    0.000    0.000 
#
# Total GULP energy -200572.528402 kJ/mol
# GULP energy per Si atom -5571.459122 kJ/mol
# Density = 1.995713 g / cm^3
# Si number density = 20.002652 Si / 1000 Ang^3
#
#
#
# Elastic Constant Matrix: (Units=GPa)
#
#
# Indices 1 2 3 4 5 6 
#
# 1 162.1186 34.6598 42.7579 0.0000 0.0000 0.0000
# 2 34.6598 96.1483 29.9978 0.0000 0.0000 0.0000
# 3 42.7579 29.9978 124.2130 0.0000 0.0000 0.0000
# 4 0.0000 0.0000 0.0000 36.9647 0.0000 0.0000
# 5 0.0000 0.0000 0.0000 0.0000 31.2641 0.0000
# 6 0.0000 0.0000 0.0000 0.0000 0.0000 -31.4480
#
#
#
# Elastic Compliance Matrix: (Units=1/GPa)
#
#
# Indices 1 2 3 4 5 6 
#
# 1 0.007105 -0.001945 -0.001976 0.000000 0.000000 0.000000
# 2 -0.001945 0.011780 -0.002176 0.000000 0.000000 0.000000
# 3 -0.001976 -0.002176 0.009256 0.000000 0.000000 0.000000
# 4 0.000000 0.000000 0.000000 0.027053 0.000000 0.000000
# 5 0.000000 0.000000 0.000000 0.000000 0.031986 0.000000
# 6 0.000000 0.000000 0.000000 0.000000 0.000000 -0.031798
#
#
# Mechanical properties :
#
#
# Convention : Reuss Voigt Hill
#
# Bulk Modulus (GPa) = 62.69972 66.36788 64.53380
# Shear Modulus (GPa) = 68.59523 25.69379 47.14451
#
# Velocity S-wave (km/s) = 5.86238 3.58791 4.86007
# Velocity P-wave (km/s) = 8.78846 7.10040 7.98914
#
# Compressibility (1/GPa) = 0.01594903
#
# Stress axis : x y z
#
# Youngs Moduli (GPa) = 140.73967 84.88664 108.03393
#
# Poissons Ratio (x) = 0.16509 0.21350
# Poissons Ratio (y) = 0.27371 0.23503
# Poissons Ratio (z) = 0.27813 0.18467
#
# Static dielectric constant tensor:
#      x y z
#    x 1.774100 0.000000 0.000000 
#    y 0.000000 1.749070 0.000000 
#    z 0.000000 0.000000 1.792500 
# 
# From -- ./inp_files/6203.got.cif
#   From: 2010.05.17/outbox.cif.g08.bks.cpg/sg53_4_cif.got.tgz:6203.got - 2010.06.03 12:45:16.
