data_PCOD9418283
_publ_section_title
;
Structure prediction by ZEFSAII (Michael W. Deem and Ramdas Pophale) SiO2 
 PCOD9418283
Probable space group: P M N A
;
_chemical_formula_sum "Si O2"
_cell_formula_units_Z 40
_cell_length_a 7.549776
_cell_length_b 27.091906
_cell_length_c 9.560509
_cell_angle_alpha 90.000000
_cell_angle_beta 90.000000
_cell_angle_gamma 90.000000
_cell_volume 1955.485685
_symmetry_space_group_name_H-M "P M N A"
_symmetry_group_IT_number 53
_symmetry_cell_setting 'orthorhombic'
loop_
_space_group_symop_operation_xyz
x,y,z
1/2-x,-y,1/2+z
x,-y,-z
1/2-x,y,1/2-z
-x,-y,-z
1/2+x,y,1/2-z
-x,y,z
1/2+x,-y,1/2+z
loop_
_atom_site_type_symbol
_atom_site_label
_atom_site_fract_x
_atom_site_fract_y
_atom_site_fract_z
Si Si1 0.212584 0.844426 0.414133
Si Si2 0.287282 0.641414 0.913773
Si Si3 0.287498 0.751512 0.913125
Si Si4 0.712649 0.953328 0.085721
Si Si5 0.712785 0.547621 0.085393
O O1 0.250000 0.838802 0.250000
O O2 0.282788 0.797367 0.497932
O O3 0.279665 0.898861 0.457425
O O4 0.000000 0.845233 0.432476
O O5 0.250000 0.631357 0.750000
O O6 0.500000 0.642871 0.927938
O O7 0.219534 0.696498 0.948498
O O8 0.219681 0.597811 0.012787
O O9 0.250000 0.759638 0.750000
O O10 0.500000 0.750176 0.931988
O O11 0.750000 0.959301 0.250000
O O12 0.500000 0.952460 0.068092
O O13 0.782636 0.000000 0.000000
O O14 0.750000 0.544831 0.250000
O O15 0.500000 0.547992 0.070231
O O16 0.779461 0.500000 0.000000
#
# Coordination Sequence:
#
# PCOD9418283 Si02
#       5
#     8   8   8   8   8
#     4   9  18  32  48  67  93 123 154 190 231 275
#     4   9  18  33  51  71  96 125 157 193 232 275
#     4   9  18  32  49  70  96 124 155 192 232 274
#     4   9  18  32  48  67  92 121 153 190 232 276
#     4  10  21  35  51  73  99 126 158 195 234 277
#
# _framework density 20.455278
#
# number of rings (size 3 to 8) (size 9 to 14) (size 15 to 20)
#    0.000    2.800    0.000    0.600    0.000    4.000 
#    0.000    0.000    0.000    0.000    0.000    0.000 
#    0.000    0.000    0.000    0.000    0.000    0.000 
#
# Total GULP energy -223147.914839 kJ/mol
# GULP energy per Si atom -5578.697871 kJ/mol
# Density = 2.040872 g / cm^3
# Si number density = 20.455278 Si / 1000 Ang^3
#
#
#
# Elastic Constant Matrix: (Units=GPa)
#
#
# Indices 1 2 3 4 5 6 
#
# 1 51.1191 13.1744 -4.4967 0.0000 0.0000 0.0000
# 2 13.1744 260.9061 140.9502 0.0000 0.0000 0.0000
# 3 -4.4967 140.9502 109.0763 0.0000 0.0000 0.0000
# 4 0.0000 0.0000 0.0000 64.9528 0.0000 0.0000
# 5 0.0000 0.0000 0.0000 0.0000 26.0731 0.0000
# 6 0.0000 0.0000 0.0000 0.0000 0.0000 -32.6888
#
#
#
# Elastic Compliance Matrix: (Units=1/GPa)
#
#
# Indices 1 2 3 4 5 6 
#
# 1 0.021571 -0.005199 0.007608 0.000000 0.000000 0.000000
# 2 -0.005199 0.013949 -0.018239 0.000000 0.000000 0.000000
# 3 0.007608 -0.018239 0.033050 0.000000 0.000000 0.000000
# 4 0.000000 0.000000 0.000000 0.015396 0.000000 0.000000
# 5 0.000000 0.000000 0.000000 0.000000 0.038354 0.000000
# 6 0.000000 0.000000 0.000000 0.000000 0.000000 -0.030592
#
#
# Mechanical properties :
#
#
# Convention : Reuss Voigt Hill
#
# Bulk Modulus (GPa) = 27.09334 80.03970 53.56652
# Shear Modulus (GPa) = 36.84799 29.76564 33.30681
#
# Velocity S-wave (km/s) = 4.24889 3.81879 4.03957
# Velocity P-wave (km/s) = 6.11102 7.65887 6.92831
#
# Compressibility (1/GPa) = 0.03690943
#
# Stress axis : x y z
#
# Youngs Moduli (GPa) = 46.35780 71.69124 30.25682
#
# Poissons Ratio (x) = 0.37274 -0.23019
# Poissons Ratio (y) = 0.24103 0.55186
# Poissons Ratio (z) = -0.35268 1.30758
#
# Static dielectric constant tensor:
#      x y z
#    x 1.743520 0.000000 0.000000 
#    y 0.000000 1.773680 0.000000 
#    z 0.000000 0.000000 1.655900 
# 
# From -- ./inp_files/762.got.cif
#   From: 2010.05.17/outbox.cif.g08.bks.cpg/sg53_1_cif.got.tgz:762.got - 2010.06.03 12:45:16.
