data_PCOD9418795
_publ_section_title
;
Structure prediction by ZEFSAII (Michael W. Deem and Ramdas Pophale) SiO2 
 PCOD9418795
Probable space group: P M N A
;
_chemical_formula_sum "Si O2"
_cell_formula_units_Z 48
_cell_length_a 15.538759
_cell_length_b 17.890507
_cell_length_c 8.614857
_cell_angle_alpha 90.000000
_cell_angle_beta 90.000000
_cell_angle_gamma 90.000000
_cell_volume 2394.898170
_symmetry_space_group_name_H-M "P M N A"
_symmetry_group_IT_number 53
_symmetry_cell_setting 'orthorhombic'
loop_
_space_group_symop_operation_xyz
x,y,z
1/2-x,-y,1/2+z
x,-y,-z
1/2-x,y,1/2-z
-x,-y,-z
1/2+x,y,1/2-z
-x,y,z
1/2+x,-y,1/2+z
loop_
_atom_site_type_symbol
_atom_site_label
_atom_site_fract_x
_atom_site_fract_y
_atom_site_fract_z
Si Si1 0.657474 0.807678 0.317375
Si Si2 0.500000 0.916374 0.691444
Si Si3 0.847199 0.351081 0.314126
Si Si4 0.500000 0.912699 0.313163
Si Si5 0.099285 0.344519 0.659213
Si Si6 0.847482 0.504912 0.184845
Si Si7 0.652559 0.807333 0.690001
O O1 0.750000 0.829022 0.250000
O O2 0.584191 0.866069 0.266689
O O3 0.634014 0.725681 0.254592
O O4 0.657770 0.804906 0.503701
O O5 0.500000 0.915572 0.502209
O O6 0.585667 0.871440 0.738908
O O7 0.500000 0.002177 0.743286
O O8 0.750000 0.351630 0.250000
O O9 0.848532 0.351954 0.499457
O O10 0.887173 0.428165 0.252389
O O11 0.882405 0.272366 0.252443
O O12 0.106975 0.420563 0.755939
O O13 0.000000 0.331326 0.617796
O O14 0.750000 0.510131 0.250000
O O15 0.845931 0.500000 0.000000
O O16 0.750000 0.818777 0.750000
#
# Coordination Sequence:
#
# PCOD9418795 Si02
#       7
#     8   4   8   4   8   8   8
#     4  11  21  40  66  90 127 166 209 260 309 373
#     4   9  20  38  65  88 131 164 197 261 308 377
#     4  10  21  39  60  87 121 162 211 254 306 366
#     4   9  20  40  61  96 123 164 209 245 318 377
#     4  12  25  40  61  92 127 163 212 265 314 370
#     4  11  22  40  63  87 123 168 217 262 310 368
#     4  10  21  39  63  94 122 165 214 251 314 373
#
# _framework density 20.042608000000001
#
# number of rings (size 3 to 8) (size 9 to 14) (size 15 to 20)
#    0.000    1.500    0.833    6.000    1.167    2.333 
#    0.000    0.000    0.000    7.000    0.000    0.000 
#    0.000    0.000    0.000    0.000    0.000    0.000 
#
# Total GULP energy -268295.836555 kJ/mol
# GULP energy per Si atom -5589.496595 kJ/mol
# Density = 1.999699 g / cm^3
# Si number density = 20.042608 Si / 1000 Ang^3
#
#
#
# Elastic Constant Matrix: (Units=GPa)
#
#
# Indices 1 2 3 4 5 6 
#
# 1 118.1315 76.1413 33.7104 0.0000 0.0000 0.0000
# 2 76.1413 199.5817 53.9856 0.0000 0.0000 0.0000
# 3 33.7104 53.9856 118.3725 0.0000 0.0000 0.0000
# 4 0.0000 0.0000 0.0000 15.6419 0.0000 0.0000
# 5 0.0000 0.0000 0.0000 0.0000 14.3304 0.0000
# 6 0.0000 0.0000 0.0000 0.0000 0.0000 28.0118
#
#
#
# Elastic Compliance Matrix: (Units=1/GPa)
#
#
# Indices 1 2 3 4 5 6 
#
# 1 0.011438 -0.003973 -0.001446 0.000000 0.000000 0.000000
# 2 -0.003973 0.007095 -0.002105 0.000000 0.000000 0.000000
# 3 -0.001446 -0.002105 0.009819 0.000000 0.000000 0.000000
# 4 0.000000 0.000000 0.000000 0.063931 0.000000 0.000000
# 5 0.000000 0.000000 0.000000 0.000000 0.069782 0.000000
# 6 0.000000 0.000000 0.000000 0.000000 0.000000 0.035699
#
#
# Mechanical properties :
#
#
# Convention : Reuss Voigt Hill
#
# Bulk Modulus (GPa) = 75.14709 84.86226 80.00467
# Shear Modulus (GPa) = 23.01536 29.74671 26.38104
#
# Velocity S-wave (km/s) = 3.39237 3.85668 3.63195
# Velocity P-wave (km/s) = 7.27456 7.89080 7.58894
#
# Compressibility (1/GPa) = 0.01330723
#
# Stress axis : x y z
#
# Youngs Moduli (GPa) = 87.42578 140.93692 101.83900
#
# Poissons Ratio (x) = 0.55990 0.14722
# Poissons Ratio (y) = 0.34732 0.21433
# Poissons Ratio (z) = 0.12638 0.29661
#
# Static dielectric constant tensor:
#      x y z
#    x 1.718900 0.000000 0.000000 
#    y 0.000000 1.716860 0.000000 
#    z 0.000000 0.000000 1.684150 
# 
# From -- ./inp_files/10039.got.cif
#   From: 2010.05.17/outbox.cif.g08.bks.cpg/sg53_6_cif.got.tgz:10039.got - 2010.06.03 12:45:16.
