data_PCOD9418764
_publ_section_title
;
Structure prediction by ZEFSAII (Michael W. Deem and Ramdas Pophale) SiO2 
 PCOD9418764
Probable space group: P M N A
;
_chemical_formula_sum "Si O2"
_cell_formula_units_Z 56
_cell_length_a 15.134294
_cell_length_b 11.976771
_cell_length_c 13.506098
_cell_angle_alpha 90.000000
_cell_angle_beta 90.000000
_cell_angle_gamma 90.000000
_cell_volume 2448.114965
_symmetry_space_group_name_H-M "P M N A"
_symmetry_group_IT_number 53
_symmetry_cell_setting 'orthorhombic'
loop_
_space_group_symop_operation_xyz
x,y,z
1/2-x,-y,1/2+z
x,-y,-z
1/2-x,y,1/2-z
-x,-y,-z
1/2+x,y,1/2-z
-x,y,z
1/2+x,-y,1/2+z
loop_
_atom_site_type_symbol
_atom_site_label
_atom_site_fract_x
_atom_site_fract_y
_atom_site_fract_z
Si Si1 0.847306 0.741971 0.638001
Si Si2 0.106457 0.306421 0.843615
Si Si3 0.394724 0.527761 0.741630
Si Si4 0.098587 0.885020 0.832661
Si Si5 0.594857 0.875543 0.043945
Si Si6 0.844519 0.318907 0.063742
Si Si7 0.282481 0.915913 0.353950
O O1 0.866314 0.616264 0.675402
O O2 0.863838 0.825368 0.731488
O O3 0.902673 0.788537 0.546512
O O4 0.749034 0.734009 0.595145
O O5 0.132367 0.398080 0.760271
O O6 0.154347 0.188642 0.833490
O O7 0.000000 0.296762 0.844982
O O8 0.140620 0.348947 0.950624
O O9 0.500000 0.529377 0.741207
O O10 0.362297 0.581404 0.639043
O O11 0.091812 0.782892 0.908693
O O12 0.000000 0.928406 0.809188
O O13 0.158011 0.979067 0.885916
O O14 0.500000 0.858039 0.099496
O O15 0.691947 0.875900 0.094011
O O16 0.591253 0.000000 0.000000
O O17 0.250000 0.961611 0.250000
#
# Coordination Sequence:
#
# PCOD9418764 Si02
#       7
#     8   8   8   8   8   8   8
#     4  11  21  40  68 101 135 176 231 285 337 408
#     4  11  24  42  63  93 135 182 226 278 345 411
#     4  10  21  38  64  96 130 171 226 284 340 405
#     4  11  22  38  64  99 139 181 223 276 343 415
#     4  11  23  41  67  99 137 179 227 284 351 421
#     4  11  20  37  64  98 134 171 222 282 337 405
#     4  12  26  42  62  92 136 182 228 280 344 417
#
# _framework density 22.874741
#
# number of rings (size 3 to 8) (size 9 to 14) (size 15 to 20)
#    0.000    1.000    1.429    8.571    0.000    4.571 
#    0.000    1.429    0.000    0.000    0.000    4.000 
#    0.000    0.000    0.000    0.000    0.000    0.000 
#
# Total GULP energy -312506.611422 kJ/mol
# GULP energy per Si atom -5580.475204 kJ/mol
# Density = 2.282268 g / cm^3
# Si number density = 22.874741 Si / 1000 Ang^3
#
#
#
# Elastic Constant Matrix: (Units=GPa)
#
#
# Indices 1 2 3 4 5 6 
#
# 1 175.5851 59.4884 32.7755 0.0000 0.0000 0.0000
# 2 59.4884 130.6846 12.5879 0.0000 0.0000 0.0000
# 3 32.7755 12.5879 46.7786 0.0000 0.0000 0.0000
# 4 0.0000 0.0000 0.0000 -20.8437 0.0000 0.0000
# 5 0.0000 0.0000 0.0000 0.0000 13.2524 0.0000
# 6 0.0000 0.0000 0.0000 0.0000 0.0000 28.2221
#
#
#
# Elastic Compliance Matrix: (Units=1/GPa)
#
#
# Indices 1 2 3 4 5 6 
#
# 1 0.007550 -0.003005 -0.004481 0.000000 0.000000 0.000000
# 2 -0.003005 0.009052 -0.000330 0.000000 0.000000 0.000000
# 3 -0.004481 -0.000330 0.024606 0.000000 0.000000 0.000000
# 4 0.000000 0.000000 0.000000 -0.047976 0.000000 0.000000
# 5 0.000000 0.000000 0.000000 0.000000 0.075458 0.000000
# 6 0.000000 0.000000 0.000000 0.000000 0.000000 0.035433
#
#
# Mechanical properties :
#
#
# Convention : Reuss Voigt Hill
#
# Bulk Modulus (GPa) = 39.10149 62.52799 50.81474
# Shear Modulus (GPa) = 38.97709 20.67258 29.82483
#
# Velocity S-wave (km/s) = 4.13235 3.00947 3.61478
# Velocity P-wave (km/s) = 6.31659 6.28253 6.29958
#
# Compressibility (1/GPa) = 0.02557447
#
# Stress axis : x y z
#
# Youngs Moduli (GPa) = 132.45301 110.47566 40.64068
#
# Poissons Ratio (x) = 0.33199 0.18212
# Poissons Ratio (y) = 0.39803 0.01342
# Poissons Ratio (z) = 0.59354 0.03649
#
# Static dielectric constant tensor:
#      x y z
#    x 1.887840 0.000000 0.000000 
#    y 0.000000 1.859390 0.000000 
#    z 0.000000 0.000000 1.878430 
# 
# From -- ./inp_files/22817.got.cif
#   From: 2010.05.17/outbox.cif.g08.bks.cpg/sg53_12_cif.got.tgz:22817.got - 2010.06.03 12:45:16.
