data_PCOD9418699
_publ_section_title
;
Structure prediction by ZEFSAII (Michael W. Deem and Ramdas Pophale) SiO2 
 PCOD9418699
Probable space group: P M N A
;
_chemical_formula_sum "Si O2"
_cell_formula_units_Z 40
_cell_length_a 25.639335
_cell_length_b 7.875200
_cell_length_c 8.412256
_cell_angle_alpha 90.000000
_cell_angle_beta 90.000000
_cell_angle_gamma 90.000000
_cell_volume 1698.559753
_symmetry_space_group_name_H-M "P M N A"
_symmetry_group_IT_number 53
_symmetry_cell_setting 'orthorhombic'
loop_
_space_group_symop_operation_xyz
x,y,z
1/2-x,-y,1/2+z
x,-y,-z
1/2-x,y,1/2-z
-x,-y,-z
1/2+x,y,1/2-z
-x,y,z
1/2+x,-y,1/2+z
loop_
_atom_site_type_symbol
_atom_site_label
_atom_site_fract_x
_atom_site_fract_y
_atom_site_fract_z
Si Si1 0.556557 0.237742 0.420590
Si Si2 0.082096 0.461343 0.681399
Si Si3 0.803659 0.468933 0.813222
Si Si4 0.075564 0.940769 0.323825
Si Si5 0.161036 0.873020 0.123842
O O1 0.500000 0.243772 0.504581
O O2 0.560001 0.408563 0.313354
O O3 0.609797 0.206327 0.524080
O O4 0.553789 0.074988 0.303208
O O5 0.068089 0.500000 0.500000
O O6 0.144289 0.495672 0.709144
O O7 0.066685 0.261900 0.694397
O O8 0.750000 0.547347 0.750000
O O9 0.800578 0.267185 0.817879
O O10 0.812797 0.500000 0.000000
O O11 0.136593 0.958434 0.279155
O O12 0.062646 0.000000 0.500000
O O13 0.185283 0.000000 0.000000
#
# Coordination Sequence:
#
# PCOD9418699 Si02
#       5
#     8   8   8   8   8
#     4  11  23  41  65  92 129 177 219 262 322 384
#     4  11  22  41  66  90 133 171 213 269 325 380
#     4  11  22  41  66  96 120 161 214 264 328 389
#     4  10  21  38  60  90 127 167 211 266 316 377
#     4   9  21  42  66  89 134 167 212 269 324 391
#
# _framework density 23.549364000000001
#
# number of rings (size 3 to 8) (size 9 to 14) (size 15 to 20)
#    0.000    1.600    4.000    0.600    0.000    5.200 
#    0.000   12.000    0.000    0.000    0.000    0.000 
#    0.000    0.000    0.000    0.000    0.000    0.000 
#
# Total GULP energy -222761.155761 kJ/mol
# GULP energy per Si atom -5569.028894 kJ/mol
# Density = 2.349576 g / cm^3
# Si number density = 23.549364 Si / 1000 Ang^3
#
#
#
# Elastic Constant Matrix: (Units=GPa)
#
#
# Indices 1 2 3 4 5 6 
#
# 1 102.1229 15.8709 20.4511 0.0000 0.0000 0.0000
# 2 15.8709 78.6350 6.6408 0.0000 0.0000 0.0000
# 3 20.4511 6.6408 107.7906 0.0000 0.0000 0.0000
# 4 0.0000 0.0000 0.0000 41.9236 0.0000 0.0000
# 5 0.0000 0.0000 0.0000 0.0000 18.2864 0.0000
# 6 0.0000 0.0000 0.0000 0.0000 0.0000 -2.0134
#
#
#
# Elastic Compliance Matrix: (Units=1/GPa)
#
#
# Indices 1 2 3 4 5 6 
#
# 1 0.010470 -0.001956 -0.001866 0.000000 0.000000 0.000000
# 2 -0.001956 0.013149 -0.000439 0.000000 0.000000 0.000000
# 3 -0.001866 -0.000439 0.009658 0.000000 0.000000 0.000000
# 4 0.000000 0.000000 0.000000 0.023853 0.000000 0.000000
# 5 0.000000 0.000000 0.000000 0.000000 0.054685 0.000000
# 6 0.000000 0.000000 0.000000 0.000000 0.000000 -0.496673
#
#
# Mechanical properties :
#
#
# Convention : Reuss Voigt Hill
#
# Bulk Modulus (GPa) = 40.39465 41.60823 41.00144
# Shear Modulus (GPa) = -13.58381 28.01171 7.21395
#
# Velocity S-wave (km/s) = -2.40432 3.45264 1.75214
# Velocity P-wave (km/s) = 3.07941 5.79665 4.64133
#
# Compressibility (1/GPa) = 0.02475575
#
# Stress axis : x y z
#
# Youngs Moduli (GPa) = 95.51375 76.05287 103.53765
#
# Poissons Ratio (x) = 0.14872 0.19319
# Poissons Ratio (y) = 0.18678 0.04546
# Poissons Ratio (z) = 0.17822 0.03339
#
# Static dielectric constant tensor:
#      x y z
#    x 1.936170 0.000000 0.000000 
#    y 0.000000 1.889980 0.000000 
#    z 0.000000 0.000000 1.955370 
# 
# From -- ./inp_files/12304.got.cif
#   From: 2010.05.17/outbox.cif.g08.bks.cpg/sg53_7_cif.got.tgz:12304.got - 2010.06.03 12:45:16.
