data_PCOD9418094
_publ_section_title
;
Structure prediction by ZEFSAII (Michael W. Deem and Ramdas Pophale) SiO2 
 PCOD9418094
Probable space group: P M N A
;
_chemical_formula_sum "Si O2"
_cell_formula_units_Z 48
_cell_length_a 28.175503
_cell_length_b 9.066510
_cell_length_c 8.561643
_cell_angle_alpha 90.000000
_cell_angle_beta 90.000000
_cell_angle_gamma 90.000000
_cell_volume 2187.101496
_symmetry_space_group_name_H-M "P M N A"
_symmetry_group_IT_number 53
_symmetry_cell_setting 'orthorhombic'
loop_
_space_group_symop_operation_xyz
x,y,z
1/2-x,-y,1/2+z
x,-y,-z
1/2-x,y,1/2-z
-x,-y,-z
1/2+x,y,1/2-z
-x,y,z
1/2+x,-y,1/2+z
loop_
_atom_site_type_symbol
_atom_site_label
_atom_site_fract_x
_atom_site_fract_y
_atom_site_fract_z
Si Si1 0.777646 0.350892 0.590836
Si Si2 0.377297 0.807758 0.131691
Si Si3 0.947085 0.429076 0.646953
Si Si4 0.117248 0.140406 0.264018
Si Si5 0.214848 0.131444 0.116791
Si Si6 0.053267 0.647553 0.918014
O O1 0.790770 0.500000 0.500000
O O2 0.750000 0.386757 0.750000
O O3 0.824425 0.256779 0.632339
O O4 0.743335 0.253635 0.480484
O O5 0.414659 0.698961 0.213099
O O6 0.380313 0.963642 0.218632
O O7 0.391399 0.817581 0.946726
O O8 0.921151 0.500000 0.500000
O O9 0.953280 0.570131 0.752370
O O10 0.000000 0.372370 0.606866
O O11 0.169023 0.192573 0.206447
O O12 0.082080 0.207478 0.132492
O O13 0.250000 0.070097 0.250000
O O14 0.201124 0.000000 0.000000
O O15 0.000000 0.674444 0.987445
O O16 0.075362 0.500000 0.000000
#
# Coordination Sequence:
#
# PCOD9418094 Si02
#       6
#     8   8   8   8   8   8
#     4  12  27  44  66  96 133 178 227 281 339 401
#     4  11  23  42  64  98 132 168 222 282 336 395
#     4  10  20  38  66  94 125 167 215 268 329 397
#     4  11  24  40  67  96 130 174 220 278 338 404
#     4  12  24  43  66  93 130 175 224 275 340 409
#     4  10  23  43  66  96 134 174 214 270 341 407
#
# _framework density 21.946854999999999
#
# number of rings (size 3 to 8) (size 9 to 14) (size 15 to 20)
#    0.000    1.000    3.333    3.500    0.000    4.000 
#    0.000    1.667    0.000    3.500    0.000    0.000 
#    0.000    0.000    0.000    0.000    0.000    0.000 
#
# Total GULP energy -267667.804714 kJ/mol
# GULP energy per Si atom -5576.412598 kJ/mol
# Density = 2.189690 g / cm^3
# Si number density = 21.946855 Si / 1000 Ang^3
#
#
#
# Elastic Constant Matrix: (Units=GPa)
#
#
# Indices 1 2 3 4 5 6 
#
# 1 86.4333 53.4316 0.2493 0.0000 0.0000 0.0000
# 2 53.4316 134.1676 18.2373 0.0000 0.0000 0.0000
# 3 0.2493 18.2373 62.2991 0.0000 0.0000 0.0000
# 4 0.0000 0.0000 0.0000 39.5101 0.0000 0.0000
# 5 0.0000 0.0000 0.0000 0.0000 19.8161 0.0000
# 6 0.0000 0.0000 0.0000 0.0000 0.0000 11.0331
#
#
#
# Elastic Compliance Matrix: (Units=1/GPa)
#
#
# Indices 1 2 3 4 5 6 
#
# 1 0.015544 -0.006438 0.001822 0.000000 0.000000 0.000000
# 2 -0.006438 0.010429 -0.003027 0.000000 0.000000 0.000000
# 3 0.001822 -0.003027 0.016930 0.000000 0.000000 0.000000
# 4 0.000000 0.000000 0.000000 0.025310 0.000000 0.000000
# 5 0.000000 0.000000 0.000000 0.000000 0.050464 0.000000
# 6 0.000000 0.000000 0.000000 0.000000 0.000000 0.090636
#
#
# Mechanical properties :
#
#
# Convention : Reuss Voigt Hill
#
# Bulk Modulus (GPa) = 36.20837 47.41518 41.81178
# Shear Modulus (GPa) = 21.38528 28.13732 24.76130
#
# Velocity S-wave (km/s) = 3.12494 3.58448 3.36257
# Velocity P-wave (km/s) = 5.43639 6.22758 5.84539
#
# Compressibility (1/GPa) = 0.02761792
#
# Stress axis : x y z
#
# Youngs Moduli (GPa) = 64.33212 95.88812 59.06516
#
# Poissons Ratio (x) = 0.61735 -0.10765
# Poissons Ratio (y) = 0.41418 0.17880
# Poissons Ratio (z) = -0.11724 0.29027
#
# Static dielectric constant tensor:
#      x y z
#    x 1.868750 0.000000 0.000000 
#    y 0.000000 1.820370 0.000000 
#    z 0.000000 0.000000 1.922990 
# 
# From -- ./inp_files/13030.got.cif
#   From: 2010.05.17/outbox.cif.g08.bks.cpg/sg53_7_cif.got.tgz:13030.got - 2010.06.03 12:45:16.
