data_PCOD9418541
_publ_section_title
;
Structure prediction by ZEFSAII (Michael W. Deem and Ramdas Pophale) SiO2 
 PCOD9418541
Probable space group: P M N A
;
_chemical_formula_sum "Si O2"
_cell_formula_units_Z 40
_cell_length_a 8.624777
_cell_length_b 26.287531
_cell_length_c 9.195098
_cell_angle_alpha 90.000000
_cell_angle_beta 90.000000
_cell_angle_gamma 90.000000
_cell_volume 2084.750252
_symmetry_space_group_name_H-M "P M N A"
_symmetry_group_IT_number 53
_symmetry_cell_setting 'orthorhombic'
loop_
_space_group_symop_operation_xyz
x,y,z
1/2-x,-y,1/2+z
x,-y,-z
1/2-x,y,1/2-z
-x,-y,-z
1/2+x,y,1/2-z
-x,y,z
1/2+x,-y,1/2+z
loop_
_atom_site_type_symbol
_atom_site_label
_atom_site_fract_x
_atom_site_fract_y
_atom_site_fract_z
Si Si1 0.314150 0.550847 0.087663
Si Si2 0.185418 0.658339 0.085173
Si Si3 0.814292 0.051909 0.413141
Si Si4 0.314389 0.754678 0.913145
Si Si5 0.814608 0.851537 0.086699
O O1 0.250000 0.544923 0.250000
O O2 0.500000 0.556861 0.090768
O O3 0.239615 0.602965 0.029337
O O4 0.275376 0.500000 0.000000
O O5 0.250000 0.663476 0.250000
O O6 0.000000 0.661026 0.088968
O O7 0.253647 0.703098 0.987315
O O8 0.750000 0.048798 0.250000
O O9 0.738858 0.099151 0.496901
O O10 0.000000 0.058716 0.409148
O O11 0.780116 0.000000 0.500000
O O12 0.250000 0.758917 0.750000
O O13 0.500000 0.755067 0.910943
O O14 0.252951 0.801887 0.007587
O O15 0.750000 0.854673 0.250000
O O16 0.000000 0.848597 0.090144
#
# Coordination Sequence:
#
# PCOD9418541 Si02
#       5
#     8   8   8   8   8
#     4  10  21  37  58  85 117 154 198 246 297 355
#     4  11  22  39  62  88 119 157 200 246 299 357
#     4  11  24  42  65  94 128 166 208 254 305 360
#     4  12  25  43  64  90 123 158 200 248 302 359
#     4  12  25  43  66  93 125 162 205 251 303 360
#
# _framework density 19.186952000000002
#
# number of rings (size 3 to 8) (size 9 to 14) (size 15 to 20)
#    0.000    0.800    0.000    9.600    0.000    5.600 
#    0.000    2.000    0.000    0.000    0.000    0.000 
#    0.000    0.000    0.000    0.000    0.000    0.000 
#
# Total GULP energy -223910.316120 kJ/mol
# GULP energy per Si atom -5597.757903 kJ/mol
# Density = 1.914328 g / cm^3
# Si number density = 19.186952 Si / 1000 Ang^3
#
#
#
# Elastic Constant Matrix: (Units=GPa)
#
#
# Indices 1 2 3 4 5 6 
#
# 1 186.0385 107.2185 80.9322 0.0000 0.0000 0.0000
# 2 107.2185 189.3956 104.3767 0.0000 0.0000 0.0000
# 3 80.9322 104.3767 154.8804 0.0000 0.0000 0.0000
# 4 0.0000 0.0000 0.0000 44.5347 0.0000 0.0000
# 5 0.0000 0.0000 0.0000 0.0000 28.0119 0.0000
# 6 0.0000 0.0000 0.0000 0.0000 0.0000 59.0782
#
#
#
# Elastic Compliance Matrix: (Units=1/GPa)
#
#
# Indices 1 2 3 4 5 6 
#
# 1 0.008303 -0.003674 -0.001863 0.000000 0.000000 0.000000
# 2 -0.003674 0.010025 -0.004836 0.000000 0.000000 0.000000
# 3 -0.001863 -0.004836 0.010689 0.000000 0.000000 0.000000
# 4 0.000000 0.000000 0.000000 0.022454 0.000000 0.000000
# 5 0.000000 0.000000 0.000000 0.000000 0.035699 0.000000
# 6 0.000000 0.000000 0.000000 0.000000 0.000000 0.016927
#
#
# Mechanical properties :
#
#
# Convention : Reuss Voigt Hill
#
# Bulk Modulus (GPa) = 120.89882 123.92991 122.41436
# Shear Modulus (GPa) = 39.18484 42.17743 40.68113
#
# Velocity S-wave (km/s) = 4.52405 4.69362 4.60961
# Velocity P-wave (km/s) = 9.50984 9.70074 9.60576
#
# Compressibility (1/GPa) = 0.00827138
#
# Stress axis : x y z
#
# Youngs Moduli (GPa) = 120.44029 99.75063 93.55119
#
# Poissons Ratio (x) = 0.36645 0.17427
# Poissons Ratio (y) = 0.44246 0.45245
# Poissons Ratio (z) = 0.22436 0.48243
#
# Static dielectric constant tensor:
#      x y z
#    x 1.640920 0.000000 0.000000 
#    y 0.000000 1.651440 0.000000 
#    z 0.000000 0.000000 1.629610 
# 
# From -- ./inp_files/6303.got.cif
#   From: 2010.05.17/outbox.cif.g08.bks.cpg/sg53_4_cif.got.tgz:6303.got - 2010.06.03 12:45:16.
