data_PCOD9418332
_publ_section_title
;
Structure prediction by ZEFSAII (Michael W. Deem and Ramdas Pophale) SiO2 
 PCOD9418332
Probable space group: P M N A
;
_chemical_formula_sum "Si O2"
_cell_formula_units_Z 32
_cell_length_a 20.602185
_cell_length_b 7.705816
_cell_length_c 9.596299
_cell_angle_alpha 90.000000
_cell_angle_beta 90.000000
_cell_angle_gamma 90.000000
_cell_volume 1523.476251
_symmetry_space_group_name_H-M "P M N A"
_symmetry_group_IT_number 53
_symmetry_cell_setting 'orthorhombic'
loop_
_space_group_symop_operation_xyz
x,y,z
1/2-x,-y,1/2+z
x,-y,-z
1/2-x,y,1/2-z
-x,-y,-z
1/2+x,y,1/2-z
-x,y,z
1/2+x,-y,1/2+z
loop_
_atom_site_type_symbol
_atom_site_label
_atom_site_fract_x
_atom_site_fract_y
_atom_site_fract_z
Si Si1 0.426487 0.196396 0.556423
Si Si2 0.190668 0.226314 0.395982
Si Si3 0.676037 0.642335 0.613263
Si Si4 0.324369 0.837461 0.199724
O O1 0.500000 0.243378 0.592535
O O2 0.395722 0.307241 0.431807
O O3 0.375990 0.214825 0.683411
O O4 0.425621 0.000000 0.500000
O O5 0.269024 0.210523 0.410240
O O6 0.178674 0.375259 0.280433
O O7 0.164803 0.252815 0.550375
O O8 0.166954 0.043094 0.334329
O O9 0.697070 0.500000 0.500000
O O10 0.250000 0.808588 0.250000
#
# Coordination Sequence:
#
# PCOD9418332 Si02
#       4
#     8   8   8   8
#     4  11  22  39  62  91 124 166 211 257 321 384
#     4  10  21  35  60  94 121 155 212 260 319 363
#     4  11  22  37  58  89 128 163 203 258 316 385
#     4  11  18  35  66  92 120 153 208 277 309 354
#
# _framework density 21.004591999999999
#
# number of rings (size 3 to 8) (size 9 to 14) (size 15 to 20)
#    0.000    1.250    7.500    0.000    0.000    4.500 
#    0.000    3.750    0.000    1.500    0.000    0.000 
#    0.000    0.000    0.000    0.000    0.000    0.000 
#
# Total GULP energy -178510.783166 kJ/mol
# GULP energy per Si atom -5578.461974 kJ/mol
# Density = 2.095678 g / cm^3
# Si number density = 21.004592 Si / 1000 Ang^3
#
#
#
# Elastic Constant Matrix: (Units=GPa)
#
#
# Indices 1 2 3 4 5 6 
#
# 1 140.9660 4.5747 67.6868 0.0000 0.0000 0.0000
# 2 4.5747 34.7765 29.7268 0.0000 0.0000 0.0000
# 3 67.6868 29.7268 201.1984 0.0000 0.0000 0.0000
# 4 0.0000 0.0000 0.0000 39.4515 0.0000 0.0000
# 5 0.0000 0.0000 0.0000 0.0000 28.3225 0.0000
# 6 0.0000 0.0000 0.0000 0.0000 0.0000 3.1396
#
#
#
# Elastic Compliance Matrix: (Units=1/GPa)
#
#
# Indices 1 2 3 4 5 6 
#
# 1 0.008531 0.001523 -0.003095 0.000000 0.000000 0.000000
# 2 0.001523 0.033184 -0.005415 0.000000 0.000000 0.000000
# 3 -0.003095 -0.005415 0.006812 0.000000 0.000000 0.000000
# 4 0.000000 0.000000 0.000000 0.025348 0.000000 0.000000
# 5 0.000000 0.000000 0.000000 0.000000 0.035308 0.000000
# 6 0.000000 0.000000 0.000000 0.000000 0.000000 0.318507
#
#
# Mechanical properties :
#
#
# Convention : Reuss Voigt Hill
#
# Bulk Modulus (GPa) = 28.94193 64.54640 46.74417
# Shear Modulus (GPa) = 11.03316 32.51289 21.77303
#
# Velocity S-wave (km/s) = 2.29437 3.93860 3.22310
# Velocity P-wave (km/s) = 4.56373 7.17494 6.01279
#
# Compressibility (1/GPa) = 0.03455194
#
# Stress axis : x y z
#
# Youngs Moduli (GPa) = 117.22597 30.13530 146.81037
#
# Poissons Ratio (x) = -0.04591 0.45436
# Poissons Ratio (y) = -0.17858 0.79503
# Poissons Ratio (z) = 0.36280 0.16319
#
# Static dielectric constant tensor:
#      x y z
#    x 1.713320 0.000000 0.000000 
#    y 0.000000 1.856130 0.000000 
#    z 0.000000 0.000000 1.809740 
# 
# From -- ./inp_files/10438.got.cif
#   From: 2010.05.17/outbox.cif.g08.bks.cpg/sg53_6_cif.got.tgz:10438.got - 2010.06.03 12:45:16.
