data_PCOD9418176
_publ_section_title
;
Structure prediction by ZEFSAII (Michael W. Deem and Ramdas Pophale) SiO2 
 PCOD9418176
Probable space group: P M N A
;
_chemical_formula_sum "Si O2"
_cell_formula_units_Z 56
_cell_length_a 8.023433
_cell_length_b 16.912441
_cell_length_c 19.692748
_cell_angle_alpha 90.000000
_cell_angle_beta 90.000000
_cell_angle_gamma 90.000000
_cell_volume 2672.223927
_symmetry_space_group_name_H-M "P M N A"
_symmetry_group_IT_number 53
_symmetry_cell_setting 'orthorhombic'
loop_
_space_group_symop_operation_xyz
x,y,z
1/2-x,-y,1/2+z
x,-y,-z
1/2-x,y,1/2-z
-x,-y,-z
1/2+x,y,1/2-z
-x,y,z
1/2+x,-y,1/2+z
loop_
_atom_site_type_symbol
_atom_site_label
_atom_site_fract_x
_atom_site_fract_y
_atom_site_fract_z
Si Si1 0.803859 0.165007 0.914120
Si Si2 0.200464 0.510842 0.172941
Si Si3 0.298915 0.687061 0.328075
Si Si4 0.700593 0.148581 0.171285
Si Si5 0.803989 0.005357 0.423224
Si Si6 0.197571 0.753163 0.546778
Si Si7 0.798522 0.576103 0.956031
O O1 0.736697 0.240507 0.872790
O O2 0.716886 0.083216 0.895709
O O3 0.000000 0.156203 0.900433
O O4 0.778145 0.187578 0.992679
O O5 0.250000 0.496177 0.250000
O O6 0.260492 0.598958 0.152381
O O7 0.257451 0.445431 0.120137
O O8 0.000000 0.512772 0.169392
O O9 0.250000 0.698494 0.250000
O O10 0.500000 0.686163 0.333993
O O11 0.750000 0.151812 0.250000
O O12 0.500000 0.146333 0.171765
O O13 0.751902 0.222267 0.122934
O O14 0.761918 0.070920 0.129373
O O15 0.000000 0.024181 0.431444
O O16 0.730771 0.000000 0.500000
O O17 0.238240 0.663367 0.526811
O O18 0.000000 0.764609 0.542474
O O19 0.000000 0.578707 0.960463
O O20 0.745286 0.500000 0.000000
#
# Coordination Sequence:
#
# PCOD9418176 Si02
#       7
#     8   8   8   8   8   8   8
#     4  11  22  36  59  89 118 150 195 241 287 347
#     4   9  18  34  55  76 106 147 186 228 284 343
#     4   9  19  35  54  80 114 150 188 234 286 342
#     4  10  23  42  63  87 119 158 198 246 298 352
#     4  10  20  40  63  83 116 155 192 237 293 348
#     4  11  23  40  60  85 117 156 198 242 296 352
#     4  10  21  38  59  84 116 151 192 245 299 347
#
# _framework density 20.956327999999999
#
# number of rings (size 3 to 8) (size 9 to 14) (size 15 to 20)
#    0.000    2.000    1.429    1.714    0.000    7.429 
#    0.000    8.571    0.000    0.000    0.000    0.000 
#    0.000    0.000    0.000    0.000    0.000    0.000 
#
# Total GULP energy -312567.755135 kJ/mol
# GULP energy per Si atom -5581.567056 kJ/mol
# Density = 2.090863 g / cm^3
# Si number density = 20.956328 Si / 1000 Ang^3
#
#
#
# Elastic Constant Matrix: (Units=GPa)
#
#
# Indices 1 2 3 4 5 6 
#
# 1 12.4773 1.7212 -2.0263 0.0000 0.0000 0.0000
# 2 1.7212 98.5970 26.6136 0.0000 0.0000 0.0000
# 3 -2.0263 26.6136 60.6624 0.0000 0.0000 0.0000
# 4 0.0000 0.0000 0.0000 34.0407 0.0000 0.0000
# 5 0.0000 0.0000 0.0000 0.0000 -536.0244 0.0000
# 6 0.0000 0.0000 0.0000 0.0000 0.0000 27.1851
#
#
#
# Elastic Compliance Matrix: (Units=1/GPa)
#
#
# Indices 1 2 3 4 5 6 
#
# 1 0.081095 -0.002435 0.003777 0.000000 0.000000 0.000000
# 2 -0.002435 0.011578 -0.005161 0.000000 0.000000 0.000000
# 3 0.003777 -0.005161 0.018875 0.000000 0.000000 0.000000
# 4 0.000000 0.000000 0.000000 0.029377 0.000000 0.000000
# 5 0.000000 0.000000 0.000000 0.000000 -0.001866 0.000000
# 6 0.000000 0.000000 0.000000 0.000000 0.000000 0.036785
#
#
# Mechanical properties :
#
#
# Convention : Reuss Voigt Hill
#
# Bulk Modulus (GPa) = 9.62371 24.92820 17.27595
# Shear Modulus (GPa) = 22.92341 -85.26451 -31.17055
#
# Velocity S-wave (km/s) = 3.31095 -6.38554 -3.86087
# Velocity P-wave (km/s) = 4.38392 6.51503 3.40785
#
# Compressibility (1/GPa) = 0.10390998
#
# Stress axis : x y z
#
# Youngs Moduli (GPa) = 12.33125 86.37215 52.98030
#
# Poissons Ratio (x) = 0.21034 -0.20012
# Poissons Ratio (y) = 0.03003 0.27342
# Poissons Ratio (z) = -0.04658 0.44574
#
# Static dielectric constant tensor:
#      x y z
#    x 1.750990 0.000000 0.000000 
#    y 0.000000 1.751770 0.000000 
#    z 0.000000 0.000000 1.763930 
# 
# From -- ./inp_files/30765.got.cif
#   From: 2010.05.17/outbox.cif.g08.bks.cpg/sg53_16_cif.got.tgz:30765.got - 2010.06.03 12:45:16.
