data_PCOD9418217
_publ_section_title
;
Structure prediction by ZEFSAII (Michael W. Deem and Ramdas Pophale) SiO2 
 PCOD9418217
Probable space group: P M N A
;
_chemical_formula_sum "Si O2"
_cell_formula_units_Z 48
_cell_length_a 19.376116
_cell_length_b 14.389208
_cell_length_c 8.141015
_cell_angle_alpha 90.000000
_cell_angle_beta 90.000000
_cell_angle_gamma 90.000000
_cell_volume 2269.771671
_symmetry_space_group_name_H-M "P M N A"
_symmetry_group_IT_number 53
_symmetry_cell_setting 'orthorhombic'
loop_
_space_group_symop_operation_xyz
x,y,z
1/2-x,-y,1/2+z
x,-y,-z
1/2-x,y,1/2-z
-x,-y,-z
1/2+x,y,1/2-z
-x,y,z
1/2+x,-y,1/2+z
loop_
_atom_site_type_symbol
_atom_site_label
_atom_site_fract_x
_atom_site_fract_y
_atom_site_fract_z
Si Si1 0.172466 0.391509 0.211206
Si Si2 0.312358 0.925415 0.363971
Si Si3 0.326399 0.603837 0.316146
Si Si4 0.421765 0.243629 0.101083
Si Si5 0.082379 0.775689 0.224643
Si Si6 0.573210 0.037874 0.185315
O O1 0.250000 0.362758 0.250000
O O2 0.162764 0.500294 0.255537
O O3 0.124043 0.321677 0.312039
O O4 0.170375 0.393293 0.013730
O O5 0.250000 0.891253 0.250000
O O6 0.365714 0.838096 0.388099
O O7 0.285396 0.000000 0.500000
O O8 0.361843 0.993141 0.265167
O O9 0.250000 0.633675 0.250000
O O10 0.389333 0.670976 0.274724
O O11 0.500000 0.279619 0.090717
O O12 0.421657 0.148166 0.201836
O O13 0.405143 0.204264 0.918465
O O14 0.000000 0.783846 0.188196
O O15 0.500000 0.007565 0.262208
O O16 0.570855 0.000000 0.000000
#
# Coordination Sequence:
#
# PCOD9418217 Si02
#       6
#     8   8   8   8   8   8
#     4  10  22  40  66  94 126 172 215 261 328 389
#     4  12  27  43  64  95 128 168 216 268 322 382
#     4  10  22  42  64  94 132 167 212 271 322 382
#     4  10  22  39  64  93 124 168 216 260 317 385
#     4  11  24  43  66  93 128 170 212 266 328 387
#     4  10  20  41  66  89 126 169 210 261 317 380
#
# _framework density 21.147503
#
# number of rings (size 3 to 8) (size 9 to 14) (size 15 to 20)
#    0.000    1.500    1.667    2.500    2.333    5.333 
#    0.000    3.333    0.000    0.000    0.000    0.000 
#    0.000    0.000    0.000    0.000    0.000    0.000 
#
# Total GULP energy -267335.615498 kJ/mol
# GULP energy per Si atom -5569.491990 kJ/mol
# Density = 2.109937 g / cm^3
# Si number density = 21.147503 Si / 1000 Ang^3
#
#
#
# Elastic Constant Matrix: (Units=GPa)
#
#
# Indices 1 2 3 4 5 6 
#
# 1 84.2008 48.1719 3.1070 0.0000 0.0000 0.0000
# 2 48.1719 91.9126 6.6269 0.0000 0.0000 0.0000
# 3 3.1070 6.6269 20.7233 0.0000 0.0000 0.0000
# 4 0.0000 0.0000 0.0000 22.9137 0.0000 0.0000
# 5 0.0000 0.0000 0.0000 0.0000 28.3496 0.0000
# 6 0.0000 0.0000 0.0000 0.0000 0.0000 39.2247
#
#
#
# Elastic Compliance Matrix: (Units=1/GPa)
#
#
# Indices 1 2 3 4 5 6 
#
# 1 0.016964 -0.008913 0.000307 0.000000 0.000000 0.000000
# 2 -0.008913 0.015820 -0.003723 0.000000 0.000000 0.000000
# 3 0.000307 -0.003723 0.049399 0.000000 0.000000 0.000000
# 4 0.000000 0.000000 0.000000 0.043642 0.000000 0.000000
# 5 0.000000 0.000000 0.000000 0.000000 0.035274 0.000000
# 6 0.000000 0.000000 0.000000 0.000000 0.000000 0.025494
#
#
# Mechanical properties :
#
#
# Convention : Reuss Voigt Hill
#
# Bulk Modulus (GPa) = 17.38357 34.73871 26.06114
# Shear Modulus (GPa) = 21.69890 27.35967 24.52929
#
# Velocity S-wave (km/s) = 3.20671 3.60078 3.40945
# Velocity P-wave (km/s) = 4.68494 5.80948 5.27725
#
# Compressibility (1/GPa) = 0.05752557
#
# Stress axis : x y z
#
# Youngs Moduli (GPa) = 58.94699 63.21195 20.24322
#
# Poissons Ratio (x) = 0.56342 -0.00621
# Poissons Ratio (y) = 0.52541 0.07536
# Poissons Ratio (z) = -0.01809 0.23531
#
# Static dielectric constant tensor:
#      x y z
#    x 2.554710 0.000000 0.000000 
#    y 0.000000 2.039270 0.000000 
#    z 0.000000 0.000000 1.752110 
# 
# From -- ./inp_files/10012.got.cif
#   From: 2010.05.17/outbox.cif.g08.bks.cpg/sg53_6_cif.got.tgz:10012.got - 2010.06.03 12:45:16.
