data_PCOD9418218
_publ_section_title
;
Structure prediction by ZEFSAII (Michael W. Deem and Ramdas Pophale) SiO2 
 PCOD9418218
Probable space group: P M N A
;
_chemical_formula_sum "Si O2"
_cell_formula_units_Z 40
_cell_length_a 8.804796
_cell_length_b 12.559300
_cell_length_c 18.330719
_cell_angle_alpha 90.000000
_cell_angle_beta 90.000000
_cell_angle_gamma 90.000000
_cell_volume 2027.048932
_symmetry_space_group_name_H-M "P M N A"
_symmetry_group_IT_number 53
_symmetry_cell_setting 'orthorhombic'
loop_
_space_group_symop_operation_xyz
x,y,z
1/2-x,-y,1/2+z
x,-y,-z
1/2-x,y,1/2-z
-x,-y,-z
1/2+x,y,1/2-z
-x,y,z
1/2+x,-y,1/2+z
loop_
_atom_site_type_symbol
_atom_site_label
_atom_site_fract_x
_atom_site_fract_y
_atom_site_fract_z
Si Si1 0.318620 0.714232 0.907459
Si Si2 0.819308 0.846231 0.169974
Si Si3 0.180045 0.524671 0.828099
Si Si4 0.818442 0.035747 0.416924
Si Si5 0.682005 0.657125 0.073696
O O1 0.500000 0.701174 0.895999
O O2 0.229624 0.643872 0.849341
O O3 0.284619 0.839763 0.906454
O O4 0.282409 0.670679 0.988391
O O5 0.750000 0.832254 0.250000
O O6 0.747535 0.758225 0.116703
O O7 0.000000 0.834431 0.172261
O O8 0.771818 0.960543 0.137846
O O9 0.250000 0.494929 0.750000
O O10 0.248140 0.447047 0.889515
O O11 0.000000 0.514142 0.825530
O O12 0.000000 0.020034 0.406163
O O13 0.784708 0.000000 0.500000
O O14 0.500000 0.654691 0.080926
#
# Coordination Sequence:
#
# PCOD9418218 Si02
#       5
#     8   8   8   8   8
#     4  10  22  41  68  95 125 166 209 255 312 379
#     4  12  25  40  62  94 130 168 212 262 317 372
#     4  12  26  43  63  91 128 167 211 262 316 374
#     4  10  20  41  67  93 125 166 209 253 311 374
#     4  11  22  42  68  94 126 165 209 258 318 379
#
# _framework density 19.733121000000001
#
# number of rings (size 3 to 8) (size 9 to 14) (size 15 to 20)
#    0.000    1.000    2.000    5.400    0.000    6.000 
#    0.000    0.000    0.000    0.000    0.000    0.000 
#    0.000    0.000    0.000    0.000    0.000    0.000 
#
# Total GULP energy -223877.824521 kJ/mol
# GULP energy per Si atom -5596.945613 kJ/mol
# Density = 1.968821 g / cm^3
# Si number density = 19.733121 Si / 1000 Ang^3
#
#
#
# Elastic Constant Matrix: (Units=GPa)
#
#
# Indices 1 2 3 4 5 6 
#
# 1 70.4732 25.7105 25.7243 0.0000 0.0000 0.0000
# 2 25.7105 80.8878 1.7261 0.0000 0.0000 0.0000
# 3 25.7243 1.7261 44.8883 0.0000 0.0000 0.0000
# 4 0.0000 0.0000 0.0000 -72.4228 0.0000 0.0000
# 5 0.0000 0.0000 0.0000 0.0000 43.2042 0.0000
# 6 0.0000 0.0000 0.0000 0.0000 0.0000 36.9546
#
#
#
# Elastic Compliance Matrix: (Units=1/GPa)
#
#
# Indices 1 2 3 4 5 6 
#
# 1 0.020760 -0.006350 -0.011653 0.000000 0.000000 0.000000
# 2 -0.006350 0.014315 0.003089 0.000000 0.000000 0.000000
# 3 -0.011653 0.003089 0.028837 0.000000 0.000000 0.000000
# 4 0.000000 0.000000 0.000000 -0.013808 0.000000 0.000000
# 5 0.000000 0.000000 0.000000 0.000000 0.023146 0.000000
# 6 0.000000 0.000000 0.000000 0.000000 0.000000 0.027060
#
#
# Mechanical properties :
#
#
# Convention : Reuss Voigt Hill
#
# Bulk Modulus (GPa) = 29.33979 33.61901 31.47940
# Shear Modulus (GPa) = 35.33572 11.08641 23.21106
#
# Velocity S-wave (km/s) = 4.23623 2.37284 3.43337
# Velocity P-wave (km/s) = 6.23122 4.95792 5.63068
#
# Compressibility (1/GPa) = 0.03408340
#
# Stress axis : x y z
#
# Youngs Moduli (GPa) = 48.16965 69.85558 34.67805
#
# Poissons Ratio (x) = 0.44358 0.40410
# Poissons Ratio (y) = 0.30588 -0.10710
# Poissons Ratio (z) = 0.56131 -0.21575
#
# Static dielectric constant tensor:
#      x y z
#    x 1.654640 0.000000 0.000000 
#    y 0.000000 1.695610 0.000000 
#    z 0.000000 0.000000 1.664640 
# 
# From -- ./inp_files/25814.got.cif
#   From: 2010.05.17/outbox.cif.g08.bks.cpg/sg53_13_cif.got.tgz:25814.got - 2010.06.03 12:45:16.
