data_PCOD9418833
_publ_section_title
;
Structure prediction by ZEFSAII (Michael W. Deem and Ramdas Pophale) SiO2 
 PCOD9418833
Probable space group: P M N A
;
_chemical_formula_sum "Si O2"
_cell_formula_units_Z 64
_cell_length_a 13.876857
_cell_length_b 24.435533
_cell_length_c 8.781952
_cell_angle_alpha 90.000000
_cell_angle_beta 90.000000
_cell_angle_gamma 90.000000
_cell_volume 2977.858028
_symmetry_space_group_name_H-M "P M N A"
_symmetry_group_IT_number 53
_symmetry_cell_setting 'orthorhombic'
loop_
_space_group_symop_operation_xyz
x,y,z
1/2-x,-y,1/2+z
x,-y,-z
1/2-x,y,1/2-z
-x,-y,-z
1/2+x,y,1/2-z
-x,y,z
1/2+x,-y,1/2+z
loop_
_atom_site_type_symbol
_atom_site_label
_atom_site_fract_x
_atom_site_fract_y
_atom_site_fract_z
Si Si1 0.615558 0.386819 0.386557
Si Si2 0.728290 0.944327 0.571558
Si Si3 0.882539 0.243975 0.629793
Si Si4 0.885371 0.161308 0.141725
Si Si5 0.385914 0.131823 0.006110
Si Si6 0.383079 0.269830 0.527386
Si Si7 0.115451 0.649666 0.542770
Si Si8 0.227094 0.447091 0.576300
O O1 0.500000 0.397009 0.398639
O O2 0.641133 0.329601 0.467877
O O3 0.679670 0.431996 0.471949
O O4 0.638983 0.374112 0.209874
O O5 0.750000 0.953428 0.750000
O O6 0.659650 0.891546 0.561414
O O7 0.826031 0.923575 0.490320
O O8 0.690703 0.000000 0.500000
O O9 0.852808 0.181835 0.598889
O O10 0.854149 0.262114 0.798242
O O11 0.852598 0.289048 0.504060
O O12 0.000000 0.242824 0.623782
O O13 0.867456 0.153677 0.321530
O O14 0.000000 0.160045 0.120920
O O15 0.849507 0.218962 0.075628
O O16 0.500000 0.122899 0.988496
O O17 0.500000 0.267933 0.522394
O O18 0.159797 0.606137 0.427490
O O19 0.000000 0.650164 0.533382
O O20 0.179131 0.500000 0.500000
O O21 0.250000 0.459652 0.750000
#
# Coordination Sequence:
#
# PCOD9418833 Si02
#       8
#     8   8   8   8   8   8   8   8
#     4  10  21  39  63  89 119 155 192 233 284 341
#     4  10  22  37  52  73 100 133 177 223 265 318
#     4   9  17  31  54  85 116 144 179 224 275 331
#     4   9  18  34  54  75 103 139 175 215 267 324
#     4   9  18  34  54  75 103 139 175 215 267 324
#     4   9  17  31  54  85 116 144 179 224 275 331
#     4  10  21  39  63  89 119 155 192 233 284 341
#     4  12  26  43  62  85 116 153 197 245 287 336
#
# _framework density 21.491958
#
# number of rings (size 3 to 8) (size 9 to 14) (size 15 to 20)
#    0.000    2.250    0.000    2.625    0.000    7.500 
#    0.000    3.750    0.000    0.000    0.000    0.000 
#    0.000    0.000    0.000    0.000    0.000    0.000 
#
# Total GULP energy -357638.695949 kJ/mol
# GULP energy per Si atom -5588.104624 kJ/mol
# Density = 2.144304 g / cm^3
# Si number density = 21.491958 Si / 1000 Ang^3
#
#
#
# Elastic Constant Matrix: (Units=GPa)
#
#
# Indices 1 2 3 4 5 6 
#
# 1 28.7333 -12.0918 -9.3651 0.0000 0.0000 0.0000
# 2 -12.0918 82.6145 5.8820 0.0000 0.0000 0.0000
# 3 -9.3651 5.8820 51.0189 0.0000 0.0000 0.0000
# 4 0.0000 0.0000 0.0000 36.8155 0.0000 0.0000
# 5 0.0000 0.0000 0.0000 0.0000 14.1079 0.0000
# 6 0.0000 0.0000 0.0000 0.0000 0.0000 24.5173
#
#
#
# Elastic Compliance Matrix: (Units=1/GPa)
#
#
# Indices 1 2 3 4 5 6 
#
# 1 0.039163 0.005263 0.006582 0.000000 0.000000 0.000000
# 2 0.005263 0.012912 -0.000522 0.000000 0.000000 0.000000
# 3 0.006582 -0.000522 0.020869 0.000000 0.000000 0.000000
# 4 0.000000 0.000000 0.000000 0.027162 0.000000 0.000000
# 5 0.000000 0.000000 0.000000 0.000000 0.070882 0.000000
# 6 0.000000 0.000000 0.000000 0.000000 0.000000 0.040788
#
#
# Mechanical properties :
#
#
# Convention : Reuss Voigt Hill
#
# Bulk Modulus (GPa) = 10.46134 14.57966 12.52050
# Shear Modulus (GPa) = 22.62505 26.95088 24.78796
#
# Velocity S-wave (km/s) = 3.24809 3.54503 3.39980
# Velocity P-wave (km/s) = 4.35257 4.85333 4.60975
#
# Compressibility (1/GPa) = 0.09559006
#
# Stress axis : x y z
#
# Youngs Moduli (GPa) = 25.53421 77.44736 47.91792
#
# Poissons Ratio (x) = -0.40764 -0.31539
# Poissons Ratio (y) = -0.13440 0.02504
# Poissons Ratio (z) = -0.16807 0.04046
#
# Static dielectric constant tensor:
#      x y z
#    x 1.831020 0.000000 0.000000 
#    y 0.000000 1.720680 0.000000 
#    z 0.000000 0.000000 1.809360 
# 
# From -- ./inp_files/8916.got.cif
#   From: 2010.05.17/outbox.cif.g08.bks.cpg/sg53_5_cif.got.tgz:8916.got - 2010.06.03 12:45:16.
