data_PCOD9418004
_publ_section_title
;
Structure prediction by ZEFSAII (Michael W. Deem and Ramdas Pophale) SiO2 
 PCOD9418004
Probable space group: P M N A
;
_chemical_formula_sum "Si O2"
_cell_formula_units_Z 48
_cell_length_a 8.791734
_cell_length_b 15.313279
_cell_length_c 19.711396
_cell_angle_alpha 90.000000
_cell_angle_beta 90.000000
_cell_angle_gamma 90.000000
_cell_volume 2653.750677
_symmetry_space_group_name_H-M "P M N A"
_symmetry_group_IT_number 53
_symmetry_cell_setting 'orthorhombic'
loop_
_space_group_symop_operation_xyz
x,y,z
1/2-x,-y,1/2+z
x,-y,-z
1/2-x,y,1/2-z
-x,-y,-z
1/2+x,y,1/2-z
-x,y,z
1/2+x,-y,1/2+z
loop_
_atom_site_type_symbol
_atom_site_label
_atom_site_fract_x
_atom_site_fract_y
_atom_site_fract_z
Si Si1 0.817241 0.135284 0.824068
Si Si2 0.682995 0.608285 0.675016
Si Si3 0.816833 0.455700 0.927392
Si Si4 0.182741 0.066172 0.176558
Si Si5 0.315915 0.225496 0.417204
Si Si6 0.681160 0.735701 0.064317
O O1 0.750000 0.156036 0.750000
O O2 0.751269 0.199467 0.880154
O O3 0.000000 0.141424 0.822336
O O4 0.775125 0.034039 0.839105
O O5 0.750000 0.609447 0.750000
O O6 0.500000 0.608500 0.679612
O O7 0.727615 0.522862 0.631881
O O8 0.726481 0.693808 0.631707
O O9 0.737432 0.362697 0.921874
O O10 0.000000 0.443411 0.925241
O O11 0.781680 0.500000 0.000000
O O12 0.250000 0.089313 0.250000
O O13 0.229054 0.135768 0.119875
O O14 0.000000 0.069978 0.181672
O O15 0.500000 0.226925 0.425211
O O16 0.241382 0.237728 0.490083
O O17 0.500000 0.739715 0.066446
#
# Coordination Sequence:
#
# PCOD9418004 Si02
#       6
#     8   8   8   8   8   8
#     4  10  21  40  62  86 116 153 195 243 292 348
#     4  10  21  36  59  87 116 150 188 233 287 344
#     4  10  20  40  63  81 110 155 195 234 289 349
#     4   9  19  35  60  87 116 154 195 239 292 345
#     4  10  20  38  59  84 118 157 194 232 285 354
#     4  12  25  38  58  88 117 153 195 245 295 342
#
# _framework density 18.087606999999998
#
# number of rings (size 3 to 8) (size 9 to 14) (size 15 to 20)
#    0.000    1.833    1.667    2.500    0.000    4.333 
#    0.000    5.000    0.000    0.000    0.000    0.000 
#    0.000    0.000    0.000    0.000    0.000    0.000 
#
# Total GULP energy -268156.619431 kJ/mol
# GULP energy per Si atom -5586.596238 kJ/mol
# Density = 1.804644 g / cm^3
# Si number density = 18.087607 Si / 1000 Ang^3
#
#
#
# Elastic Constant Matrix: (Units=GPa)
#
#
# Indices 1 2 3 4 5 6 
#
# 1 50.2575 59.9775 62.8425 0.0000 0.0000 0.0000
# 2 59.9775 154.0682 126.5404 0.0000 0.0000 0.0000
# 3 62.8425 126.5404 190.0695 0.0000 0.0000 0.0000
# 4 0.0000 0.0000 0.0000 38.7142 0.0000 0.0000
# 5 0.0000 0.0000 0.0000 0.0000 36.1110 0.0000
# 6 0.0000 0.0000 0.0000 0.0000 0.0000 14.1675
#
#
#
# Elastic Compliance Matrix: (Units=1/GPa)
#
#
# Indices 1 2 3 4 5 6 
#
# 1 0.040376 -0.010489 -0.006366 0.000000 0.000000 0.000000
# 2 -0.010489 0.017047 -0.007881 0.000000 0.000000 0.000000
# 3 -0.006366 -0.007881 0.012613 0.000000 0.000000 0.000000
# 4 0.000000 0.000000 0.000000 0.025830 0.000000 0.000000
# 5 0.000000 0.000000 0.000000 0.000000 0.027692 0.000000
# 6 0.000000 0.000000 0.000000 0.000000 0.000000 0.070584
#
#
# Mechanical properties :
#
#
# Convention : Reuss Voigt Hill
#
# Bulk Modulus (GPa) = 48.63169 99.23510 73.93340
# Shear Modulus (GPa) = 19.96251 27.46754 23.71503
#
# Velocity S-wave (km/s) = 3.32574 3.90113 3.62487
# Velocity P-wave (km/s) = 6.45697 8.67608 7.64745
#
# Compressibility (1/GPa) = 0.02056272
#
# Stress axis : x y z
#
# Youngs Moduli (GPa) = 24.76737 58.66125 79.28370
#
# Poissons Ratio (x) = 0.61532 0.50472
# Poissons Ratio (y) = 0.25979 0.62484
# Poissons Ratio (z) = 0.15767 0.46232
#
# Static dielectric constant tensor:
#      x y z
#    x 1.606680 0.000000 0.000000 
#    y 0.000000 1.613400 0.000000 
#    z 0.000000 0.000000 1.578790 
# 
# From -- ./inp_files/26180.got.cif
#   From: 2010.05.17/outbox.cif.g08.bks.cpg/sg53_14_cif.got.tgz:26180.got - 2010.06.03 12:45:16.
