data_PCOD9418623
_publ_section_title
;
Structure prediction by ZEFSAII (Michael W. Deem and Ramdas Pophale) SiO2 
 PCOD9418623
Probable space group: P M N A
;
_chemical_formula_sum "Si O2"
_cell_formula_units_Z 64
_cell_length_a 15.384695
_cell_length_b 8.859580
_cell_length_c 23.945501
_cell_angle_alpha 90.000000
_cell_angle_beta 90.000000
_cell_angle_gamma 90.000000
_cell_volume 3263.818148
_symmetry_space_group_name_H-M "P M N A"
_symmetry_group_IT_number 53
_symmetry_cell_setting 'orthorhombic'
loop_
_space_group_symop_operation_xyz
x,y,z
1/2-x,-y,1/2+z
x,-y,-z
1/2-x,y,1/2-z
-x,-y,-z
1/2+x,y,1/2-z
-x,y,z
1/2+x,-y,1/2+z
loop_
_atom_site_type_symbol
_atom_site_label
_atom_site_fract_x
_atom_site_fract_y
_atom_site_fract_z
Si Si1 0.602116 0.391948 0.710067
Si Si2 0.278000 0.120240 0.414364
Si Si3 0.405771 0.504132 0.825834
Si Si4 0.900554 0.157598 0.883906
Si Si5 0.269812 0.323257 0.308771
Si Si6 0.672769 0.339346 0.519248
Si Si7 0.094473 0.961289 0.435447
Si Si8 0.867692 0.392745 0.553087
O O1 0.500000 0.419812 0.696326
O O2 0.606731 0.375721 0.777740
O O3 0.628776 0.250055 0.671629
O O4 0.662325 0.537868 0.698028
O O5 0.294420 0.223964 0.360960
O O6 0.300419 0.219967 0.469950
O O7 0.340354 0.978498 0.404267
O O8 0.179288 0.053185 0.414556
O O9 0.500000 0.573001 0.812789
O O10 0.324324 0.610114 0.820891
O O11 0.403109 0.459462 0.889914
O O12 0.891926 0.270082 0.936025
O O13 0.000000 0.109020 0.875240
O O14 0.250000 0.240935 0.250000
O O15 0.636857 0.500000 0.500000
O O16 0.763131 0.383578 0.549992
O O17 0.105352 0.781195 0.440257
O O18 0.000000 0.997866 0.408692
O O19 0.089848 0.000000 0.500000
O O20 0.893062 0.500000 0.500000
#
# Coordination Sequence:
#
# PCOD9418623 Si02
#       8
#     8   8   8   8   8   8   8   8
#     4   9  20  42  66  89 118 154 205 260 310 365
#     4  12  23  42  59  88 131 157 202 257 309 371
#     4  10  21  37  63  93 121 154 203 257 296 350
#     4  11  23  40  65  91 118 159 202 253 319 373
#     4  10  22  41  63  89 116 163 208 249 305 364
#     4  11  22  39  63  89 122 161 199 253 307 363
#     4  11  23  39  57  84 124 167 195 234 301 366
#     4  11  21  38  61  91 122 161 202 244 295 368
#
# _framework density 19.608936
#
# number of rings (size 3 to 8) (size 9 to 14) (size 15 to 20)
#    0.000    1.375    2.500    3.750    0.000    3.250 
#    2.250    0.000    0.000    0.375    0.000    0.000 
#    0.000    0.000    0.000    0.000    0.000    0.000 
#
# Total GULP energy -356402.160847 kJ/mol
# GULP energy per Si atom -5568.783763 kJ/mol
# Density = 1.956431 g / cm^3
# Si number density = 19.608936 Si / 1000 Ang^3
#
#
#
# Elastic Constant Matrix: (Units=GPa)
#
#
# Indices 1 2 3 4 5 6 
#
# 1 65.6013 19.3857 18.1822 0.0000 0.0000 0.0000
# 2 19.3857 60.9320 30.1726 0.0000 0.0000 0.0000
# 3 18.1822 30.1726 102.8595 0.0000 0.0000 0.0000
# 4 0.0000 0.0000 0.0000 13.9956 0.0000 0.0000
# 5 0.0000 0.0000 0.0000 0.0000 -35.3704 0.0000
# 6 0.0000 0.0000 0.0000 0.0000 0.0000 -22.9408
#
#
#
# Elastic Compliance Matrix: (Units=1/GPa)
#
#
# Indices 1 2 3 4 5 6 
#
# 1 0.017066 -0.004605 -0.001666 0.000000 0.000000 0.000000
# 2 -0.004605 0.020443 -0.005183 0.000000 0.000000 0.000000
# 3 -0.001666 -0.005183 0.011537 0.000000 0.000000 0.000000
# 4 0.000000 0.000000 0.000000 0.071451 0.000000 0.000000
# 5 0.000000 0.000000 0.000000 0.000000 -0.028272 0.000000
# 6 0.000000 0.000000 0.000000 0.000000 0.000000 -0.043591
#
#
# Mechanical properties :
#
#
# Convention : Reuss Voigt Hill
#
# Bulk Modulus (GPa) = 38.25680 40.54153 39.39917
# Shear Modulus (GPa) = 62.30209 1.91371 32.10790
#
# Velocity S-wave (km/s) = 5.64281 0.98897 4.05088
# Velocity P-wave (km/s) = 7.87447 4.69297 6.48195
#
# Compressibility (1/GPa) = 0.02613914
#
# Stress axis : x y z
#
# Youngs Moduli (GPa) = 58.59581 48.91607 86.67906
#
# Poissons Ratio (x) = 0.22524 0.14441
# Poissons Ratio (y) = 0.26981 0.44924
# Poissons Ratio (z) = 0.09762 0.25352
#
# Static dielectric constant tensor:
#      x y z
#    x 1.758700 0.000000 0.000000 
#    y 0.000000 1.671710 0.000000 
#    z 0.000000 0.000000 1.762560 
# 
# From -- ./inp_files/35340.got.cif
#   From: 2010.05.17/outbox.cif.g08.bks.cpg/sg53_18_cif.got.tgz:35340.got - 2010.06.03 12:45:16.
