data_PCOD9418579
_publ_section_title
;
Structure prediction by ZEFSAII (Michael W. Deem and Ramdas Pophale) SiO2 
 PCOD9418579
Probable space group: P M N A
;
_chemical_formula_sum "Si O2"
_cell_formula_units_Z 48
_cell_length_a 14.476059
_cell_length_b 11.113170
_cell_length_c 14.869243
_cell_angle_alpha 90.000000
_cell_angle_beta 90.000000
_cell_angle_gamma 90.000000
_cell_volume 2392.088049
_symmetry_space_group_name_H-M "P M N A"
_symmetry_group_IT_number 53
_symmetry_cell_setting 'orthorhombic'
loop_
_space_group_symop_operation_xyz
x,y,z
1/2-x,-y,1/2+z
x,-y,-z
1/2-x,y,1/2-z
-x,-y,-z
1/2+x,y,1/2-z
-x,y,z
1/2+x,-y,1/2+z
loop_
_atom_site_type_symbol
_atom_site_label
_atom_site_fract_x
_atom_site_fract_y
_atom_site_fract_z
Si Si1 0.607278 0.836329 0.205174
Si Si2 0.148342 0.735351 0.787173
Si Si3 0.710033 0.735433 0.371082
Si Si4 0.599339 0.896259 0.875427
Si Si5 0.103670 0.493247 0.891790
Si Si6 0.297804 0.874847 0.544146
O O1 0.500000 0.797786 0.200549
O O2 0.650164 0.819414 0.304406
O O3 0.682154 0.761880 0.146666
O O4 0.610862 0.974505 0.172959
O O5 0.250000 0.704831 0.750000
O O6 0.099960 0.792970 0.700689
O O7 0.110294 0.619648 0.839492
O O8 0.156819 0.840692 0.861624
O O9 0.678850 0.599665 0.354351
O O10 0.685048 0.771126 0.472074
O O11 0.500000 0.893931 0.922851
O O12 0.687877 0.880399 0.937724
O O13 0.000000 0.444107 0.877089
O O14 0.116233 0.500000 0.000000
O O15 0.327384 0.000000 0.500000
#
# Coordination Sequence:
#
# PCOD9418579 Si02
#       6
#     8   8   8   8   8   8
#     4  10  22  39  62  91 124 159 197 246 309 372
#     4  10  22  38  61  88 119 159 205 251 308 364
#     4  11  22  38  61  86 122 158 202 252 298 355
#     4  10  21  37  59  89 122 156 198 251 309 370
#     4  11  23  41  62  85 116 159 209 254 301 359
#     4  11  20  35  59  88 119 158 198 245 304 367
#
# _framework density 20.06615
#
# number of rings (size 3 to 8) (size 9 to 14) (size 15 to 20)
#    0.000    1.500    3.333    2.000    7.000    1.000 
#    0.000    0.000    0.000    4.500    0.000    0.000 
#    0.000    0.000    0.000    0.000    0.000    0.000 
#
# Total GULP energy -267917.779344 kJ/mol
# GULP energy per Si atom -5581.620403 kJ/mol
# Density = 2.002048 g / cm^3
# Si number density = 20.066150 Si / 1000 Ang^3
#
#
#
# Elastic Constant Matrix: (Units=GPa)
#
#
# Indices 1 2 3 4 5 6 
#
# 1 82.2210 29.5923 -8.9016 0.0000 0.0000 0.0000
# 2 29.5923 97.3813 8.7222 0.0000 0.0000 0.0000
# 3 -8.9016 8.7222 55.9568 0.0000 0.0000 0.0000
# 4 0.0000 0.0000 0.0000 32.3769 0.0000 0.0000
# 5 0.0000 0.0000 0.0000 0.0000 4.6284 0.0000
# 6 0.0000 0.0000 0.0000 0.0000 0.0000 14.1800
#
#
#
# Elastic Compliance Matrix: (Units=1/GPa)
#
#
# Indices 1 2 3 4 5 6 
#
# 1 0.014122 -0.004556 0.002957 0.000000 0.000000 0.000000
# 2 -0.004556 0.011884 -0.002577 0.000000 0.000000 0.000000
# 3 0.002957 -0.002577 0.018743 0.000000 0.000000 0.000000
# 4 0.000000 0.000000 0.000000 0.030886 0.000000 0.000000
# 5 0.000000 0.000000 0.000000 0.000000 0.216056 0.000000
# 6 0.000000 0.000000 0.000000 0.000000 0.000000 0.070522
#
#
# Mechanical properties :
#
#
# Convention : Reuss Voigt Hill
#
# Bulk Modulus (GPa) = 27.47549 32.70941 30.09245
# Shear Modulus (GPa) = 13.06508 23.98014 18.52261
#
# Velocity S-wave (km/s) = 2.55444 3.46071 3.04152
# Velocity P-wave (km/s) = 4.73523 5.68373 5.23102
#
# Compressibility (1/GPa) = 0.03639607
#
# Stress axis : x y z
#
# Youngs Moduli (GPa) = 70.80981 84.14440 53.35316
#
# Poissons Ratio (x) = 0.38339 -0.15775
# Poissons Ratio (y) = 0.32263 0.13751
# Poissons Ratio (z) = -0.20937 0.21686
#
# Static dielectric constant tensor:
#      x y z
#    x 1.715610 0.000000 0.000000 
#    y 0.000000 1.706760 0.000000 
#    z 0.000000 0.000000 1.714580 
# 
# From -- ./inp_files/22638.got.cif
#   From: 2010.05.17/outbox.cif.g08.bks.cpg/sg53_12_cif.got.tgz:22638.got - 2010.06.03 12:45:16.
