data_PCOD9418333
_publ_section_title
;
Structure prediction by ZEFSAII (Michael W. Deem and Ramdas Pophale) SiO2 
 PCOD9418333
Probable space group: P M N A
;
_chemical_formula_sum "Si O2"
_cell_formula_units_Z 32
_cell_length_a 21.011005
_cell_length_b 14.109395
_cell_length_c 5.297409
_cell_angle_alpha 90.000000
_cell_angle_beta 90.000000
_cell_angle_gamma 90.000000
_cell_volume 1570.430507
_symmetry_space_group_name_H-M "P M N A"
_symmetry_group_IT_number 53
_symmetry_cell_setting 'orthorhombic'
loop_
_space_group_symop_operation_xyz
x,y,z
1/2-x,-y,1/2+z
x,-y,-z
1/2-x,y,1/2-z
-x,-y,-z
1/2+x,y,1/2-z
-x,y,z
1/2+x,-y,1/2+z
loop_
_atom_site_type_symbol
_atom_site_label
_atom_site_fract_x
_atom_site_fract_y
_atom_site_fract_z
Si Si1 0.885912 0.765551 0.288776
Si Si2 0.931037 0.143575 0.221170
Si Si3 0.174152 0.560904 0.249695
Si Si4 0.698025 0.898711 0.925434
O O1 0.925503 0.782073 0.546355
O O2 0.863850 0.658805 0.252617
O O3 0.824553 0.832574 0.346203
O O4 0.921485 0.805255 0.044930
O O5 0.868163 0.081469 0.273889
O O6 0.000000 0.095521 0.231642
O O7 0.160292 0.500000 0.500000
O O8 0.250000 0.581546 0.250000
O O9 0.160102 0.500000 0.000000
O O10 0.750000 0.848519 0.750000
O O11 0.724715 0.000000 0.000000
#
# Coordination Sequence:
#
# PCOD9418333 Si02
#       4
#     8   8   8   8
#     4  10  23  39  66  89 129 168 207 263 322 364
#     4  10  23  42  65  92 126 174 220 257 311 381
#     4  10  21  35  60  94 128 161 208 263 321 388
#     4  10  26  39  66  98 132 166 210 264 320 383
#
# _framework density 20.376577999999999
#
# number of rings (size 3 to 8) (size 9 to 14) (size 15 to 20)
#    1.500    0.500    0.000    2.250    7.000    1.500 
#    0.000    1.250    0.000   15.000    0.000    0.000 
#    0.000    0.000    0.000    0.000    0.000    0.000 
#
# Total GULP energy -178417.111866 kJ/mol
# GULP energy per Si atom -5575.534746 kJ/mol
# Density = 2.033020 g / cm^3
# Si number density = 20.376578 Si / 1000 Ang^3
#
#
#
# Elastic Constant Matrix: (Units=GPa)
#
#
# Indices 1 2 3 4 5 6 
#
# 1 71.3488 -8.0412 23.0784 0.0000 0.0000 0.0000
# 2 -8.0412 43.0248 14.0122 0.0000 0.0000 0.0000
# 3 23.0784 14.0122 150.0041 0.0000 0.0000 0.0000
# 4 0.0000 0.0000 0.0000 19.3169 0.0000 0.0000
# 5 0.0000 0.0000 0.0000 0.0000 -9.3089 0.0000
# 6 0.0000 0.0000 0.0000 0.0000 0.0000 17.9394
#
#
#
# Elastic Compliance Matrix: (Units=1/GPa)
#
#
# Indices 1 2 3 4 5 6 
#
# 1 0.015313 0.003743 -0.002706 0.000000 0.000000 0.000000
# 2 0.003743 0.024887 -0.002901 0.000000 0.000000 0.000000
# 3 -0.002706 -0.002901 0.007354 0.000000 0.000000 0.000000
# 4 0.000000 0.000000 0.000000 0.051768 0.000000 0.000000
# 5 0.000000 0.000000 0.000000 0.000000 -0.107424 0.000000
# 6 0.000000 0.000000 0.000000 0.000000 0.000000 0.055743
#
#
# Mechanical properties :
#
#
# Convention : Reuss Voigt Hill
#
# Bulk Modulus (GPa) = 22.81711 35.83071 29.32391
# Shear Modulus (GPa) = 75.78558 21.27803 48.53180
#
# Velocity S-wave (km/s) = 6.10518 3.23498 4.88561
# Velocity P-wave (km/s) = 7.80511 5.61924 6.80057
#
# Compressibility (1/GPa) = 0.04382676
#
# Stress axis : x y z
#
# Youngs Moduli (GPa) = 65.30553 40.18224 135.98622
#
# Poissons Ratio (x) = -0.15040 0.36791
# Poissons Ratio (y) = -0.24444 0.39444
# Poissons Ratio (z) = 0.17669 0.11655
#
# Static dielectric constant tensor:
#      x y z
#    x 1.792540 0.000000 0.000000 
#    y 0.000000 1.656660 0.000000 
#    z 0.000000 0.000000 1.762320 
# 
# From -- ./inp_files/2721.got.cif
#   From: 2010.05.17/outbox.cif.g08.bks.cpg/sg53_2_cif.got.tgz:2721.got - 2010.06.03 12:45:16.
