data_PCOD9418373
_publ_section_title
;
Structure prediction by ZEFSAII (Michael W. Deem and Ramdas Pophale) SiO2 
 PCOD9418373
Probable space group: P M N A
;
_chemical_formula_sum "Si O2"
_cell_formula_units_Z 44
_cell_length_a 15.012096
_cell_length_b 14.833078
_cell_length_c 10.575417
_cell_angle_alpha 90.000000
_cell_angle_beta 90.000000
_cell_angle_gamma 90.000000
_cell_volume 2354.887230
_symmetry_space_group_name_H-M "P M N A"
_symmetry_group_IT_number 53
_symmetry_cell_setting 'orthorhombic'
loop_
_space_group_symop_operation_xyz
x,y,z
1/2-x,-y,1/2+z
x,-y,-z
1/2-x,y,1/2-z
-x,-y,-z
1/2+x,y,1/2-z
-x,y,z
1/2+x,-y,1/2+z
loop_
_atom_site_type_symbol
_atom_site_label
_atom_site_fract_x
_atom_site_fract_y
_atom_site_fract_z
Si Si1 0.248113 0.582108 0.597972
Si Si2 0.101671 0.905014 0.426449
Si Si3 0.896689 0.733106 0.603354
Si Si4 0.750000 0.020301 0.750000
Si Si5 0.102526 0.273101 0.099880
Si Si6 0.400915 0.079653 0.400705
O O1 0.246102 0.500000 0.500000
O O2 0.250000 0.558621 0.750000
O O3 0.164953 0.648350 0.573607
O O4 0.333276 0.645237 0.570015
O O5 0.120048 0.822140 0.521034
O O6 0.183665 0.917218 0.331358
O O7 0.000000 0.892635 0.373548
O O8 0.099948 0.000000 0.500000
O O9 0.882313 0.751377 0.752147
O O10 0.000000 0.709312 0.586323
O O11 0.681209 0.953214 0.681476
O O12 0.117793 0.176344 0.035181
O O13 0.000000 0.299234 0.082194
O O14 0.500000 0.088132 0.337333
O O15 0.408989 0.000000 0.500000
#
# Coordination Sequence:
#
# PCOD9418373 Si02
#       6
#     8   8   8   4   8   8
#     4  10  22  39  62  88 114 143 191 247 301 355
#     4  10  21  36  54  82 117 153 194 236 280 340
#     4   9  19  37  60  83 110 148 193 235 280 342
#     4  12  22  30  54  82 116 156 190 232 282 328
#     4   9  19  36  60  83 110 150 192 235 282 342
#     4  10  22  36  51  79 117 152 189 229 276 335
#
# _framework density 18.684545
#
# number of rings (size 3 to 8) (size 9 to 14) (size 15 to 20)
#    0.000    2.182    0.000    2.182    8.909    3.636 
#    1.636    0.000    0.000    0.000    0.000    0.000 
#    0.000    0.000    0.000    0.000    0.000    0.000 
#
# Total GULP energy -245315.906442 kJ/mol
# GULP energy per Si atom -5575.361510 kJ/mol
# Density = 1.864202 g / cm^3
# Si number density = 18.684545 Si / 1000 Ang^3
#
#
#
# Elastic Constant Matrix: (Units=GPa)
#
#
# Indices 1 2 3 4 5 6 
#
# 1 114.9015 66.8762 46.1581 0.0000 0.0000 0.0000
# 2 66.8762 156.5645 54.3360 0.0000 0.0000 0.0000
# 3 46.1581 54.3360 37.0658 0.0000 0.0000 0.0000
# 4 0.0000 0.0000 0.0000 35.1211 0.0000 0.0000
# 5 0.0000 0.0000 0.0000 0.0000 -2.5210 0.0000
# 6 0.0000 0.0000 0.0000 0.0000 0.0000 45.3263
#
#
#
# Elastic Compliance Matrix: (Units=1/GPa)
#
#
# Indices 1 2 3 4 5 6 
#
# 1 0.017418 0.000179 -0.021952 0.000000 0.000000 0.000000
# 2 0.000179 0.013004 -0.019285 0.000000 0.000000 0.000000
# 3 -0.021952 -0.019285 0.082587 0.000000 0.000000 0.000000
# 4 0.000000 0.000000 0.000000 0.028473 0.000000 0.000000
# 5 0.000000 0.000000 0.000000 0.000000 -0.396671 0.000000
# 6 0.000000 0.000000 0.000000 0.000000 0.000000 0.022062
#
#
# Mechanical properties :
#
#
# Convention : Reuss Voigt Hill
#
# Bulk Modulus (GPa) = 32.37185 71.47471 51.92328
# Shear Modulus (GPa) = -35.53347 24.99604 -5.26871
#
# Velocity S-wave (km/s) = -4.36565 3.66155 -1.68106
# Velocity P-wave (km/s) = 2.83703 7.49749 4.90732
#
# Compressibility (1/GPa) = 0.03089104
#
# Stress axis : x y z
#
# Youngs Moduli (GPa) = 57.41259 76.90057 12.10845
#
# Poissons Ratio (x) = -0.01373 0.26581
# Poissons Ratio (y) = -0.01025 0.23351
# Poissons Ratio (z) = 1.26033 1.48304
#
# Static dielectric constant tensor:
#      x y z
#    x 1.714520 0.000000 0.000000 
#    y 0.000000 1.638220 0.000000 
#    z 0.000000 0.000000 1.698630 
# 
# From -- ./inp_files/15890.got.cif
#   From: 2010.05.17/outbox.cif.g08.bks.cpg/sg53_8_cif.got.tgz:15890.got - 2010.06.03 12:45:16.
