data_PCOD9418095
_publ_section_title
;
Structure prediction by ZEFSAII (Michael W. Deem and Ramdas Pophale) SiO2 
 PCOD9418095
Probable space group: P M N A
;
_chemical_formula_sum "Si O2"
_cell_formula_units_Z 56
_cell_length_a 21.841245
_cell_length_b 8.189349
_cell_length_c 14.638225
_cell_angle_alpha 90.000000
_cell_angle_beta 90.000000
_cell_angle_gamma 90.000000
_cell_volume 2618.274574
_symmetry_space_group_name_H-M "P M N A"
_symmetry_group_IT_number 53
_symmetry_cell_setting 'orthorhombic'
loop_
_space_group_symop_operation_xyz
x,y,z
1/2-x,-y,1/2+z
x,-y,-z
1/2-x,y,1/2-z
-x,-y,-z
1/2+x,y,1/2-z
-x,y,z
1/2+x,-y,1/2+z
loop_
_atom_site_type_symbol
_atom_site_label
_atom_site_fract_x
_atom_site_fract_y
_atom_site_fract_z
Si Si1 0.868470 0.362387 0.252868
Si Si2 0.325704 0.362650 0.437261
Si Si3 0.772620 0.142978 0.348287
Si Si4 0.382164 0.925656 0.092615
Si Si5 0.069772 0.416147 0.598993
Si Si6 0.570867 0.822961 0.451015
Si Si7 0.070237 0.020899 0.215566
O O1 0.844341 0.443390 0.160126
O O2 0.814169 0.298191 0.318131
O O3 0.912852 0.465388 0.317278
O O4 0.897772 0.196175 0.211481
O O5 0.294977 0.500000 0.500000
O O6 0.281394 0.212267 0.410628
O O7 0.383943 0.295449 0.494354
O O8 0.750000 0.077068 0.250000
O O9 0.816574 0.010936 0.393606
O O10 0.382844 0.731957 0.091937
O O11 0.422022 0.973652 0.179772
O O12 0.408933 0.000000 0.000000
O O13 0.070819 0.500000 0.500000
O O14 0.000000 0.355784 0.613315
O O15 0.500000 0.763096 0.448416
O O16 0.570865 0.000000 0.500000
O O17 0.593403 0.875174 0.349560
O O18 0.000000 0.043176 0.189402
#
# Coordination Sequence:
#
# PCOD9418095 Si02
#       7
#     8   8   8   8   8   8   8
#     4  10  21  41  66  91 132 170 217 275 332 395
#     4  11  24  41  67  97 133 176 225 275 338 401
#     4   9  22  46  66  89 123 173 228 277 326 382
#     4  11  24  42  65  95 127 168 223 281 327 397
#     4  11  24  41  66  98 135 172 210 267 349 415
#     4  10  21  39  63  96 134 176 221 265 321 396
#     4  10  20  38  66  94 130 174 219 267 319 391
#
# _framework density 21.388131999999999
#
# number of rings (size 3 to 8) (size 9 to 14) (size 15 to 20)
#    0.000    1.714    1.429    2.571    2.000    5.429 
#    0.000    2.143    0.000    0.000    0.000    0.000 
#    0.000    0.000    0.000    0.000    0.000    0.000 
#
# Total GULP energy -312624.040473 kJ/mol
# GULP energy per Si atom -5582.572151 kJ/mol
# Density = 2.133945 g / cm^3
# Si number density = 21.388132 Si / 1000 Ang^3
#
#
#
# Elastic Constant Matrix: (Units=GPa)
#
#
# Indices 1 2 3 4 5 6 
#
# 1 80.7210 35.9523 42.9320 0.0000 0.0000 0.0000
# 2 35.9523 66.3203 39.8129 0.0000 0.0000 0.0000
# 3 42.9320 39.8129 131.8346 0.0000 0.0000 0.0000
# 4 0.0000 0.0000 0.0000 32.3661 0.0000 0.0000
# 5 0.0000 0.0000 0.0000 0.0000 -9.4712 0.0000
# 6 0.0000 0.0000 0.0000 0.0000 0.0000 19.9874
#
#
#
# Elastic Compliance Matrix: (Units=1/GPa)
#
#
# Indices 1 2 3 4 5 6 
#
# 1 0.017541 -0.007426 -0.003470 0.000000 0.000000 0.000000
# 2 -0.007426 0.021561 -0.004093 0.000000 0.000000 0.000000
# 3 -0.003470 -0.004093 0.009951 0.000000 0.000000 0.000000
# 4 0.000000 0.000000 0.000000 0.030896 0.000000 0.000000
# 5 0.000000 0.000000 0.000000 0.000000 -0.105584 0.000000
# 6 0.000000 0.000000 0.000000 0.000000 0.000000 0.050032
#
#
# Mechanical properties :
#
#
# Convention : Reuss Voigt Hill
#
# Bulk Modulus (GPa) = 52.42206 57.36337 54.89272
# Shear Modulus (GPa) = 82.32561 19.25504 50.79033
#
# Velocity S-wave (km/s) = 6.21086 3.00370 4.87837
# Velocity P-wave (km/s) = 8.71758 6.23763 7.57972
#
# Compressibility (1/GPa) = 0.01907594
#
# Stress axis : x y z
#
# Youngs Moduli (GPa) = 57.00826 46.37971 100.49050
#
# Poissons Ratio (x) = 0.34443 0.34867
# Poissons Ratio (y) = 0.42336 0.41130
# Poissons Ratio (z) = 0.19780 0.18983
#
# Static dielectric constant tensor:
#      x y z
#    x 1.812920 0.000000 0.000000 
#    y 0.000000 1.828020 0.000000 
#    z 0.000000 0.000000 1.842970 
# 
# From -- ./inp_files/24355.got.cif
#   From: 2010.05.17/outbox.cif.g08.bks.cpg/sg53_13_cif.got.tgz:24355.got - 2010.06.03 12:45:16.
