data_PCOD9418039
_publ_section_title
;
Structure prediction by ZEFSAII (Michael W. Deem and Ramdas Pophale) SiO2 
 PCOD9418039
Probable space group: P M N A
;
_chemical_formula_sum "Si O2"
_cell_formula_units_Z 56
_cell_length_a 18.600577
_cell_length_b 16.478532
_cell_length_c 9.981484
_cell_angle_alpha 90.000000
_cell_angle_beta 90.000000
_cell_angle_gamma 90.000000
_cell_volume 3059.426690
_symmetry_space_group_name_H-M "P M N A"
_symmetry_group_IT_number 53
_symmetry_cell_setting 'orthorhombic'
loop_
_space_group_symop_operation_xyz
x,y,z
1/2-x,-y,1/2+z
x,-y,-z
1/2-x,y,1/2-z
-x,-y,-z
1/2+x,y,1/2-z
-x,y,z
1/2+x,-y,1/2+z
loop_
_atom_site_type_symbol
_atom_site_label
_atom_site_fract_x
_atom_site_fract_y
_atom_site_fract_z
Si Si1 0.083751 0.139854 0.720901
Si Si2 0.667284 0.573337 0.096768
Si Si3 0.659417 0.575452 0.406958
Si Si4 0.581981 0.725836 0.997914
Si Si5 0.084876 0.831649 0.751212
Si Si6 0.913618 0.746115 0.027343
Si Si7 0.678660 0.985073 0.840149
O O1 0.090985 0.194260 0.588423
O O2 0.102502 0.198960 0.843376
O O3 0.000000 0.116016 0.734832
O O4 0.132823 0.061793 0.710488
O O5 0.642108 0.561613 0.250076
O O6 0.753756 0.579395 0.090229
O O7 0.635068 0.656650 0.043300
O O8 0.644874 0.500000 0.000000
O O9 0.636751 0.500000 0.500000
O O10 0.625760 0.659941 0.457869
O O11 0.500000 0.697430 0.018269
O O12 0.591743 0.754787 0.846876
O O13 0.132068 0.904634 0.692209
O O14 0.000000 0.855126 0.752957
O O15 0.106212 0.799511 0.897603
O O16 0.000000 0.732305 0.022635
O O17 0.750000 0.980162 0.750000
O O18 0.691585 0.000000 0.000000
#
# Coordination Sequence:
#
# PCOD9418039 Si02
#       7
#     8   8   8   8   8   8   8
#     4  10  21  40  67  88 115 159 201 245 299 357
#     4  10  22  38  58  86 118 157 201 242 292 354
#     4  10  22  39  58  83 121 160 194 239 299 360
#     4  10  20  38  62  88 114 150 201 248 293 345
#     4  10  23  42  64  89 120 158 202 249 298 354
#     4  10  22  40  62  91 120 153 198 246 301 359
#     4  12  27  42  61  91 125 158 200 248 299 357
#
# _framework density 18.304082000000001
#
# number of rings (size 3 to 8) (size 9 to 14) (size 15 to 20)
#    0.000    1.714    2.857    0.429    4.000    3.429 
#    0.000    2.143    0.000    0.000    0.000    0.000 
#    0.000    0.000    0.000    0.000    0.000    0.000 
#
# Total GULP energy -312613.083634 kJ/mol
# GULP energy per Si atom -5582.376493 kJ/mol
# Density = 1.826242 g / cm^3
# Si number density = 18.304082 Si / 1000 Ang^3
#
#
#
# Elastic Constant Matrix: (Units=GPa)
#
#
# Indices 1 2 3 4 5 6 
#
# 1 49.1995 54.3545 35.0889 0.0000 0.0000 0.0000
# 2 54.3545 101.3446 41.9172 0.0000 0.0000 0.0000
# 3 35.0889 41.9172 100.3618 0.0000 0.0000 0.0000
# 4 0.0000 0.0000 0.0000 19.6022 0.0000 0.0000
# 5 0.0000 0.0000 0.0000 0.0000 24.6001 0.0000
# 6 0.0000 0.0000 0.0000 0.0000 0.0000 35.7318
#
#
#
# Elastic Compliance Matrix: (Units=1/GPa)
#
#
# Indices 1 2 3 4 5 6 
#
# 1 0.055148 -0.026114 -0.008374 0.000000 0.000000 0.000000
# 2 -0.026114 0.024294 -0.001016 0.000000 0.000000 0.000000
# 3 -0.008374 -0.001016 0.013316 0.000000 0.000000 0.000000
# 4 0.000000 0.000000 0.000000 0.051015 0.000000 0.000000
# 5 0.000000 0.000000 0.000000 0.000000 0.040650 0.000000
# 6 0.000000 0.000000 0.000000 0.000000 0.000000 0.027986
#
#
# Mechanical properties :
#
#
# Convention : Reuss Voigt Hill
#
# Bulk Modulus (GPa) = 45.98004 57.06965 51.52485
# Shear Modulus (GPa) = 17.20174 23.95652 20.57913
#
# Velocity S-wave (km/s) = 3.06890 3.62167 3.35668
# Velocity P-wave (km/s) = 6.14265 6.98104 6.57523
#
# Compressibility (1/GPa) = 0.02174857
#
# Stress axis : x y z
#
# Youngs Moduli (GPa) = 18.13295 41.16320 75.09604
#
# Poissons Ratio (x) = 1.07494 0.62888
# Poissons Ratio (y) = 0.47353 0.07632
# Poissons Ratio (z) = 0.15185 0.04184
#
# Static dielectric constant tensor:
#      x y z
#    x 1.628710 0.000000 0.000000 
#    y 0.000000 1.588660 0.000000 
#    z 0.000000 0.000000 1.644750 
# 
# From -- ./inp_files/11060.got.cif
#   From: 2010.05.17/outbox.cif.g08.bks.cpg/sg53_6_cif.got.tgz:11060.got - 2010.06.03 12:45:16.
