data_PCOD9418464
_publ_section_title
;
Structure prediction by ZEFSAII (Michael W. Deem and Ramdas Pophale) SiO2 
 PCOD9418464
Probable space group: P M N A
;
_chemical_formula_sum "Si O2"
_cell_formula_units_Z 48
_cell_length_a 18.836168
_cell_length_b 5.283599
_cell_length_c 22.605534
_cell_angle_alpha 90.000000
_cell_angle_beta 90.000000
_cell_angle_gamma 90.000000
_cell_volume 2249.765099
_symmetry_space_group_name_H-M "P M N A"
_symmetry_group_IT_number 53
_symmetry_cell_setting 'orthorhombic'
loop_
_space_group_symop_operation_xyz
x,y,z
1/2-x,-y,1/2+z
x,-y,-z
1/2-x,y,1/2-z
-x,-y,-z
1/2+x,y,1/2-z
-x,y,z
1/2+x,-y,1/2+z
loop_
_atom_site_type_symbol
_atom_site_label
_atom_site_fract_x
_atom_site_fract_y
_atom_site_fract_z
Si Si1 0.276815 0.984271 0.436533
Si Si2 0.579793 0.544858 0.790444
Si Si3 0.840974 0.378884 0.863347
Si Si4 0.421790 0.694059 0.554941
Si Si5 0.577415 0.043149 0.714579
Si Si6 0.731326 0.248136 0.183933
O O1 0.352610 0.128321 0.445741
O O2 0.239240 0.088455 0.377023
O O3 0.239002 0.000000 0.500000
O O4 0.295720 0.695451 0.420750
O O5 0.500000 0.563373 0.818487
O O6 0.585537 0.260195 0.765012
O O7 0.653570 0.623164 0.820702
O O8 0.579049 0.763686 0.740226
O O9 0.908816 0.530962 0.885780
O O10 0.865104 0.120525 0.832937
O O11 0.791021 0.535590 0.820843
O O12 0.421092 0.500000 0.500000
O O13 0.500000 0.817284 0.555879
O O14 0.500000 0.083253 0.687947
O O15 0.750000 0.131253 0.250000
#
# Coordination Sequence:
#
# PCOD9418464 Si02
#       6
#     8   8   8   8   8   8
#     4  11  24  40  59  86 125 167 215 263 323 383
#     4  10  22  41  62  91 129 164 207 265 331 390
#     4  11  22  36  58  84 122 163 216 259 311 376
#     4  10  21  37  55  81 122 169 220 258 297 364
#     4  10  21  37  59  90 129 167 206 259 318 379
#     4  11  23  39  63  93 121 163 210 271 319 388
#
# _framework density 21.335557999999999
#
# number of rings (size 3 to 8) (size 9 to 14) (size 15 to 20)
#    0.000    1.500    3.333    1.500    4.667    2.333 
#    0.000    0.000    0.000    0.500    0.000    1.167 
#    0.000    0.000    0.000    0.000    0.000    0.000 
#
# Total GULP energy -267697.450312 kJ/mol
# GULP energy per Si atom -5577.030215 kJ/mol
# Density = 2.128700 g / cm^3
# Si number density = 21.335558 Si / 1000 Ang^3
#
#
#
# Elastic Constant Matrix: (Units=GPa)
#
#
# Indices 1 2 3 4 5 6 
#
# 1 120.8578 0.4439 40.0590 0.0000 0.0000 0.0000
# 2 0.4439 42.7568 24.4309 0.0000 0.0000 0.0000
# 3 40.0590 24.4309 111.6228 0.0000 0.0000 0.0000
# 4 0.0000 0.0000 0.0000 38.0980 0.0000 0.0000
# 5 0.0000 0.0000 0.0000 0.0000 20.1426 0.0000
# 6 0.0000 0.0000 0.0000 0.0000 0.0000 11.0709
#
#
#
# Elastic Compliance Matrix: (Units=1/GPa)
#
#
# Indices 1 2 3 4 5 6 
#
# 1 0.009558 0.002127 -0.003895 0.000000 0.000000 0.000000
# 2 0.002127 0.027204 -0.006717 0.000000 0.000000 0.000000
# 3 -0.003895 -0.006717 0.011827 0.000000 0.000000 0.000000
# 4 0.000000 0.000000 0.000000 0.026248 0.000000 0.000000
# 5 0.000000 0.000000 0.000000 0.000000 0.049646 0.000000
# 6 0.000000 0.000000 0.000000 0.000000 0.000000 0.090327
#
#
# Mechanical properties :
#
#
# Convention : Reuss Voigt Hill
#
# Bulk Modulus (GPa) = 31.62926 45.01168 38.32047
# Shear Modulus (GPa) = 20.63375 27.88252 24.25813
#
# Velocity S-wave (km/s) = 3.11321 3.61897 3.37557
# Velocity P-wave (km/s) = 5.27063 6.21332 5.76129
#
# Compressibility (1/GPa) = 0.03161629
#
# Stress axis : x y z
#
# Youngs Moduli (GPa) = 104.62940 36.75897 84.55252
#
# Poissons Ratio (x) = -0.07817 0.32937
# Poissons Ratio (y) = -0.22250 0.56797
# Poissons Ratio (z) = 0.40758 0.24692
#
# Static dielectric constant tensor:
#      x y z
#    x 1.819490 0.000000 0.000000 
#    y 0.000000 1.868930 0.000000 
#    z 0.000000 0.000000 1.844050 
# 
# From -- ./inp_files/32951.got.cif
#   From: 2010.05.17/outbox.cif.g08.bks.cpg/sg53_17_cif.got.tgz:32951.got - 2010.06.03 12:45:16.
