data_PCOD9418778
_publ_section_title
;
Structure prediction by ZEFSAII (Michael W. Deem and Ramdas Pophale) SiO2 
 PCOD9418778
Probable space group: P M N A
;
_chemical_formula_sum "Si O2"
_cell_formula_units_Z 48
_cell_length_a 18.454177
_cell_length_b 8.137370
_cell_length_c 15.070999
_cell_angle_alpha 90.000000
_cell_angle_beta 90.000000
_cell_angle_gamma 90.000000
_cell_volume 2263.188805
_symmetry_space_group_name_H-M "P M N A"
_symmetry_group_IT_number 53
_symmetry_cell_setting 'orthorhombic'
loop_
_space_group_symop_operation_xyz
x,y,z
1/2-x,-y,1/2+z
x,-y,-z
1/2-x,y,1/2-z
-x,-y,-z
1/2+x,y,1/2-z
-x,y,z
1/2+x,-y,1/2+z
loop_
_atom_site_type_symbol
_atom_site_label
_atom_site_fract_x
_atom_site_fract_y
_atom_site_fract_z
Si Si1 0.875129 0.175272 0.868726
Si Si2 0.500000 0.902875 0.627094
Si Si3 0.500000 0.670573 0.456876
Si Si4 0.751139 0.681766 0.027474
Si Si5 0.500000 0.732039 0.815786
Si Si6 0.365010 0.890316 0.918457
Si Si7 0.146513 0.773736 0.334819
Si Si8 0.000000 0.604253 0.403176
O O1 0.812892 0.189879 0.942670
O O2 0.851537 0.222844 0.770365
O O3 0.930567 0.314654 0.896941
O O4 0.927065 0.014786 0.868097
O O5 0.500000 0.807627 0.534252
O O6 0.500000 0.789833 0.714312
O O7 0.500000 0.500000 0.500000
O O8 0.704166 0.658994 0.116903
O O9 0.776794 0.500000 0.000000
O O10 0.695820 0.766980 0.957264
O O11 0.429084 0.801323 0.866408
O O12 0.500000 0.538596 0.830123
O O13 0.334123 0.037261 0.858780
O O14 0.395156 0.000000 0.000000
O O15 0.070339 0.715957 0.380339
O O16 0.000000 0.500000 0.500000
#
# Coordination Sequence:
#
# PCOD9418778 Si02
#       8
#     8   4   4   8   4   8   8   4
#     4  11  23  46  69  94 134 180 232 285 342 411
#     4  11  25  43  73 102 133 176 241 291 343 405
#     4  11  26  45  70 100 126 174 227 286 347 395
#     4  11  24  43  67  99 140 184 228 283 352 415
#     4  12  21  39  65 108 142 172 224 296 334 413
#     4  10  21  38  67  97 137 180 227 270 347 419
#     4  11  22  40  67  99 136 183 227 279 341 419
#     4  12  23  37  66 103 148 180 221 283 354 412
#
# _framework density 21.209012999999999
#
# number of rings (size 3 to 8) (size 9 to 14) (size 15 to 20)
#    0.000    1.000    1.667    7.250    2.333    4.000 
#    0.000    0.000    0.000    0.000    0.000    0.000 
#    0.000    0.000    0.000    0.000    0.000    0.000 
#
# Total GULP energy -267760.185311 kJ/mol
# GULP energy per Si atom -5578.337194 kJ/mol
# Density = 2.116074 g / cm^3
# Si number density = 21.209013 Si / 1000 Ang^3
#
#
#
# Elastic Constant Matrix: (Units=GPa)
#
#
# Indices 1 2 3 4 5 6 
#
# 1 75.3565 14.9093 20.7833 0.0000 0.0000 0.0000
# 2 14.9093 104.1082 40.7852 0.0000 0.0000 0.0000
# 3 20.7833 40.7852 119.9434 0.0000 0.0000 0.0000
# 4 0.0000 0.0000 0.0000 37.5714 0.0000 0.0000
# 5 0.0000 0.0000 0.0000 0.0000 19.8745 0.0000
# 6 0.0000 0.0000 0.0000 0.0000 0.0000 156.8564
#
#
#
# Elastic Compliance Matrix: (Units=1/GPa)
#
#
# Indices 1 2 3 4 5 6 
#
# 1 0.014070 -0.001223 -0.002022 0.000000 0.000000 0.000000
# 2 -0.001223 0.011188 -0.003592 0.000000 0.000000 0.000000
# 3 -0.002022 -0.003592 0.009909 0.000000 0.000000 0.000000
# 4 0.000000 0.000000 0.000000 0.026616 0.000000 0.000000
# 5 0.000000 0.000000 0.000000 0.000000 0.050316 0.000000
# 6 0.000000 0.000000 0.000000 0.000000 0.000000 0.006375
#
#
# Mechanical properties :
#
#
# Convention : Reuss Voigt Hill
#
# Bulk Modulus (GPa) = 46.52834 50.26264 48.39549
# Shear Modulus (GPa) = 35.89050 57.72250 46.80650
#
# Velocity S-wave (km/s) = 4.11813 5.22256 4.70288
# Velocity P-wave (km/s) = 6.67815 7.75351 7.23584
#
# Compressibility (1/GPa) = 0.02149228
#
# Stress axis : x y z
#
# Youngs Moduli (GPa) = 71.07367 89.38268 100.91611
#
# Poissons Ratio (x) = 0.10929 0.20407
# Poissons Ratio (y) = 0.08690 0.36253
# Poissons Ratio (z) = 0.14373 0.32110
#
# Static dielectric constant tensor:
#      x y z
#    x 1.839370 0.000000 0.000000 
#    y 0.000000 1.771990 0.000000 
#    z 0.000000 0.000000 1.795880 
# 
# From -- ./inp_files/23737.got.cif
#   From: 2010.05.17/outbox.cif.g08.bks.cpg/sg53_12_cif.got.tgz:23737.got - 2010.06.03 12:45:16.
