data_PCOD9418557
_publ_section_title
;
Structure prediction by ZEFSAII (Michael W. Deem and Ramdas Pophale) SiO2 
 PCOD9418557
Probable space group: P M N A
;
_chemical_formula_sum "Si O2"
_cell_formula_units_Z 40
_cell_length_a 26.588966
_cell_length_b 13.164770
_cell_length_c 6.108656
_cell_angle_alpha 90.000000
_cell_angle_beta 90.000000
_cell_angle_gamma 90.000000
_cell_volume 2138.259419
_symmetry_space_group_name_H-M "P M N A"
_symmetry_group_IT_number 53
_symmetry_cell_setting 'orthorhombic'
loop_
_space_group_symop_operation_xyz
x,y,z
1/2-x,-y,1/2+z
x,-y,-z
1/2-x,y,1/2-z
-x,-y,-z
1/2+x,y,1/2-z
-x,y,z
1/2+x,-y,1/2+z
loop_
_atom_site_type_symbol
_atom_site_label
_atom_site_fract_x
_atom_site_fract_y
_atom_site_fract_z
Si Si1 0.379063 0.100467 0.632569
Si Si2 0.442820 0.123469 0.999703
Si Si3 0.810217 0.451416 0.250476
Si Si4 0.214456 0.895294 0.426956
Si Si5 0.149860 0.228650 0.253520
O O1 0.427302 0.146978 0.750498
O O2 0.336983 0.069921 0.808667
O O3 0.352078 0.184018 0.487584
O O4 0.392715 0.000000 0.500000
O O5 0.500000 0.147692 0.057026
O O6 0.401761 0.183702 0.141695
O O7 0.437504 0.000000 0.000000
O O8 0.819683 0.500000 0.500000
O O9 0.750000 0.432749 0.250000
O O10 0.842070 0.347766 0.256481
O O11 0.820017 0.500000 0.000000
O O12 0.250000 0.843120 0.250000
O O13 0.196122 0.823015 0.617880
O O14 0.240782 0.000000 0.500000
#
# Coordination Sequence:
#
# PCOD9418557 Si02
#       5
#     8   8   8   8   8
#     4  11  19  35  53  84 122 159 203 245 299 376
#     4  10  21  37  58  90 128 164 205 251 307 380
#     4  10  25  45  67  93 123 163 219 274 325 381
#     4  11  23  32  49  82 125 163 197 237 298 384
#     4  11  23  38  61  85 119 164 204 259 317 374
#
# _framework density 18.706804000000002
#
# number of rings (size 3 to 8) (size 9 to 14) (size 15 to 20)
#    0.000    1.400    4.000    1.800    8.400    2.000 
#    0.000    0.000    0.000    1.200    0.000    0.000 
#    0.000    0.000    0.000    0.000    0.000    0.000 
#
# Total GULP energy -222721.016019 kJ/mol
# GULP energy per Si atom -5568.025400 kJ/mol
# Density = 1.866423 g / cm^3
# Si number density = 18.706804 Si / 1000 Ang^3
#
#
#
# Elastic Constant Matrix: (Units=GPa)
#
#
# Indices 1 2 3 4 5 6 
#
# 1 93.6785 40.9473 37.3434 0.0000 0.0000 0.0000
# 2 40.9473 105.3263 51.7068 0.0000 0.0000 0.0000
# 3 37.3434 51.7068 108.3996 0.0000 0.0000 0.0000
# 4 0.0000 0.0000 0.0000 21.1492 0.0000 0.0000
# 5 0.0000 0.0000 0.0000 0.0000 18.2213 0.0000
# 6 0.0000 0.0000 0.0000 0.0000 0.0000 28.1106
#
#
#
# Elastic Compliance Matrix: (Units=1/GPa)
#
#
# Indices 1 2 3 4 5 6 
#
# 1 0.013481 -0.003866 -0.002800 0.000000 0.000000 0.000000
# 2 -0.003866 0.013506 -0.005111 0.000000 0.000000 0.000000
# 3 -0.002800 -0.005111 0.012627 0.000000 0.000000 0.000000
# 4 0.000000 0.000000 0.000000 0.047283 0.000000 0.000000
# 5 0.000000 0.000000 0.000000 0.000000 0.054881 0.000000
# 6 0.000000 0.000000 0.000000 0.000000 0.000000 0.035574
#
#
# Mechanical properties :
#
#
# Convention : Reuss Voigt Hill
#
# Bulk Modulus (GPa) = 62.26267 63.04438 62.65352
# Shear Modulus (GPa) = 24.24128 25.32336 24.78232
#
# Velocity S-wave (km/s) = 3.60370 3.68325 3.64370
# Velocity P-wave (km/s) = 7.11837 7.20159 7.16011
#
# Compressibility (1/GPa) = 0.01606099
#
# Stress axis : x y z
#
# Youngs Moduli (GPa) = 74.17864 74.03948 79.19281
#
# Poissons Ratio (x) = 0.28627 0.22173
# Poissons Ratio (y) = 0.28681 0.40472
# Poissons Ratio (z) = 0.20769 0.37838
#
# Static dielectric constant tensor:
#      x y z
#    x 1.661380 0.000000 0.000000 
#    y 0.000000 1.639520 0.000000 
#    z 0.000000 0.000000 1.789190 
# 
# From -- ./inp_files/4286.got.cif
#   From: 2010.05.17/outbox.cif.g08.bks.cpg/sg53_3_cif.got.tgz:4286.got - 2010.06.03 12:45:16.
