data_PCOD9418037
_publ_section_title
;
Structure prediction by ZEFSAII (Michael W. Deem and Ramdas Pophale) SiO2 
 PCOD9418037
Probable space group: P M N A
;
_chemical_formula_sum "Si O2"
_cell_formula_units_Z 40
_cell_length_a 8.841660
_cell_length_b 9.290430
_cell_length_c 26.220449
_cell_angle_alpha 90.000000
_cell_angle_beta 90.000000
_cell_angle_gamma 90.000000
_cell_volume 2153.821709
_symmetry_space_group_name_H-M "P M N A"
_symmetry_group_IT_number 53
_symmetry_cell_setting 'orthorhombic'
loop_
_space_group_symop_operation_xyz
x,y,z
1/2-x,-y,1/2+z
x,-y,-z
1/2-x,y,1/2-z
-x,-y,-z
1/2+x,y,1/2-z
-x,y,z
1/2+x,-y,1/2+z
loop_
_atom_site_type_symbol
_atom_site_label
_atom_site_fract_x
_atom_site_fract_y
_atom_site_fract_z
Si Si1 0.681537 0.828362 0.304868
Si Si2 0.682205 0.347773 0.402743
Si Si3 0.818548 0.167876 0.995317
Si Si4 0.680013 0.663683 0.099539
Si Si5 0.181638 0.164545 0.195600
O O1 0.750000 0.788265 0.250000
O O2 0.500000 0.816366 0.303815
O O3 0.748425 0.732419 0.349713
O O4 0.721453 0.996918 0.313954
O O5 0.500000 0.367856 0.400891
O O6 0.715156 0.250614 0.452145
O O7 0.760581 0.501451 0.406678
O O8 0.729448 0.263831 0.351462
O O9 0.000000 0.176832 0.986515
O O10 0.735678 0.243503 0.948582
O O11 0.779009 0.000000 0.000000
O O12 0.500000 0.665831 0.102944
O O13 0.250000 0.207805 0.250000
O O14 0.000000 0.171388 0.199020
#
# Coordination Sequence:
#
# PCOD9418037 Si02
#       5
#     8   8   8   8   8
#     4  10  20  38  62  87 115 149 192 238 285 338
#     4  10  21  38  59  83 114 152 191 233 284 339
#     4  10  21  40  65  87 109 145 192 239 289 344
#     4  12  25  38  55  84 120 155 190 232 284 339
#     4   9  19  36  60  87 113 145 187 234 282 336
#
# _framework density 18.571639000000001
#
# number of rings (size 3 to 8) (size 9 to 14) (size 15 to 20)
#    0.000    1.800    0.000    4.200    0.000    9.200 
#    0.000    4.000    0.000    0.000    0.000    0.000 
#    0.000    0.000    0.000    0.000    0.000    0.000 
#
# Total GULP energy -223579.654007 kJ/mol
# GULP energy per Si atom -5589.491350 kJ/mol
# Density = 1.852937 g / cm^3
# Si number density = 18.571639 Si / 1000 Ang^3
#
#
#
# Elastic Constant Matrix: (Units=GPa)
#
#
# Indices 1 2 3 4 5 6 
#
# 1 64.7884 72.0780 79.7162 0.0000 0.0000 0.0000
# 2 72.0780 152.0163 114.0754 0.0000 0.0000 0.0000
# 3 79.7162 114.0754 169.1827 0.0000 0.0000 0.0000
# 4 0.0000 0.0000 0.0000 -145.4815 0.0000 0.0000
# 5 0.0000 0.0000 0.0000 0.0000 35.3765 0.0000
# 6 0.0000 0.0000 0.0000 0.0000 0.0000 6.9267
#
#
#
# Elastic Compliance Matrix: (Units=1/GPa)
#
#
# Indices 1 2 3 4 5 6 
#
# 1 0.043947 -0.010725 -0.013475 0.000000 0.000000 0.000000
# 2 -0.010725 0.015933 -0.005690 0.000000 0.000000 0.000000
# 3 -0.013475 -0.005690 0.016097 0.000000 0.000000 0.000000
# 4 0.000000 0.000000 0.000000 -0.006874 0.000000 0.000000
# 5 0.000000 0.000000 0.000000 0.000000 0.028267 0.000000
# 6 0.000000 0.000000 0.000000 0.000000 0.000000 0.144370
#
#
# Mechanical properties :
#
#
# Convention : Reuss Voigt Hill
#
# Bulk Modulus (GPa) = 61.74325 101.96961 81.85643
# Shear Modulus (GPa) = 16.29088 -12.62782 1.83153
#
# Velocity S-wave (km/s) = 2.96496 -2.61042 0.99415
# Velocity P-wave (km/s) = 6.71114 6.77787 6.74459
#
# Compressibility (1/GPa) = 0.01619610
#
# Stress axis : x y z
#
# Youngs Moduli (GPa) = 22.75464 62.76151 62.12438
#
# Poissons Ratio (x) = 0.67313 0.83715
# Poissons Ratio (y) = 0.24405 0.35348
# Poissons Ratio (z) = 0.30663 0.35711
#
# Static dielectric constant tensor:
#      x y z
#    x 1.621590 0.000000 0.000000 
#    y 0.000000 1.617690 0.000000 
#    z 0.000000 0.000000 1.610450 
# 
# From -- ./inp_files/33620.got.cif
#   From: 2010.05.17/outbox.cif.g08.bks.cpg/sg53_17_cif.got.tgz:33620.got - 2010.06.03 12:45:16.
