data_PCOD9418483
_publ_section_title
;
Structure prediction by ZEFSAII (Michael W. Deem and Ramdas Pophale) SiO2 
 PCOD9418483
Probable space group: P M N A
;
_chemical_formula_sum "Si O2"
_cell_formula_units_Z 64
_cell_length_a 14.873091
_cell_length_b 23.622071
_cell_length_c 8.142354
_cell_angle_alpha 90.000000
_cell_angle_beta 90.000000
_cell_angle_gamma 90.000000
_cell_volume 2860.679381
_symmetry_space_group_name_H-M "P M N A"
_symmetry_group_IT_number 53
_symmetry_cell_setting 'orthorhombic'
loop_
_space_group_symop_operation_xyz
x,y,z
1/2-x,-y,1/2+z
x,-y,-z
1/2-x,y,1/2-z
-x,-y,-z
1/2+x,y,1/2-z
-x,y,z
1/2+x,-y,1/2+z
loop_
_atom_site_type_symbol
_atom_site_label
_atom_site_fract_x
_atom_site_fract_y
_atom_site_fract_z
Si Si1 0.774746 0.557270 0.437630
Si Si2 0.102849 0.344429 0.439200
Si Si3 0.395582 0.844329 0.338822
Si Si4 0.895299 0.389388 0.064337
Si Si5 0.101272 0.728399 0.059862
Si Si6 0.400663 0.888060 0.964262
Si Si7 0.354068 0.771684 0.795145
Si Si8 0.274381 0.058401 0.557580
O O1 0.821783 0.500000 0.500000
O O2 0.750000 0.550832 0.250000
O O3 0.834918 0.612863 0.462297
O O4 0.681436 0.564856 0.537684
O O5 0.106744 0.368004 0.251889
O O6 0.133119 0.279029 0.426306
O O7 0.000000 0.346247 0.495607
O O8 0.500000 0.842804 0.392585
O O9 0.355851 0.780928 0.345491
O O10 0.395362 0.866802 0.153321
O O11 0.338231 0.886908 0.449794
O O12 0.000000 0.403779 0.026894
O O13 0.864428 0.335295 0.953793
O O14 0.000000 0.722594 0.124432
O O15 0.099138 0.750965 0.872045
O O16 0.500000 0.912929 0.935458
O O17 0.315802 0.929715 0.952007
O O18 0.389118 0.831612 0.857157
O O19 0.250000 0.776452 0.750000
O O20 0.250000 0.052594 0.750000
O O21 0.317657 0.000000 0.500000
#
# Coordination Sequence:
#
# PCOD9418483 Si02
#       8
#     8   8   8   8   8   8   8   8
#     4  12  26  42  61  85 117 156 203 254 299 351
#     4  10  21  40  64  89 121 158 195 239 294 355
#     4   9  19  36  57  82 115 151 187 235 294 352
#     4   9  19  38  63  89 120 156 192 238 295 353
#     4   9  17  32  55  84 115 144 179 222 273 335
#     4  10  21  37  56  81 116 154 187 228 288 351
#     4  11  20  33  58  89 120 150 185 229 280 339
#     4  10  22  38  54  75 105 144 195 247 293 344
#
# _framework density 22.372308
#
# number of rings (size 3 to 8) (size 9 to 14) (size 15 to 20)
#    0.000    2.000    0.000    5.250    0.000    4.000 
#    0.000    2.500    0.000    0.000    0.000    0.000 
#    0.000    0.000    0.000    0.000    0.000    0.000 
#
# Total GULP energy -357552.911533 kJ/mol
# GULP energy per Si atom -5586.764243 kJ/mol
# Density = 2.232139 g / cm^3
# Si number density = 22.372308 Si / 1000 Ang^3
#
#
#
# Elastic Constant Matrix: (Units=GPa)
#
#
# Indices 1 2 3 4 5 6 
#
# 1 89.9277 9.1379 13.6430 0.0000 0.0000 0.0000
# 2 9.1379 52.7836 2.7139 0.0000 0.0000 0.0000
# 3 13.6430 2.7139 27.8732 0.0000 0.0000 0.0000
# 4 0.0000 0.0000 0.0000 32.8512 0.0000 0.0000
# 5 0.0000 0.0000 0.0000 0.0000 75.6266 0.0000
# 6 0.0000 0.0000 0.0000 0.0000 0.0000 13.8161
#
#
#
# Elastic Compliance Matrix: (Units=1/GPa)
#
#
# Indices 1 2 3 4 5 6 
#
# 1 0.012182 -0.001811 -0.005786 0.000000 0.000000 0.000000
# 2 -0.001811 0.019310 -0.000993 0.000000 0.000000 0.000000
# 3 -0.005786 -0.000993 0.038806 0.000000 0.000000 0.000000
# 4 0.000000 0.000000 0.000000 0.030440 0.000000 0.000000
# 5 0.000000 0.000000 0.000000 0.000000 0.013223 0.000000
# 6 0.000000 0.000000 0.000000 0.000000 0.000000 0.072380
#
#
# Mechanical properties :
#
#
# Convention : Reuss Voigt Hill
#
# Bulk Modulus (GPa) = 18.82701 24.61935 21.72318
# Shear Modulus (GPa) = 22.60115 34.13142 28.36628
#
# Velocity S-wave (km/s) = 3.18186 3.91014 3.56465
# Velocity P-wave (km/s) = 4.68322 5.60481 5.16461
#
# Compressibility (1/GPa) = 0.05311518
#
# Stress axis : x y z
#
# Youngs Moduli (GPa) = 82.08865 51.78677 25.76943
#
# Poissons Ratio (x) = 0.09381 0.14911
# Poissons Ratio (y) = 0.14870 0.02560
# Poissons Ratio (z) = 0.47499 0.05145
#
# Static dielectric constant tensor:
#      x y z
#    x 1.847060 0.000000 0.000000 
#    y 0.000000 1.823700 0.000000 
#    z 0.000000 0.000000 1.830460 
# 
# From -- ./inp_files/8934.got.cif
#   From: 2010.05.17/outbox.cif.g08.bks.cpg/sg53_5_cif.got.tgz:8934.got - 2010.06.03 12:45:16.
