data_PCOD9418118
_publ_section_title
;
Structure prediction by ZEFSAII (Michael W. Deem and Ramdas Pophale) SiO2 
 PCOD9418118
Probable space group: P M N A
;
_chemical_formula_sum "Si O2"
_cell_formula_units_Z 48
_cell_length_a 30.832113
_cell_length_b 8.750125
_cell_length_c 9.634625
_cell_angle_alpha 90.000000
_cell_angle_beta 90.000000
_cell_angle_gamma 90.000000
_cell_volume 2599.275791
_symmetry_space_group_name_H-M "P M N A"
_symmetry_group_IT_number 53
_symmetry_cell_setting 'orthorhombic'
loop_
_space_group_symop_operation_xyz
x,y,z
1/2-x,-y,1/2+z
x,-y,-z
1/2-x,y,1/2-z
-x,-y,-z
1/2+x,y,1/2-z
-x,y,z
1/2+x,-y,1/2+z
loop_
_atom_site_type_symbol
_atom_site_label
_atom_site_fract_x
_atom_site_fract_y
_atom_site_fract_z
Si Si1 0.949141 0.175883 0.041941
Si Si2 0.618458 0.322202 0.253617
Si Si3 0.233929 0.848682 0.407511
Si Si4 0.683241 0.318685 0.486403
Si Si5 0.635327 0.178640 0.960171
Si Si6 0.394651 0.682645 0.310757
O O1 0.934453 0.280408 0.911937
O O2 0.000000 0.191469 0.070869
O O3 0.919800 0.228975 0.170824
O O4 0.940145 0.000000 0.000000
O O5 0.662682 0.280274 0.337081
O O6 0.609842 0.502492 0.278076
O O7 0.623614 0.277272 0.094785
O O8 0.250000 0.875037 0.250000
O O9 0.269851 0.743847 0.479807
O O10 0.184926 0.786406 0.413416
O O11 0.233319 0.000000 0.500000
O O12 0.684619 0.500000 0.500000
O O13 0.647515 0.266342 0.599310
O O14 0.605326 0.223306 0.830940
O O15 0.632271 0.000000 0.000000
#
# Coordination Sequence:
#
# PCOD9418118 Si02
#       6
#     8   8   8   8   8   8
#     4  10  21  39  65  93 119 149 187 233 289 357
#     4  10  22  37  60  87 115 155 193 240 293 350
#     4  11  24  38  55  82 116 155 201 249 291 342
#     4   9  20  37  56  78 109 153 196 239 286 340
#     4  11  23  37  56  84 117 157 198 244 300 339
#     4  10  20  39  59  85 118 150 197 239 289 350
#
# _framework density 18.466681999999999
#
# number of rings (size 3 to 8) (size 9 to 14) (size 15 to 20)
#    0.000    1.833    1.667    3.000    4.667    5.333 
#    0.000    0.833    0.000    5.000    0.000    0.000 
#    0.000    0.000    0.000    0.000    0.000    0.000 
#
# Total GULP energy -267965.333369 kJ/mol
# GULP energy per Si atom -5582.611112 kJ/mol
# Density = 1.842465 g / cm^3
# Si number density = 18.466682 Si / 1000 Ang^3
#
#
#
# Elastic Constant Matrix: (Units=GPa)
#
#
# Indices 1 2 3 4 5 6 
#
# 1 61.8164 11.6191 14.0592 0.0000 0.0000 0.0000
# 2 11.6191 35.6091 9.9196 0.0000 0.0000 0.0000
# 3 14.0592 9.9196 105.2638 0.0000 0.0000 0.0000
# 4 0.0000 0.0000 0.0000 30.2553 0.0000 0.0000
# 5 0.0000 0.0000 0.0000 0.0000 -3.1189 0.0000
# 6 0.0000 0.0000 0.0000 0.0000 0.0000 44.9746
#
#
#
# Elastic Compliance Matrix: (Units=1/GPa)
#
#
# Indices 1 2 3 4 5 6 
#
# 1 0.017580 -0.005219 -0.001856 0.000000 0.000000 0.000000
# 2 -0.005219 0.030389 -0.002167 0.000000 0.000000 0.000000
# 3 -0.001856 -0.002167 0.009952 0.000000 0.000000 0.000000
# 4 0.000000 0.000000 0.000000 0.033052 0.000000 0.000000
# 5 0.000000 0.000000 0.000000 0.000000 -0.320622 0.000000
# 6 0.000000 0.000000 0.000000 0.000000 0.000000 0.022235
#
#
# Mechanical properties :
#
#
# Convention : Reuss Voigt Hill
#
# Bulk Modulus (GPa) = 25.35675 30.43170 27.89422
# Shear Modulus (GPa) = -28.44404 25.56162 -1.44121
#
# Velocity S-wave (km/s) = -3.92891 3.72452 -0.88438
# Velocity P-wave (km/s) = 2.61168 5.91702 3.75435
#
# Compressibility (1/GPa) = 0.03943724
#
# Stress axis : x y z
#
# Youngs Moduli (GPa) = 56.88244 32.90629 100.48194
#
# Poissons Ratio (x) = 0.17175 0.18651
# Poissons Ratio (y) = 0.29688 0.21771
# Poissons Ratio (z) = 0.10558 0.07130
#
# Static dielectric constant tensor:
#      x y z
#    x 1.645490 0.000000 0.000000 
#    y 0.000000 1.655020 0.000000 
#    z 0.000000 0.000000 -2.266440 
# 
# From -- ./inp_files/12970.got.cif
#   From: 2010.05.17/outbox.cif.g08.bks.cpg/sg53_7_cif.got.tgz:12970.got - 2010.06.03 12:45:16.
