data_PCOD9418109
_publ_section_title
;
Structure prediction by ZEFSAII (Michael W. Deem and Ramdas Pophale) SiO2 
 PCOD9418109
Probable space group: P M N A
;
_chemical_formula_sum "Si O2"
_cell_formula_units_Z 20
_cell_length_a 10.654899
_cell_length_b 5.043813
_cell_length_c 15.764592
_cell_angle_alpha 90.000000
_cell_angle_beta 90.000000
_cell_angle_gamma 90.000000
_cell_volume 847.209953
_symmetry_space_group_name_H-M "P M N A"
_symmetry_group_IT_number 53
_symmetry_cell_setting 'orthorhombic'
loop_
_space_group_symop_operation_xyz
x,y,z
1/2-x,-y,1/2+z
x,-y,-z
1/2-x,y,1/2-z
-x,-y,-z
1/2+x,y,1/2-z
-x,y,z
1/2+x,-y,1/2+z
loop_
_atom_site_type_symbol
_atom_site_label
_atom_site_fract_x
_atom_site_fract_y
_atom_site_fract_z
Si Si1 0.360219 0.116046 0.185814
Si Si2 0.000000 0.253405 0.937819
Si Si3 0.723281 0.364143 0.907265
O O1 0.250000 0.040459 0.250000
O O2 0.500000 0.105665 0.223028
O O3 0.329473 0.411550 0.154696
O O4 0.350590 0.907797 0.108296
O O5 0.868707 0.285521 0.889975
O O6 0.000000 0.500000 0.000000
O O7 0.000000 0.000000 0.000000
O O8 0.715496 0.500000 0.000000
#
# Coordination Sequence:
#
# PCOD9418109 Si02
#       3
#     8   4   8
#     4  12  28  46  70 101 144 190 231 290 360 423
#     4  10  20  38  68 106 138 172 221 282 351 406
#     4  11  24  44  74 104 138 181 239 296 348 417
#
# _framework density 23.606898999999999
#
# number of rings (size 3 to 8) (size 9 to 14) (size 15 to 20)
#    0.000    0.800    0.000    8.400    5.600    4.800 
#    0.000    0.000    0.000    0.000    0.000    0.000 
#    0.000    0.000    0.000    0.000    0.000    0.000 
#
# Total GULP energy -111874.089418 kJ/mol
# GULP energy per Si atom -5593.704471 kJ/mol
# Density = 2.355317 g / cm^3
# Si number density = 23.606899 Si / 1000 Ang^3
#
#
#
# Elastic Constant Matrix: (Units=GPa)
#
#
# Indices 1 2 3 4 5 6 
#
# 1 216.8342 37.2070 40.8852 0.0000 0.0000 0.0000
# 2 37.2070 157.8466 5.3606 0.0000 0.0000 0.0000
# 3 40.8852 5.3606 52.6575 0.0000 0.0000 0.0000
# 4 0.0000 0.0000 0.0000 22.4774 0.0000 0.0000
# 5 0.0000 0.0000 0.0000 0.0000 -873.6199 0.0000
# 6 0.0000 0.0000 0.0000 0.0000 0.0000 34.1600
#
#
#
# Elastic Compliance Matrix: (Units=1/GPa)
#
#
# Indices 1 2 3 4 5 6 
#
# 1 0.005613 -0.001179 -0.004238 0.000000 0.000000 0.000000
# 2 -0.001179 0.006605 0.000243 0.000000 0.000000 0.000000
# 3 -0.004238 0.000243 0.022257 0.000000 0.000000 0.000000
# 4 0.000000 0.000000 0.000000 0.044489 0.000000 0.000000
# 5 0.000000 0.000000 0.000000 0.000000 -0.001145 0.000000
# 6 0.000000 0.000000 0.000000 0.000000 0.000000 0.029274
#
#
# Mechanical properties :
#
#
# Convention : Reuss Voigt Hill
#
# Bulk Modulus (GPa) = 41.44859 66.02708 53.73784
# Shear Modulus (GPa) = 39.84561 -140.47080 -50.31259
#
# Velocity S-wave (km/s) = 4.11284 -7.72226 -4.62157
# Velocity P-wave (km/s) = 6.33639 7.17502 2.38024
#
# Compressibility (1/GPa) = 0.02412627
#
# Stress axis : x y z
#
# Youngs Moduli (GPa) = 178.14755 151.40123 44.93026
#
# Poissons Ratio (x) = 0.17853 0.19043
# Poissons Ratio (y) = 0.21007 -0.01093
# Poissons Ratio (z) = 0.75505 -0.03682
#
# Static dielectric constant tensor:
#      x y z
#    x 1.933080 0.000000 0.000000 
#    y 0.000000 1.824160 0.000000 
#    z 0.000000 0.000000 1.897650 
# 
# From -- ./inp_files/21114.got.cif
#   From: 2010.05.17/outbox.cif.g08.bks.cpg/sg53_11_cif.got.tgz:21114.got - 2010.06.03 12:45:16.
