data_PCOD9418649
_publ_section_title
;
Structure prediction by ZEFSAII (Michael W. Deem and Ramdas Pophale) SiO2 
 PCOD9418649
Probable space group: P M N A
;
_chemical_formula_sum "Si O2"
_cell_formula_units_Z 64
_cell_length_a 9.652892
_cell_length_b 15.029582
_cell_length_c 22.871470
_cell_angle_alpha 90.000000
_cell_angle_beta 90.000000
_cell_angle_gamma 90.000000
_cell_volume 3318.168437
_symmetry_space_group_name_H-M "P M N A"
_symmetry_group_IT_number 53
_symmetry_cell_setting 'orthorhombic'
loop_
_space_group_symop_operation_xyz
x,y,z
1/2-x,-y,1/2+z
x,-y,-z
1/2-x,y,1/2-z
-x,-y,-z
1/2+x,y,1/2-z
-x,y,z
1/2+x,-y,1/2+z
loop_
_atom_site_type_symbol
_atom_site_label
_atom_site_fract_x
_atom_site_fract_y
_atom_site_fract_z
Si Si1 0.841299 0.154888 0.495594
Si Si2 0.835304 0.806391 0.638811
Si Si3 0.336364 0.433964 0.625507
Si Si4 0.662881 0.953681 0.696427
Si Si5 0.838290 0.101869 0.901331
Si Si6 0.341811 0.365388 0.981243
Si Si7 0.161716 0.600017 0.618178
Si Si8 0.164260 0.251529 0.808204
O O1 0.806814 0.158289 0.427046
O O2 0.746413 0.099725 0.539064
O O3 0.832771 0.258427 0.515444
O O4 0.000000 0.125814 0.501452
O O5 0.736873 0.860871 0.681354
O O6 0.809943 0.700562 0.639112
O O7 0.000000 0.820547 0.650209
O O8 0.500000 0.447582 0.618225
O O9 0.266373 0.403072 0.564715
O O10 0.259931 0.524431 0.643625
O O11 0.315056 0.352518 0.670182
O O12 0.750000 0.994017 0.750000
O O13 0.500000 0.945335 0.710213
O O14 0.676548 0.016491 0.639916
O O15 0.794446 0.185345 0.860737
O O16 0.000000 0.114061 0.915435
O O17 0.500000 0.389096 0.963877
O O18 0.320302 0.398488 0.047525
O O19 0.000000 0.580939 0.629817
O O20 0.250000 0.233897 0.750000
O O21 0.000000 0.237044 0.797870
#
# Coordination Sequence:
#
# PCOD9418649 Si02
#       8
#     8   8   8   8   8   8   8   8
#     4   9  18  33  57  87 116 152 191 226 277 342
#     4   9  20  40  61  84 117 151 189 238 285 336
#     4  11  21  32  50  79 112 145 185 232 279 327
#     4  11  24  41  63  87 111 146 191 238 288 340
#     4  10  21  38  58  84 118 148 181 230 287 343
#     4   9  17  31  51  78 111 148 187 223 266 328
#     4   9  19  35  55  79 110 147 186 227 273 328
#     4  10  22  38  54  76 109 148 188 232 280 334
#
# _framework density 19.287749000000002
#
# number of rings (size 3 to 8) (size 9 to 14) (size 15 to 20)
#    0.000    2.250    1.250    3.000    0.000    6.000 
#    0.000    5.625    0.000    1.500    0.000    0.000 
#    0.000    0.000    0.000    0.000    0.000    0.000 
#
# Total GULP energy -357408.579839 kJ/mol
# GULP energy per Si atom -5584.509060 kJ/mol
# Density = 1.924385 g / cm^3
# Si number density = 19.287749 Si / 1000 Ang^3
#
#
#
# Elastic Constant Matrix: (Units=GPa)
#
#
# Indices 1 2 3 4 5 6 
#
# 1 70.9236 44.1827 36.8722 0.0000 0.0000 0.0000
# 2 44.1827 54.2703 28.3929 0.0000 0.0000 0.0000
# 3 36.8722 28.3929 32.3294 0.0000 0.0000 0.0000
# 4 0.0000 0.0000 0.0000 8.4934 0.0000 0.0000
# 5 0.0000 0.0000 0.0000 0.0000 30.3884 0.0000
# 6 0.0000 0.0000 0.0000 0.0000 0.0000 36.9510
#
#
#
# Elastic Compliance Matrix: (Units=1/GPa)
#
#
# Indices 1 2 3 4 5 6 
#
# 1 0.041453 -0.016675 -0.032633 0.000000 0.000000 0.000000
# 2 -0.016675 0.040797 -0.016812 0.000000 0.000000 0.000000
# 3 -0.032633 -0.016812 0.082915 0.000000 0.000000 0.000000
# 4 0.000000 0.000000 0.000000 0.117739 0.000000 0.000000
# 5 0.000000 0.000000 0.000000 0.000000 0.032907 0.000000
# 6 0.000000 0.000000 0.000000 0.000000 0.000000 0.027063
#
#
# Mechanical properties :
#
#
# Convention : Reuss Voigt Hill
#
# Bulk Modulus (GPa) = 30.37155 41.82433 36.09794
# Shear Modulus (GPa) = 10.28616 18.37158 14.32887
#
# Velocity S-wave (km/s) = 2.31183 3.08961 2.72858
# Velocity P-wave (km/s) = 4.78611 5.87018 5.35565
#
# Compressibility (1/GPa) = 0.03292555
#
# Stress axis : x y z
#
# Youngs Moduli (GPa) = 24.12356 24.51150 12.06052
#
# Poissons Ratio (x) = 0.40873 0.39358
# Poissons Ratio (y) = 0.40226 0.20276
# Poissons Ratio (z) = 0.78724 0.41208
#
# Static dielectric constant tensor:
#      x y z
#    x 1.640650 0.000000 0.000000 
#    y 0.000000 1.702150 0.000000 
#    z 0.000000 0.000000 1.653420 
# 
# From -- ./inp_files/34159.got.cif
#   From: 2010.05.17/outbox.cif.g08.bks.cpg/sg53_18_cif.got.tgz:34159.got - 2010.06.03 12:45:16.
