data_PCOD9418916
_publ_section_title
;
Structure prediction by ZEFSAII (Michael W. Deem and Ramdas Pophale) SiO2 
 PCOD9418916
Probable space group: P M N A
;
_chemical_formula_sum "Si O2"
_cell_formula_units_Z 32
_cell_length_a 14.301055
_cell_length_b 7.739844
_cell_length_c 12.586356
_cell_angle_alpha 90.000000
_cell_angle_beta 90.000000
_cell_angle_gamma 90.000000
_cell_volume 1393.157751
_symmetry_space_group_name_H-M "P M N A"
_symmetry_group_IT_number 53
_symmetry_cell_setting 'orthorhombic'
loop_
_space_group_symop_operation_xyz
x,y,z
1/2-x,-y,1/2+z
x,-y,-z
1/2-x,y,1/2-z
-x,-y,-z
1/2+x,y,1/2-z
-x,y,z
1/2+x,-y,1/2+z
loop_
_atom_site_type_symbol
_atom_site_label
_atom_site_fract_x
_atom_site_fract_y
_atom_site_fract_z
Si Si1 0.000000 0.075020 0.336043
Si Si2 0.198683 0.768259 0.585893
Si Si3 0.835679 0.000000 0.000000
Si Si4 0.500000 0.868356 0.375794
Si Si5 0.500000 0.322241 0.827123
Si Si6 0.795860 0.393435 0.643786
O O1 0.095881 0.169158 0.374960
O O2 0.000000 0.032523 0.207983
O O3 0.000000 0.126933 0.623397
O O4 0.208017 0.726216 0.459578
O O5 0.238379 0.589622 0.632291
O O6 0.272975 0.921303 0.594007
O O7 0.908447 0.867803 0.052828
O O8 0.500000 0.708507 0.298081
O O9 0.592939 0.420776 0.852398
O O10 0.750000 0.317426 0.750000
#
# Coordination Sequence:
#
# PCOD9418916 Si02
#       6
#     4   8   4   4   4   8
#     4  10  23  40  69  99 124 170 222 272 327 369
#     4  11  24  41  67  95 130 168 219 274 322 392
#     4  11  22  43  66  94 132 169 228 273 320 388
#     4   9  24  40  66  95 128 177 216 270 327 380
#     4  10  21  40  62  88 130 167 207 265 321 385
#     4  11  24  40  62  95 133 172 211 263 335 390
#
# _framework density 22.969403
#
# number of rings (size 3 to 8) (size 9 to 14) (size 15 to 20)
#    0.750    0.750    0.000    4.500    3.500    3.500 
#    0.000    0.000    0.000    6.000    0.000    0.000 
#    0.000    0.000    0.000    0.000    0.000    0.000 
#
# Total GULP energy -178276.249437 kJ/mol
# GULP energy per Si atom -5571.132795 kJ/mol
# Density = 2.291712 g / cm^3
# Si number density = 22.969403 Si / 1000 Ang^3
#
#
#
# Elastic Constant Matrix: (Units=GPa)
#
#
# Indices 1 2 3 4 5 6 
#
# 1 102.6410 -11.4189 6.6565 0.0000 0.0000 0.0000
# 2 -11.4189 56.6788 -16.5840 0.0000 0.0000 0.0000
# 3 6.6565 -16.5840 77.8999 0.0000 0.0000 0.0000
# 4 0.0000 0.0000 0.0000 10.4907 0.0000 0.0000
# 5 0.0000 0.0000 0.0000 0.0000 28.5037 0.0000
# 6 0.0000 0.0000 0.0000 0.0000 0.0000 10.5716
#
#
#
# Elastic Compliance Matrix: (Units=1/GPa)
#
#
# Indices 1 2 3 4 5 6 
#
# 1 0.009981 0.001878 -0.000453 0.000000 0.000000 0.000000
# 2 0.001878 0.019169 0.003920 0.000000 0.000000 0.000000
# 3 -0.000453 0.003920 0.013710 0.000000 0.000000 0.000000
# 4 0.000000 0.000000 0.000000 0.095322 0.000000 0.000000
# 5 0.000000 0.000000 0.000000 0.000000 0.035083 0.000000
# 6 0.000000 0.000000 0.000000 0.000000 0.000000 0.094593
#
#
# Mechanical properties :
#
#
# Convention : Reuss Voigt Hill
#
# Bulk Modulus (GPa) = 18.67370 21.61411 20.14390
# Shear Modulus (GPa) = 18.18064 27.15094 22.66579
#
# Velocity S-wave (km/s) = 2.81644 3.44182 3.14472
# Velocity P-wave (km/s) = 4.32711 5.02247 4.68771
#
# Compressibility (1/GPa) = 0.05355126
#
# Stress axis : x y z
#
# Youngs Moduli (GPa) = 100.19004 52.16820 72.93801
#
# Poissons Ratio (x) = -0.09799 0.03304
# Poissons Ratio (y) = -0.18819 -0.28594
# Poissons Ratio (z) = 0.04539 -0.20452
#
# Static dielectric constant tensor:
#      x y z
#    x 1.737100 0.000000 0.000000 
#    y 0.000000 1.962200 0.000000 
#    z 0.000000 0.000000 1.955170 
# 
# From -- ./inp_files/15575.got.cif
#   From: 2010.05.17/outbox.cif.g08.bks.cpg/sg53_8_cif.got.tgz:15575.got - 2010.06.03 12:45:16.
