data_PCOD9418069
_publ_section_title
;
Structure prediction by ZEFSAII (Michael W. Deem and Ramdas Pophale) SiO2 
 PCOD9418069
Probable space group: P M N A
;
_chemical_formula_sum "Si O2"
_cell_formula_units_Z 48
_cell_length_a 14.975706
_cell_length_b 9.086337
_cell_length_c 17.421240
_cell_angle_alpha 90.000000
_cell_angle_beta 90.000000
_cell_angle_gamma 90.000000
_cell_volume 2370.583239
_symmetry_space_group_name_H-M "P M N A"
_symmetry_group_IT_number 53
_symmetry_cell_setting 'orthorhombic'
loop_
_space_group_symop_operation_xyz
x,y,z
1/2-x,-y,1/2+z
x,-y,-z
1/2-x,y,1/2-z
-x,-y,-z
1/2+x,y,1/2-z
-x,y,z
1/2+x,-y,1/2+z
loop_
_atom_site_type_symbol
_atom_site_label
_atom_site_fract_x
_atom_site_fract_y
_atom_site_fract_z
Si Si1 0.699599 0.665582 0.169000
Si Si2 0.399297 0.081348 0.781831
Si Si3 0.835253 0.108644 0.892108
Si Si4 0.896218 0.795673 0.951588
Si Si5 0.729209 0.393200 0.072027
Si Si6 0.107972 0.893504 0.572562
O O1 0.750000 0.666033 0.250000
O O2 0.608782 0.754282 0.183535
O O3 0.752873 0.776776 0.112055
O O4 0.699807 0.500054 0.140622
O O5 0.500000 0.036687 0.769764
O O6 0.357431 0.086978 0.697687
O O7 0.363060 0.971722 0.847330
O O8 0.843028 0.941553 0.922867
O O9 0.896690 0.191149 0.955431
O O10 0.831731 0.663948 0.924710
O O11 0.000000 0.793603 0.925528
O O12 0.662858 0.255853 0.064858
O O13 0.721101 0.500000 0.000000
O O14 0.000000 0.871634 0.574143
O O15 0.126716 0.000000 0.500000
#
# Coordination Sequence:
#
# PCOD9418069 Si02
#       6
#     8   8   8   8   8   8
#     4  10  22  39  58  87 122 163 199 238 299 366
#     4  10  20  38  64  90 119 155 204 255 303 359
#     4  10  20  40  62  89 119 155 203 250 299 361
#     4  11  23  38  62  92 122 158 207 251 296 359
#     4  12  24  39  60  85 125 162 198 244 304 364
#     4  10  23  41  64  90 116 154 207 259 304 353
#
# _framework density 20.248180999999999
#
# number of rings (size 3 to 8) (size 9 to 14) (size 15 to 20)
#    0.000    1.500    1.667    4.000    2.333    2.667 
#    0.000    0.833    0.000    0.000    0.000    0.000 
#    0.000    0.000    0.000    0.000    0.000    0.000 
#
# Total GULP energy -267287.790372 kJ/mol
# GULP energy per Si atom -5568.495633 kJ/mol
# Density = 2.020210 g / cm^3
# Si number density = 20.248181 Si / 1000 Ang^3
#
#
#
# Elastic Constant Matrix: (Units=GPa)
#
#
# Indices 1 2 3 4 5 6 
#
# 1 58.5489 50.3767 27.2813 0.0000 0.0000 0.0000
# 2 50.3767 134.4831 46.6915 0.0000 0.0000 0.0000
# 3 27.2813 46.6915 96.2779 0.0000 0.0000 0.0000
# 4 0.0000 0.0000 0.0000 31.3613 0.0000 0.0000
# 5 0.0000 0.0000 0.0000 0.0000 19.9266 0.0000
# 6 0.0000 0.0000 0.0000 0.0000 0.0000 19.2657
#
#
#
# Elastic Compliance Matrix: (Units=1/GPa)
#
#
# Indices 1 2 3 4 5 6 
#
# 1 0.025987 -0.008631 -0.003178 0.000000 0.000000 0.000000
# 2 -0.008631 0.011808 -0.003281 0.000000 0.000000 0.000000
# 3 -0.003178 -0.003281 0.012878 0.000000 0.000000 0.000000
# 4 0.000000 0.000000 0.000000 0.031886 0.000000 0.000000
# 5 0.000000 0.000000 0.000000 0.000000 0.050184 0.000000
# 6 0.000000 0.000000 0.000000 0.000000 0.000000 0.051906
#
#
# Mechanical properties :
#
#
# Convention : Reuss Voigt Hill
#
# Bulk Modulus (GPa) = 48.79587 59.77876 54.28732
# Shear Modulus (GPa) = 22.55699 25.10806 23.83252
#
# Velocity S-wave (km/s) = 3.34132 3.52521 3.43450
# Velocity P-wave (km/s) = 6.24797 6.79386 6.52663
#
# Compressibility (1/GPa) = 0.02049354
#
# Stress axis : x y z
#
# Youngs Moduli (GPa) = 38.48076 84.68698 77.65092
#
# Poissons Ratio (x) = 0.73096 0.24676
# Poissons Ratio (y) = 0.33214 0.25476
# Poissons Ratio (z) = 0.12228 0.27784
#
# Static dielectric constant tensor:
#      x y z
#    x 1.764310 0.000000 0.000000 
#    y 0.000000 1.731540 0.000000 
#    z 0.000000 0.000000 1.804560 
# 
# From -- ./inp_files/28294.got.cif
#   From: 2010.05.17/outbox.cif.g08.bks.cpg/sg53_15_cif.got.tgz:28294.got - 2010.06.03 12:45:16.
