data_PCOD9418982
_publ_section_title
;
Structure prediction by ZEFSAII (Michael W. Deem and Ramdas Pophale) SiO2 
 PCOD9418982
Probable space group: P M N A
;
_chemical_formula_sum "Si O2"
_cell_formula_units_Z 64
_cell_length_a 8.416078
_cell_length_b 18.346805
_cell_length_c 20.556858
_cell_angle_alpha 90.000000
_cell_angle_beta 90.000000
_cell_angle_gamma 90.000000
_cell_volume 3174.146248
_symmetry_space_group_name_H-M "P M N A"
_symmetry_group_IT_number 53
_symmetry_cell_setting 'orthorhombic'
loop_
_space_group_symop_operation_xyz
x,y,z
1/2-x,-y,1/2+z
x,-y,-z
1/2-x,y,1/2-z
-x,-y,-z
1/2+x,y,1/2-z
-x,y,z
1/2+x,-y,1/2+z
loop_
_atom_site_type_symbol
_atom_site_label
_atom_site_fract_x
_atom_site_fract_y
_atom_site_fract_z
Si Si1 0.809664 0.165153 0.179568
Si Si2 0.690134 0.213546 0.039915
Si Si3 0.686509 0.119529 0.576344
Si Si4 0.808651 0.497507 0.596208
Si Si5 0.307810 0.625258 0.990090
Si Si6 0.312635 0.236567 0.824411
Si Si7 0.691912 0.995474 0.320533
Si Si8 0.314985 0.384443 0.678251
O O1 0.750000 0.193122 0.250000
O O2 0.747742 0.202497 0.113806
O O3 0.000000 0.167662 0.179500
O O4 0.758946 0.079908 0.175591
O O5 0.500000 0.216319 0.039988
O O6 0.751231 0.292176 0.012967
O O7 0.740535 0.148822 0.990913
O O8 0.500000 0.109196 0.564504
O O9 0.718013 0.182039 0.629757
O O10 0.748308 0.048536 0.615667
O O11 0.766064 0.578233 0.574060
O O12 0.759521 0.433372 0.545048
O O13 0.722219 0.466246 0.657934
O O14 0.000000 0.494102 0.601781
O O15 0.500000 0.628214 0.994020
O O16 0.250000 0.231096 0.750000
O O17 0.500000 0.221083 0.825688
O O18 0.282575 0.317678 0.853432
O O19 0.750000 0.966337 0.250000
O O20 0.500000 0.991545 0.319817
O O21 0.250000 0.379327 0.750000
O O22 0.500000 0.367496 0.673273
#
# Coordination Sequence:
#
# PCOD9418982 Si02
#       8
#     8   8   8   8   8   8   8   8
#     4  10  21  41  64  85 108 143 186 233 283 337
#     4  11  22  37  57  86 117 148 184 227 277 334
#     4  11  22  36  54  82 116 150 184 229 279 327
#     4   9  16  33  57  78 101 136 176 219 267 320
#     4   8  17  33  56  80 105 137 175 215 266 325
#     4  11  21  34  51  75 109 152 193 230 272 329
#     4   9  20  37  59  83 112 148 189 229 274 327
#     4  11  21  33  49  73 103 139 179 222 267 318
#
# _framework density 20.162901999999999
#
# number of rings (size 3 to 8) (size 9 to 14) (size 15 to 20)
#    0.000    2.000    0.000    6.000    0.000    4.000 
#    0.000    6.250    0.000    0.000    0.000    0.000 
#    0.000    0.000    0.000    0.000    0.000    0.000 
#
# Total GULP energy -356716.915778 kJ/mol
# GULP energy per Si atom -5573.701809 kJ/mol
# Density = 2.011701 g / cm^3
# Si number density = 20.162902 Si / 1000 Ang^3
#
#
#
# Elastic Constant Matrix: (Units=GPa)
#
#
# Indices 1 2 3 4 5 6 
#
# 1 32.4532 7.7950 14.3091 0.0000 0.0000 0.0000
# 2 7.7950 50.0873 20.7528 0.0000 0.0000 0.0000
# 3 14.3091 20.7528 88.8335 0.0000 0.0000 0.0000
# 4 0.0000 0.0000 0.0000 32.0204 0.0000 0.0000
# 5 0.0000 0.0000 0.0000 0.0000 26.3465 0.0000
# 6 0.0000 0.0000 0.0000 0.0000 0.0000 17.1842
#
#
#
# Elastic Compliance Matrix: (Units=1/GPa)
#
#
# Indices 1 2 3 4 5 6 
#
# 1 0.033659 -0.003313 -0.004648 0.000000 0.000000 0.000000
# 2 -0.003313 0.022431 -0.004707 0.000000 0.000000 0.000000
# 3 -0.004648 -0.004707 0.013105 0.000000 0.000000 0.000000
# 4 0.000000 0.000000 0.000000 0.031230 0.000000 0.000000
# 5 0.000000 0.000000 0.000000 0.000000 0.037956 0.000000
# 6 0.000000 0.000000 0.000000 0.000000 0.000000 0.058193
#
#
# Mechanical properties :
#
#
# Convention : Reuss Voigt Hill
#
# Bulk Modulus (GPa) = 22.79945 28.56533 25.68239
# Shear Modulus (GPa) = 21.13922 23.67803 22.40863
#
# Velocity S-wave (km/s) = 3.24145 3.43058 3.33735
# Velocity P-wave (km/s) = 5.03403 5.46716 5.25506
#
# Compressibility (1/GPa) = 0.04386071
#
# Stress axis : x y z
#
# Youngs Moduli (GPa) = 29.71016 44.58164 76.30565
#
# Poissons Ratio (x) = 0.14768 0.35465
# Poissons Ratio (y) = 0.09842 0.35914
# Poissons Ratio (z) = 0.13809 0.20983
#
# Static dielectric constant tensor:
#      x y z
#    x 1.666790 0.000000 0.000000 
#    y 0.000000 1.808990 0.000000 
#    z 0.000000 0.000000 1.771320 
# 
# From -- ./inp_files/31228.got.cif
#   From: 2010.05.17/outbox.cif.g08.bks.cpg/sg53_16_cif.got.tgz:31228.got - 2010.06.03 12:45:16.
