data_PCOD9418292
_publ_section_title
;
Structure prediction by ZEFSAII (Michael W. Deem and Ramdas Pophale) SiO2 
 PCOD9418292
Probable space group: P M N A
;
_chemical_formula_sum "Si O2"
_cell_formula_units_Z 48
_cell_length_a 8.404902
_cell_length_b 31.741352
_cell_length_c 9.362576
_cell_angle_alpha 90.000000
_cell_angle_beta 90.000000
_cell_angle_gamma 90.000000
_cell_volume 2497.775672
_symmetry_space_group_name_H-M "P M N A"
_symmetry_group_IT_number 53
_symmetry_cell_setting 'orthorhombic'
loop_
_space_group_symop_operation_xyz
x,y,z
1/2-x,-y,1/2+z
x,-y,-z
1/2-x,y,1/2-z
-x,-y,-z
1/2+x,y,1/2-z
-x,y,z
1/2+x,-y,1/2+z
loop_
_atom_site_type_symbol
_atom_site_label
_atom_site_fract_x
_atom_site_fract_y
_atom_site_fract_z
Si Si1 0.692274 0.458869 0.087827
Si Si2 0.192360 0.376913 0.588707
Si Si3 0.307780 0.201601 0.089267
Si Si4 0.192259 0.703305 0.589349
Si Si5 0.809176 0.041232 0.087761
Si Si6 0.190765 0.878604 0.411236
O O1 0.750000 0.459986 0.250000
O O2 0.500000 0.458936 0.088763
O O3 0.745815 0.500000 0.000000
O O4 0.745587 0.416515 0.006914
O O5 0.250000 0.381086 0.750000
O O6 0.247374 0.333191 0.517038
O O7 0.000000 0.376867 0.588725
O O8 0.250000 0.192608 0.250000
O O9 0.500000 0.201360 0.090311
O O10 0.255007 0.249150 0.051257
O O11 0.252969 0.165332 0.981854
O O12 0.250000 0.694470 0.750000
O O13 0.000000 0.703043 0.589974
O O14 0.750000 0.039726 0.250000
O O15 0.000000 0.041646 0.088351
O O16 0.749024 0.082825 0.007911
O O17 0.754990 0.000000 0.000000
O O18 0.250000 0.883120 0.250000
O O19 0.000000 0.878634 0.410885
#
# Coordination Sequence:
#
# PCOD9418292 Si02
#       6
#     8   8   8   8   8   8
#     4  10  21  36  54  78 106 136 174 218 263 314
#     4  10  21  35  52  76 106 139 176 218 263 315
#     4   9  19  35  55  79 107 140 178 222 269 319
#     4   9  18  34  54  77 105 137 177 221 266 318
#     4  11  24  41  62  87 115 147 183 224 270 320
#     4  11  23  38  57  82 113 147 184 226 272 322
#
# _framework density 19.217099000000001
#
# number of rings (size 3 to 8) (size 9 to 14) (size 15 to 20)
#    0.000    2.000    0.000    3.000    0.000    7.667 
#    0.000    0.000    0.000    0.000    0.000    0.000 
#    0.000    0.000    0.000    0.000    0.000    0.000 
#
# Total GULP energy -268156.538427 kJ/mol
# GULP energy per Si atom -5586.594551 kJ/mol
# Density = 1.917336 g / cm^3
# Si number density = 19.217099 Si / 1000 Ang^3
#
#
#
# Elastic Constant Matrix: (Units=GPa)
#
#
# Indices 1 2 3 4 5 6 
#
# 1 14.8988 28.9448 22.5848 0.0000 0.0000 0.0000
# 2 28.9448 171.9936 130.1791 0.0000 0.0000 0.0000
# 3 22.5848 130.1791 193.3278 0.0000 0.0000 0.0000
# 4 0.0000 0.0000 0.0000 44.3313 0.0000 0.0000
# 5 0.0000 0.0000 0.0000 0.0000 37.8447 0.0000
# 6 0.0000 0.0000 0.0000 0.0000 0.0000 -11.2591
#
#
#
# Elastic Compliance Matrix: (Units=1/GPa)
#
#
# Indices 1 2 3 4 5 6 
#
# 1 0.099772 -0.016251 -0.000712 0.000000 0.000000 0.000000
# 2 -0.016251 0.014504 -0.007868 0.000000 0.000000 0.000000
# 3 -0.000712 -0.007868 0.010554 0.000000 0.000000 0.000000
# 4 0.000000 0.000000 0.000000 0.022557 0.000000 0.000000
# 5 0.000000 0.000000 0.000000 0.000000 0.026424 0.000000
# 6 0.000000 0.000000 0.000000 0.000000 0.000000 -0.088817
#
#
# Mechanical properties :
#
#
# Convention : Reuss Voigt Hill
#
# Bulk Modulus (GPa) = 13.30387 82.62641 47.96514
# Shear Modulus (GPa) = 31.30598 27.41746 29.36172
#
# Velocity S-wave (km/s) = 4.04055 3.78130 3.91307
# Velocity P-wave (km/s) = 5.35780 7.88377 6.74018
#
# Compressibility (1/GPa) = 0.07516613
#
# Stress axis : x y z
#
# Youngs Moduli (GPa) = 10.02287 68.94465 94.75173
#
# Poissons Ratio (x) = 1.12044 0.06751
# Poissons Ratio (y) = 0.16288 0.74552
# Poissons Ratio (z) = 0.00714 0.54247
#
# Static dielectric constant tensor:
#      x y z
#    x 1.660030 0.000000 0.000000 
#    y 0.000000 1.682330 0.000000 
#    z 0.000000 0.000000 1.612040 
# 
# From -- ./inp_files/6585.got.cif
#   From: 2010.05.17/outbox.cif.g08.bks.cpg/sg53_4_cif.got.tgz:6585.got - 2010.06.03 12:45:16.
