data_PCOD9418924
_publ_section_title
;
Structure prediction by ZEFSAII (Michael W. Deem and Ramdas Pophale) SiO2 
 PCOD9418924
Probable space group: P M N A
;
_chemical_formula_sum "Si O2"
_cell_formula_units_Z 64
_cell_length_a 8.451711
_cell_length_b 12.234020
_cell_length_c 31.722733
_cell_angle_alpha 90.000000
_cell_angle_beta 90.000000
_cell_angle_gamma 90.000000
_cell_volume 3280.079880
_symmetry_space_group_name_H-M "P M N A"
_symmetry_group_IT_number 53
_symmetry_cell_setting 'orthorhombic'
loop_
_space_group_symop_operation_xyz
x,y,z
1/2-x,-y,1/2+z
x,-y,-z
1/2-x,y,1/2-z
-x,-y,-z
1/2+x,y,1/2-z
-x,y,z
1/2+x,-y,1/2+z
loop_
_atom_site_type_symbol
_atom_site_label
_atom_site_fract_x
_atom_site_fract_y
_atom_site_fract_z
Si Si1 0.310785 0.529757 0.047788
Si Si2 0.688089 0.251119 0.588373
Si Si3 0.192468 0.020986 0.952694
Si Si4 0.312448 0.511624 0.294610
Si Si5 0.192149 0.620010 0.877384
Si Si6 0.808701 0.126502 0.125314
Si Si7 0.186797 0.746131 0.317758
Si Si8 0.689553 0.011071 0.795062
O O1 0.500000 0.543719 0.049836
O O2 0.228255 0.641488 0.062077
O O3 0.259354 0.437415 0.081045
O O4 0.266941 0.500000 0.000000
O O5 0.500000 0.247599 0.597366
O O6 0.779399 0.254974 0.632420
O O7 0.733039 0.141782 0.563394
O O8 0.245372 0.934243 0.917433
O O9 0.000000 0.015036 0.953849
O O10 0.250446 0.000000 0.000000
O O11 0.250000 0.469030 0.250000
O O12 0.500000 0.502252 0.294455
O O13 0.253766 0.446527 0.335839
O O14 0.267314 0.638789 0.299069
O O15 0.238707 0.746755 0.874303
O O16 0.000000 0.614193 0.879267
O O17 0.748610 0.060825 0.165901
O O18 0.000000 0.122648 0.126034
O O19 0.000000 0.738350 0.309557
O O20 0.246065 0.863141 0.300947
O O21 0.750000 0.969874 0.750000
O O22 0.500000 0.012038 0.795467
#
# Coordination Sequence:
#
# PCOD9418924 Si02
#       8
#     8   8   8   8   8   8   8   8
#     4  11  25  42  61  88 125 165 204 248 302 360
#     4  11  21  36  64  94 122 158 201 251 303 358
#     4   9  19  35  59  92 123 156 198 246 299 352
#     4  11  23  39  60  89 120 155 202 248 303 361
#     4  10  23  41  63  90 119 159 207 252 298 357
#     4  10  21  40  63  87 122 159 200 252 301 355
#     4  11  22  38  61  90 125 160 196 247 306 360
#     4  11  24  40  61  89 122 159 203 249 300 361
#
# _framework density 19.511721000000001
#
# number of rings (size 3 to 8) (size 9 to 14) (size 15 to 20)
#    0.000    1.500    2.500    2.250    1.750    5.000 
#    0.000    1.250    0.000    1.875    0.000    0.000 
#    0.000    0.000    0.000    0.000    0.000    0.000 
#
# Total GULP energy -357729.614673 kJ/mol
# GULP energy per Si atom -5589.525229 kJ/mol
# Density = 1.946731 g / cm^3
# Si number density = 19.511721 Si / 1000 Ang^3
#
#
#
# Elastic Constant Matrix: (Units=GPa)
#
#
# Indices 1 2 3 4 5 6 
#
# 1 17.2569 16.0454 13.7914 0.0000 0.0000 0.0000
# 2 16.0454 135.7509 69.8662 0.0000 0.0000 0.0000
# 3 13.7914 69.8662 175.0063 0.0000 0.0000 0.0000
# 4 0.0000 0.0000 0.0000 35.7089 0.0000 0.0000
# 5 0.0000 0.0000 0.0000 0.0000 23.8259 0.0000
# 6 0.0000 0.0000 0.0000 0.0000 0.0000 36.4349
#
#
#
# Elastic Compliance Matrix: (Units=1/GPa)
#
#
# Indices 1 2 3 4 5 6 
#
# 1 0.066049 -0.006454 -0.002628 0.000000 0.000000 0.000000
# 2 -0.006454 0.009902 -0.003444 0.000000 0.000000 0.000000
# 3 -0.002628 -0.003444 0.007296 0.000000 0.000000 0.000000
# 4 0.000000 0.000000 0.000000 0.028004 0.000000 0.000000
# 5 0.000000 0.000000 0.000000 0.000000 0.041971 0.000000
# 6 0.000000 0.000000 0.000000 0.000000 0.000000 0.027446
#
#
# Mechanical properties :
#
#
# Convention : Reuss Voigt Hill
#
# Bulk Modulus (GPa) = 17.18399 58.60223 37.89311
# Shear Modulus (GPa) = 22.21026 34.41470 28.31248
#
# Velocity S-wave (km/s) = 3.37754 4.20431 3.81340
# Velocity P-wave (km/s) = 4.90270 7.32584 6.23315
#
# Compressibility (1/GPa) = 0.05819372
#
# Stress axis : x y z
#
# Youngs Moduli (GPa) = 15.14019 100.98917 137.05532
#
# Poissons Ratio (x) = 0.65180 0.36024
# Poissons Ratio (y) = 0.09772 0.47209
# Poissons Ratio (z) = 0.03979 0.34786
#
# Static dielectric constant tensor:
#      x y z
#    x 1.673350 0.000000 0.000000 
#    y 0.000000 1.665050 0.000000 
#    z 0.000000 0.000000 1.666320 
# 
# From -- ./inp_files/38252.got.cif
#   From: 2010.05.17/outbox.cif.g08.bks.cpg/sg53_20_cif.got.tgz:38252.got - 2010.06.03 12:45:16.
