data_PCOD9418489
_publ_section_title
;
Structure prediction by ZEFSAII (Michael W. Deem and Ramdas Pophale) SiO2 
 PCOD9418489
Probable space group: P M N A
;
_chemical_formula_sum "Si O2"
_cell_formula_units_Z 64
_cell_length_a 8.731964
_cell_length_b 15.295057
_cell_length_c 25.176901
_cell_angle_alpha 90.000000
_cell_angle_beta 90.000000
_cell_angle_gamma 90.000000
_cell_volume 3362.523348
_symmetry_space_group_name_H-M "P M N A"
_symmetry_group_IT_number 53
_symmetry_cell_setting 'orthorhombic'
loop_
_space_group_symop_operation_xyz
x,y,z
1/2-x,-y,1/2+z
x,-y,-z
1/2-x,y,1/2-z
-x,-y,-z
1/2+x,y,1/2-z
-x,y,z
1/2+x,-y,1/2+z
loop_
_atom_site_type_symbol
_atom_site_label
_atom_site_fract_x
_atom_site_fract_y
_atom_site_fract_z
Si Si1 0.683010 0.932467 0.807767
Si Si2 0.178461 0.263062 0.491137
Si Si3 0.680607 0.356630 0.193712
Si Si4 0.317113 0.124365 0.692390
Si Si5 0.684678 0.269653 0.884486
Si Si6 0.319609 0.532170 0.140178
Si Si7 0.832028 0.569275 0.953674
Si Si8 0.681623 0.785914 0.616449
O O1 0.750000 0.907658 0.750000
O O2 0.500000 0.934989 0.804867
O O3 0.738499 0.863505 0.851090
O O4 0.747620 0.028998 0.819944
O O5 0.228400 0.262336 0.552948
O O6 0.205462 0.361639 0.471003
O O7 0.268996 0.210997 0.445417
O O8 0.000000 0.239403 0.489125
O O9 0.750000 0.328838 0.250000
O O10 0.500000 0.336671 0.191511
O O11 0.697448 0.462092 0.187686
O O12 0.760556 0.303271 0.145774
O O13 0.250000 0.149914 0.750000
O O14 0.500000 0.118326 0.695575
O O15 0.265167 0.194758 0.649255
O O16 0.500000 0.259524 0.881814
O O17 0.720814 0.365327 0.859306
O O18 0.500000 0.529135 0.125046
O O19 0.216614 0.486639 0.096256
O O20 0.000000 0.612229 0.946485
O O21 0.844176 0.500000 0.000000
O O22 0.500000 0.792480 0.621766
#
# Coordination Sequence:
#
# PCOD9418489 Si02
#       8
#     8   8   8   8   8   8   8   8
#     4  11  22  41  68  95 122 154 198 248 300 362
#     4  11  22  37  59  86 121 163 205 247 297 358
#     4  11  23  38  56  81 117 160 205 251 305 362
#     4  11  23  42  68  95 123 155 195 248 303 358
#     4  10  22  40  62  90 122 161 205 251 301 356
#     4  10  21  37  57  80 113 157 203 247 295 354
#     4  11  21  32  52  82 115 152 200 250 295 344
#     4  12  24  39  60  89 124 158 198 249 303 361
#
# _framework density 19.033325999999999
#
# number of rings (size 3 to 8) (size 9 to 14) (size 15 to 20)
#    0.000    1.125    2.500    5.625    0.000    3.000 
#    0.000    1.875    0.000    3.750    0.000    0.000 
#    0.000    0.000    0.000    0.000    0.000    0.000 
#
# Total GULP energy -357277.188426 kJ/mol
# GULP energy per Si atom -5582.456069 kJ/mol
# Density = 1.899001 g / cm^3
# Si number density = 19.033326 Si / 1000 Ang^3
#
#
#
# Elastic Constant Matrix: (Units=GPa)
#
#
# Indices 1 2 3 4 5 6 
#
# 1 109.6857 48.1035 52.2882 0.0000 0.0000 0.0000
# 2 48.1035 90.6634 51.8381 0.0000 0.0000 0.0000
# 3 52.2882 51.8381 77.9849 0.0000 0.0000 0.0000
# 4 0.0000 0.0000 0.0000 31.6024 0.0000 0.0000
# 5 0.0000 0.0000 0.0000 0.0000 0.2792 0.0000
# 6 0.0000 0.0000 0.0000 0.0000 0.0000 27.3429
#
#
#
# Elastic Compliance Matrix: (Units=1/GPa)
#
#
# Indices 1 2 3 4 5 6 
#
# 1 0.013994 -0.003323 -0.007174 0.000000 0.000000 0.000000
# 2 -0.003323 0.018581 -0.010123 0.000000 0.000000 0.000000
# 3 -0.007174 -0.010123 0.024362 0.000000 0.000000 0.000000
# 4 0.000000 0.000000 0.000000 0.031643 0.000000 0.000000
# 5 0.000000 0.000000 0.000000 0.000000 3.582131 0.000000
# 6 0.000000 0.000000 0.000000 0.000000 0.000000 0.036573
#
#
# Mechanical properties :
#
#
# Convention : Reuss Voigt Hill
#
# Bulk Modulus (GPa) = 63.70676 64.75486 64.23081
# Shear Modulus (GPa) = 1.33200 20.25185 10.79192
#
# Velocity S-wave (km/s) = 0.83746 3.26547 2.38376
# Velocity P-wave (km/s) = 5.87188 6.95079 6.43399
#
# Compressibility (1/GPa) = 0.01569692
#
# Stress axis : x y z
#
# Youngs Moduli (GPa) = 71.45763 53.81868 41.04720
#
# Poissons Ratio (x) = 0.17884 0.29448
# Poissons Ratio (y) = 0.23746 0.41552
# Poissons Ratio (z) = 0.51265 0.54481
#
# Static dielectric constant tensor:
#      x y z
#    x 1.654580 0.000000 0.000000 
#    y 0.000000 1.671290 0.000000 
#    z 0.000000 0.000000 1.578230 
# 
# From -- ./inp_files/34264.got.cif
#   From: 2010.05.17/outbox.cif.g08.bks.cpg/sg53_18_cif.got.tgz:34264.got - 2010.06.03 12:45:16.
