data_PCOD9418468
_publ_section_title
;
Structure prediction by ZEFSAII (Michael W. Deem and Ramdas Pophale) SiO2 
 PCOD9418468
Probable space group: P M N A
;
_chemical_formula_sum "Si O2"
_cell_formula_units_Z 48
_cell_length_a 8.358185
_cell_length_b 18.687153
_cell_length_c 15.172640
_cell_angle_alpha 90.000000
_cell_angle_beta 90.000000
_cell_angle_gamma 90.000000
_cell_volume 2369.824988
_symmetry_space_group_name_H-M "P M N A"
_symmetry_group_IT_number 53
_symmetry_cell_setting 'orthorhombic'
loop_
_space_group_symop_operation_xyz
x,y,z
1/2-x,-y,1/2+z
x,-y,-z
1/2-x,y,1/2-z
-x,-y,-z
1/2+x,y,1/2-z
-x,y,z
1/2+x,-y,1/2+z
loop_
_atom_site_type_symbol
_atom_site_label
_atom_site_fract_x
_atom_site_fract_y
_atom_site_fract_z
Si Si1 0.190272 0.953360 0.346312
Si Si2 0.303879 0.673248 0.463933
Si Si3 0.316368 0.473039 0.601744
Si Si4 0.309723 0.170241 0.528084
Si Si5 0.192024 0.882193 0.653155
Si Si6 0.306506 0.377139 0.342118
O O1 0.250000 0.930625 0.250000
O O2 0.242415 0.897114 0.419288
O O3 0.000000 0.956331 0.345314
O O4 0.247337 0.035015 0.361144
O O5 0.500000 0.670146 0.462056
O O6 0.244980 0.606393 0.405198
O O7 0.252888 0.752506 0.436872
O O8 0.257618 0.660078 0.566309
O O9 0.323666 0.500000 0.500000
O O10 0.500000 0.465732 0.633098
O O11 0.242761 0.540646 0.651630
O O12 0.500000 0.168439 0.535547
O O13 0.262327 0.163462 0.426081
O O14 0.250000 0.860449 0.750000
O O15 0.000000 0.880086 0.649852
O O16 0.250000 0.344579 0.250000
O O17 0.500000 0.379069 0.342720
#
# Coordination Sequence:
#
# PCOD9418468 Si02
#       6
#     8   8   8   8   8   8
#     4  10  21  38  58  78 101 133 176 223 266 310
#     4   8  16  30  47  69  96 129 166 199 239 296
#     4   7  11  24  46  65  83 115 158 195 225 268
#     4  11  21  33  53  80 110 142 174 211 260 318
#     4  10  21  37  56  78 105 137 176 220 262 309
#     4   9  16  28  48  71  94 123 161 203 245 291
#
# _framework density 20.254660000000001
#
# number of rings (size 3 to 8) (size 9 to 14) (size 15 to 20)
#    0.000    2.833    0.000    4.000    0.000    4.667 
#    0.000    4.167    0.000    8.500    0.000    0.000 
#    0.000    0.000    0.000    0.000    0.000    0.000 
#
# Total GULP energy -267587.294369 kJ/mol
# GULP energy per Si atom -5574.735299 kJ/mol
# Density = 2.020856 g / cm^3
# Si number density = 20.254660 Si / 1000 Ang^3
#
#
#
# Elastic Constant Matrix: (Units=GPa)
#
#
# Indices 1 2 3 4 5 6 
#
# 1 13.2499 3.2983 -4.3530 0.0000 0.0000 0.0000
# 2 3.2983 58.4801 0.3463 0.0000 0.0000 0.0000
# 3 -4.3530 0.3463 23.6104 0.0000 0.0000 0.0000
# 4 0.0000 0.0000 0.0000 9.9476 0.0000 0.0000
# 5 0.0000 0.0000 0.0000 0.0000 27.2806 0.0000
# 6 0.0000 0.0000 0.0000 0.0000 0.0000 4.0434
#
#
#
# Elastic Compliance Matrix: (Units=1/GPa)
#
#
# Indices 1 2 3 4 5 6 
#
# 1 0.081606 -0.004692 0.015114 0.000000 0.000000 0.000000
# 2 -0.004692 0.017371 -0.001120 0.000000 0.000000 0.000000
# 3 0.015114 -0.001120 0.045157 0.000000 0.000000 0.000000
# 4 0.000000 0.000000 0.000000 0.100526 0.000000 0.000000
# 5 0.000000 0.000000 0.000000 0.000000 0.036656 0.000000
# 6 0.000000 0.000000 0.000000 0.000000 0.000000 0.247315
#
#
# Mechanical properties :
#
#
# Convention : Reuss Voigt Hill
#
# Bulk Modulus (GPa) = 6.14480 10.43595 8.29037
# Shear Modulus (GPa) = 8.86095 14.65760 11.75927
#
# Velocity S-wave (km/s) = 2.09386 2.69302 2.41212
# Velocity P-wave (km/s) = 2.98095 3.85141 3.44379
#
# Compressibility (1/GPa) = 0.16273928
#
# Stress axis : x y z
#
# Youngs Moduli (GPa) = 12.25401 57.56692 22.14482
#
# Poissons Ratio (x) = 0.27011 -0.33471
# Poissons Ratio (y) = 0.05750 0.02480
# Poissons Ratio (z) = -0.18521 0.06447
#
# Static dielectric constant tensor:
#      x y z
#    x 1.707650 0.000000 0.000000 
#    y 0.000000 1.781300 0.000000 
#    z 0.000000 0.000000 1.703200 
# 
# From -- ./inp_files/20222.got.cif
#   From: 2010.05.17/outbox.cif.g08.bks.cpg/sg53_11_cif.got.tgz:20222.got - 2010.06.03 12:45:16.
