data_PCOD9418019
_publ_section_title
;
Structure prediction by ZEFSAII (Michael W. Deem and Ramdas Pophale) SiO2 
 PCOD9418019
Probable space group: P M N A
;
_chemical_formula_sum "Si O2"
_cell_formula_units_Z 64
_cell_length_a 17.193469
_cell_length_b 20.637572
_cell_length_c 9.300262
_cell_angle_alpha 90.000000
_cell_angle_beta 90.000000
_cell_angle_gamma 90.000000
_cell_volume 3300.025492
_symmetry_space_group_name_H-M "P M N A"
_symmetry_group_IT_number 53
_symmetry_cell_setting 'orthorhombic'
loop_
_space_group_symop_operation_xyz
x,y,z
1/2-x,-y,1/2+z
x,-y,-z
1/2-x,y,1/2-z
-x,-y,-z
1/2+x,y,1/2-z
-x,y,z
1/2+x,-y,1/2+z
loop_
_atom_site_type_symbol
_atom_site_label
_atom_site_fract_x
_atom_site_fract_y
_atom_site_fract_z
Si Si1 0.328591 0.488262 0.667974
Si Si2 0.410617 0.360467 0.600943
Si Si3 0.092494 0.130711 0.192467
Si Si4 0.159804 0.634164 0.792870
Si Si5 0.091887 0.253386 0.393078
Si Si6 0.909577 0.136501 0.854030
Si Si7 0.329303 0.995552 0.329594
Si Si8 0.837105 0.254984 0.703335
O O1 0.309478 0.500000 0.500000
O O2 0.250000 0.469624 0.750000
O O3 0.389163 0.429812 0.669711
O O4 0.357425 0.557537 0.727084
O O5 0.500000 0.359421 0.554320
O O6 0.357127 0.351269 0.460159
O O7 0.393413 0.304823 0.714886
O O8 0.112266 0.190888 0.294843
O O9 0.138139 0.064503 0.223850
O O10 0.000000 0.118470 0.205871
O O11 0.106370 0.146669 0.024090
O O12 0.250000 0.643426 0.750000
O O13 0.108409 0.682240 0.698663
O O14 0.144280 0.256004 0.535130
O O15 0.000000 0.248933 0.429731
O O16 0.856519 0.183982 0.762825
O O17 0.000000 0.150986 0.828030
O O18 0.890997 0.062363 0.814910
O O19 0.250000 0.979005 0.250000
O O20 0.314250 0.000000 0.500000
O O21 0.750000 0.272724 0.750000
#
# Coordination Sequence:
#
# PCOD9418019 Si02
#       8
#     8   8   8   8   8   8   8   8
#     4   9  20  37  59  86 117 152 192 237 288 345
#     4  11  22  38  61  87 116 153 196 238 285 345
#     4   9  20  38  60  84 112 149 188 234 287 338
#     4  10  21  38  60  87 117 153 193 236 289 343
#     4  11  23  39  59  85 117 150 192 243 291 339
#     4  10  20  38  61  84 113 149 191 234 284 345
#     4  10  21  36  57  85 115 148 189 234 281 338
#     4  12  25  40  58  83 117 154 193 238 291 349
#
# _framework density 19.393789999999999
#
# number of rings (size 3 to 8) (size 9 to 14) (size 15 to 20)
#    0.000    1.750    0.000    4.125    0.000   10.750 
#    0.000    0.000    0.000    4.875    0.000    0.000 
#    0.000    0.000    0.000    0.000    0.000    0.000 
#
# Total GULP energy -357533.168232 kJ/mol
# GULP energy per Si atom -5586.455754 kJ/mol
# Density = 1.934965 g / cm^3
# Si number density = 19.393790 Si / 1000 Ang^3
#
#
#
# Elastic Constant Matrix: (Units=GPa)
#
#
# Indices 1 2 3 4 5 6 
#
# 1 53.0955 34.5609 31.6476 0.0000 0.0000 0.0000
# 2 34.5609 85.5493 55.6127 0.0000 0.0000 0.0000
# 3 31.6476 55.6127 65.5373 0.0000 0.0000 0.0000
# 4 0.0000 0.0000 0.0000 10.4974 0.0000 0.0000
# 5 0.0000 0.0000 0.0000 0.0000 29.6251 0.0000
# 6 0.0000 0.0000 0.0000 0.0000 0.0000 32.9485
#
#
#
# Elastic Compliance Matrix: (Units=1/GPa)
#
#
# Indices 1 2 3 4 5 6 
#
# 1 0.027575 -0.005540 -0.008615 0.000000 0.000000 0.000000
# 2 -0.005540 0.027183 -0.020391 0.000000 0.000000 0.000000
# 3 -0.008615 -0.020391 0.036722 0.000000 0.000000 0.000000
# 4 0.000000 0.000000 0.000000 0.095262 0.000000 0.000000
# 5 0.000000 0.000000 0.000000 0.000000 0.033755 0.000000
# 6 0.000000 0.000000 0.000000 0.000000 0.000000 0.030350
#
#
# Mechanical properties :
#
#
# Convention : Reuss Voigt Hill
#
# Bulk Modulus (GPa) = 44.66734 49.75827 47.21281
# Shear Modulus (GPa) = 15.27177 20.10492 17.68835
#
# Velocity S-wave (km/s) = 2.80921 3.22323 3.02331
# Velocity P-wave (km/s) = 5.79690 6.29005 6.04850
#
# Compressibility (1/GPa) = 0.02238772
#
# Stress axis : x y z
#
# Youngs Moduli (GPa) = 36.26502 36.78797 27.23161
#
# Poissons Ratio (x) = 0.20379 0.23460
# Poissons Ratio (y) = 0.20089 0.55529
# Poissons Ratio (z) = 0.31243 0.75016
#
# Static dielectric constant tensor:
#      x y z
#    x 1.652750 0.000000 0.000000 
#    y 0.000000 1.674930 0.000000 
#    z 0.000000 0.000000 1.635980 
# 
# From -- ./inp_files/10245.got.cif
#   From: 2010.05.17/outbox.cif.g08.bks.cpg/sg53_6_cif.got.tgz:10245.got - 2010.06.03 12:45:16.
