data_PCOD9418532
_publ_section_title
;
Structure prediction by ZEFSAII (Michael W. Deem and Ramdas Pophale) SiO2 
 PCOD9418532
Probable space group: P M N A
;
_chemical_formula_sum "Si O2"
_cell_formula_units_Z 32
_cell_length_a 8.640141
_cell_length_b 21.174619
_cell_length_c 9.304629
_cell_angle_alpha 90.000000
_cell_angle_beta 90.000000
_cell_angle_gamma 90.000000
_cell_volume 1702.297636
_symmetry_space_group_name_H-M "P M N A"
_symmetry_group_IT_number 53
_symmetry_cell_setting 'orthorhombic'
loop_
_space_group_symop_operation_xyz
x,y,z
1/2-x,-y,1/2+z
x,-y,-z
1/2-x,y,1/2-z
-x,-y,-z
1/2+x,y,1/2-z
-x,y,z
1/2+x,-y,1/2+z
loop_
_atom_site_type_symbol
_atom_site_label
_atom_site_fract_x
_atom_site_fract_y
_atom_site_fract_z
Si Si1 0.815076 0.304107 0.587692
Si Si2 0.686763 0.938308 0.411195
Si Si3 0.186210 0.813623 0.910994
Si Si4 0.185597 0.562142 0.089732
O O1 0.750000 0.296630 0.750000
O O2 0.751439 0.248312 0.489009
O O3 0.757703 0.372523 0.533316
O O4 0.000000 0.302735 0.592897
O O5 0.750000 0.938604 0.250000
O O6 0.500000 0.939439 0.404459
O O7 0.732777 0.875120 0.496501
O O8 0.738080 0.000000 0.500000
O O9 0.250000 0.818620 0.750000
O O10 0.000000 0.810698 0.907420
O O11 0.250000 0.554301 0.250000
O O12 0.000000 0.568714 0.093526
O O13 0.225827 0.500000 0.000000
#
# Coordination Sequence:
#
# PCOD9418532 Si02
#       4
#     8   8   8   8
#     4  11  22  38  60  84 114 151 192 237 286 341
#     4  10  22  39  60  87 117 151 191 235 284 339
#     4  11  23  39  59  85 117 151 192 238 287 342
#     4  10  21  37  58  84 114 148 189 235 284 341
#
# _framework density 18.798121999999999
#
# number of rings (size 3 to 8) (size 9 to 14) (size 15 to 20)
#    0.000    1.500    0.000    6.750    0.000    7.500 
#    0.000    2.500    0.000    0.000    0.000    0.000 
#    0.000    0.000    0.000    0.000    0.000    0.000 
#
# Total GULP energy -178904.446538 kJ/mol
# GULP energy per Si atom -5590.763954 kJ/mol
# Density = 1.875534 g / cm^3
# Si number density = 18.798122 Si / 1000 Ang^3
#
#
#
# Elastic Constant Matrix: (Units=GPa)
#
#
# Indices 1 2 3 4 5 6 
#
# 1 84.3576 74.2204 50.4807 0.0000 0.0000 0.0000
# 2 74.2204 224.3039 122.2320 0.0000 0.0000 0.0000
# 3 50.4807 122.2320 144.4556 0.0000 0.0000 0.0000
# 4 0.0000 0.0000 0.0000 48.0605 0.0000 0.0000
# 5 0.0000 0.0000 0.0000 0.0000 36.0331 0.0000
# 6 0.0000 0.0000 0.0000 0.0000 0.0000 -25.0564
#
#
#
# Elastic Compliance Matrix: (Units=1/GPa)
#
#
# Indices 1 2 3 4 5 6 
#
# 1 0.017093 -0.004455 -0.002203 0.000000 0.000000 0.000000
# 2 -0.004455 0.009434 -0.006426 0.000000 0.000000 0.000000
# 3 -0.002203 -0.006426 0.013130 0.000000 0.000000 0.000000
# 4 0.000000 0.000000 0.000000 0.020807 0.000000 0.000000
# 5 0.000000 0.000000 0.000000 0.000000 0.027752 0.000000
# 6 0.000000 0.000000 0.000000 0.000000 0.000000 -0.039910
#
#
# Mechanical properties :
#
#
# Convention : Reuss Voigt Hill
#
# Bulk Modulus (GPa) = 74.14106 105.22035 89.68070
# Shear Modulus (GPa) = 63.31474 25.55303 44.43388
#
# Velocity S-wave (km/s) = 5.80987 3.69092 4.86711
# Velocity P-wave (km/s) = 9.19415 8.61738 8.91043
#
# Compressibility (1/GPa) = 0.01348780
#
# Stress axis : x y z
#
# Youngs Moduli (GPa) = 58.50503 105.99841 76.16254
#
# Poissons Ratio (x) = 0.47223 0.16781
# Poissons Ratio (y) = 0.26065 0.48941
# Poissons Ratio (z) = 0.12891 0.68113
#
# Static dielectric constant tensor:
#      x y z
#    x 1.632000 0.000000 0.000000 
#    y 0.000000 1.648030 0.000000 
#    z 0.000000 0.000000 1.608110 
# 
# From -- ./inp_files/6028.got.cif
#   From: 2010.05.17/outbox.cif.g08.bks.cpg/sg53_4_cif.got.tgz:6028.got - 2010.06.03 12:45:16.
