data_PCOD9418405
_publ_section_title
;
Structure prediction by ZEFSAII (Michael W. Deem and Ramdas Pophale) SiO2 
 PCOD9418405
Probable space group: P M N A
;
_chemical_formula_sum "Si O2"
_cell_formula_units_Z 40
_cell_length_a 8.688140
_cell_length_b 26.239519
_cell_length_c 9.625214
_cell_angle_alpha 90.000000
_cell_angle_beta 90.000000
_cell_angle_gamma 90.000000
_cell_volume 2194.285202
_symmetry_space_group_name_H-M "P M N A"
_symmetry_group_IT_number 53
_symmetry_cell_setting 'orthorhombic'
loop_
_space_group_symop_operation_xyz
x,y,z
1/2-x,-y,1/2+z
x,-y,-z
1/2-x,y,1/2-z
-x,-y,-z
1/2+x,y,1/2-z
-x,y,z
1/2+x,-y,1/2+z
loop_
_atom_site_type_symbol
_atom_site_label
_atom_site_fract_x
_atom_site_fract_y
_atom_site_fract_z
Si Si1 0.315596 0.156305 0.404710
Si Si2 0.684395 0.547944 0.596781
Si Si3 0.184047 0.657127 0.594283
Si Si4 0.315340 0.047484 0.095897
Si Si5 0.184962 0.252822 0.905424
O O1 0.250000 0.166140 0.250000
O O2 0.500000 0.153187 0.394770
O O3 0.250246 0.101833 0.453025
O O4 0.274196 0.201655 0.509118
O O5 0.720359 0.500000 0.500000
O O6 0.750000 0.538273 0.750000
O O7 0.500000 0.445726 0.396678
O O8 0.758697 0.601117 0.548722
O O9 0.250000 0.665598 0.750000
O O10 0.247125 0.699753 0.490800
O O11 0.000000 0.658416 0.600122
O O12 0.250000 0.039571 0.250000
O O13 0.500000 0.050633 0.101335
O O14 0.271051 0.000000 0.000000
O O15 0.250000 0.251307 0.750000
O O16 0.000000 0.256806 0.901389
#
# Coordination Sequence:
#
# PCOD9418405 Si02
#       5
#     8   8   8   8   8
#     4  10  21  37  59  83 109 145 186 228 274 329
#     4  10  21  37  58  84 114 148 188 232 278 331
#     4  11  22  38  61  85 113 150 190 232 278 333
#     4  10  21  36  56  82 111 145 184 226 273 326
#     4  11  24  40  58  84 115 147 186 232 284 335
#
# _framework density 18.229171000000001
#
# number of rings (size 3 to 8) (size 9 to 14) (size 15 to 20)
#    0.000    1.600    0.000    7.200    0.000    9.600 
#    0.000    6.000    0.000    0.000    0.000    0.000 
#    0.000    0.000    0.000    0.000    0.000    0.000 
#
# Total GULP energy -223553.708947 kJ/mol
# GULP energy per Si atom -5588.842724 kJ/mol
# Density = 1.818768 g / cm^3
# Si number density = 18.229171 Si / 1000 Ang^3
#
#
#
# Elastic Constant Matrix: (Units=GPa)
#
#
# Indices 1 2 3 4 5 6 
#
# 1 98.0220 89.6503 60.1827 0.0000 0.0000 0.0000
# 2 89.6503 211.4196 127.2785 0.0000 0.0000 0.0000
# 3 60.1827 127.2785 105.8651 0.0000 0.0000 0.0000
# 4 0.0000 0.0000 0.0000 33.3731 0.0000 0.0000
# 5 0.0000 0.0000 0.0000 0.0000 8.4457 0.0000
# 6 0.0000 0.0000 0.0000 0.0000 0.0000 66.9133
#
#
#
# Elastic Compliance Matrix: (Units=1/GPa)
#
#
# Indices 1 2 3 4 5 6 
#
# 1 0.017039 -0.005046 -0.003620 0.000000 0.000000 0.000000
# 2 -0.005046 0.018619 -0.019516 0.000000 0.000000 0.000000
# 3 -0.003620 -0.019516 0.034967 0.000000 0.000000 0.000000
# 4 0.000000 0.000000 0.000000 0.029964 0.000000 0.000000
# 5 0.000000 0.000000 0.000000 0.000000 0.118404 0.000000
# 6 0.000000 0.000000 0.000000 0.000000 0.000000 0.014945
#
#
# Mechanical properties :
#
#
# Convention : Reuss Voigt Hill
#
# Bulk Modulus (GPa) = 70.11888 107.72555 88.92221
# Shear Modulus (GPa) = 16.94591 30.95943 23.95267
#
# Velocity S-wave (km/s) = 3.05225 4.12557 3.62881
# Velocity P-wave (km/s) = 7.13935 9.05081 8.15130
#
# Compressibility (1/GPa) = 0.01426149
#
# Stress axis : x y z
#
# Youngs Moduli (GPa) = 58.68724 53.70909 28.59814
#
# Poissons Ratio (x) = 0.27103 0.10351
# Poissons Ratio (y) = 0.29616 0.55812
# Poissons Ratio (z) = 0.21243 1.04819
#
# Static dielectric constant tensor:
#      x y z
#    x 1.611620 0.000000 0.000000 
#    y 0.000000 1.621150 0.000000 
#    z 0.000000 0.000000 1.591780 
# 
# From -- ./inp_files/6311.got.cif
#   From: 2010.05.17/outbox.cif.g08.bks.cpg/sg53_4_cif.got.tgz:6311.got - 2010.06.03 12:45:16.
