data_PCOD9418642
_publ_section_title
;
Structure prediction by ZEFSAII (Michael W. Deem and Ramdas Pophale) SiO2 
 PCOD9418642
Probable space group: P M N A
;
_chemical_formula_sum "Si O2"
_cell_formula_units_Z 32
_cell_length_a 14.841507
_cell_length_b 9.163644
_cell_length_c 11.312003
_cell_angle_alpha 90.000000
_cell_angle_beta 90.000000
_cell_angle_gamma 90.000000
_cell_volume 1538.458274
_symmetry_space_group_name_H-M "P M N A"
_symmetry_group_IT_number 53
_symmetry_cell_setting 'orthorhombic'
loop_
_space_group_symop_operation_xyz
x,y,z
1/2-x,-y,1/2+z
x,-y,-z
1/2-x,y,1/2-z
-x,-y,-z
1/2+x,y,1/2-z
-x,y,z
1/2+x,-y,1/2+z
loop_
_atom_site_type_symbol
_atom_site_label
_atom_site_fract_x
_atom_site_fract_y
_atom_site_fract_z
Si Si1 0.716719 0.172794 0.498516
Si Si2 0.100774 0.675104 0.485993
Si Si3 0.605769 0.312730 0.711938
Si Si4 0.896169 0.601283 0.881363
O O1 0.814044 0.238503 0.466424
O O2 0.673014 0.228437 0.624071
O O3 0.653487 0.249102 0.401579
O O4 0.717013 0.000000 0.500000
O O5 0.113776 0.500000 0.500000
O O6 0.103165 0.726247 0.348674
O O7 0.000000 0.706280 0.533053
O O8 0.500000 0.303549 0.668676
O O9 0.634359 0.483662 0.714021
O O10 0.000000 0.632177 0.860965
O O11 0.886899 0.500000 0.000000
#
# Coordination Sequence:
#
# PCOD9418642 Si02
#       4
#     8   8   8   8
#     4  11  21  32  51  81 114 143 170 210 270 330
#     4  10  21  38  58  76  99 140 189 226 258 305
#     4   9  18  35  58  80 103 135 178 226 268 309
#     4   8  15  30  53  79 103 130 172 224 269 307
#
# _framework density 20.800042999999999
#
# number of rings (size 3 to 8) (size 9 to 14) (size 15 to 20)
#    0.000    2.500    0.000    5.250    0.000    2.500 
#    0.000    5.000    0.000    6.000    0.000    0.000 
#    0.000    0.000    0.000    0.000    0.000    0.000 
#
# Total GULP energy -178273.375986 kJ/mol
# GULP energy per Si atom -5571.043000 kJ/mol
# Density = 2.075270 g / cm^3
# Si number density = 20.800043 Si / 1000 Ang^3
#
#
#
# Elastic Constant Matrix: (Units=GPa)
#
#
# Indices 1 2 3 4 5 6 
#
# 1 133.5674 88.5713 4.3931 0.0000 0.0000 0.0000
# 2 88.5713 140.5804 -10.7087 0.0000 0.0000 0.0000
# 3 4.3931 -10.7087 17.8013 0.0000 0.0000 0.0000
# 4 0.0000 0.0000 0.0000 8.2931 0.0000 0.0000
# 5 0.0000 0.0000 0.0000 0.0000 -0.8313 0.0000
# 6 0.0000 0.0000 0.0000 0.0000 0.0000 -80.2028
#
#
#
# Elastic Compliance Matrix: (Units=1/GPa)
#
#
# Indices 1 2 3 4 5 6 
#
# 1 0.014193 -0.009651 -0.009308 0.000000 0.000000 0.000000
# 2 -0.009651 0.014018 0.010814 0.000000 0.000000 0.000000
# 3 -0.009308 0.010814 0.064978 0.000000 0.000000 0.000000
# 4 0.000000 0.000000 0.000000 0.120583 0.000000 0.000000
# 5 0.000000 0.000000 0.000000 0.000000 -1.202974 0.000000
# 6 0.000000 0.000000 0.000000 0.000000 0.000000 -0.012468
#
#
# Mechanical properties :
#
#
# Convention : Reuss Voigt Hill
#
# Bulk Modulus (GPa) = 13.00415 50.71784 31.86099
# Shear Modulus (GPa) = -5.20970 -0.56864 -2.88917
#
# Velocity S-wave (km/s) = -1.58433 -0.52343 -1.17985
# Velocity P-wave (km/s) = 1.70844 4.90624 3.67355
#
# Compressibility (1/GPa) = 0.07689855
#
# Stress axis : x y z
#
# Youngs Moduli (GPa) = 70.45779 71.33809 15.38976
#
# Poissons Ratio (x) = 0.68849 0.14325
# Poissons Ratio (y) = 0.68000 -0.16643
# Poissons Ratio (z) = 0.65585 -0.77148
#
# Static dielectric constant tensor:
#      x y z
#    x 1.800270 0.000000 0.000000 
#    y 0.000000 1.714190 0.000000 
#    z 0.000000 0.000000 1.891290 
# 
# From -- ./inp_files/15393.got.cif
#   From: 2010.05.17/outbox.cif.g08.bks.cpg/sg53_8_cif.got.tgz:15393.got - 2010.06.03 12:45:16.
