data_PCOD9418280
_publ_section_title
;
Structure prediction by ZEFSAII (Michael W. Deem and Ramdas Pophale) SiO2 
 PCOD9418280
Probable space group: P M N A
;
_chemical_formula_sum "Si O2"
_cell_formula_units_Z 40
_cell_length_a 7.572565
_cell_length_b 26.979338
_cell_length_c 9.279395
_cell_angle_alpha 90.000000
_cell_angle_beta 90.000000
_cell_angle_gamma 90.000000
_cell_volume 1895.806294
_symmetry_space_group_name_H-M "P M N A"
_symmetry_group_IT_number 53
_symmetry_cell_setting 'orthorhombic'
loop_
_space_group_symop_operation_xyz
x,y,z
1/2-x,-y,1/2+z
x,-y,-z
1/2-x,y,1/2-z
-x,-y,-z
1/2+x,y,1/2-z
-x,y,z
1/2+x,-y,1/2+z
loop_
_atom_site_type_symbol
_atom_site_label
_atom_site_fract_x
_atom_site_fract_y
_atom_site_fract_z
Si Si1 0.712123 0.852773 0.918703
Si Si2 0.288004 0.354367 0.918513
Si Si3 0.212105 0.950832 0.419395
Si Si4 0.712054 0.451144 0.081541
Si Si5 0.287950 0.755956 0.081362
O O1 0.750000 0.856935 0.750000
O O2 0.500000 0.852108 0.936102
O O3 0.779565 0.900641 0.005580
O O4 0.780417 0.801293 0.985883
O O5 0.250000 0.363130 0.750000
O O6 0.500000 0.352898 0.935338
O O7 0.220027 0.299214 0.955667
O O8 0.219287 0.400076 0.012158
O O9 0.250000 0.951948 0.250000
O O10 0.000000 0.950679 0.435974
O O11 0.279559 0.000000 0.500000
O O12 0.750000 0.453853 0.250000
O O13 0.500000 0.450650 0.062775
O O14 0.779955 0.500000 0.000000
O O15 0.250000 0.764996 0.250000
O O16 0.500000 0.754493 0.065249
#
# Coordination Sequence:
#
# PCOD9418280 Si02
#       5
#     8   8   8   8   8
#     4  10  21  35  51  74 103 133 167 206 246 291
#     4   9  18  33  52  74 100 129 163 203 245 291
#     4  10  21  36  54  77 103 131 166 206 247 294
#     4  10  21  35  51  73 100 129 163 203 245 291
#     4   9  18  33  52  74 100 130 165 204 245 291
#
# _framework density 21.0992
#
# number of rings (size 3 to 8) (size 9 to 14) (size 15 to 20)
#    0.000    2.400    0.000    1.800    0.000    4.000 
#    0.000    0.000    0.000    0.000    0.000    0.000 
#    0.000    0.000    0.000    0.000    0.000    0.000 
#
# Total GULP energy -223419.361024 kJ/mol
# GULP energy per Si atom -5585.484026 kJ/mol
# Density = 2.105118 g / cm^3
# Si number density = 21.099200 Si / 1000 Ang^3
#
#
#
# Elastic Constant Matrix: (Units=GPa)
#
#
# Indices 1 2 3 4 5 6 
#
# 1 48.9473 12.6540 -10.2278 0.0000 0.0000 0.0000
# 2 12.6540 248.4450 156.2627 0.0000 0.0000 0.0000
# 3 -10.2278 156.2627 170.0052 0.0000 0.0000 0.0000
# 4 0.0000 0.0000 0.0000 168.2343 0.0000 0.0000
# 5 0.0000 0.0000 0.0000 0.0000 30.5596 0.0000
# 6 0.0000 0.0000 0.0000 0.0000 0.0000 230.8688
#
#
#
# Elastic Compliance Matrix: (Units=1/GPa)
#
#
# Indices 1 2 3 4 5 6 
#
# 1 0.022888 -0.004816 0.005804 0.000000 0.000000 0.000000
# 2 -0.004816 0.010554 -0.009991 0.000000 0.000000 0.000000
# 3 0.005804 -0.009991 0.015414 0.000000 0.000000 0.000000
# 4 0.000000 0.000000 0.000000 0.005944 0.000000 0.000000
# 5 0.000000 0.000000 0.000000 0.000000 0.032723 0.000000
# 6 0.000000 0.000000 0.000000 0.000000 0.000000 0.004331
#
#
# Mechanical properties :
#
#
# Convention : Reuss Voigt Hill
#
# Bulk Modulus (GPa) = 32.41448 87.19725 59.80587
# Shear Modulus (GPa) = 41.61653 106.51311 74.06482
#
# Velocity S-wave (km/s) = 4.44601 7.11278 5.93122
# Velocity P-wave (km/s) = 6.46160 10.43420 8.67827
#
# Compressibility (1/GPa) = 0.03085041
#
# Stress axis : x y z
#
# Youngs Moduli (GPa) = 43.69112 94.74970 64.87422
#
# Poissons Ratio (x) = 0.45632 -0.37652
# Poissons Ratio (y) = 0.21042 0.64814
# Poissons Ratio (z) = -0.25357 0.94662
#
# Static dielectric constant tensor:
#      x y z
#    x 1.769420 0.000000 0.000000 
#    y 0.000000 1.786860 0.000000 
#    z 0.000000 0.000000 1.678190 
# 
# From -- ./inp_files/750.got.cif
#   From: 2010.05.17/outbox.cif.g08.bks.cpg/sg53_1_cif.got.tgz:750.got - 2010.06.03 12:45:16.
