data_PCOD9418997
_publ_section_title
;
Structure prediction by ZEFSAII (Michael W. Deem and Ramdas Pophale) SiO2 
 PCOD9418997
Probable space group: P M N A
;
_chemical_formula_sum "Si O2"
_cell_formula_units_Z 56
_cell_length_a 19.108976
_cell_length_b 13.495385
_cell_length_c 10.081124
_cell_angle_alpha 90.000000
_cell_angle_beta 90.000000
_cell_angle_gamma 90.000000
_cell_volume 2599.750380
_symmetry_space_group_name_H-M "P M N A"
_symmetry_group_IT_number 53
_symmetry_cell_setting 'orthorhombic'
loop_
_space_group_symop_operation_xyz
x,y,z
1/2-x,-y,1/2+z
x,-y,-z
1/2-x,y,1/2-z
-x,-y,-z
1/2+x,y,1/2-z
-x,y,z
1/2+x,-y,1/2+z
loop_
_atom_site_type_symbol
_atom_site_label
_atom_site_fract_x
_atom_site_fract_y
_atom_site_fract_z
Si Si1 0.195820 0.333005 0.458415
Si Si2 0.080778 0.072560 0.187532
Si Si3 0.580349 0.190395 0.050247
Si Si4 0.683780 0.468480 0.817195
Si Si5 0.082929 0.843075 0.239288
Si Si6 0.655418 0.235380 0.487810
Si Si7 0.922000 0.572687 0.874835
O O1 0.134954 0.269808 0.393150
O O2 0.158129 0.385201 0.582960
O O3 0.218069 0.432644 0.382526
O O4 0.262641 0.264077 0.483099
O O5 0.084301 0.102480 0.343033
O O6 0.132410 0.138845 0.097960
O O7 0.000000 0.091933 0.143364
O O8 0.093355 0.955442 0.187304
O O9 0.500000 0.225368 0.049481
O O10 0.599219 0.164618 0.897122
O O11 0.750000 0.417949 0.750000
O O12 0.622615 0.511634 0.730381
O O13 0.000000 0.819611 0.225032
O O14 0.128352 0.777306 0.138701
O O15 0.615603 0.327712 0.421436
O O16 0.000000 0.595499 0.826642
O O17 0.925925 0.500000 0.000000
#
# Coordination Sequence:
#
# PCOD9418997 Si02
#       7
#     8   8   8   8   8   8   8
#     4  11  26  40  65  91 125 172 221 265 325 395
#     4  10  21  41  68  94 128 174 219 266 331 404
#     4  10  23  42  65  94 128 170 221 274 326 390
#     4  11  23  44  62  85 125 179 211 257 326 399
#     4  10  22  41  66  95 131 173 216 269 332 397
#     4  12  23  40  63  99 132 168 215 276 333 392
#     4  11  24  40  65  99 131 164 214 276 325 382
#
# _framework density 21.540528999999999
#
# number of rings (size 3 to 8) (size 9 to 14) (size 15 to 20)
#    0.000    1.286    1.429    3.857    4.000    5.143 
#    0.000    5.714    0.000    0.000    0.000    0.000 
#    0.000    0.000    0.000    0.000    0.000    0.000 
#
# Total GULP energy -312739.502655 kJ/mol
# GULP energy per Si atom -5584.633976 kJ/mol
# Density = 2.149150 g / cm^3
# Si number density = 21.540529 Si / 1000 Ang^3
#
#
#
# Elastic Constant Matrix: (Units=GPa)
#
#
# Indices 1 2 3 4 5 6 
#
# 1 97.5551 35.0722 30.4205 0.0000 0.0000 0.0000
# 2 35.0722 64.2296 15.8918 0.0000 0.0000 0.0000
# 3 30.4205 15.8918 97.0302 0.0000 0.0000 0.0000
# 4 0.0000 0.0000 0.0000 48.0947 0.0000 0.0000
# 5 0.0000 0.0000 0.0000 0.0000 -46.3063 0.0000
# 6 0.0000 0.0000 0.0000 0.0000 0.0000 -15.4952
#
#
#
# Elastic Compliance Matrix: (Units=1/GPa)
#
#
# Indices 1 2 3 4 5 6 
#
# 1 0.013638 -0.006659 -0.003185 0.000000 0.000000 0.000000
# 2 -0.006659 0.019478 -0.001103 0.000000 0.000000 0.000000
# 3 -0.003185 -0.001103 0.011485 0.000000 0.000000 0.000000
# 4 0.000000 0.000000 0.000000 0.020792 0.000000 0.000000
# 5 0.000000 0.000000 0.000000 0.000000 -0.021595 0.000000
# 6 0.000000 0.000000 0.000000 0.000000 0.000000 -0.064536
#
#
# Mechanical properties :
#
#
# Convention : Reuss Voigt Hill
#
# Bulk Modulus (GPa) = 44.03694 46.84265 45.43980
# Shear Modulus (GPa) = 573.16602 9.08735 291.12669
#
# Velocity S-wave (km/s) = 16.32988 2.05618 11.63814
# Velocity P-wave (km/s) = 19.39179 5.23743 14.20338
#
# Compressibility (1/GPa) = 0.02270821
#
# Stress axis : x y z
#
# Youngs Moduli (GPa) = 73.32616 51.34020 87.06851
#
# Poissons Ratio (x) = 0.34186 0.27732
# Poissons Ratio (y) = 0.48826 0.09599
# Poissons Ratio (z) = 0.23355 0.05660
#
# Static dielectric constant tensor:
#      x y z
#    x 1.765030 0.000000 0.000000 
#    y 0.000000 1.747800 0.000000 
#    z 0.000000 0.000000 1.912770 
# 
# From -- ./inp_files/11065.got.cif
#   From: 2010.05.17/outbox.cif.g08.bks.cpg/sg53_6_cif.got.tgz:11065.got - 2010.06.03 12:45:16.
