data_PCOD9418414
_publ_section_title
;
Structure prediction by ZEFSAII (Michael W. Deem and Ramdas Pophale) SiO2 
 PCOD9418414
Probable space group: P M N A
;
_chemical_formula_sum "Si O2"
_cell_formula_units_Z 34
_cell_length_a 7.370392
_cell_length_b 23.883033
_cell_length_c 8.840691
_cell_angle_alpha 90.000000
_cell_angle_beta 90.000000
_cell_angle_gamma 90.000000
_cell_volume 1556.203103
_symmetry_space_group_name_H-M "P M N A"
_symmetry_group_IT_number 53
_symmetry_cell_setting 'orthorhombic'
loop_
_space_group_symop_operation_xyz
x,y,z
1/2-x,-y,1/2+z
x,-y,-z
1/2-x,y,1/2-z
-x,-y,-z
1/2+x,y,1/2-z
-x,y,z
1/2+x,-y,1/2+z
loop_
_atom_site_type_symbol
_atom_site_label
_atom_site_fract_x
_atom_site_fract_y
_atom_site_fract_z
Si Si1 0.000000 0.000000 0.000000
Si Si2 0.783554 0.904802 0.570120
Si Si3 0.783318 0.442435 0.571814
Si Si4 0.783190 0.327292 0.428168
Si Si5 0.215771 0.212546 0.571979
O O1 0.840404 0.048686 0.992683
O O2 0.750000 0.909827 0.750000
O O3 0.724002 0.843285 0.514316
O O4 0.000000 0.912227 0.540958
O O5 0.711641 0.500000 0.500000
O O6 0.750000 0.441710 0.750000
O O7 0.711744 0.385424 0.496782
O O8 0.000000 0.442597 0.546496
O O9 0.750000 0.325028 0.250000
O O10 0.710873 0.271048 0.507125
O O11 0.000000 0.327757 0.453214
O O12 0.250000 0.208034 0.750000
O O13 0.000000 0.213939 0.548489
#
# Coordination Sequence:
#
# PCOD9418414 Si02
#       5
#     2   8   8   8   8
#     4  12  26  44  72 100 132 172 212 270 316 390
#     4  11  24  46  69  98 130 172 217 264 322 387
#     4  10  21  36  56  85 122 161 206 257 307 369
#     4  10  21  38  59  88 120 160 207 255 310 371
#     4  10  23  40  62  92 124 159 206 260 313 374
#
# _framework density 21.848047000000001
#
# number of rings (size 3 to 8) (size 9 to 14) (size 15 to 20)
#    0.000    1.647    1.176    2.471    1.647    3.294 
#    4.235    0.000    0.000    0.000    0.000    0.000 
#    0.000    0.000    0.000    0.000    0.000    0.000 
#
# Total GULP energy -189560.674083 kJ/mol
# GULP energy per Si atom -5575.313944 kJ/mol
# Density = 2.179832 g / cm^3
# Si number density = 21.848047 Si / 1000 Ang^3
#
#
#
# Elastic Constant Matrix: (Units=GPa)
#
#
# Indices 1 2 3 4 5 6 
#
# 1 122.4268 62.7782 4.2464 0.0000 0.0000 0.0000
# 2 62.7782 193.6169 12.6026 0.0000 0.0000 0.0000
# 3 4.2464 12.6026 35.0936 0.0000 0.0000 0.0000
# 4 0.0000 0.0000 0.0000 -42.2272 0.0000 0.0000
# 5 0.0000 0.0000 0.0000 0.0000 25.6084 0.0000
# 6 0.0000 0.0000 0.0000 0.0000 0.0000 -49.8464
#
#
#
# Elastic Compliance Matrix: (Units=1/GPa)
#
#
# Indices 1 2 3 4 5 6 
#
# 1 0.009797 -0.003174 -0.000046 0.000000 0.000000 0.000000
# 2 -0.003174 0.006317 -0.001884 0.000000 0.000000 0.000000
# 3 -0.000046 -0.001884 0.029177 0.000000 0.000000 0.000000
# 4 0.000000 0.000000 0.000000 -0.023681 0.000000 0.000000
# 5 0.000000 0.000000 0.000000 0.000000 0.039050 0.000000
# 6 0.000000 0.000000 0.000000 0.000000 0.000000 -0.020062
#
#
# Mechanical properties :
#
#
# Convention : Reuss Voigt Hill
#
# Bulk Modulus (GPa) = 28.50337 56.71020 42.60678
# Shear Modulus (GPa) = 80.00037 4.80763 42.40400
#
# Velocity S-wave (km/s) = 6.05774 1.48501 4.41030
# Velocity P-wave (km/s) = 7.87418 5.38083 6.74374
#
# Compressibility (1/GPa) = 0.03508356
#
# Stress axis : x y z
#
# Youngs Moduli (GPa) = 102.07086 158.31539 34.27308
#
# Poissons Ratio (x) = 0.50243 0.00157
# Poissons Ratio (y) = 0.32394 0.06458
# Poissons Ratio (z) = 0.00467 0.29832
#
# Static dielectric constant tensor:
#      x y z
#    x 1.807250 0.000000 0.000000 
#    y 0.000000 1.794580 0.000000 
#    z 0.000000 0.000000 1.732790 
# 
# From -- ./inp_files/6105.got.cif
#   From: 2010.05.17/outbox.cif.g08.bks.cpg/sg53_4_cif.got.tgz:6105.got - 2010.06.03 12:45:16.
