data_PCOD9418173
_publ_section_title
;
Structure prediction by ZEFSAII (Michael W. Deem and Ramdas Pophale) SiO2 
 PCOD9418173
Probable space group: P M N A
;
_chemical_formula_sum "Si O2"
_cell_formula_units_Z 48
_cell_length_a 30.669681
_cell_length_b 9.462111
_cell_length_c 9.012536
_cell_angle_alpha 90.000000
_cell_angle_beta 90.000000
_cell_angle_gamma 90.000000
_cell_volume 2615.437280
_symmetry_space_group_name_H-M "P M N A"
_symmetry_group_IT_number 53
_symmetry_cell_setting 'orthorhombic'
loop_
_space_group_symop_operation_xyz
x,y,z
1/2-x,-y,1/2+z
x,-y,-z
1/2-x,y,1/2-z
-x,-y,-z
1/2+x,y,1/2-z
-x,y,z
1/2+x,-y,1/2+z
loop_
_atom_site_type_symbol
_atom_site_label
_atom_site_fract_x
_atom_site_fract_y
_atom_site_fract_z
Si Si1 0.500000 0.904982 0.858350
Si Si2 0.202893 0.014847 0.679024
Si Si3 0.400316 0.523721 0.821283
Si Si4 0.352513 0.784269 0.664020
Si Si5 0.573039 0.015629 0.653451
Si Si6 0.500000 0.431004 0.161067
Si Si7 0.360407 0.750454 0.323678
O O1 0.543214 0.955968 0.778385
O O2 0.500000 0.737096 0.864224
O O3 0.500000 0.000000 0.000000
O O4 0.250000 0.042828 0.750000
O O5 0.171602 0.144775 0.731979
O O6 0.203461 0.000000 0.500000
O O7 0.185932 0.866436 0.750394
O O8 0.376305 0.665983 0.763797
O O9 0.451994 0.528740 0.772288
O O10 0.371861 0.398119 0.749857
O O11 0.399989 0.500000 0.000000
O O12 0.386425 0.910992 0.639143
O O13 0.343584 0.734479 0.494259
O O14 0.548181 0.000000 0.500000
O O15 0.592846 0.169126 0.676172
O O16 0.500000 0.500000 0.000000
#
# Coordination Sequence:
#
# PCOD9418173 Si02
#       7
#     4   8   8   8   8   4   8
#     4  12  23  33  57  80 112 156 206 259 304 355
#     4  11  22  40  67  97 125 155 194 245 303 362
#     4  11  22  38  60  84 124 164 208 253 305 364
#     4  10  20  40  60  86 120 155 203 246 303 359
#     4   9  20  36  55  78 111 150 199 251 300 352
#     4  10  24  39  52  83 127 161 207 264 308 363
#     4  10  22  38  61  88 117 160 199 249 301 365
#
# _framework density 18.352571999999999
#
# number of rings (size 3 to 8) (size 9 to 14) (size 15 to 20)
#    0.000    1.667    1.667    4.250    4.667    2.667 
#    0.000    3.333    0.000    0.000    0.000    0.000 
#    0.000    0.000    0.000    0.000    0.000    0.000 
#
# Total GULP energy -267263.188957 kJ/mol
# GULP energy per Si atom -5567.983103 kJ/mol
# Density = 1.831080 g / cm^3
# Si number density = 18.352572 Si / 1000 Ang^3
#
#
#
# Elastic Constant Matrix: (Units=GPa)
#
#
# Indices 1 2 3 4 5 6 
#
# 1 91.3948 30.6643 38.9207 0.0000 0.0000 0.0000
# 2 30.6643 99.0919 38.3030 0.0000 0.0000 0.0000
# 3 38.9207 38.3030 129.4251 0.0000 0.0000 0.0000
# 4 0.0000 0.0000 0.0000 32.6606 0.0000 0.0000
# 5 0.0000 0.0000 0.0000 0.0000 -10.8112 0.0000
# 6 0.0000 0.0000 0.0000 0.0000 0.0000 20.2001
#
#
#
# Elastic Compliance Matrix: (Units=1/GPa)
#
#
# Indices 1 2 3 4 5 6 
#
# 1 0.013243 -0.002889 -0.003127 0.000000 0.000000 0.000000
# 2 -0.002889 0.012026 -0.002690 0.000000 0.000000 0.000000
# 3 -0.003127 -0.002690 0.009463 0.000000 0.000000 0.000000
# 4 0.000000 0.000000 0.000000 0.030618 0.000000 0.000000
# 5 0.000000 0.000000 0.000000 0.000000 -0.092497 0.000000
# 6 0.000000 0.000000 0.000000 0.000000 0.000000 0.049505
#
#
# Mechanical properties :
#
#
# Convention : Reuss Voigt Hill
#
# Bulk Modulus (GPa) = 57.74291 59.52086 58.63189
# Shear Modulus (GPa) = 109.78649 22.54484 66.16566
#
# Velocity S-wave (km/s) = 7.74278 3.50870 6.01089
# Velocity P-wave (km/s) = 10.55773 6.99406 8.95496
#
# Compressibility (1/GPa) = 0.01731814
#
# Stress axis : x y z
#
# Youngs Moduli (GPa) = 75.51360 83.15641 105.67432
#
# Poissons Ratio (x) = 0.24025 0.33047
# Poissons Ratio (y) = 0.21817 0.28427
# Poissons Ratio (z) = 0.23615 0.22370
#
# Static dielectric constant tensor:
#      x y z
#    x 1.650260 0.000000 0.000000 
#    y 0.000000 1.593120 0.000000 
#    z 0.000000 0.000000 1.680080 
# 
# From -- ./inp_files/13114.got.cif
#   From: 2010.05.17/outbox.cif.g08.bks.cpg/sg53_7_cif.got.tgz:13114.got - 2010.06.03 12:45:16.
