data_PCOD9418504
_publ_section_title
;
Structure prediction by ZEFSAII (Michael W. Deem and Ramdas Pophale) SiO2 
 PCOD9418504
Probable space group: P M N A
;
_chemical_formula_sum "Si O2"
_cell_formula_units_Z 56
_cell_length_a 15.170951
_cell_length_b 32.387303
_cell_length_c 5.163367
_cell_angle_alpha 90.000000
_cell_angle_beta 90.000000
_cell_angle_gamma 90.000000
_cell_volume 2537.000687
_symmetry_space_group_name_H-M "P M N A"
_symmetry_group_IT_number 53
_symmetry_cell_setting 'orthorhombic'
loop_
_space_group_symop_operation_xyz
x,y,z
1/2-x,-y,1/2+z
x,-y,-z
1/2-x,y,1/2-z
-x,-y,-z
1/2+x,y,1/2-z
-x,y,z
1/2+x,-y,1/2+z
loop_
_atom_site_type_symbol
_atom_site_label
_atom_site_fract_x
_atom_site_fract_y
_atom_site_fract_z
Si Si1 0.893036 0.679992 0.916479
Si Si2 0.107952 0.907692 0.595566
Si Si3 0.344651 0.773950 0.619560
Si Si4 0.399718 0.820047 0.109611
Si Si5 0.394399 0.367493 0.916454
Si Si6 0.107834 0.955019 0.094416
Si Si7 0.187760 0.454874 0.500279
O O1 0.865662 0.727006 0.955900
O O2 0.861270 0.662468 0.642771
O O3 0.000000 0.679246 0.915601
O O4 0.861281 0.649414 0.142200
O O5 0.138305 0.863071 0.497494
O O6 0.136110 0.921403 0.880780
O O7 0.000000 0.906328 0.601850
O O8 0.134433 0.941458 0.381182
O O9 0.250000 0.776249 0.750000
O O10 0.353014 0.800911 0.359976
O O11 0.402907 0.790084 0.860113
O O12 0.500000 0.828023 0.198808
O O13 0.500000 0.364186 0.910857
O O14 0.371267 0.414485 0.979007
O O15 0.000000 0.955700 0.095720
O O16 0.136926 0.000000 0.000000
O O17 0.141981 0.500000 0.500000
O O18 0.250000 0.454666 0.750000
O O19 0.250000 0.451877 0.250000
#
# Coordination Sequence:
#
# PCOD9418504 Si02
#       7
#     8   8   8   8   8   8   8
#     4  10  21  38  59  84 114 148 187 231 288 350
#     4   9  17  28  45  71 101 141 188 223 268 338
#     4  12  25  40  59  87 117 148 194 248 297 347
#     4  11  22  39  61  82 113 157 198 238 290 353
#     4  10  21  37  59  85 112 145 187 234 280 335
#     4   9  15  24  40  67 106 143 174 220 280 332
#     4  10  21  37  57  83 116 153 190 229 277 333
#
# _framework density 22.073309999999999
#
# number of rings (size 3 to 8) (size 9 to 14) (size 15 to 20)
#    0.000    1.857    0.000    4.714    0.000    7.143 
#    0.000    0.000    0.000    5.143    0.000    0.000 
#    0.000   32.000    0.000    0.000    0.000    0.000 
#
# Total GULP energy -313087.577353 kJ/mol
# GULP energy per Si atom -5590.849596 kJ/mol
# Density = 2.202307 g / cm^3
# Si number density = 22.073310 Si / 1000 Ang^3
#
#
#
# Elastic Constant Matrix: (Units=GPa)
#
#
# Indices 1 2 3 4 5 6 
#
# 1 22.3189 -1.7756 4.5802 0.0000 0.0000 0.0000
# 2 -1.7756 89.4953 4.0915 0.0000 0.0000 0.0000
# 3 4.5802 4.0915 112.5347 0.0000 0.0000 0.0000
# 4 0.0000 0.0000 0.0000 41.0695 0.0000 0.0000
# 5 0.0000 0.0000 0.0000 0.0000 21.4641 0.0000
# 6 0.0000 0.0000 0.0000 0.0000 0.0000 298.9284
#
#
#
# Elastic Compliance Matrix: (Units=1/GPa)
#
#
# Indices 1 2 3 4 5 6 
#
# 1 0.045269 0.000984 -0.001878 0.000000 0.000000 0.000000
# 2 0.000984 0.011214 -0.000448 0.000000 0.000000 0.000000
# 3 -0.001878 -0.000448 0.008979 0.000000 0.000000 0.000000
# 4 0.000000 0.000000 0.000000 0.024349 0.000000 0.000000
# 5 0.000000 0.000000 0.000000 0.000000 0.046589 0.000000
# 6 0.000000 0.000000 0.000000 0.000000 0.000000 0.003345
#
#
# Mechanical properties :
#
#
# Convention : Reuss Voigt Hill
#
# Bulk Modulus (GPa) = 15.92927 26.46011 21.19469
# Shear Modulus (GPa) = 30.60819 86.78926 58.69873
#
# Velocity S-wave (km/s) = 3.72783 6.27726 5.16240
# Velocity P-wave (km/s) = 5.07554 8.03443 6.71987
#
# Compressibility (1/GPa) = 0.06277753
#
# Stress axis : x y z
#
# Youngs Moduli (GPa) = 22.09026 89.17614 111.37259
#
# Poissons Ratio (x) = -0.08775 0.20918
# Poissons Ratio (y) = -0.02174 0.04987
# Poissons Ratio (z) = 0.04149 0.03993
#
# Static dielectric constant tensor:
#      x y z
#    x 1.855810 0.000000 0.000000 
#    y 0.000000 1.792390 0.000000 
#    z 0.000000 0.000000 1.772090 
# 
# From -- ./inp_files/1475.got.cif
#   From: 2010.05.17/outbox.cif.g08.bks.cpg/sg53_1_cif.got.tgz:1475.got - 2010.06.03 12:45:16.
