data_PCOD9418080
_publ_section_title
;
Structure prediction by ZEFSAII (Michael W. Deem and Ramdas Pophale) SiO2 
 PCOD9418080
Probable space group: P M N A
;
_chemical_formula_sum "Si O2"
_cell_formula_units_Z 56
_cell_length_a 13.966745
_cell_length_b 12.783089
_cell_length_c 15.117143
_cell_angle_alpha 90.000000
_cell_angle_beta 90.000000
_cell_angle_gamma 90.000000
_cell_volume 2698.986659
_symmetry_space_group_name_H-M "P M N A"
_symmetry_group_IT_number 53
_symmetry_cell_setting 'orthorhombic'
loop_
_space_group_symop_operation_xyz
x,y,z
1/2-x,-y,1/2+z
x,-y,-z
1/2-x,y,1/2-z
-x,-y,-z
1/2+x,y,1/2-z
-x,y,z
1/2+x,-y,1/2+z
loop_
_atom_site_type_symbol
_atom_site_label
_atom_site_fract_x
_atom_site_fract_y
_atom_site_fract_z
Si Si1 0.729606 0.179689 0.146708
Si Si2 0.887985 0.222484 0.006410
Si Si3 0.238760 0.220466 0.644318
Si Si4 0.391370 0.631333 0.814041
Si Si5 0.392442 0.979463 0.104238
Si Si6 0.800045 0.450455 0.594427
Si Si7 0.107582 0.572090 0.883373
O O1 0.750000 0.180515 0.250000
O O2 0.818876 0.168021 0.079853
O O3 0.677725 0.291518 0.132324
O O4 0.656726 0.084644 0.137505
O O5 0.884811 0.344242 0.037475
O O6 0.000000 0.190938 0.008841
O O7 0.837356 0.207599 0.911603
O O8 0.250000 0.231836 0.750000
O O9 0.172406 0.120730 0.625073
O O10 0.193303 0.327038 0.605136
O O11 0.500000 0.656096 0.837217
O O12 0.365192 0.512500 0.836193
O O13 0.381357 0.637865 0.707853
O O14 0.500000 0.965310 0.139281
O O15 0.397534 0.000000 0.000000
O O16 0.826450 0.500000 0.500000
O O17 0.691184 0.488059 0.612781
O O18 0.000000 0.527542 0.883310
#
# Coordination Sequence:
#
# PCOD9418080 Si02
#       7
#     8   8   8   8   8   8   8
#     4  12  21  42  73 104 140 174 228 294 361 426
#     4  11  23  42  69 105 140 174 223 287 355 419
#     4  12  26  47  70  98 144 191 242 290 354 431
#     4  11  22  37  63 100 135 174 225 284 349 413
#     4  11  26  47  71  96 132 188 242 291 352 423
#     4  12  23  41  64  96 137 182 229 289 349 419
#     4  10  20  38  64  99 136 172 217 273 344 418
#
# _framework density 20.748528
#
# number of rings (size 3 to 8) (size 9 to 14) (size 15 to 20)
#    0.000    0.714    5.714    2.143    0.000    2.857 
#    0.000    1.429    0.000    0.000    0.000    0.000 
#    0.000    0.000    0.000    0.000    0.000    0.000 
#
# Total GULP energy -312949.313380 kJ/mol
# GULP energy per Si atom -5588.380596 kJ/mol
# Density = 2.070130 g / cm^3
# Si number density = 20.748528 Si / 1000 Ang^3
#
#
#
# Elastic Constant Matrix: (Units=GPa)
#
#
# Indices 1 2 3 4 5 6 
#
# 1 106.2160 9.8541 41.4767 0.0000 0.0000 0.0000
# 2 9.8541 65.8866 2.5998 0.0000 0.0000 0.0000
# 3 41.4767 2.5998 116.3700 0.0000 0.0000 0.0000
# 4 0.0000 0.0000 0.0000 18.3353 0.0000 0.0000
# 5 0.0000 0.0000 0.0000 0.0000 19.6266 0.0000
# 6 0.0000 0.0000 0.0000 0.0000 0.0000 18.3352
#
#
#
# Elastic Compliance Matrix: (Units=1/GPa)
#
#
# Indices 1 2 3 4 5 6 
#
# 1 0.011084 -0.001503 -0.003917 0.000000 0.000000 0.000000
# 2 -0.001503 0.015395 0.000192 0.000000 0.000000 0.000000
# 3 -0.003917 0.000192 0.009985 0.000000 0.000000 0.000000
# 4 0.000000 0.000000 0.000000 0.054540 0.000000 0.000000
# 5 0.000000 0.000000 0.000000 0.000000 0.050951 0.000000
# 6 0.000000 0.000000 0.000000 0.000000 0.000000 0.054540
#
#
# Mechanical properties :
#
#
# Convention : Reuss Voigt Hill
#
# Bulk Modulus (GPa) = 38.45089 44.03708 41.24398
# Shear Modulus (GPa) = 23.18897 26.89556 25.04227
#
# Velocity S-wave (km/s) = 3.34671 3.60427 3.47788
# Velocity P-wave (km/s) = 5.78844 6.21219 6.00405
#
# Compressibility (1/GPa) = 0.02600720
#
# Stress axis : x y z
#
# Youngs Moduli (GPa) = 90.22210 64.95683 100.14963
#
# Poissons Ratio (x) = 0.09764 0.39228
# Poissons Ratio (y) = 0.13562 -0.01921
# Poissons Ratio (z) = 0.35339 -0.01246
#
# Static dielectric constant tensor:
#      x y z
#    x 1.765900 0.000000 0.000000 
#    y 0.000000 1.764050 0.000000 
#    z 0.000000 0.000000 1.768360 
# 
# From -- ./inp_files/22812.got.cif
#   From: 2010.05.17/outbox.cif.g08.bks.cpg/sg53_12_cif.got.tgz:22812.got - 2010.06.03 12:45:16.
