data_PCOD9418117
_publ_section_title
;
Structure prediction by ZEFSAII (Michael W. Deem and Ramdas Pophale) SiO2 
 PCOD9418117
Probable space group: P M N A
;
_chemical_formula_sum "Si O2"
_cell_formula_units_Z 48
_cell_length_a 29.570948
_cell_length_b 8.879012
_cell_length_c 9.479028
_cell_angle_alpha 90.000000
_cell_angle_beta 90.000000
_cell_angle_gamma 90.000000
_cell_volume 2488.821195
_symmetry_space_group_name_H-M "P M N A"
_symmetry_group_IT_number 53
_symmetry_cell_setting 'orthorhombic'
loop_
_space_group_symop_operation_xyz
x,y,z
1/2-x,-y,1/2+z
x,-y,-z
1/2-x,y,1/2-z
-x,-y,-z
1/2+x,y,1/2-z
-x,y,z
1/2+x,-y,1/2+z
loop_
_atom_site_type_symbol
_atom_site_label
_atom_site_fract_x
_atom_site_fract_y
_atom_site_fract_z
Si Si1 0.735627 0.853237 0.086234
Si Si2 0.051934 0.683815 0.364437
Si Si3 0.143803 0.834990 0.303038
Si Si4 0.116372 0.888618 0.871887
Si Si5 0.947971 0.344542 0.294944
Si Si6 0.818350 0.670288 0.039221
O O1 0.750000 0.876329 0.250000
O O2 0.681668 0.831999 0.076144
O O3 0.765710 0.714600 0.034295
O O4 0.749284 0.000000 0.000000
O O5 0.091865 0.797568 0.330907
O O6 0.053151 0.674876 0.534978
O O7 0.062991 0.524009 0.287529
O O8 0.000000 0.723834 0.326029
O O9 0.141968 0.999034 0.233607
O O10 0.162789 0.712300 0.193146
O O11 0.081584 0.778026 0.789675
O O12 0.153280 0.779753 0.939736
O O13 0.098569 0.000000 0.000000
O O14 0.000000 0.326673 0.249173
O O15 0.826080 0.500000 0.000000
#
# Coordination Sequence:
#
# PCOD9418117 Si02
#       6
#     8   8   8   8   8   8
#     4  10  21  39  58  83 117 150 189 237 291 347
#     4   9  19  37  58  82 114 148 187 235 285 330
#     4  10  21  36  58  85 113 149 188 230 281 343
#     4  10  21  36  58  83 114 150 186 231 289 340
#     4   9  19  36  57  82 114 150 187 233 281 335
#     4  10  20  39  59  80 113 150 186 233 282 333
#
# _framework density 19.286238000000001
#
# number of rings (size 3 to 8) (size 9 to 14) (size 15 to 20)
#    0.000    2.333    0.000    4.500    2.333    1.000 
#    3.000   11.667    0.000    9.000    0.000    0.000 
#    0.000    0.000    0.000    0.000    0.000    0.000 
#
# Total GULP energy -267364.294551 kJ/mol
# GULP energy per Si atom -5570.089470 kJ/mol
# Density = 1.924234 g / cm^3
# Si number density = 19.286238 Si / 1000 Ang^3
#
#
#
# Elastic Constant Matrix: (Units=GPa)
#
#
# Indices 1 2 3 4 5 6 
#
# 1 97.4877 42.1450 27.3895 0.0000 0.0000 0.0000
# 2 42.1450 99.2646 36.5053 0.0000 0.0000 0.0000
# 3 27.3895 36.5053 34.8958 0.0000 0.0000 0.0000
# 4 0.0000 0.0000 0.0000 25.0793 0.0000 0.0000
# 5 0.0000 0.0000 0.0000 0.0000 22.7034 0.0000
# 6 0.0000 0.0000 0.0000 0.0000 0.0000 19.0483
#
#
#
# Elastic Compliance Matrix: (Units=1/GPa)
#
#
# Indices 1 2 3 4 5 6 
#
# 1 0.013697 -0.003026 -0.007585 0.000000 0.000000 0.000000
# 2 -0.003026 0.017042 -0.015453 0.000000 0.000000 0.000000
# 3 -0.007585 -0.015453 0.050776 0.000000 0.000000 0.000000
# 4 0.000000 0.000000 0.000000 0.039874 0.000000 0.000000
# 5 0.000000 0.000000 0.000000 0.000000 0.044046 0.000000
# 6 0.000000 0.000000 0.000000 0.000000 0.000000 0.052498
#
#
# Mechanical properties :
#
#
# Convention : Reuss Voigt Hill
#
# Bulk Modulus (GPa) = 34.02885 49.30308 41.66597
# Shear Modulus (GPa) = 17.86636 21.74008 19.80322
#
# Velocity S-wave (km/s) = 3.04695 3.36107 3.20786
# Velocity P-wave (km/s) = 5.48279 6.37823 5.94738
#
# Compressibility (1/GPa) = 0.02938683
#
# Stress axis : x y z
#
# Youngs Moduli (GPa) = 73.00924 58.67994 19.69437
#
# Poissons Ratio (x) = 0.17755 0.14939
# Poissons Ratio (y) = 0.22091 0.30433
# Poissons Ratio (z) = 0.55380 0.90676
#
# Static dielectric constant tensor:
#      x y z
#    x 1.697230 0.000000 0.000000 
#    y 0.000000 1.661490 0.000000 
#    z 0.000000 0.000000 1.707090 
# 
# From -- ./inp_files/12981.got.cif
#   From: 2010.05.17/outbox.cif.g08.bks.cpg/sg53_7_cif.got.tgz:12981.got - 2010.06.03 12:45:16.
