data_PCOD9418354
_publ_section_title
;
Structure prediction by ZEFSAII (Michael W. Deem and Ramdas Pophale) SiO2 
 PCOD9418354
Probable space group: P M N A
;
_chemical_formula_sum "Si O2"
_cell_formula_units_Z 48
_cell_length_a 8.295187
_cell_length_b 32.113075
_cell_length_c 9.279957
_cell_angle_alpha 90.000000
_cell_angle_beta 90.000000
_cell_angle_gamma 90.000000
_cell_volume 2472.031715
_symmetry_space_group_name_H-M "P M N A"
_symmetry_group_IT_number 53
_symmetry_cell_setting 'orthorhombic'
loop_
_space_group_symop_operation_xyz
x,y,z
1/2-x,-y,1/2+z
x,-y,-z
1/2-x,y,1/2-z
-x,-y,-z
1/2+x,y,1/2-z
-x,y,z
1/2+x,-y,1/2+z
loop_
_atom_site_type_symbol
_atom_site_label
_atom_site_fract_x
_atom_site_fract_y
_atom_site_fract_z
Si Si1 0.805127 0.295405 0.585305
Si Si2 0.693083 0.622483 0.914737
Si Si3 0.306877 0.541040 0.414886
Si Si4 0.305226 0.959848 0.085832
Si Si5 0.194962 0.213369 0.414027
Si Si6 0.305144 0.867728 0.084868
O O1 0.750000 0.297232 0.750000
O O2 0.748985 0.335734 0.495805
O O3 0.749981 0.253065 0.507302
O O4 0.000000 0.295491 0.583853
O O5 0.750000 0.621339 0.750000
O O6 0.500000 0.622935 0.915229
O O7 0.750201 0.582123 0.001890
O O8 0.248087 0.500000 0.500000
O O9 0.250000 0.540922 0.250000
O O10 0.500000 0.540448 0.415306
O O11 0.250000 0.963258 0.250000
O O12 0.500000 0.960320 0.080652
O O13 0.252093 0.913854 0.034032
O O14 0.244565 0.000000 0.000000
O O15 0.250000 0.216883 0.250000
O O16 0.252268 0.170395 0.487048
O O17 0.000000 0.213195 0.416409
O O18 0.250000 0.862259 0.250000
O O19 0.500000 0.867264 0.084205
#
# Coordination Sequence:
#
# PCOD9418354 Si02
#       6
#     8   8   8   8   8   8
#     4  10  22  38  57  82 110 142 180 222 267 318
#     4  11  23  39  60  86 116 149 186 228 275 325
#     4  11  24  41  62  88 118 152 190 232 277 326
#     4   9  18  32  49  71 100 132 168 212 259 308
#     4  10  21  36  53  77 107 137 173 216 263 314
#     4   9  18  33  52  73  99 133 172 213 258 310
#
# _framework density 19.417225999999999
#
# number of rings (size 3 to 8) (size 9 to 14) (size 15 to 20)
#    0.000    2.000    0.000    3.000    0.000    7.667 
#    0.000    0.000    0.000    0.000    0.000    0.000 
#    0.000    0.000    0.000    0.000    0.000    0.000 
#
# Total GULP energy -268107.464029 kJ/mol
# GULP energy per Si atom -5585.572167 kJ/mol
# Density = 1.937303 g / cm^3
# Si number density = 19.417226 Si / 1000 Ang^3
#
#
#
# Elastic Constant Matrix: (Units=GPa)
#
#
# Indices 1 2 3 4 5 6 
#
# 1 15.1924 28.1845 16.9311 0.0000 0.0000 0.0000
# 2 28.1845 232.2936 129.7278 0.0000 0.0000 0.0000
# 3 16.9311 129.7278 174.6502 0.0000 0.0000 0.0000
# 4 0.0000 0.0000 0.0000 42.4879 0.0000 0.0000
# 5 0.0000 0.0000 0.0000 0.0000 37.5076 0.0000
# 6 0.0000 0.0000 0.0000 0.0000 0.0000 -18.7488
#
#
#
# Elastic Compliance Matrix: (Units=1/GPa)
#
#
# Indices 1 2 3 4 5 6 
#
# 1 0.085042 -0.009765 -0.000991 0.000000 0.000000 0.000000
# 2 -0.009765 0.008478 -0.005351 0.000000 0.000000 0.000000
# 3 -0.000991 -0.005351 0.009796 0.000000 0.000000 0.000000
# 4 0.000000 0.000000 0.000000 0.023536 0.000000 0.000000
# 5 0.000000 0.000000 0.000000 0.000000 0.026661 0.000000
# 6 0.000000 0.000000 0.000000 0.000000 0.000000 -0.053337
#
#
# Mechanical properties :
#
#
# Convention : Reuss Voigt Hill
#
# Bulk Modulus (GPa) = 14.06409 85.75812 49.91110
# Shear Modulus (GPa) = 32.03272 28.73553 30.38413
#
# Velocity S-wave (km/s) = 4.06606 3.85112 3.96005
# Velocity P-wave (km/s) = 5.41319 8.00229 6.83152
#
# Compressibility (1/GPa) = 0.07110309
#
# Stress axis : x y z
#
# Youngs Moduli (GPa) = 11.75889 117.95575 102.08135
#
# Poissons Ratio (x) = 1.15181 0.10117
# Poissons Ratio (y) = 0.11482 0.54619
# Poissons Ratio (z) = 0.01165 0.63113
#
# Static dielectric constant tensor:
#      x y z
#    x 1.671350 0.000000 0.000000 
#    y 0.000000 1.699660 0.000000 
#    z 0.000000 0.000000 1.624580 
# 
# From -- ./inp_files/6579.got.cif
#   From: 2010.05.17/outbox.cif.g08.bks.cpg/sg53_4_cif.got.tgz:6579.got - 2010.06.03 12:45:16.
