data_PCOD9418900
_publ_section_title
;
Structure prediction by ZEFSAII (Michael W. Deem and Ramdas Pophale) SiO2 
 PCOD9418900
Probable space group: P M N A
;
_chemical_formula_sum "Si O2"
_cell_formula_units_Z 32
_cell_length_a 27.164583
_cell_length_b 6.282424
_cell_length_c 8.655694
_cell_angle_alpha 90.000000
_cell_angle_beta 90.000000
_cell_angle_gamma 90.000000
_cell_volume 1477.175789
_symmetry_space_group_name_H-M "P M N A"
_symmetry_group_IT_number 53
_symmetry_cell_setting 'orthorhombic'
loop_
_space_group_symop_operation_xyz
x,y,z
1/2-x,-y,1/2+z
x,-y,-z
1/2-x,y,1/2-z
-x,-y,-z
1/2+x,y,1/2-z
-x,y,z
1/2+x,-y,1/2+z
loop_
_atom_site_type_symbol
_atom_site_label
_atom_site_fract_x
_atom_site_fract_y
_atom_site_fract_z
Si Si1 0.631885 0.000000 0.500000
Si Si2 0.055306 0.736971 0.789428
Si Si3 0.618500 0.396070 0.834366
Si Si4 0.794493 0.651124 0.141278
Si Si5 0.085057 0.000000 0.500000
O O1 0.595178 0.859522 0.605996
O O2 0.669485 0.836918 0.417917
O O3 0.073773 0.493667 0.764775
O O4 0.056009 0.848657 0.619190
O O5 0.000000 0.746910 0.851479
O O6 0.667930 0.473730 0.752184
O O7 0.616617 0.500000 0.000000
O O8 0.615336 0.149574 0.881830
O O9 0.750000 0.724952 0.250000
O O10 0.778457 0.500000 0.000000
#
# Coordination Sequence:
#
# PCOD9418900 Si02
#       5
#     4   8   8   8   4
#     4  12  25  47  68 105 141 176 234 288 348 426
#     4  11  23  41  68 102 143 189 230 278 344 410
#     4  10  22  42  67  99 139 176 231 283 335 409
#     4  12  26  47  72  97 132 176 226 291 351 410
#     4  10  21  39  68  95 139 180 231 282 331 400
#
# _framework density 21.662960999999999
#
# number of rings (size 3 to 8) (size 9 to 14) (size 15 to 20)
#    0.000    1.000    5.000    1.500    0.000    7.500 
#    0.000    1.250    0.000    0.000    0.000    0.000 
#    0.000    0.000    0.000    0.000    0.000    0.000 
#
# Total GULP energy -178384.571420 kJ/mol
# GULP energy per Si atom -5574.517857 kJ/mol
# Density = 2.161365 g / cm^3
# Si number density = 21.662961 Si / 1000 Ang^3
#
#
#
# Elastic Constant Matrix: (Units=GPa)
#
#
# Indices 1 2 3 4 5 6 
#
# 1 153.1935 30.3504 72.9825 0.0000 0.0000 0.0000
# 2 30.3504 69.9387 45.4232 0.0000 0.0000 0.0000
# 3 72.9825 45.4232 95.2068 0.0000 0.0000 0.0000
# 4 0.0000 0.0000 0.0000 15.4569 0.0000 0.0000
# 5 0.0000 0.0000 0.0000 0.0000 36.0083 0.0000
# 6 0.0000 0.0000 0.0000 0.0000 0.0000 22.3503
#
#
#
# Elastic Compliance Matrix: (Units=1/GPa)
#
#
# Indices 1 2 3 4 5 6 
#
# 1 0.010327 0.000956 -0.008373 0.000000 0.000000 0.000000
# 2 0.000956 0.020806 -0.010660 0.000000 0.000000 0.000000
# 3 -0.008373 -0.010660 0.022007 0.000000 0.000000 0.000000
# 4 0.000000 0.000000 0.000000 0.064696 0.000000 0.000000
# 5 0.000000 0.000000 0.000000 0.000000 0.027771 0.000000
# 6 0.000000 0.000000 0.000000 0.000000 0.000000 0.044742
#
#
# Mechanical properties :
#
#
# Convention : Reuss Voigt Hill
#
# Bulk Modulus (GPa) = 58.86289 68.42790 63.64540
# Shear Modulus (GPa) = 21.53635 26.06864 23.80250
#
# Velocity S-wave (km/s) = 3.15644 3.47273 3.31836
# Velocity P-wave (km/s) = 6.36516 6.90912 6.64271
#
# Compressibility (1/GPa) = 0.01698863
#
# Stress axis : x y z
#
# Youngs Moduli (GPa) = 96.83362 48.06191 45.43926
#
# Poissons Ratio (x) = -0.04596 0.38044
# Poissons Ratio (y) = -0.09260 0.48437
# Poissons Ratio (z) = 0.81075 0.51233
#
# Static dielectric constant tensor:
#      x y z
#    x 1.755280 0.000000 0.000000 
#    y 0.000000 1.916890 0.000000 
#    z 0.000000 0.000000 2.003730 
# 
# From -- ./inp_files/12763.got.cif
#   From: 2010.05.17/outbox.cif.g08.bks.cpg/sg53_7_cif.got.tgz:12763.got - 2010.06.03 12:45:16.
