data_PCOD9418097
_publ_section_title
;
Structure prediction by ZEFSAII (Michael W. Deem and Ramdas Pophale) SiO2 
 PCOD9418097
Probable space group: P M N A
;
_chemical_formula_sum "Si O2"
_cell_formula_units_Z 32
_cell_length_a 17.678673
_cell_length_b 7.664042
_cell_length_c 11.358374
_cell_angle_alpha 90.000000
_cell_angle_beta 90.000000
_cell_angle_gamma 90.000000
_cell_volume 1538.947143
_symmetry_space_group_name_H-M "P M N A"
_symmetry_group_IT_number 53
_symmetry_cell_setting 'orthorhombic'
loop_
_space_group_symop_operation_xyz
x,y,z
1/2-x,-y,1/2+z
x,-y,-z
1/2-x,y,1/2-z
-x,-y,-z
1/2+x,y,1/2-z
-x,y,z
1/2+x,-y,1/2+z
loop_
_atom_site_type_symbol
_atom_site_label
_atom_site_fract_x
_atom_site_fract_y
_atom_site_fract_z
Si Si1 0.137789 0.500000 0.000000
Si Si2 0.000000 0.473697 0.180213
Si Si3 0.873833 0.000000 0.500000
Si Si4 0.000000 0.151451 0.871894
Si Si5 0.240994 0.799463 0.115715
Si Si6 0.000000 0.137772 0.325534
Si Si7 0.130387 0.000000 0.000000
O O1 0.195299 0.346479 0.957658
O O2 0.077927 0.546515 0.895134
O O3 0.000000 0.679595 0.209135
O O4 0.000000 0.336995 0.284683
O O5 0.820152 0.145571 0.559030
O O6 0.927248 0.086026 0.401928
O O7 0.000000 0.980479 0.792156
O O8 0.929397 0.145592 0.959595
O O9 0.250000 0.745178 0.250000
O O10 0.189456 0.977623 0.107139
#
# Coordination Sequence:
#
# PCOD9418097 Si02
#       7
#     4   4   4   4   8   4   4
#     4  11  24  42  64 107 138 164 238 285 330 418
#     4  11  24  43  73 107 132 178 232 285 345 395
#     4  10  26  46  64 100 134 184 232 276 338 414
#     4  11  20  39  74  95 137 179 218 291 342 388
#     4  11  23  42  66  94 137 182 224 276 348 403
#     4  11  24  46  69 100 137 177 237 277 338 415
#     4  10  20  38  66  98 128 174 232 278 326 412
#
# _framework density 20.793437999999998
#
# number of rings (size 3 to 8) (size 9 to 14) (size 15 to 20)
#    0.000    1.250    2.500    3.000    3.500    4.000 
#    0.000    2.500    0.000    0.000    0.000    0.000 
#    0.000    0.000    0.000    0.000    0.000    0.000 
#
# Total GULP energy -178167.723664 kJ/mol
# GULP energy per Si atom -5567.741364 kJ/mol
# Density = 2.074611 g / cm^3
# Si number density = 20.793438 Si / 1000 Ang^3
#
#
#
# Elastic Constant Matrix: (Units=GPa)
#
#
# Indices 1 2 3 4 5 6 
#
# 1 165.9275 48.6643 53.7629 0.0000 0.0000 0.0000
# 2 48.6643 100.7165 39.6920 0.0000 0.0000 0.0000
# 3 53.7629 39.6920 73.4806 0.0000 0.0000 0.0000
# 4 0.0000 0.0000 0.0000 38.7176 0.0000 0.0000
# 5 0.0000 0.0000 0.0000 0.0000 12.9533 0.0000
# 6 0.0000 0.0000 0.0000 0.0000 0.0000 18.5480
#
#
#
# Elastic Compliance Matrix: (Units=1/GPa)
#
#
# Indices 1 2 3 4 5 6 
#
# 1 0.008215 -0.002033 -0.004912 0.000000 0.000000 0.000000
# 2 -0.002033 0.013117 -0.005598 0.000000 0.000000 0.000000
# 3 -0.004912 -0.005598 0.020227 0.000000 0.000000 0.000000
# 4 0.000000 0.000000 0.000000 0.025828 0.000000 0.000000
# 5 0.000000 0.000000 0.000000 0.000000 0.077200 0.000000
# 6 0.000000 0.000000 0.000000 0.000000 0.000000 0.053914
#
#
# Mechanical properties :
#
#
# Convention : Reuss Voigt Hill
#
# Bulk Modulus (GPa) = 60.70780 69.37367 65.04074
# Shear Modulus (GPa) = 21.82655 27.24414 24.53535
#
# Velocity S-wave (km/s) = 3.24340 3.62363 3.43878
# Velocity P-wave (km/s) = 6.57915 7.13746 6.86398
#
# Compressibility (1/GPa) = 0.01647235
#
# Stress axis : x y z
#
# Youngs Moduli (GPa) = 121.73386 76.23423 49.43948
#
# Poissons Ratio (x) = 0.15501 0.24285
# Poissons Ratio (y) = 0.24753 0.27676
# Poissons Ratio (z) = 0.59795 0.42675
#
# Static dielectric constant tensor:
#      x y z
#    x 1.767360 0.000000 0.000000 
#    y 0.000000 1.869540 0.000000 
#    z 0.000000 0.000000 1.721350 
# 
# From -- ./inp_files/16641.got.cif
#   From: 2010.05.17/outbox.cif.g08.bks.cpg/sg53_9_cif.got.tgz:16641.got - 2010.06.03 12:45:16.
