data_PCOD9418133
_publ_section_title
;
Structure prediction by ZEFSAII (Michael W. Deem and Ramdas Pophale) SiO2 
 PCOD9418133
Probable space group: P M N A
;
_chemical_formula_sum "Si O2"
_cell_formula_units_Z 40
_cell_length_a 10.312671
_cell_length_b 22.707061
_cell_length_c 8.553944
_cell_angle_alpha 90.000000
_cell_angle_beta 90.000000
_cell_angle_gamma 90.000000
_cell_volume 2003.080911
_symmetry_space_group_name_H-M "P M N A"
_symmetry_group_IT_number 53
_symmetry_cell_setting 'orthorhombic'
loop_
_space_group_symop_operation_xyz
x,y,z
1/2-x,-y,1/2+z
x,-y,-z
1/2-x,y,1/2-z
-x,-y,-z
1/2+x,y,1/2-z
-x,y,z
1/2+x,-y,1/2+z
loop_
_atom_site_type_symbol
_atom_site_label
_atom_site_fract_x
_atom_site_fract_y
_atom_site_fract_z
Si Si1 0.269348 0.937022 0.064357
Si Si2 0.647796 0.556377 0.612565
Si Si3 0.000000 0.761355 0.099579
Si Si4 0.767183 0.673838 0.064746
Si Si5 0.500000 0.265894 0.970276
Si Si6 0.500000 0.889492 0.559365
Si Si7 0.000000 0.862869 0.575338
O O1 0.250000 0.938235 0.250000
O O2 0.373755 0.888395 0.012339
O O3 0.130175 0.922968 0.989659
O O4 0.315774 0.000000 0.000000
O O5 0.655409 0.500000 0.500000
O O6 0.750000 0.549344 0.750000
O O7 0.500000 0.560702 0.671440
O O8 0.682606 0.615461 0.518330
O O9 0.872689 0.725623 0.046605
O O10 0.000000 0.757275 0.289218
O O11 0.000000 0.826724 0.030843
O O12 0.750000 0.662524 0.250000
O O13 0.628491 0.695890 0.004022
O O14 0.500000 0.207440 0.072103
O O15 0.500000 0.882474 0.745362
#
# Coordination Sequence:
#
# PCOD9418133 Si02
#       7
#     8   8   4   8   4   4   4
#     4  12  25  44  67  93 128 170 217 269 330 397
#     4  11  25  44  66  95 131 171 217 270 324 382
#     4  10  20  39  62  91 128 172 211 260 319 386
#     4  10  21  40  65  94 127 169 211 261 317 384
#     4  10  22  37  64  95 128 168 217 254 319 390
#     4  12  25  41  66  95 132 168 215 274 328 388
#     4  12  25  43  64  99 130 170 217 272 326 390
#
# _framework density 19.969239999999999
#
# number of rings (size 3 to 8) (size 9 to 14) (size 15 to 20)
#    0.000    1.000    1.000    6.000    1.400    3.600 
#    0.000    0.000    0.000    0.000    0.000    0.000 
#    0.000    0.000    0.000    0.000    0.000    0.000 
#
# Total GULP energy -223899.427583 kJ/mol
# GULP energy per Si atom -5597.485690 kJ/mol
# Density = 1.992379 g / cm^3
# Si number density = 19.969240 Si / 1000 Ang^3
#
#
#
# Elastic Constant Matrix: (Units=GPa)
#
#
# Indices 1 2 3 4 5 6 
#
# 1 149.5523 21.9821 25.2548 0.0000 0.0000 0.0000
# 2 21.9821 71.0685 10.1786 0.0000 0.0000 0.0000
# 3 25.2548 10.1786 78.0208 0.0000 0.0000 0.0000
# 4 0.0000 0.0000 0.0000 25.9687 0.0000 0.0000
# 5 0.0000 0.0000 0.0000 0.0000 17.0471 0.0000
# 6 0.0000 0.0000 0.0000 0.0000 0.0000 30.4273
#
#
#
# Elastic Compliance Matrix: (Units=1/GPa)
#
#
# Indices 1 2 3 4 5 6 
#
# 1 0.007333 -0.001965 -0.002117 0.000000 0.000000 0.000000
# 2 -0.001965 0.014865 -0.001303 0.000000 0.000000 0.000000
# 3 -0.002117 -0.001303 0.013672 0.000000 0.000000 0.000000
# 4 0.000000 0.000000 0.000000 0.038508 0.000000 0.000000
# 5 0.000000 0.000000 0.000000 0.000000 0.058661 0.000000
# 6 0.000000 0.000000 0.000000 0.000000 0.000000 0.032865
#
#
# Mechanical properties :
#
#
# Convention : Reuss Voigt Hill
#
# Bulk Modulus (GPa) = 39.84096 45.94139 42.89118
# Shear Modulus (GPa) = 27.02082 30.77036 28.89559
#
# Velocity S-wave (km/s) = 3.68247 3.92967 3.80808
# Velocity P-wave (km/s) = 6.17052 6.60650 6.39222
#
# Compressibility (1/GPa) = 0.02509980
#
# Stress axis : x y z
#
# Youngs Moduli (GPa) = 136.37009 67.27046 73.13964
#
# Poissons Ratio (x) = 0.13218 0.15486
# Poissons Ratio (y) = 0.26795 0.09532
# Poissons Ratio (z) = 0.28874 0.08767
#
# Static dielectric constant tensor:
#      x y z
#    x 1.676110 0.000000 0.000000 
#    y 0.000000 1.670070 0.000000 
#    z 0.000000 0.000000 1.680540 
# 
# From -- ./inp_files/6398.got.cif
#   From: 2010.05.17/outbox.cif.g08.bks.cpg/sg53_4_cif.got.tgz:6398.got - 2010.06.03 12:45:16.
