data_PCOD9418157
_publ_section_title
;
Structure prediction by ZEFSAII (Michael W. Deem and Ramdas Pophale) SiO2 
 PCOD9418157
Probable space group: P M N A
;
_chemical_formula_sum "Si O2"
_cell_formula_units_Z 48
_cell_length_a 26.728699
_cell_length_b 7.767552
_cell_length_c 11.890467
_cell_angle_alpha 90.000000
_cell_angle_beta 90.000000
_cell_angle_gamma 90.000000
_cell_volume 2468.657848
_symmetry_space_group_name_H-M "P M N A"
_symmetry_group_IT_number 53
_symmetry_cell_setting 'orthorhombic'
loop_
_space_group_symop_operation_xyz
x,y,z
1/2-x,-y,1/2+z
x,-y,-z
1/2-x,y,1/2-z
-x,-y,-z
1/2+x,y,1/2-z
-x,y,z
1/2+x,-y,1/2+z
loop_
_atom_site_type_symbol
_atom_site_label
_atom_site_fract_x
_atom_site_fract_y
_atom_site_fract_z
Si Si1 0.710378 0.305184 0.952664
Si Si2 0.133200 0.120738 0.394995
Si Si3 0.807608 0.249166 0.216975
Si Si4 0.818688 0.806695 0.038890
Si Si5 0.058025 0.431778 0.372254
Si Si6 0.143088 0.384625 0.749124
O O1 0.761826 0.216248 0.916825
O O2 0.670809 0.286327 0.851701
O O3 0.717716 0.500000 0.000000
O O4 0.683081 0.206842 0.052817
O O5 0.156266 0.099279 0.268460
O O6 0.087883 0.252441 0.374149
O O7 0.117360 0.000000 0.500000
O O8 0.750000 0.219125 0.250000
O O9 0.826108 0.436607 0.256002
O O10 0.814735 0.276617 0.083913
O O11 0.852242 0.712491 0.132279
O O12 0.831196 0.000000 0.000000
O O13 0.062061 0.500000 0.500000
O O14 0.087660 0.562657 0.290741
O O15 0.000000 0.414046 0.342691
#
# Coordination Sequence:
#
# PCOD9418157 Si02
#       6
#     8   8   8   8   8   8
#     4  12  19  38  57  84 116 163 199 236 293 362
#     4  11  22  35  59  87 126 153 190 251 314 362
#     4  11  21  36  55  79 117 164 204 239 284 367
#     4  12  26  34  52  85 125 165 199 240 297 363
#     4  10  20  39  66  91 112 150 209 263 313 365
#     4  11  21  38  59  82 115 158 204 250 298 367
#
# _framework density 19.443764000000002
#
# number of rings (size 3 to 8) (size 9 to 14) (size 15 to 20)
#    0.000    0.833    6.667    3.500    2.333    0.333 
#    0.000    0.000    0.000    8.500    0.000    0.000 
#    0.000    0.000    0.000    0.000    0.000    0.000 
#
# Total GULP energy -267321.756555 kJ/mol
# GULP energy per Si atom -5569.203262 kJ/mol
# Density = 1.939951 g / cm^3
# Si number density = 19.443764 Si / 1000 Ang^3
#
#
#
# Elastic Constant Matrix: (Units=GPa)
#
#
# Indices 1 2 3 4 5 6 
#
# 1 139.8802 29.4420 53.2142 0.0000 0.0000 0.0000
# 2 29.4420 50.5279 25.3029 0.0000 0.0000 0.0000
# 3 53.2142 25.3029 110.7752 0.0000 0.0000 0.0000
# 4 0.0000 0.0000 0.0000 19.6692 0.0000 0.0000
# 5 0.0000 0.0000 0.0000 0.0000 25.8298 0.0000
# 6 0.0000 0.0000 0.0000 0.0000 0.0000 15.6083
#
#
#
# Elastic Compliance Matrix: (Units=1/GPa)
#
#
# Indices 1 2 3 4 5 6 
#
# 1 0.009290 -0.003589 -0.003643 0.000000 0.000000 0.000000
# 2 -0.003589 0.023734 -0.003697 0.000000 0.000000 0.000000
# 3 -0.003643 -0.003697 0.011622 0.000000 0.000000 0.000000
# 4 0.000000 0.000000 0.000000 0.050841 0.000000 0.000000
# 5 0.000000 0.000000 0.000000 0.000000 0.038715 0.000000
# 6 0.000000 0.000000 0.000000 0.000000 0.000000 0.064069
#
#
# Mechanical properties :
#
#
# Convention : Reuss Voigt Hill
#
# Bulk Modulus (GPa) = 43.88373 57.45571 50.66972
# Shear Modulus (GPa) = 21.95634 25.10306 23.52970
#
# Velocity S-wave (km/s) = 3.36404 3.59703 3.48248
# Velocity P-wave (km/s) = 6.14065 6.84583 6.50280
#
# Compressibility (1/GPa) = 0.02278749
#
# Stress axis : x y z
#
# Youngs Moduli (GPa) = 107.63888 42.13419 86.04485
#
# Poissons Ratio (x) = 0.15122 0.31347
# Poissons Ratio (y) = 0.38632 0.31812
# Poissons Ratio (z) = 0.39214 0.15577
#
# Static dielectric constant tensor:
#      x y z
#    x 1.656310 0.000000 0.000000 
#    y 0.000000 1.828660 0.000000 
#    z 0.000000 0.000000 2.419660 
# 
# From -- ./inp_files/18268.got.cif
#   From: 2010.05.17/outbox.cif.g08.bks.cpg/sg53_10_cif.got.tgz:18268.got - 2010.06.03 12:45:16.
