data_PCOD9418522
_publ_section_title
;
Structure prediction by ZEFSAII (Michael W. Deem and Ramdas Pophale) SiO2 
 PCOD9418522
Probable space group: P M N A
;
_chemical_formula_sum "Si O2"
_cell_formula_units_Z 48
_cell_length_a 19.269896
_cell_length_b 14.293129
_cell_length_c 8.792658
_cell_angle_alpha 90.000000
_cell_angle_beta 90.000000
_cell_angle_gamma 90.000000
_cell_volume 2421.736376
_symmetry_space_group_name_H-M "P M N A"
_symmetry_group_IT_number 53
_symmetry_cell_setting 'orthorhombic'
loop_
_space_group_symop_operation_xyz
x,y,z
1/2-x,-y,1/2+z
x,-y,-z
1/2-x,y,1/2-z
-x,-y,-z
1/2+x,y,1/2-z
-x,y,z
1/2+x,-y,1/2+z
loop_
_atom_site_type_symbol
_atom_site_label
_atom_site_fract_x
_atom_site_fract_y
_atom_site_fract_z
Si Si1 0.327463 0.649132 0.689815
Si Si2 0.422925 0.730468 0.222442
Si Si3 0.081102 0.207303 0.376671
Si Si4 0.794146 0.255783 0.892103
Si Si5 0.714167 0.902747 0.914755
Si Si6 0.423515 0.514202 0.317333
O O1 0.250000 0.661168 0.750000
O O2 0.380417 0.726527 0.754870
O O3 0.318283 0.665835 0.510568
O O4 0.361024 0.550943 0.735895
O O5 0.500000 0.761676 0.266880
O O6 0.363541 0.784338 0.314184
O O7 0.416824 0.620939 0.265039
O O8 0.415793 0.743273 0.042124
O O9 0.132578 0.119336 0.392843
O O10 0.000000 0.189738 0.341547
O O11 0.750000 0.293073 0.750000
O O12 0.749774 0.179439 0.984567
O O13 0.750000 0.903140 0.750000
O O14 0.724386 0.000000 0.000000
O O15 0.424876 0.500000 0.500000
O O16 0.500000 0.480830 0.262072
#
# Coordination Sequence:
#
# PCOD9418522 Si02
#       6
#     8   8   8   8   8   8
#     4  12  22  40  60  91 130 170 219 264 316 376
#     4  10  22  39  62  93 130 172 219 264 318 378
#     4  11  23  43  68  96 130 169 213 264 324 387
#     4  12  21  40  67  93 125 168 216 265 317 385
#     4  12  25  45  70  97 127 164 209 262 327 400
#     4  10  21  37  57  88 127 171 218 264 315 368
#
# _framework density 19.820488000000001
#
# number of rings (size 3 to 8) (size 9 to 14) (size 15 to 20)
#    0.000    0.833    6.667    1.000    0.000    2.333 
#    3.000    2.500    0.000    1.000    0.000    0.000 
#    0.000    0.000    0.000    0.000    0.000    0.000 
#
# Total GULP energy -267957.034890 kJ/mol
# GULP energy per Si atom -5582.438227 kJ/mol
# Density = 1.977538 g / cm^3
# Si number density = 19.820488 Si / 1000 Ang^3
#
#
#
# Elastic Constant Matrix: (Units=GPa)
#
#
# Indices 1 2 3 4 5 6 
#
# 1 176.2505 31.0871 55.2844 0.0000 0.0000 0.0000
# 2 31.0871 44.0986 9.6992 0.0000 0.0000 0.0000
# 3 55.2844 9.6992 96.3305 0.0000 0.0000 0.0000
# 4 0.0000 0.0000 0.0000 15.0807 0.0000 0.0000
# 5 0.0000 0.0000 0.0000 0.0000 27.8202 0.0000
# 6 0.0000 0.0000 0.0000 0.0000 0.0000 19.9480
#
#
#
# Elastic Compliance Matrix: (Units=1/GPa)
#
#
# Indices 1 2 3 4 5 6 
#
# 1 0.007727 -0.004573 -0.003974 0.000000 0.000000 0.000000
# 2 -0.004573 0.025896 0.000017 0.000000 0.000000 0.000000
# 3 -0.003974 0.000017 0.012660 0.000000 0.000000 0.000000
# 4 0.000000 0.000000 0.000000 0.066310 0.000000 0.000000
# 5 0.000000 0.000000 0.000000 0.000000 0.035945 0.000000
# 6 0.000000 0.000000 0.000000 0.000000 0.000000 0.050130
#
#
# Mechanical properties :
#
#
# Convention : Reuss Voigt Hill
#
# Bulk Modulus (GPa) = 34.21939 56.53568 45.37754
# Shear Modulus (GPa) = 22.17598 27.27706 24.72652
#
# Velocity S-wave (km/s) = 3.34854 3.71375 3.53586
# Velocity P-wave (km/s) = 5.67912 6.85383 6.29394
#
# Compressibility (1/GPa) = 0.02922320
#
# Stress axis : x y z
#
# Youngs Moduli (GPa) = 129.41886 38.61545 78.98939
#
# Poissons Ratio (x) = 0.17659 0.31391
# Poissons Ratio (y) = 0.59182 -0.00134
# Poissons Ratio (z) = 0.51431 -0.00066
#
# Static dielectric constant tensor:
#      x y z
#    x 1.747500 0.000000 0.000000 
#    y 0.000000 1.679490 0.000000 
#    z 0.000000 0.000000 1.717750 
# 
# From -- ./inp_files/9950.got.cif
#   From: 2010.05.17/outbox.cif.g08.bks.cpg/sg53_5_cif.got.tgz:9950.got - 2010.06.03 12:45:16.
