data_PCOD9418179
_publ_section_title
;
Structure prediction by ZEFSAII (Michael W. Deem and Ramdas Pophale) SiO2 
 PCOD9418179
Probable space group: P M N A
;
_chemical_formula_sum "Si O2"
_cell_formula_units_Z 40
_cell_length_a 17.066028
_cell_length_b 9.301381
_cell_length_c 10.982412
_cell_angle_alpha 90.000000
_cell_angle_beta 90.000000
_cell_angle_gamma 90.000000
_cell_volume 1743.322037
_symmetry_space_group_name_H-M "P M N A"
_symmetry_group_IT_number 53
_symmetry_cell_setting 'orthorhombic'
loop_
_space_group_symop_operation_xyz
x,y,z
1/2-x,-y,1/2+z
x,-y,-z
1/2-x,y,1/2-z
-x,-y,-z
1/2+x,y,1/2-z
-x,y,z
1/2+x,-y,1/2+z
loop_
_atom_site_type_symbol
_atom_site_label
_atom_site_fract_x
_atom_site_fract_y
_atom_site_fract_z
Si Si1 0.197692 0.172297 0.358361
Si Si2 0.855081 0.164670 0.012187
Si Si3 0.091583 0.358956 0.240562
Si Si4 0.343481 0.677658 0.261982
Si Si5 0.588613 0.932155 0.136055
O O1 0.250000 0.236370 0.250000
O O2 0.260196 0.158944 0.464961
O O3 0.124917 0.279251 0.360979
O O4 0.159949 0.024712 0.307828
O O5 0.869550 0.246059 0.886915
O O6 0.892187 0.255486 0.123402
O O7 0.882499 0.000000 0.000000
O O8 0.132881 0.512110 0.230379
O O9 0.000000 0.380335 0.250603
O O10 0.250000 0.689449 0.250000
O O11 0.387360 0.768027 0.156474
O O12 0.500000 0.956586 0.182481
O O13 0.590432 0.000000 0.000000
#
# Coordination Sequence:
#
# PCOD9418179 Si02
#       5
#     8   8   8   8   8
#     4  10  20  40  63  88 121 160 211 262 320 393
#     4  11  23  40  67  97 125 167 222 279 335 400
#     4  11  25  42  62  94 134 174 217 271 339 406
#     4  12  23  40  66  93 129 174 223 279 335 399
#     4  11  23  39  62  92 126 165 211 266 326 389
#
# _framework density 22.944699
#
# number of rings (size 3 to 8) (size 9 to 14) (size 15 to 20)
#    0.000    1.000    0.000    9.600    0.000    2.800 
#    0.000    3.000    0.000    7.200    0.000    0.000 
#    0.000    0.000    0.000    0.000    0.000    0.000 
#
# Total GULP energy -223427.769540 kJ/mol
# GULP energy per Si atom -5585.694239 kJ/mol
# Density = 2.289248 g / cm^3
# Si number density = 22.944699 Si / 1000 Ang^3
#
#
#
# Elastic Constant Matrix: (Units=GPa)
#
#
# Indices 1 2 3 4 5 6 
#
# 1 103.2267 17.0912 3.4692 0.0000 0.0000 0.0000
# 2 17.0912 172.3610 36.4811 0.0000 0.0000 0.0000
# 3 3.4692 36.4811 76.1297 0.0000 0.0000 0.0000
# 4 0.0000 0.0000 0.0000 26.2414 0.0000 0.0000
# 5 0.0000 0.0000 0.0000 0.0000 18.6615 0.0000
# 6 0.0000 0.0000 0.0000 0.0000 0.0000 24.3428
#
#
#
# Elastic Compliance Matrix: (Units=1/GPa)
#
#
# Indices 1 2 3 4 5 6 
#
# 1 0.009849 -0.000981 0.000021 0.000000 0.000000 0.000000
# 2 -0.000981 0.006554 -0.003096 0.000000 0.000000 0.000000
# 3 0.000021 -0.003096 0.014618 0.000000 0.000000 0.000000
# 4 0.000000 0.000000 0.000000 0.038108 0.000000 0.000000
# 5 0.000000 0.000000 0.000000 0.000000 0.053586 0.000000
# 6 0.000000 0.000000 0.000000 0.000000 0.000000 0.041080
#
#
# Mechanical properties :
#
#
# Convention : Reuss Voigt Hill
#
# Bulk Modulus (GPa) = 43.64941 51.75559 47.70250
# Shear Modulus (GPa) = 27.84829 33.49418 30.67123
#
# Velocity S-wave (km/s) = 3.48762 3.82485 3.66012
# Velocity P-wave (km/s) = 5.93995 6.48935 6.22072
#
# Compressibility (1/GPa) = 0.02290982
#
# Stress axis : x y z
#
# Youngs Moduli (GPa) = 101.53164 152.56980 68.40806
#
# Poissons Ratio (x) = 0.14969 -0.00146
# Poissons Ratio (y) = 0.09962 0.21180
# Poissons Ratio (z) = -0.00217 0.47237
#
# Static dielectric constant tensor:
#      x y z
#    x 1.899590 0.000000 0.000000 
#    y 0.000000 1.850800 0.000000 
#    z 0.000000 0.000000 1.996470 
# 
# From -- ./inp_files/16656.got.cif
#   From: 2010.05.17/outbox.cif.g08.bks.cpg/sg53_9_cif.got.tgz:16656.got - 2010.06.03 12:45:16.
