data_PCOD9418876
_publ_section_title
;
Structure prediction by ZEFSAII (Michael W. Deem and Ramdas Pophale) SiO2 
 PCOD9418876
Probable space group: P M N A
;
_chemical_formula_sum "Si O2"
_cell_formula_units_Z 32
_cell_length_a 12.963709
_cell_length_b 10.156604
_cell_length_c 13.037396
_cell_angle_alpha 90.000000
_cell_angle_beta 90.000000
_cell_angle_gamma 90.000000
_cell_volume 1716.598192
_symmetry_space_group_name_H-M "P M N A"
_symmetry_group_IT_number 53
_symmetry_cell_setting 'orthorhombic'
loop_
_space_group_symop_operation_xyz
x,y,z
1/2-x,-y,1/2+z
x,-y,-z
1/2-x,y,1/2-z
-x,-y,-z
1/2+x,y,1/2-z
-x,y,z
1/2+x,-y,1/2+z
loop_
_atom_site_type_symbol
_atom_site_label
_atom_site_fract_x
_atom_site_fract_y
_atom_site_fract_z
Si Si1 0.250000 0.008922 0.250000
Si Si2 0.274495 0.136824 0.035805
Si Si3 0.750000 0.558095 0.250000
Si Si4 0.877264 0.206070 0.848658
Si Si5 0.386447 0.397620 0.092239
O O1 0.242299 0.101237 0.151241
O O2 0.155139 0.905979 0.234847
O O3 0.346385 0.262268 0.044262
O O4 0.182929 0.166613 0.954122
O O5 0.325978 0.000000 0.000000
O O6 0.670902 0.656691 0.308374
O O7 0.810046 0.463445 0.327187
O O8 0.000000 0.212161 0.861765
O O9 0.500000 0.378698 0.138322
O O10 0.392902 0.500000 0.000000
#
# Coordination Sequence:
#
# PCOD9418876 Si02
#       5
#     4   8   4   8   8
#     4   9  21  36  60  90 128 160 202 258 316 364
#     4  10  21  41  61  92 127 163 205 263 305 376
#     4  11  21  42  64  92 126 166 210 268 306 376
#     4  10  21  39  65  93 125 168 211 259 318 374
#     4  11  23  40  64  91 124 166 206 254 316 374
#
# _framework density 18.641518999999999
#
# number of rings (size 3 to 8) (size 9 to 14) (size 15 to 20)
#    0.000    1.750    2.500    1.500    0.000    6.000 
#    0.000    6.250    0.000    0.000    0.000    0.000 
#    0.000    0.000    0.000    0.000    0.000    0.000 
#
# Total GULP energy -178344.378153 kJ/mol
# GULP energy per Si atom -5573.261817 kJ/mol
# Density = 1.859909 g / cm^3
# Si number density = 18.641519 Si / 1000 Ang^3
#
#
#
# Elastic Constant Matrix: (Units=GPa)
#
#
# Indices 1 2 3 4 5 6 
#
# 1 127.0522 65.6181 41.7124 0.0000 0.0000 0.0000
# 2 65.6181 147.3045 31.4867 0.0000 0.0000 0.0000
# 3 41.7124 31.4867 90.3580 0.0000 0.0000 0.0000
# 4 0.0000 0.0000 0.0000 29.4349 0.0000 0.0000
# 5 0.0000 0.0000 0.0000 0.0000 14.1125 0.0000
# 6 0.0000 0.0000 0.0000 0.0000 0.0000 24.5761
#
#
#
# Elastic Compliance Matrix: (Units=1/GPa)
#
#
# Indices 1 2 3 4 5 6 
#
# 1 0.011280 -0.004226 -0.003734 0.000000 0.000000 0.000000
# 2 -0.004226 0.008919 -0.001157 0.000000 0.000000 0.000000
# 3 -0.003734 -0.001157 0.013194 0.000000 0.000000 0.000000
# 4 0.000000 0.000000 0.000000 0.033973 0.000000 0.000000
# 5 0.000000 0.000000 0.000000 0.000000 0.070859 0.000000
# 6 0.000000 0.000000 0.000000 0.000000 0.000000 0.040690
#
#
# Mechanical properties :
#
#
# Convention : Reuss Voigt Hill
#
# Bulk Modulus (GPa) = 65.97468 71.37211 68.67339
# Shear Modulus (GPa) = 24.72777 28.68454 26.70616
#
# Velocity S-wave (km/s) = 3.64605 3.92694 3.78910
# Velocity P-wave (km/s) = 7.29335 7.67665 7.48745
#
# Compressibility (1/GPa) = 0.01515733
#
# Stress axis : x y z
#
# Youngs Moduli (GPa) = 88.65602 112.12533 75.79165
#
# Poissons Ratio (x) = 0.47388 0.28303
# Poissons Ratio (y) = 0.37469 0.08768
# Poissons Ratio (z) = 0.33107 0.12971
#
# Static dielectric constant tensor:
#      x y z
#    x 1.632650 0.000000 0.000000 
#    y 0.000000 1.647690 0.000000 
#    z 0.000000 0.000000 1.650810 
# 
# From -- ./inp_files/15455.got.cif
#   From: 2010.05.17/outbox.cif.g08.bks.cpg/sg53_8_cif.got.tgz:15455.got - 2010.06.03 12:45:16.
