data_PCOD9418285
_publ_section_title
;
Structure prediction by ZEFSAII (Michael W. Deem and Ramdas Pophale) SiO2 
 PCOD9418285
Probable space group: P M N A
;
_chemical_formula_sum "Si O2"
_cell_formula_units_Z 40
_cell_length_a 7.551673
_cell_length_b 27.179199
_cell_length_c 9.189427
_cell_angle_alpha 90.000000
_cell_angle_beta 90.000000
_cell_angle_gamma 90.000000
_cell_volume 1886.115402
_symmetry_space_group_name_H-M "P M N A"
_symmetry_group_IT_number 53
_symmetry_cell_setting 'orthorhombic'
loop_
_space_group_symop_operation_xyz
x,y,z
1/2-x,-y,1/2+z
x,-y,-z
1/2-x,y,1/2-z
-x,-y,-z
1/2+x,y,1/2-z
-x,y,z
1/2+x,-y,1/2+z
loop_
_atom_site_type_symbol
_atom_site_label
_atom_site_fract_x
_atom_site_fract_y
_atom_site_fract_z
Si Si1 0.712581 0.352301 0.578945
Si Si2 0.287359 0.156606 0.578406
Si Si3 0.787385 0.549257 0.921238
Si Si4 0.712397 0.951573 0.420863
Si Si5 0.787385 0.254108 0.079477
O O1 0.750000 0.353844 0.750000
O O2 0.500000 0.352070 0.561234
O O3 0.780595 0.401094 0.497773
O O4 0.780595 0.302121 0.505613
O O5 0.250000 0.163030 0.750000
O O6 0.500000 0.155524 0.562051
O O7 0.220100 0.102455 0.532358
O O8 0.218494 0.203111 0.488637
O O9 0.750000 0.548819 0.750000
O O10 0.000000 0.549321 0.938667
O O11 0.719447 0.500000 0.000000
O O12 0.750000 0.955671 0.250000
O O13 0.500000 0.049003 0.558285
O O14 0.783459 0.000000 0.500000
O O15 0.750000 0.257698 0.250000
O O16 0.000000 0.253459 0.060944
#
# Coordination Sequence:
#
# PCOD9418285 Si02
#       5
#     8   8   8   8   8
#     4  10  21  36  54  77 103 132 168 207 247 294
#     4   9  18  33  51  71  96 127 163 201 242 290
#     4  10  21  36  54  78 106 135 170 209 248 294
#     4   9  18  32  49  70  97 127 160 200 243 288
#     4  10  21  35  51  74 102 130 163 203 246 293
#
# _framework density 21.207611
#
# number of rings (size 3 to 8) (size 9 to 14) (size 15 to 20)
#    0.000    2.400    0.000    1.800    0.000    4.000 
#    0.000    0.000    0.000    0.000    0.000    0.000 
#    0.000    0.000    0.000    0.000    0.000    0.000 
#
# Total GULP energy -223392.211400 kJ/mol
# GULP energy per Si atom -5584.805285 kJ/mol
# Density = 2.115934 g / cm^3
# Si number density = 21.207611 Si / 1000 Ang^3
#
#
#
# Elastic Constant Matrix: (Units=GPa)
#
#
# Indices 1 2 3 4 5 6 
#
# 1 52.7649 16.0054 -11.2899 0.0000 0.0000 0.0000
# 2 16.0054 281.2342 141.5968 0.0000 0.0000 0.0000
# 3 -11.2899 141.5968 152.5243 0.0000 0.0000 0.0000
# 4 0.0000 0.0000 0.0000 53.6615 0.0000 0.0000
# 5 0.0000 0.0000 0.0000 0.0000 30.3372 0.0000
# 6 0.0000 0.0000 0.0000 0.0000 0.0000 -133.6976
#
#
#
# Elastic Compliance Matrix: (Units=1/GPa)
#
#
# Indices 1 2 3 4 5 6 
#
# 1 0.021166 -0.003743 0.005041 0.000000 0.000000 0.000000
# 2 -0.003743 0.007338 -0.007090 0.000000 0.000000 0.000000
# 3 0.005041 -0.007090 0.013511 0.000000 0.000000 0.000000
# 4 0.000000 0.000000 0.000000 0.018635 0.000000 0.000000
# 5 0.000000 0.000000 0.000000 0.000000 0.032963 0.000000
# 6 0.000000 0.000000 0.000000 0.000000 0.000000 -0.007480
#
#
# Mechanical properties :
#
#
# Convention : Reuss Voigt Hill
#
# Bulk Modulus (GPa) = 32.85857 86.57199 59.71528
# Shear Modulus (GPa) = 46.35618 12.74096 29.54857
#
# Velocity S-wave (km/s) = 4.68036 2.45373 3.73674
# Velocity P-wave (km/s) = 6.68843 6.99553 6.84370
#
# Compressibility (1/GPa) = 0.03043346
#
# Stress axis : x y z
#
# Youngs Moduli (GPa) = 47.24546 136.27260 74.01314
#
# Poissons Ratio (x) = 0.51005 -0.37313
# Poissons Ratio (y) = 0.17683 0.52472
# Poissons Ratio (z) = -0.23819 0.96611
#
# Static dielectric constant tensor:
#      x y z
#    x 1.772820 0.000000 0.000000 
#    y 0.000000 1.798400 0.000000 
#    z 0.000000 0.000000 1.680060 
# 
# From -- ./inp_files/748.got.cif
#   From: 2010.05.17/outbox.cif.g08.bks.cpg/sg53_1_cif.got.tgz:748.got - 2010.06.03 12:45:16.
