data_PCOD9418189
_publ_section_title
;
Structure prediction by ZEFSAII (Michael W. Deem and Ramdas Pophale) SiO2 
 PCOD9418189
Probable space group: P M N A
;
_chemical_formula_sum "Si O2"
_cell_formula_units_Z 40
_cell_length_a 14.313537
_cell_length_b 17.420520
_cell_length_c 8.148994
_cell_angle_alpha 90.000000
_cell_angle_beta 90.000000
_cell_angle_gamma 90.000000
_cell_volume 2031.945604
_symmetry_space_group_name_H-M "P M N A"
_symmetry_group_IT_number 53
_symmetry_cell_setting 'orthorhombic'
loop_
_space_group_symop_operation_xyz
x,y,z
1/2-x,-y,1/2+z
x,-y,-z
1/2-x,y,1/2-z
-x,-y,-z
1/2+x,y,1/2-z
-x,y,z
1/2+x,-y,1/2+z
loop_
_atom_site_type_symbol
_atom_site_label
_atom_site_fract_x
_atom_site_fract_y
_atom_site_fract_z
Si Si1 0.663379 0.314205 0.644126
Si Si2 0.324916 0.065009 0.618185
Si Si3 0.500000 0.049737 0.835676
Si Si4 0.671249 0.802001 0.625189
Si Si5 0.000000 0.715299 0.709935
Si Si6 0.500000 0.233657 0.845501
Si Si7 0.500000 0.590815 0.519017
O O1 0.750000 0.343576 0.750000
O O2 0.707233 0.264559 0.496269
O O3 0.592616 0.258778 0.745532
O O4 0.592785 0.376654 0.570181
O O5 0.250000 0.094884 0.750000
O O6 0.409968 0.032789 0.724375
O O7 0.359810 0.130309 0.494836
O O8 0.282366 0.000000 0.500000
O O9 0.500000 0.141761 0.872423
O O10 0.500000 0.000000 0.000000
O O11 0.750000 0.829624 0.750000
O O12 0.588237 0.763150 0.724609
O O13 0.000000 0.632637 0.801768
O O14 0.000000 0.719086 0.514757
O O15 0.500000 0.500000 0.500000
#
# Coordination Sequence:
#
# PCOD9418189 Si02
#       7
#     8   8   4   8   4   4   4
#     4  10  20  40  64  93 123 166 209 253 310 372
#     4  12  26  43  58  85 121 161 212 261 327 377
#     4  12  27  41  64  88 120 172 209 267 329 382
#     4  11  22  37  62  88 118 162 210 264 309 370
#     4  10  23  37  63  94 119 157 210 250 308 373
#     4  11  22  39  64  90 124 161 217 268 312 369
#     4   9  21  43  65  95 138 167 195 254 311 375
#
# _framework density 19.685566000000001
#
# number of rings (size 3 to 8) (size 9 to 14) (size 15 to 20)
#    0.000    1.200    2.000    4.500    5.600    0.000 
#    0.000    8.000    0.000    0.000    0.000    0.000 
#    0.000    0.000    0.000    0.000    0.000    0.000 
#
# Total GULP energy -223443.246392 kJ/mol
# GULP energy per Si atom -5586.081160 kJ/mol
# Density = 1.964076 g / cm^3
# Si number density = 19.685566 Si / 1000 Ang^3
#
#
#
# Elastic Constant Matrix: (Units=GPa)
#
#
# Indices 1 2 3 4 5 6 
#
# 1 67.6402 -1.7139 34.7276 0.0000 0.0000 0.0000
# 2 -1.7139 101.0998 36.7155 0.0000 0.0000 0.0000
# 3 34.7276 36.7155 123.1510 0.0000 0.0000 0.0000
# 4 0.0000 0.0000 0.0000 13.3420 0.0000 0.0000
# 5 0.0000 0.0000 0.0000 0.0000 34.2209 0.0000
# 6 0.0000 0.0000 0.0000 0.0000 0.0000 18.9411
#
#
#
# Elastic Compliance Matrix: (Units=1/GPa)
#
#
# Indices 1 2 3 4 5 6 
#
# 1 0.017783 0.002380 -0.005724 0.000000 0.000000 0.000000
# 2 0.002380 0.011411 -0.004073 0.000000 0.000000 0.000000
# 3 -0.005724 -0.004073 0.010949 0.000000 0.000000 0.000000
# 4 0.000000 0.000000 0.000000 0.074951 0.000000 0.000000
# 5 0.000000 0.000000 0.000000 0.000000 0.029222 0.000000
# 6 0.000000 0.000000 0.000000 0.000000 0.000000 0.052795
#
#
# Mechanical properties :
#
#
# Convention : Reuss Voigt Hill
#
# Bulk Modulus (GPa) = 39.51255 47.92772 43.72014
# Shear Modulus (GPa) = 22.68787 28.11158 25.39973
#
# Velocity S-wave (km/s) = 3.39855 3.78303 3.59593
# Velocity P-wave (km/s) = 5.95950 6.59403 6.28478
#
# Compressibility (1/GPa) = 0.02530842
#
# Stress axis : x y z
#
# Youngs Moduli (GPa) = 56.23203 87.63626 91.33487
#
# Poissons Ratio (x) = -0.20861 0.52284
# Poissons Ratio (y) = -0.13385 0.37203
# Poissons Ratio (z) = 0.32190 0.35696
#
# Static dielectric constant tensor:
#      x y z
#    x 1.681960 0.000000 0.000000 
#    y 0.000000 1.687180 0.000000 
#    z 0.000000 0.000000 1.710670 
# 
# From -- ./inp_files/8490.got.cif
#   From: 2010.05.17/outbox.cif.g08.bks.cpg/sg53_5_cif.got.tgz:8490.got - 2010.06.03 12:45:16.
