data_PCOD9418274
_publ_section_title
;
Structure prediction by ZEFSAII (Michael W. Deem and Ramdas Pophale) SiO2 
 PCOD9418274
Probable space group: P M N A
;
_chemical_formula_sum "Si O2"
_cell_formula_units_Z 64
_cell_length_a 17.274296
_cell_length_b 19.417114
_cell_length_c 8.038027
_cell_angle_alpha 90.000000
_cell_angle_beta 90.000000
_cell_angle_gamma 90.000000
_cell_volume 2696.090699
_symmetry_space_group_name_H-M "P M N A"
_symmetry_group_IT_number 53
_symmetry_cell_setting 'orthorhombic'
loop_
_space_group_symop_operation_xyz
x,y,z
1/2-x,-y,1/2+z
x,-y,-z
1/2-x,y,1/2-z
-x,-y,-z
1/2+x,y,1/2-z
-x,y,z
1/2+x,-y,1/2+z
loop_
_atom_site_type_symbol
_atom_site_label
_atom_site_fract_x
_atom_site_fract_y
_atom_site_fract_z
Si Si1 0.592307 0.336180 0.480977
Si Si2 0.094224 0.913254 0.367952
Si Si3 0.091783 0.042052 0.154867
Si Si4 0.830635 0.543519 0.172679
Si Si5 0.090052 0.792783 0.141291
Si Si6 0.335873 0.835625 0.820251
Si Si7 0.091086 0.288615 0.509630
Si Si8 0.908480 0.420525 0.355578
O O1 0.500000 0.330147 0.498614
O O2 0.620676 0.390862 0.616436
O O3 0.626470 0.259627 0.507966
O O4 0.606122 0.371804 0.305065
O O5 0.104691 0.991838 0.313229
O O6 0.116432 0.866619 0.206837
O O7 0.145810 0.882618 0.515695
O O8 0.000000 0.902525 0.401852
O O9 0.000000 0.045509 0.132750
O O10 0.119121 0.119488 0.182315
O O11 0.126050 0.000000 0.000000
O O12 0.750000 0.565004 0.250000
O O13 0.869623 0.492037 0.306323
O O14 0.819748 0.500000 0.000000
O O15 0.095218 0.746076 0.309844
O O16 0.000000 0.803669 0.097884
O O17 0.250000 0.831907 0.750000
O O18 0.366634 0.762005 0.881076
O O19 0.118130 0.367971 0.499429
O O20 0.000000 0.289218 0.463322
O O21 0.000000 0.433799 0.372869
#
# Coordination Sequence:
#
# PCOD9418274 Si02
#       8
#     8   8   8   8   8   8   8   8
#     4   9  17  32  54  77 101 130 170 217 262 308
#     4   9  18  36  60  81 106 142 180 219 269 322
#     4  10  21  36  57  84 109 137 180 231 273 315
#     4  10  21  35  50  72 104 140 173 207 254 313
#     4   8  15  29  52  80 103 128 166 212 258 305
#     4  11  22  35  53  78 109 147 182 214 261 321
#     4   9  18  34  54  76 104 136 175 220 264 311
#     4   9  18  33  55  78  99 130 172 220 266 305
#
# _framework density 23.738073
#
# number of rings (size 3 to 8) (size 9 to 14) (size 15 to 20)
#    0.000    2.625    0.000    2.625    0.000    6.000 
#    0.000    7.500    0.000    4.500    0.000    0.000 
#    0.000    0.000    0.000    0.000    0.000    0.000 
#
# Total GULP energy -357445.125818 kJ/mol
# GULP energy per Si atom -5585.080091 kJ/mol
# Density = 2.368404 g / cm^3
# Si number density = 23.738073 Si / 1000 Ang^3
#
#
#
# Elastic Constant Matrix: (Units=GPa)
#
#
# Indices 1 2 3 4 5 6 
#
# 1 29.3559 18.1777 16.4759 0.0000 0.0000 0.0000
# 2 18.1777 138.1107 8.8748 0.0000 0.0000 0.0000
# 3 16.4759 8.8748 72.6933 0.0000 0.0000 0.0000
# 4 0.0000 0.0000 0.0000 26.5910 0.0000 0.0000
# 5 0.0000 0.0000 0.0000 0.0000-1187.3112 0.0000
# 6 0.0000 0.0000 0.0000 0.0000 0.0000 5.4103
#
#
#
# Elastic Compliance Matrix: (Units=1/GPa)
#
#
# Indices 1 2 3 4 5 6 
#
# 1 0.042168 -0.004975 -0.008950 0.000000 0.000000 0.000000
# 2 -0.004975 0.007885 0.000165 0.000000 0.000000 0.000000
# 3 -0.008950 0.000165 0.015765 0.000000 0.000000 0.000000
# 4 0.000000 0.000000 0.000000 0.037607 0.000000 0.000000
# 5 0.000000 0.000000 0.000000 0.000000 -0.000842 0.000000
# 6 0.000000 0.000000 0.000000 0.000000 0.000000 0.184831
#
#
# Mechanical properties :
#
#
# Convention : Reuss Voigt Hill
#
# Bulk Modulus (GPa) = 26.11114 36.35741 31.23428
# Shear Modulus (GPa) = 15.25786 -217.95320 -101.34767
#
# Velocity S-wave (km/s) = 2.53802 -9.59246 -6.54116
# Velocity P-wave (km/s) = 4.42858 10.36039 6.62289
#
# Compressibility (1/GPa) = 0.03829783
#
# Stress axis : x y z
#
# Youngs Moduli (GPa) = 23.71441 126.82699 63.43234
#
# Poissons Ratio (x) = 0.63096 0.56773
# Poissons Ratio (y) = 0.11798 -0.01046
# Poissons Ratio (z) = 0.21225 -0.02092
#
# Static dielectric constant tensor:
#      x y z
#    x 1.826090 0.000000 0.000000 
#    y 0.000000 1.913290 0.000000 
#    z 0.000000 0.000000 2.039820 
# 
# From -- ./inp_files/10225.got.cif
#   From: 2010.05.17/outbox.cif.g08.bks.cpg/sg53_6_cif.got.tgz:10225.got - 2010.06.03 12:45:16.
