data_PCOD9418974
_publ_section_title
;
Structure prediction by ZEFSAII (Michael W. Deem and Ramdas Pophale) SiO2 
 PCOD9418974
Probable space group: P M N A
;
_chemical_formula_sum "Si O2"
_cell_formula_units_Z 48
_cell_length_a 14.146420
_cell_length_b 9.039458
_cell_length_c 18.032326
_cell_angle_alpha 90.000000
_cell_angle_beta 90.000000
_cell_angle_gamma 90.000000
_cell_volume 2305.901169
_symmetry_space_group_name_H-M "P M N A"
_symmetry_group_IT_number 53
_symmetry_cell_setting 'orthorhombic'
loop_
_space_group_symop_operation_xyz
x,y,z
1/2-x,-y,1/2+z
x,-y,-z
1/2-x,y,1/2-z
-x,-y,-z
1/2+x,y,1/2-z
-x,y,z
1/2+x,-y,1/2+z
loop_
_atom_site_type_symbol
_atom_site_label
_atom_site_fract_x
_atom_site_fract_y
_atom_site_fract_z
Si Si1 0.773833 0.685817 0.918993
Si Si2 0.390412 0.878182 0.199634
Si Si3 0.244850 0.385985 0.833302
Si Si4 0.112717 0.058948 0.152611
Si Si5 0.611522 0.225863 0.565315
Si Si6 0.107991 0.896732 0.564393
O O1 0.753405 0.522541 0.889520
O O2 0.671935 0.755933 0.930101
O O3 0.829968 0.790981 0.860572
O O4 0.832839 0.707950 0.995123
O O5 0.500000 0.828776 0.209207
O O6 0.324571 0.743631 0.171216
O O7 0.360464 0.964641 0.274466
O O8 0.389201 0.005037 0.137694
O O9 0.250000 0.447227 0.750000
O O10 0.148591 0.307057 0.860340
O O11 0.128921 0.947261 0.083484
O O12 0.000000 0.088772 0.156907
O O13 0.500000 0.246291 0.554746
O O14 0.000000 0.859417 0.546275
O O15 0.147356 0.000000 0.500000
#
# Coordination Sequence:
#
# PCOD9418974 Si02
#       6
#     8   8   8   8   8   8
#     4  12  25  38  66 102 135 170 218 282 338 401
#     4  10  22  43  68  91 127 180 230 274 331 403
#     4  12  26  41  63  95 134 180 220 266 334 403
#     4  10  21  40  69  99 129 172 224 281 339 400
#     4  11  24  46  70  98 137 181 223 270 338 413
#     4  10  22  40  64  93 126 170 222 276 329 382
#
# _framework density 20.816155999999999
#
# number of rings (size 3 to 8) (size 9 to 14) (size 15 to 20)
#    0.000    1.167    1.667    4.500    2.333    4.000 
#    0.000    0.000    0.000    5.000    0.000    0.000 
#    0.000    0.000    0.000    0.000    0.000    0.000 
#
# Total GULP energy -268068.483428 kJ/mol
# GULP energy per Si atom -5584.760071 kJ/mol
# Density = 2.076878 g / cm^3
# Si number density = 20.816156 Si / 1000 Ang^3
#
#
#
# Elastic Constant Matrix: (Units=GPa)
#
#
# Indices 1 2 3 4 5 6 
#
# 1 94.4964 38.6897 19.0668 0.0000 0.0000 0.0000
# 2 38.6897 75.9059 23.8100 0.0000 0.0000 0.0000
# 3 19.0668 23.8100 89.5790 0.0000 0.0000 0.0000
# 4 0.0000 0.0000 0.0000 23.5214 0.0000 0.0000
# 5 0.0000 0.0000 0.0000 0.0000 26.9976 0.0000
# 6 0.0000 0.0000 0.0000 0.0000 0.0000 10.1616
#
#
#
# Elastic Compliance Matrix: (Units=1/GPa)
#
#
# Indices 1 2 3 4 5 6 
#
# 1 0.013479 -0.006513 -0.001138 0.000000 0.000000 0.000000
# 2 -0.006513 0.017520 -0.003270 0.000000 0.000000 0.000000
# 3 -0.001138 -0.003270 0.012275 0.000000 0.000000 0.000000
# 4 0.000000 0.000000 0.000000 0.042514 0.000000 0.000000
# 5 0.000000 0.000000 0.000000 0.000000 0.037040 0.000000
# 6 0.000000 0.000000 0.000000 0.000000 0.000000 0.098410
#
#
# Mechanical properties :
#
#
# Convention : Reuss Voigt Hill
#
# Bulk Modulus (GPa) = 46.66237 47.01270 46.83753
# Shear Modulus (GPa) = 19.98208 24.03046 22.00627
#
# Velocity S-wave (km/s) = 3.10164 3.40135 3.25495
# Velocity P-wave (km/s) = 5.94070 6.16923 6.05604
#
# Compressibility (1/GPa) = 0.02143054
#
# Stress axis : x y z
#
# Youngs Moduli (GPa) = 74.19099 57.07780 81.46794
#
# Poissons Ratio (x) = 0.37177 0.09269
# Poissons Ratio (y) = 0.48323 0.26644
# Poissons Ratio (z) = 0.08441 0.18667
#
# Static dielectric constant tensor:
#      x y z
#    x 1.744910 0.000000 0.000000 
#    y 0.000000 1.999350 0.000000 
#    z 0.000000 0.000000 1.787370 
# 
# From -- ./inp_files/28248.got.cif
#   From: 2010.05.17/outbox.cif.g08.bks.cpg/sg53_15_cif.got.tgz:28248.got - 2010.06.03 12:45:16.
