data_PCOD9418843
_publ_section_title
;
Structure prediction by ZEFSAII (Michael W. Deem and Ramdas Pophale) SiO2 
 PCOD9418843
Probable space group: P M N A
;
_chemical_formula_sum "Si O2"
_cell_formula_units_Z 36
_cell_length_a 10.724537
_cell_length_b 24.363459
_cell_length_c 6.760905
_cell_angle_alpha 90.000000
_cell_angle_beta 90.000000
_cell_angle_gamma 90.000000
_cell_volume 1766.535351
_symmetry_space_group_name_H-M "P M N A"
_symmetry_group_IT_number 53
_symmetry_cell_setting 'orthorhombic'
loop_
_space_group_symop_operation_xyz
x,y,z
1/2-x,-y,1/2+z
x,-y,-z
1/2-x,y,1/2-z
-x,-y,-z
1/2+x,y,1/2-z
-x,y,z
1/2+x,-y,1/2+z
loop_
_atom_site_type_symbol
_atom_site_label
_atom_site_fract_x
_atom_site_fract_y
_atom_site_fract_z
Si Si1 0.632984 0.442703 0.387327
Si Si2 0.250000 0.758051 0.250000
Si Si3 0.139841 0.174248 0.399751
Si Si4 0.139271 0.059810 0.596690
Si Si5 0.357232 0.678881 0.578858
O O1 0.631642 0.500000 0.500000
O O2 0.750000 0.444720 0.250000
O O3 0.500000 0.439068 0.277582
O O4 0.644635 0.384440 0.498822
O O5 0.165112 0.795885 0.391371
O O6 0.326433 0.719823 0.401032
O O7 0.250000 0.189720 0.250000
O O8 0.146379 0.109066 0.439650
O O9 0.000000 0.187335 0.328118
O O10 0.250000 0.067644 0.750000
O O11 0.000000 0.063311 0.688290
O O12 0.151067 0.000000 0.500000
O O13 0.250000 0.683171 0.750000
O O14 0.500000 0.688384 0.652243
#
# Coordination Sequence:
#
# PCOD9418843 Si02
#       5
#     8   4   8   8   8
#     4   9  19  36  58  86 119 153 196 248 303 362
#     4  12  24  40  66  92 124 168 208 258 302 378
#     4  11  25  43  64  94 128 166 210 259 311 369
#     4  10  21  39  63  93 127 163 207 256 310 367
#     4  10  23  42  63  91 125 163 208 257 310 369
#
# _framework density 20.378874
#
# number of rings (size 3 to 8) (size 9 to 14) (size 15 to 20)
#    0.000    1.778    1.111    2.000    1.556    7.111 
#    0.000    0.000    0.000    0.000    0.000    0.000 
#    0.000    0.000    0.000    0.000    0.000    0.000 
#
# Total GULP energy -200772.196104 kJ/mol
# GULP energy per Si atom -5577.005447 kJ/mol
# Density = 2.033249 g / cm^3
# Si number density = 20.378874 Si / 1000 Ang^3
#
#
#
# Elastic Constant Matrix: (Units=GPa)
#
#
# Indices 1 2 3 4 5 6 
#
# 1 183.3069 36.0889 58.7833 0.0000 0.0000 0.0000
# 2 36.0889 150.7841 34.4457 0.0000 0.0000 0.0000
# 3 58.7833 34.4457 64.6326 0.0000 0.0000 0.0000
# 4 0.0000 0.0000 0.0000 25.7024 0.0000 0.0000
# 5 0.0000 0.0000 0.0000 0.0000 31.2232 0.0000
# 6 0.0000 0.0000 0.0000 0.0000 0.0000 36.1397
#
#
#
# Elastic Compliance Matrix: (Units=1/GPa)
#
#
# Indices 1 2 3 4 5 6 
#
# 1 0.007712 -0.000277 -0.006866 0.000000 0.000000 0.000000
# 2 -0.000277 0.007561 -0.003778 0.000000 0.000000 0.000000
# 3 -0.006866 -0.003778 0.023730 0.000000 0.000000 0.000000
# 4 0.000000 0.000000 0.000000 0.038907 0.000000 0.000000
# 5 0.000000 0.000000 0.000000 0.000000 0.032027 0.000000
# 6 0.000000 0.000000 0.000000 0.000000 0.000000 0.027670
#
#
# Mechanical properties :
#
#
# Convention : Reuss Voigt Hill
#
# Bulk Modulus (GPa) = 58.27092 73.03993 65.65543
# Shear Modulus (GPa) = 30.27183 36.57346 33.42264
#
# Velocity S-wave (km/s) = 3.85834 4.24096 4.05416
# Velocity P-wave (km/s) = 6.96454 7.73949 7.36222
#
# Compressibility (1/GPa) = 0.01716122
#
# Stress axis : x y z
#
# Youngs Moduli (GPa) = 129.67244 132.25186 42.14068
#
# Poissons Ratio (x) = 0.03666 0.28934
# Poissons Ratio (y) = 0.03595 0.15919
# Poissons Ratio (z) = 0.89034 0.49960
#
# Static dielectric constant tensor:
#      x y z
#    x 1.749720 0.000000 0.000000 
#    y 0.000000 1.783630 0.000000 
#    z 0.000000 0.000000 1.681250 
# 
# From -- ./inp_files/709.got.cif
#   From: 2010.05.17/outbox.cif.g08.bks.cpg/sg53_1_cif.got.tgz:709.got - 2010.06.03 12:45:16.
