data_PCOD9418560
_publ_section_title
;
Structure prediction by ZEFSAII (Michael W. Deem and Ramdas Pophale) SiO2 
 PCOD9418560
Probable space group: P M N A
;
_chemical_formula_sum "Si O2"
_cell_formula_units_Z 64
_cell_length_a 27.688514
_cell_length_b 14.136477
_cell_length_c 9.636888
_cell_angle_alpha 90.000000
_cell_angle_beta 90.000000
_cell_angle_gamma 90.000000
_cell_volume 3772.051825
_symmetry_space_group_name_H-M "P M N A"
_symmetry_group_IT_number 53
_symmetry_cell_setting 'orthorhombic'
loop_
_space_group_symop_operation_xyz
x,y,z
1/2-x,-y,1/2+z
x,-y,-z
1/2-x,y,1/2-z
-x,-y,-z
1/2+x,y,1/2-z
-x,y,z
1/2+x,-y,1/2+z
loop_
_atom_site_type_symbol
_atom_site_label
_atom_site_fract_x
_atom_site_fract_y
_atom_site_fract_z
Si Si1 0.109319 0.717574 0.968337
Si Si2 0.611152 0.710385 0.953767
Si Si3 0.943430 0.912531 0.906632
Si Si4 0.557605 0.424161 0.261525
Si Si5 0.694602 0.698988 0.734823
Si Si6 0.056828 0.092316 0.419812
Si Si7 0.888895 0.378955 0.755584
Si Si8 0.792565 0.516558 0.161328
O O1 0.084019 0.815077 0.930121
O O2 0.083902 0.628770 0.889978
O O3 0.163737 0.723455 0.904315
O O4 0.100279 0.700008 0.130045
O O5 0.578037 0.635613 0.868639
O O6 0.660350 0.722931 0.865010
O O7 0.584667 0.811454 0.955333
O O8 0.618668 0.666414 0.105245
O O9 0.939503 0.930855 0.743049
O O10 0.000000 0.898501 0.940329
O O11 0.925758 0.000000 0.000000
O O12 0.500000 0.415922 0.272444
O O13 0.573630 0.533472 0.250689
O O14 0.750000 0.734283 0.750000
O O15 0.698114 0.585355 0.729658
O O16 0.000000 0.106600 0.452567
O O17 0.074665 0.000000 0.500000
O O18 0.840508 0.424506 0.818637
O O19 0.750000 0.562668 0.250000
O O20 0.780634 0.500000 0.000000
#
# Coordination Sequence:
#
# PCOD9418560 Si02
#       8
#     8   8   8   8   8   8   8   8
#     4  11  21  39  58  82 115 151 191 238 286 339
#     4  11  23  37  58  83 115 153 190 236 289 343
#     4  10  21  38  62  88 112 145 191 239 287 340
#     4  11  22  38  55  74 114 163 196 225 276 344
#     4  10  21  37  59  80 108 151 194 229 284 342
#     4  10  21  39  61  86 115 146 187 239 291 340
#     4  12  24  35  52  86 120 148 195 236 278 340
#     4  11  22  36  56  81 114 152 196 242 285 329
#
# _framework density 16.966894
#
# number of rings (size 3 to 8) (size 9 to 14) (size 15 to 20)
#    0.000    1.250    6.250    1.500    5.250    3.000 
#    0.000    0.000    0.000    0.750    0.000    0.000 
#    0.000    0.000    0.000    0.000    0.000    0.000 
#
# Total GULP energy -356961.990670 kJ/mol
# GULP energy per Si atom -5577.531104 kJ/mol
# Density = 1.692828 g / cm^3
# Si number density = 16.966894 Si / 1000 Ang^3
#
#
#
# Elastic Constant Matrix: (Units=GPa)
#
#
# Indices 1 2 3 4 5 6 
#
# 1 94.7240 22.5196 23.6460 0.0000 0.0000 0.0000
# 2 22.5196 68.3638 12.3452 0.0000 0.0000 0.0000
# 3 23.6460 12.3452 74.9826 0.0000 0.0000 0.0000
# 4 0.0000 0.0000 0.0000 26.2088 0.0000 0.0000
# 5 0.0000 0.0000 0.0000 0.0000 16.1168 0.0000
# 6 0.0000 0.0000 0.0000 0.0000 0.0000 9.3278
#
#
#
# Elastic Compliance Matrix: (Units=1/GPa)
#
#
# Indices 1 2 3 4 5 6 
#
# 1 0.012190 -0.003423 -0.003280 0.000000 0.000000 0.000000
# 2 -0.003423 0.016037 -0.001561 0.000000 0.000000 0.000000
# 3 -0.003280 -0.001561 0.014628 0.000000 0.000000 0.000000
# 4 0.000000 0.000000 0.000000 0.038155 0.000000 0.000000
# 5 0.000000 0.000000 0.000000 0.000000 0.062047 0.000000
# 6 0.000000 0.000000 0.000000 0.000000 0.000000 0.107206
#
#
# Mechanical properties :
#
#
# Convention : Reuss Voigt Hill
#
# Bulk Modulus (GPa) = 37.98542 39.45468 38.72005
# Shear Modulus (GPa) = 18.14441 22.30134 20.22287
#
# Velocity S-wave (km/s) = 3.27372 3.62940 3.45614
# Velocity P-wave (km/s) = 6.06021 6.39279 6.22872
#
# Compressibility (1/GPa) = 0.02632589
#
# Stress axis : x y z
#
# Youngs Moduli (GPa) = 82.03665 62.35561 68.36239
#
# Poissons Ratio (x) = 0.21344 0.22426
# Poissons Ratio (y) = 0.28081 0.10671
# Poissons Ratio (z) = 0.26912 0.09733
#
# Static dielectric constant tensor:
#      x y z
#    x 1.616300 0.000000 0.000000 
#    y 0.000000 1.545980 0.000000 
#    z 0.000000 0.000000 1.636130 
# 
# From -- ./inp_files/13257.got.cif
#   From: 2010.05.17/outbox.cif.g08.bks.cpg/sg53_7_cif.got.tgz:13257.got - 2010.06.03 12:45:16.
