data_PCOD9418689
_publ_section_title
;
Structure prediction by ZEFSAII (Michael W. Deem and Ramdas Pophale) SiO2 
 PCOD9418689
Probable space group: P M N A
;
_chemical_formula_sum "Si O2"
_cell_formula_units_Z 32
_cell_length_a 16.632003
_cell_length_b 18.679238
_cell_length_c 5.069730
_cell_angle_alpha 90.000000
_cell_angle_beta 90.000000
_cell_angle_gamma 90.000000
_cell_volume 1575.028950
_symmetry_space_group_name_H-M "P M N A"
_symmetry_group_IT_number 53
_symmetry_cell_setting 'orthorhombic'
loop_
_space_group_symop_operation_xyz
x,y,z
1/2-x,-y,1/2+z
x,-y,-z
1/2-x,y,1/2-z
-x,-y,-z
1/2+x,y,1/2-z
-x,y,z
1/2+x,-y,1/2+z
loop_
_atom_site_type_symbol
_atom_site_label
_atom_site_fract_x
_atom_site_fract_y
_atom_site_fract_z
Si Si1 0.407784 0.281778 0.651486
Si Si2 0.658756 0.796553 0.834298
Si Si3 0.592828 0.951081 0.743183
Si Si4 0.191601 0.579748 0.002388
O O1 0.500000 0.289736 0.733223
O O2 0.399036 0.234130 0.391241
O O3 0.370332 0.357190 0.560424
O O4 0.360877 0.241884 0.888949
O O5 0.750000 0.780488 0.750000
O O6 0.643362 0.881372 0.821218
O O7 0.500000 0.929807 0.677560
O O8 0.622999 0.000000 0.500000
O O9 0.590281 0.000000 0.000000
O O10 0.250000 0.579222 0.250000
O O11 0.154115 0.500000 0.000000
O O12 0.250000 0.591341 0.750000
#
# Coordination Sequence:
#
# PCOD9418689 Si02
#       4
#     8   8   8   8
#     4  12  24  40  63  91 125 162 205 254 305 364
#     4  12  25  41  63  91 124 161 205 254 305 364
#     4  10  21  38  60  86 119 157 197 246 305 364
#     4  10  21  39  63  90 123 163 205 251 307 368
#
# _framework density 20.317087999999998
#
# number of rings (size 3 to 8) (size 9 to 14) (size 15 to 20)
#    0.000    1.000    0.000    8.250    0.000    3.500 
#    0.000    0.000    0.000    7.500    0.000    0.000 
#    0.000    0.000    0.000    0.000    0.000    0.000 
#
# Total GULP energy -178813.490355 kJ/mol
# GULP energy per Si atom -5587.921574 kJ/mol
# Density = 2.027084 g / cm^3
# Si number density = 20.317088 Si / 1000 Ang^3
#
#
#
# Elastic Constant Matrix: (Units=GPa)
#
#
# Indices 1 2 3 4 5 6 
#
# 1 69.4746 44.7984 9.1905 0.0000 0.0000 0.0000
# 2 44.7984 151.2985 44.4914 0.0000 0.0000 0.0000
# 3 9.1905 44.4914 135.0304 0.0000 0.0000 0.0000
# 4 0.0000 0.0000 0.0000 31.5299 0.0000 0.0000
# 5 0.0000 0.0000 0.0000 0.0000 18.9829 0.0000
# 6 0.0000 0.0000 0.0000 0.0000 0.0000 11.2529
#
#
#
# Elastic Compliance Matrix: (Units=1/GPa)
#
#
# Indices 1 2 3 4 5 6 
#
# 1 0.017832 -0.005451 0.000582 0.000000 0.000000 0.000000
# 2 -0.005451 0.008985 -0.002589 0.000000 0.000000 0.000000
# 3 0.000582 -0.002589 0.008219 0.000000 0.000000 0.000000
# 4 0.000000 0.000000 0.000000 0.031716 0.000000 0.000000
# 5 0.000000 0.000000 0.000000 0.000000 0.052679 0.000000
# 6 0.000000 0.000000 0.000000 0.000000 0.000000 0.088866
#
#
# Mechanical properties :
#
#
# Convention : Reuss Voigt Hill
#
# Bulk Modulus (GPa) = 49.70262 61.41824 55.56043
# Shear Modulus (GPa) = 21.74675 29.50803 25.62739
#
# Velocity S-wave (km/s) = 3.27520 3.81514 3.55543
# Velocity P-wave (km/s) = 6.23050 7.05000 6.65288
#
# Compressibility (1/GPa) = 0.02011966
#
# Stress axis : x y z
#
# Youngs Moduli (GPa) = 56.08002 111.29726 121.66488
#
# Poissons Ratio (x) = 0.60669 -0.07086
# Poissons Ratio (y) = 0.30570 0.31505
# Poissons Ratio (z) = -0.03266 0.28820
#
# Static dielectric constant tensor:
#      x y z
#    x 1.729490 0.000000 0.000000 
#    y 0.000000 1.829280 0.000000 
#    z 0.000000 0.000000 1.693580 
# 
# From -- ./inp_files/1181.got.cif
#   From: 2010.05.17/outbox.cif.g08.bks.cpg/sg53_1_cif.got.tgz:1181.got - 2010.06.03 12:45:16.
