data_PCOD9418148
_publ_section_title
;
Structure prediction by ZEFSAII (Michael W. Deem and Ramdas Pophale) SiO2 
 PCOD9418148
Probable space group: P M N A
;
_chemical_formula_sum "Si O2"
_cell_formula_units_Z 40
_cell_length_a 24.191244
_cell_length_b 8.294751
_cell_length_c 9.806169
_cell_angle_alpha 90.000000
_cell_angle_beta 90.000000
_cell_angle_gamma 90.000000
_cell_volume 1967.709258
_symmetry_space_group_name_H-M "P M N A"
_symmetry_group_IT_number 53
_symmetry_cell_setting 'orthorhombic'
loop_
_space_group_symop_operation_xyz
x,y,z
1/2-x,-y,1/2+z
x,-y,-z
1/2-x,y,1/2-z
-x,-y,-z
1/2+x,y,1/2-z
-x,y,z
1/2+x,-y,1/2+z
loop_
_atom_site_type_symbol
_atom_site_label
_atom_site_fract_x
_atom_site_fract_y
_atom_site_fract_z
Si Si1 0.244968 0.140977 0.902309
Si Si2 0.848825 0.649337 0.430065
Si Si3 0.563538 0.155162 0.098719
Si Si4 0.141439 0.632161 0.118976
Si Si5 0.062196 0.938519 0.152816
O O1 0.250000 0.075471 0.750000
O O2 0.306269 0.203718 0.932040
O O3 0.201392 0.287062 0.906696
O O4 0.226075 0.000000 0.000000
O O5 0.819659 0.500000 0.500000
O O6 0.900766 0.709889 0.520029
O O7 0.859660 0.581507 0.277902
O O8 0.500000 0.210356 0.118373
O O9 0.583786 0.077397 0.243179
O O10 0.563625 0.000000 0.000000
O O11 0.098951 0.780909 0.133527
O O12 0.129860 0.500000 0.000000
O O13 0.000000 0.898169 0.204050
O O14 0.057784 0.000000 0.000000
#
# Coordination Sequence:
#
# PCOD9418148 Si02
#       5
#     8   8   8   8   8
#     4  10  23  41  64  90 118 158 208 255 309 374
#     4  11  24  39  61  90 124 163 203 256 317 372
#     4  10  20  39  65  89 120 161 210 262 304 363
#     4  11  24  40  59  89 128 162 202 256 314 374
#     4  10  22  40  64  92 122 162 209 253 308 374
#
# _framework density 20.328206999999999
#
# number of rings (size 3 to 8) (size 9 to 14) (size 15 to 20)
#    0.000    1.600    2.000    1.800    5.600    2.400 
#    0.000    0.000    0.000    0.000    0.000    0.000 
#    0.000    0.000    0.000    0.000    0.000    0.000 
#
# Total GULP energy -222814.665147 kJ/mol
# GULP energy per Si atom -5570.366629 kJ/mol
# Density = 2.028194 g / cm^3
# Si number density = 20.328207 Si / 1000 Ang^3
#
#
#
# Elastic Constant Matrix: (Units=GPa)
#
#
# Indices 1 2 3 4 5 6 
#
# 1 69.3205 13.0696 30.8575 0.0000 0.0000 0.0000
# 2 13.0696 47.8043 62.4788 0.0000 0.0000 0.0000
# 3 30.8575 62.4788 146.5931 0.0000 0.0000 0.0000
# 4 0.0000 0.0000 0.0000 33.4459 0.0000 0.0000
# 5 0.0000 0.0000 0.0000 0.0000 16.1850 0.0000
# 6 0.0000 0.0000 0.0000 0.0000 0.0000 31.3183
#
#
#
# Elastic Compliance Matrix: (Units=1/GPa)
#
#
# Indices 1 2 3 4 5 6 
#
# 1 0.015917 0.000062 -0.003377 0.000000 0.000000 0.000000
# 2 0.000062 0.047225 -0.020140 0.000000 0.000000 0.000000
# 3 -0.003377 -0.020140 0.016116 0.000000 0.000000 0.000000
# 4 0.000000 0.000000 0.000000 0.029899 0.000000 0.000000
# 5 0.000000 0.000000 0.000000 0.000000 0.061785 0.000000
# 6 0.000000 0.000000 0.000000 0.000000 0.000000 0.031930
#
#
# Mechanical properties :
#
#
# Convention : Reuss Voigt Hill
#
# Bulk Modulus (GPa) = 30.91459 52.94775 41.93117
# Shear Modulus (GPa) = 19.18896 26.67731 22.93313
#
# Velocity S-wave (km/s) = 3.07572 3.62654 3.36243
# Velocity P-wave (km/s) = 5.27770 6.60596 5.97883
#
# Compressibility (1/GPa) = 0.03234718
#
# Stress axis : x y z
#
# Youngs Moduli (GPa) = 62.82476 21.17539 62.04872
#
# Poissons Ratio (x) = -0.00131 0.20953
# Poissons Ratio (y) = -0.00387 1.24969
# Poissons Ratio (z) = 0.21215 0.42648
#
# Static dielectric constant tensor:
#      x y z
#    x 1.781770 0.000000 0.000000 
#    y 0.000000 1.685910 0.000000 
#    z 0.000000 0.000000 1.819540 
# 
# From -- ./inp_files/11578.got.cif
#   From: 2010.05.17/outbox.cif.g08.bks.cpg/sg53_6_cif.got.tgz:11578.got - 2010.06.03 12:45:16.
