data_PCOD9418589
_publ_section_title
;
Structure prediction by ZEFSAII (Michael W. Deem and Ramdas Pophale) SiO2 
 PCOD9418589
Probable space group: P M N A
;
_chemical_formula_sum "Si O2"
_cell_formula_units_Z 48
_cell_length_a 16.817786
_cell_length_b 16.047734
_cell_length_c 9.046945
_cell_angle_alpha 90.000000
_cell_angle_beta 90.000000
_cell_angle_gamma 90.000000
_cell_volume 2441.656068
_symmetry_space_group_name_H-M "P M N A"
_symmetry_group_IT_number 53
_symmetry_cell_setting 'orthorhombic'
loop_
_space_group_symop_operation_xyz
x,y,z
1/2-x,-y,1/2+z
x,-y,-z
1/2-x,y,1/2-z
-x,-y,-z
1/2+x,y,1/2-z
-x,y,z
1/2+x,-y,1/2+z
loop_
_atom_site_type_symbol
_atom_site_label
_atom_site_fract_x
_atom_site_fract_y
_atom_site_fract_z
Si Si1 0.336405 0.098597 0.825779
Si Si2 0.594632 0.246711 0.330095
Si Si3 0.094729 0.743114 0.163514
Si Si4 0.837164 0.086726 0.321930
Si Si5 0.660741 0.576068 0.191476
Si Si6 0.095196 0.403495 0.366022
O O1 0.250000 0.101805 0.750000
O O2 0.383176 0.176909 0.761576
O O3 0.370764 0.006211 0.792840
O O4 0.330238 0.101553 0.002833
O O5 0.500000 0.255575 0.340691
O O6 0.626792 0.245576 0.496780
O O7 0.613993 0.160883 0.249796
O O8 0.621319 0.325745 0.233683
O O9 0.128708 0.657788 0.227738
O O10 0.000000 0.736354 0.160299
O O11 0.750000 0.088804 0.250000
O O12 0.750000 0.562292 0.250000
O O13 0.611458 0.490930 0.216081
O O14 0.646434 0.593854 0.016760
O O15 0.000000 0.397183 0.400637
#
# Coordination Sequence:
#
# PCOD9418589 Si02
#       6
#     8   8   8   8   8   8
#     4  10  21  38  59  86 115 149 194 242 293 347
#     4  10  23  39  58  84 116 154 196 237 285 346
#     4  11  23  39  59  86 119 157 195 240 294 350
#     4  10  21  37  60  85 115 152 190 239 295 349
#     4  11  23  38  61  91 118 150 195 248 297 350
#     4  10  22  43  65  86 119 164 203 242 297 364
#
# _framework density 19.658788000000001
#
# number of rings (size 3 to 8) (size 9 to 14) (size 15 to 20)
#    0.000    1.667    0.000    4.500    0.000   10.000 
#    0.000    5.833    0.000    0.000    0.000    0.000 
#    0.000    0.000    0.000    0.000    0.000    0.000 
#
# Total GULP energy -268021.792741 kJ/mol
# GULP energy per Si atom -5583.787349 kJ/mol
# Density = 1.961404 g / cm^3
# Si number density = 19.658788 Si / 1000 Ang^3
#
#
#
# Elastic Constant Matrix: (Units=GPa)
#
#
# Indices 1 2 3 4 5 6 
#
# 1 42.9523 16.1567 22.6099 0.0000 0.0000 0.0000
# 2 16.1567 139.6865 67.2615 0.0000 0.0000 0.0000
# 3 22.6099 67.2615 110.2304 0.0000 0.0000 0.0000
# 4 0.0000 0.0000 0.0000 35.7824 0.0000 0.0000
# 5 0.0000 0.0000 0.0000 0.0000 28.4602 0.0000
# 6 0.0000 0.0000 0.0000 0.0000 0.0000 31.4655
#
#
#
# Elastic Compliance Matrix: (Units=1/GPa)
#
#
# Indices 1 2 3 4 5 6 
#
# 1 0.026138 -0.000625 -0.004980 0.000000 0.000000 0.000000
# 2 -0.000625 0.010152 -0.006067 0.000000 0.000000 0.000000
# 3 -0.004980 -0.006067 0.013795 0.000000 0.000000 0.000000
# 4 0.000000 0.000000 0.000000 0.027947 0.000000 0.000000
# 5 0.000000 0.000000 0.000000 0.000000 0.035137 0.000000
# 6 0.000000 0.000000 0.000000 0.000000 0.000000 0.031781
#
#
# Mechanical properties :
#
#
# Convention : Reuss Voigt Hill
#
# Bulk Modulus (GPa) = 37.39408 56.10285 46.74846
# Shear Modulus (GPa) = 28.21548 31.59768 29.90658
#
# Velocity S-wave (km/s) = 3.79259 4.01347 3.90459
# Velocity P-wave (km/s) = 6.18395 7.07655 6.64525
#
# Compressibility (1/GPa) = 0.02674220
#
# Stress axis : x y z
#
# Youngs Moduli (GPa) = 38.25819 98.49880 72.48948
#
# Poissons Ratio (x) = 0.06160 0.36098
# Poissons Ratio (y) = 0.02393 0.43977
# Poissons Ratio (z) = 0.19051 0.59755
#
# Static dielectric constant tensor:
#      x y z
#    x 1.679410 0.000000 0.000000 
#    y 0.000000 1.682400 0.000000 
#    z 0.000000 0.000000 1.706410 
# 
# From -- ./inp_files/9940.got.cif
#   From: 2010.05.17/outbox.cif.g08.bks.cpg/sg53_5_cif.got.tgz:9940.got - 2010.06.03 12:45:16.
