data_PCOD9418237
_publ_section_title
;
Structure prediction by ZEFSAII (Michael W. Deem and Ramdas Pophale) SiO2 
 PCOD9418237
Probable space group: P M N A
;
_chemical_formula_sum "Si O2"
_cell_formula_units_Z 48
_cell_length_a 8.609830
_cell_length_b 18.082750
_cell_length_c 16.063647
_cell_angle_alpha 90.000000
_cell_angle_beta 90.000000
_cell_angle_gamma 90.000000
_cell_volume 2500.939618
_symmetry_space_group_name_H-M "P M N A"
_symmetry_group_IT_number 53
_symmetry_cell_setting 'orthorhombic'
loop_
_space_group_symop_operation_xyz
x,y,z
1/2-x,-y,1/2+z
x,-y,-z
1/2-x,y,1/2-z
-x,-y,-z
1/2+x,y,1/2-z
-x,y,z
1/2+x,-y,1/2+z
loop_
_atom_site_type_symbol
_atom_site_label
_atom_site_fract_x
_atom_site_fract_y
_atom_site_fract_z
Si Si1 0.313063 0.320704 0.344474
Si Si2 0.315637 0.155881 0.342288
Si Si3 0.327484 0.993714 0.902553
Si Si4 0.187915 0.685453 0.344913
Si Si5 0.187811 0.585993 0.501465
Si Si6 0.187784 0.150888 0.657090
O O1 0.250000 0.333260 0.250000
O O2 0.500000 0.324077 0.340537
O O3 0.264058 0.237232 0.372162
O O4 0.252236 0.375648 0.415213
O O5 0.250000 0.149785 0.250000
O O6 0.500000 0.156534 0.341046
O O7 0.260289 0.082087 0.386723
O O8 0.500000 0.987331 0.862650
O O9 0.253896 0.072010 0.876263
O O10 0.345551 0.000000 0.000000
O O11 0.250000 0.674017 0.250000
O O12 0.237515 0.627362 0.415903
O O13 0.233276 0.768224 0.377111
O O14 0.000000 0.683348 0.338950
O O15 0.232697 0.500000 0.500000
O O16 0.000000 0.590497 0.504393
O O17 0.250000 0.154074 0.750000
O O18 0.000000 0.147845 0.652107
#
# Coordination Sequence:
#
# PCOD9418237 Si02
#       6
#     8   8   8   8   8   8
#     4  10  22  40  62  88 117 155 198 241 292 348
#     4  10  21  37  56  79 108 145 190 235 284 335
#     4  10  21  33  50  78 110 145 186 227 277 334
#     4   9  19  36  58  82 113 150 188 232 282 338
#     4  10  22  39  61  90 120 151 189 237 294 352
#     4   9  18  33  51  74 101 139 183 222 269 323
#
# _framework density 19.192786000000002
#
# number of rings (size 3 to 8) (size 9 to 14) (size 15 to 20)
#    0.000    2.333    0.000    1.500    2.333    6.000 
#    0.000    1.667    0.000    0.000    0.000    0.000 
#    0.000    0.000    0.000    0.000    0.000    0.000 
#
# Total GULP energy -267366.247455 kJ/mol
# GULP energy per Si atom -5570.130155 kJ/mol
# Density = 1.914910 g / cm^3
# Si number density = 19.192786 Si / 1000 Ang^3
#
#
#
# Elastic Constant Matrix: (Units=GPa)
#
#
# Indices 1 2 3 4 5 6 
#
# 1 21.2645 43.5536 21.4341 0.0000 0.0000 0.0000
# 2 43.5536 206.1944 101.6493 0.0000 0.0000 0.0000
# 3 21.4341 101.6493 94.2430 0.0000 0.0000 0.0000
# 4 0.0000 0.0000 0.0000 48.0756 0.0000 0.0000
# 5 0.0000 0.0000 0.0000 0.0000 22.1160 0.0000
# 6 0.0000 0.0000 0.0000 0.0000 0.0000 32.0938
#
#
#
# Elastic Compliance Matrix: (Units=1/GPa)
#
#
# Indices 1 2 3 4 5 6 
#
# 1 0.082886 -0.017542 0.000069 0.000000 0.000000 0.000000
# 2 -0.017542 0.014069 -0.011185 0.000000 0.000000 0.000000
# 3 0.000069 -0.011185 0.022659 0.000000 0.000000 0.000000
# 4 0.000000 0.000000 0.000000 0.020801 0.000000 0.000000
# 5 0.000000 0.000000 0.000000 0.000000 0.045216 0.000000
# 6 0.000000 0.000000 0.000000 0.000000 0.000000 0.031159
#
#
# Mechanical properties :
#
#
# Convention : Reuss Voigt Hill
#
# Bulk Modulus (GPa) = 16.05167 72.77511 44.41339
# Shear Modulus (GPa) = 16.95657 30.79474 23.87565
#
# Velocity S-wave (km/s) = 2.97557 4.00996 3.53085
# Velocity P-wave (km/s) = 4.49299 7.70973 6.30979
#
# Compressibility (1/GPa) = 0.06229882
#
# Stress axis : x y z
#
# Youngs Moduli (GPa) = 12.06481 71.07764 44.13204
#
# Poissons Ratio (x) = 1.24683 -0.00306
# Poissons Ratio (y) = 0.21164 0.49362
# Poissons Ratio (z) = -0.00084 0.79502
#
# Static dielectric constant tensor:
#      x y z
#    x 1.517780 0.000000 0.000000 
#    y 0.000000 1.769730 0.000000 
#    z 0.000000 0.000000 1.630040 
# 
# From -- ./inp_files/20186.got.cif
#   From: 2010.05.17/outbox.cif.g08.bks.cpg/sg53_11_cif.got.tgz:20186.got - 2010.06.03 12:45:16.
