data_PCOD9418459
_publ_section_title
;
Structure prediction by ZEFSAII (Michael W. Deem and Ramdas Pophale) SiO2 
 PCOD9418459
Probable space group: P M N A
;
_chemical_formula_sum "Si O2"
_cell_formula_units_Z 64
_cell_length_a 20.526751
_cell_length_b 20.461205
_cell_length_c 7.496944
_cell_angle_alpha 90.000000
_cell_angle_beta 90.000000
_cell_angle_gamma 90.000000
_cell_volume 3148.731925
_symmetry_space_group_name_H-M "P M N A"
_symmetry_group_IT_number 53
_symmetry_cell_setting 'orthorhombic'
loop_
_space_group_symop_operation_xyz
x,y,z
1/2-x,-y,1/2+z
x,-y,-z
1/2-x,y,1/2-z
-x,-y,-z
1/2+x,y,1/2-z
-x,y,z
1/2+x,-y,1/2+z
loop_
_atom_site_type_symbol
_atom_site_label
_atom_site_fract_x
_atom_site_fract_y
_atom_site_fract_z
Si Si1 0.826615 0.557959 0.268882
Si Si2 0.428816 0.167197 0.982281
Si Si3 0.188130 0.074668 0.460264
Si Si4 0.824439 0.411758 0.309267
Si Si5 0.423816 0.335146 0.673636
Si Si6 0.832541 0.076371 0.039901
Si Si7 0.925299 0.307172 0.396214
Si Si8 0.072757 0.805089 0.065714
O O1 0.750000 0.570651 0.250000
O O2 0.839690 0.482172 0.222052
O O3 0.833482 0.571345 0.480471
O O4 0.872651 0.606010 0.156832
O O5 0.500000 0.139963 0.035692
O O6 0.434948 0.189508 0.778879
O O7 0.369433 0.118591 0.970770
O O8 0.413621 0.229096 0.109009
O O9 0.259973 0.088755 0.537270
O O10 0.181468 0.081312 0.248835
O O11 0.174824 0.000000 0.500000
O O12 0.750000 0.395680 0.250000
O O13 0.874387 0.351845 0.290584
O O14 0.500000 0.350132 0.634151
O O15 0.405007 0.270822 0.557898
O O16 0.421631 0.321472 0.889214
O O17 0.882152 0.134274 0.991289
O O18 0.851512 0.000000 0.000000
O O19 0.000000 0.320258 0.341970
O O20 0.000000 0.811077 0.986063
#
# Coordination Sequence:
#
# PCOD9418459 Si02
#       8
#     8   8   8   8   8   8   8   8
#     4   9  17  30  48  72 105 135 176 214 262 317
#     4   9  18  34  54  75 103 137 173 217 264 313
#     4  10  21  37  55  77 106 138 175 215 257 312
#     4   9  17  30  48  73 102 139 172 219 263 306
#     4   8  15  30  50  74 103 132 170 220 262 305
#     4  10  21  37  55  78 106 136 173 217 261 308
#     4   8  15  30  50  73 101 133 173 216 260 309
#     4   9  18  34  54  77 105 136 174 218 264 311
#
# _framework density 20.325642999999999
#
# number of rings (size 3 to 8) (size 9 to 14) (size 15 to 20)
#    0.000    3.000    0.000    2.250    0.000    3.000 
#    9.000    2.500    0.000    2.250    0.000    3.500 
#    0.000    0.000    0.000    0.000    0.000    0.000 
#
# Total GULP energy -356353.887491 kJ/mol
# GULP energy per Si atom -5568.029492 kJ/mol
# Density = 2.027938 g / cm^3
# Si number density = 20.325643 Si / 1000 Ang^3
#
#
#
# Elastic Constant Matrix: (Units=GPa)
#
#
# Indices 1 2 3 4 5 6 
#
# 1 141.4517 137.1641 15.9795 0.0000 0.0000 0.0000
# 2 137.1641 153.8239 21.6792 0.0000 0.0000 0.0000
# 3 15.9795 21.6792 46.7968 0.0000 0.0000 0.0000
# 4 0.0000 0.0000 0.0000 27.0678 0.0000 0.0000
# 5 0.0000 0.0000 0.0000 0.0000 31.2207 0.0000
# 6 0.0000 0.0000 0.0000 0.0000 0.0000 -88.7198
#
#
#
# Elastic Compliance Matrix: (Units=1/GPa)
#
#
# Indices 1 2 3 4 5 6 
#
# 1 0.052949 -0.047786 0.004057 0.000000 0.000000 0.000000
# 2 -0.047786 0.050082 -0.006884 0.000000 0.000000 0.000000
# 3 0.004057 -0.006884 0.023173 0.000000 0.000000 0.000000
# 4 0.000000 0.000000 0.000000 0.036944 0.000000 0.000000
# 5 0.000000 0.000000 0.000000 0.000000 0.032030 0.000000
# 6 0.000000 0.000000 0.000000 0.000000 0.000000 -0.011271
#
#
# Mechanical properties :
#
#
# Convention : Reuss Voigt Hill
#
# Bulk Modulus (GPa) = 40.03502 76.85758 58.44630
# Shear Modulus (GPa) = 17.03828 5.06371 11.05099
#
# Velocity S-wave (km/s) = 2.89842 1.58010 2.33426
# Velocity P-wave (km/s) = 5.56244 6.42060 6.00686
#
# Compressibility (1/GPa) = 0.02497813
#
# Stress axis : x y z
#
# Youngs Moduli (GPa) = 18.88616 19.96735 43.15455
#
# Poissons Ratio (x) = 0.95416 -0.17509
# Poissons Ratio (y) = 0.90250 0.29706
# Poissons Ratio (z) = -0.07663 0.13745
#
# Static dielectric constant tensor:
#      x y z
#    x 1.784760 0.000000 0.000000 
#    y 0.000000 1.710840 0.000000 
#    z 0.000000 0.000000 1.829250 
# 
# From -- ./inp_files/11185.got.cif
#   From: 2010.05.17/outbox.cif.g08.bks.cpg/sg53_6_cif.got.tgz:11185.got - 2010.06.03 12:45:16.
