data_PCOD9418625
_publ_section_title
;
Structure prediction by ZEFSAII (Michael W. Deem and Ramdas Pophale) SiO2 
 PCOD9418625
Probable space group: P M N A
;
_chemical_formula_sum "Si O2"
_cell_formula_units_Z 40
_cell_length_a 19.393669
_cell_length_b 7.991426
_cell_length_c 12.239758
_cell_angle_alpha 90.000000
_cell_angle_beta 90.000000
_cell_angle_gamma 90.000000
_cell_volume 1896.955279
_symmetry_space_group_name_H-M "P M N A"
_symmetry_group_IT_number 53
_symmetry_cell_setting 'orthorhombic'
loop_
_space_group_symop_operation_xyz
x,y,z
1/2-x,-y,1/2+z
x,-y,-z
1/2-x,y,1/2-z
-x,-y,-z
1/2+x,y,1/2-z
-x,y,z
1/2+x,-y,1/2+z
loop_
_atom_site_type_symbol
_atom_site_label
_atom_site_fract_x
_atom_site_fract_y
_atom_site_fract_z
Si Si1 0.224201 0.267143 0.096706
Si Si2 0.142642 0.855527 0.714391
Si Si3 0.074831 0.697458 0.510860
Si Si4 0.583396 0.779189 0.224936
Si Si5 0.793107 0.654068 0.147951
O O1 0.284780 0.151201 0.146335
O O2 0.157944 0.222728 0.168288
O O3 0.234598 0.464873 0.125193
O O4 0.215668 0.252723 0.967300
O O5 0.099955 0.744584 0.629695
O O6 0.104666 0.028267 0.738123
O O7 0.070885 0.500000 0.500000
O O8 0.111458 0.747505 0.398928
O O9 0.000000 0.778841 0.500884
O O10 0.500000 0.751842 0.232023
O O11 0.627975 0.668153 0.309455
O O12 0.750000 0.725002 0.250000
#
# Coordination Sequence:
#
# PCOD9418625 Si02
#       5
#     8   8   8   8   8
#     4  10  24  40  65  96 125 167 228 272 338 393
#     4  11  21  40  59  93 135 164 212 279 332 403
#     4  10  21  37  63  93 125 170 222 268 321 387
#     4  11  25  42  64  97 136 180 220 273 342 398
#     4  11  22  43  69  94 126 173 222 281 330 404
#
# _framework density 21.086421999999999
#
# number of rings (size 3 to 8) (size 9 to 14) (size 15 to 20)
#    0.000    1.400    2.000    3.600    5.600    2.400 
#    0.000    6.000    0.000    0.000    0.000    0.000 
#    0.000    0.000    0.000    0.000    0.000    0.000 
#
# Total GULP energy -222922.323437 kJ/mol
# GULP energy per Si atom -5573.058086 kJ/mol
# Density = 2.103843 g / cm^3
# Si number density = 21.086422 Si / 1000 Ang^3
#
#
#
# Elastic Constant Matrix: (Units=GPa)
#
#
# Indices 1 2 3 4 5 6 
#
# 1 80.3801 0.3306 41.1677 0.0000 0.0000 0.0000
# 2 0.3306 35.4817 3.6215 0.0000 0.0000 0.0000
# 3 41.1677 3.6215 175.3258 0.0000 0.0000 0.0000
# 4 0.0000 0.0000 0.0000 22.4393 0.0000 0.0000
# 5 0.0000 0.0000 0.0000 0.0000 38.4819 0.0000
# 6 0.0000 0.0000 0.0000 0.0000 0.0000 28.6654
#
#
#
# Elastic Compliance Matrix: (Units=1/GPa)
#
#
# Indices 1 2 3 4 5 6 
#
# 1 0.014143 0.000208 -0.003325 0.000000 0.000000 0.000000
# 2 0.000208 0.028246 -0.000632 0.000000 0.000000 0.000000
# 3 -0.003325 -0.000632 0.006498 0.000000 0.000000 0.000000
# 4 0.000000 0.000000 0.000000 0.044565 0.000000 0.000000
# 5 0.000000 0.000000 0.000000 0.000000 0.025986 0.000000
# 6 0.000000 0.000000 0.000000 0.000000 0.000000 0.034885
#
#
# Mechanical properties :
#
#
# Convention : Reuss Voigt Hill
#
# Bulk Modulus (GPa) = 24.16206 42.38080 33.27143
# Shear Modulus (GPa) = 28.47086 34.32183 31.39635
#
# Velocity S-wave (km/s) = 3.67849 4.03882 3.86286
# Velocity P-wave (km/s) = 5.43371 6.47238 5.97565
#
# Compressibility (1/GPa) = 0.04138719
#
# Stress axis : x y z
#
# Youngs Moduli (GPa) = 70.70600 35.40308 153.90528
#
# Poissons Ratio (x) = -0.00735 0.51176
# Poissons Ratio (y) = -0.01468 0.09730
# Poissons Ratio (z) = 0.23511 0.02238
#
# Static dielectric constant tensor:
#      x y z
#    x 1.908040 0.000000 0.000000 
#    y 0.000000 2.012270 0.000000 
#    z 0.000000 0.000000 1.812910 
# 
# From -- ./inp_files/16689.got.cif
#   From: 2010.05.17/outbox.cif.g08.bks.cpg/sg53_9_cif.got.tgz:16689.got - 2010.06.03 12:45:16.
