data_PCOD9418259
_publ_section_title
;
Structure prediction by ZEFSAII (Michael W. Deem and Ramdas Pophale) SiO2 
 PCOD9418259
Probable space group: P M N A
;
_chemical_formula_sum "Si O2"
_cell_formula_units_Z 32
_cell_length_a 19.974802
_cell_length_b 7.592839
_cell_length_c 10.001181
_cell_angle_alpha 90.000000
_cell_angle_beta 90.000000
_cell_angle_gamma 90.000000
_cell_volume 1516.833673
_symmetry_space_group_name_H-M "P M N A"
_symmetry_group_IT_number 53
_symmetry_cell_setting 'orthorhombic'
loop_
_space_group_symop_operation_xyz
x,y,z
1/2-x,-y,1/2+z
x,-y,-z
1/2-x,y,1/2-z
-x,-y,-z
1/2+x,y,1/2-z
-x,y,z
1/2+x,-y,1/2+z
loop_
_atom_site_type_symbol
_atom_site_label
_atom_site_fract_x
_atom_site_fract_y
_atom_site_fract_z
Si Si1 0.576834 0.707885 0.454679
Si Si2 0.328946 0.658675 0.216520
Si Si3 0.213950 0.184064 0.449652
Si Si4 0.156498 0.730064 0.807368
O O1 0.583999 0.500000 0.500000
O O2 0.500000 0.739724 0.420728
O O3 0.626012 0.747569 0.331596
O O4 0.599891 0.796006 0.593129
O O5 0.250000 0.672346 0.250000
O O6 0.352578 0.455757 0.231437
O O7 0.330374 0.728913 0.065192
O O8 0.277566 0.297122 0.400817
O O9 0.173759 0.142422 0.314097
O O10 0.242300 0.000000 0.500000
#
# Coordination Sequence:
#
# PCOD9418259 Si02
#       4
#     8   8   8   8
#     4   9  19  35  57  85 113 143 184 236 283 331
#     4  11  19  34  60  86 110 145 190 236 277 336
#     4  11  23  34  53  87 118 143 185 245 288 323
#     4  10  21  34  56  83 113 147 188 230 285 335
#
# _framework density 21.096575999999999
#
# number of rings (size 3 to 8) (size 9 to 14) (size 15 to 20)
#    0.000    1.750    5.000    0.750    3.500    0.000 
#    0.000    1.250    0.000   14.250    0.000    0.000 
#    0.000    0.000    0.000    0.000    0.000    0.000 
#
# Total GULP energy -178464.317590 kJ/mol
# GULP energy per Si atom -5577.009925 kJ/mol
# Density = 2.104856 g / cm^3
# Si number density = 21.096576 Si / 1000 Ang^3
#
#
#
# Elastic Constant Matrix: (Units=GPa)
#
#
# Indices 1 2 3 4 5 6 
#
# 1 95.6928 -1.4272 59.4740 0.0000 0.0000 0.0000
# 2 -1.4272 37.6172 19.7351 0.0000 0.0000 0.0000
# 3 59.4740 19.7351 157.7202 0.0000 0.0000 0.0000
# 4 0.0000 0.0000 0.0000 22.8882 0.0000 0.0000
# 5 0.0000 0.0000 0.0000 0.0000 32.4806 0.0000
# 6 0.0000 0.0000 0.0000 0.0000 0.0000 5.5446
#
#
#
# Elastic Compliance Matrix: (Units=1/GPa)
#
#
# Indices 1 2 3 4 5 6 
#
# 1 0.014079 0.003553 -0.005754 0.000000 0.000000 0.000000
# 2 0.003553 0.029348 -0.005012 0.000000 0.000000 0.000000
# 3 -0.005754 -0.005012 0.009137 0.000000 0.000000 0.000000
# 4 0.000000 0.000000 0.000000 0.043691 0.000000 0.000000
# 5 0.000000 0.000000 0.000000 0.000000 0.030788 0.000000
# 6 0.000000 0.000000 0.000000 0.000000 0.000000 0.180355
#
#
# Mechanical properties :
#
#
# Convention : Reuss Voigt Hill
#
# Bulk Modulus (GPa) = 26.22040 49.62156 37.92098
# Shear Modulus (GPa) = 14.94613 26.39923 20.67268
#
# Velocity S-wave (km/s) = 2.66458 3.54128 3.13374
# Velocity P-wave (km/s) = 4.68214 6.34769 5.57743
#
# Compressibility (1/GPa) = 0.03813824
#
# Stress axis : x y z
#
# Youngs Moduli (GPa) = 71.02800 34.07420 109.44481
#
# Poissons Ratio (x) = -0.12105 0.62969
# Poissons Ratio (y) = -0.25234 0.54852
# Poissons Ratio (z) = 0.40866 0.17077
#
# Static dielectric constant tensor:
#      x y z
#    x 1.753850 0.000000 0.000000 
#    y 0.000000 1.846400 0.000000 
#    z 0.000000 0.000000 1.834710 
# 
# From -- ./inp_files/10434.got.cif
#   From: 2010.05.17/outbox.cif.g08.bks.cpg/sg53_6_cif.got.tgz:10434.got - 2010.06.03 12:45:16.
