data_PCOD9418842
_publ_section_title
;
Structure prediction by ZEFSAII (Michael W. Deem and Ramdas Pophale) SiO2 
 PCOD9418842
Probable space group: P M N A
;
_chemical_formula_sum "Si O2"
_cell_formula_units_Z 48
_cell_length_a 19.023124
_cell_length_b 14.425808
_cell_length_c 8.816002
_cell_angle_alpha 90.000000
_cell_angle_beta 90.000000
_cell_angle_gamma 90.000000
_cell_volume 2419.321954
_symmetry_space_group_name_H-M "P M N A"
_symmetry_group_IT_number 53
_symmetry_cell_setting 'orthorhombic'
loop_
_space_group_symop_operation_xyz
x,y,z
1/2-x,-y,1/2+z
x,-y,-z
1/2-x,y,1/2-z
-x,-y,-z
1/2+x,y,1/2-z
-x,y,z
1/2+x,-y,1/2+z
loop_
_atom_site_type_symbol
_atom_site_label
_atom_site_fract_x
_atom_site_fract_y
_atom_site_fract_z
Si Si1 0.581145 0.705081 0.632067
Si Si2 0.921943 0.234509 0.781963
Si Si3 0.212713 0.404579 0.087829
Si Si4 0.582548 0.016509 0.678819
Si Si5 0.671302 0.857265 0.816156
Si Si6 0.293553 0.752426 0.106326
O O1 0.500000 0.692660 0.679601
O O2 0.580538 0.742195 0.459635
O O3 0.630883 0.615819 0.621393
O O4 0.623293 0.778214 0.736204
O O5 0.863728 0.287279 0.684614
O O6 0.000000 0.254323 0.724402
O O7 0.909859 0.123889 0.778642
O O8 0.250000 0.405586 0.250000
O O9 0.222163 0.500000 0.000000
O O10 0.247493 0.322038 0.986971
O O11 0.500000 0.990710 0.697984
O O12 0.632078 0.952190 0.779025
O O13 0.599068 0.000000 0.500000
O O14 0.750000 0.856855 0.750000
O O15 0.681611 0.830443 0.990214
O O16 0.250000 0.788849 0.250000
#
# Coordination Sequence:
#
# PCOD9418842 Si02
#       6
#     8   8   8   8   8   8
#     4  11  21  42  71  98 131 174 224 272 331 400
#     4  10  22  39  63  94 132 178 226 276 330 389
#     4  12  25  46  73 100 129 168 214 269 339 413
#     4  10  21  39  63  92 130 179 229 277 333 385
#     4  12  22  40  63  95 130 174 230 276 326 391
#     4  12  23  42  66  93 133 174 223 276 331 401
#
# _framework density 19.84027
#
# number of rings (size 3 to 8) (size 9 to 14) (size 15 to 20)
#    0.000    0.833    6.667    1.000    0.000    3.000 
#    0.000    1.667    0.000    1.000    0.000    0.000 
#    0.000    0.000    0.000    0.000    0.000    0.000 
#
# Total GULP energy -268183.112433 kJ/mol
# GULP energy per Si atom -5587.148176 kJ/mol
# Density = 1.979511 g / cm^3
# Si number density = 19.840270 Si / 1000 Ang^3
#
#
#
# Elastic Constant Matrix: (Units=GPa)
#
#
# Indices 1 2 3 4 5 6 
#
# 1 156.3783 33.1382 56.7916 0.0000 0.0000 0.0000
# 2 33.1382 45.1821 29.0734 0.0000 0.0000 0.0000
# 3 56.7916 29.0734 93.9163 0.0000 0.0000 0.0000
# 4 0.0000 0.0000 0.0000 26.8870 0.0000 0.0000
# 5 0.0000 0.0000 0.0000 0.0000 32.0567 0.0000
# 6 0.0000 0.0000 0.0000 0.0000 0.0000 13.9967
#
#
#
# Elastic Compliance Matrix: (Units=1/GPa)
#
#
# Indices 1 2 3 4 5 6 
#
# 1 0.008670 -0.003728 -0.004089 0.000000 0.000000 0.000000
# 2 -0.003728 0.029241 -0.006798 0.000000 0.000000 0.000000
# 3 -0.004089 -0.006798 0.015225 0.000000 0.000000 0.000000
# 4 0.000000 0.000000 0.000000 0.037193 0.000000 0.000000
# 5 0.000000 0.000000 0.000000 0.000000 0.031195 0.000000
# 6 0.000000 0.000000 0.000000 0.000000 0.000000 0.071445
#
#
# Mechanical properties :
#
#
# Convention : Reuss Voigt Hill
#
# Bulk Modulus (GPa) = 41.82912 59.27589 50.55251
# Shear Modulus (GPa) = 21.72356 26.35298 24.03827
#
# Velocity S-wave (km/s) = 3.31255 3.64848 3.48457
# Velocity P-wave (km/s) = 5.97991 6.90579 6.45946
#
# Compressibility (1/GPa) = 0.02390679
#
# Stress axis : x y z
#
# Youngs Moduli (GPa) = 115.34681 34.19862 65.68350
#
# Poissons Ratio (x) = 0.12748 0.26855
# Poissons Ratio (y) = 0.42998 0.44651
# Poissons Ratio (z) = 0.47160 0.23248
#
# Static dielectric constant tensor:
#      x y z
#    x 1.745730 0.000000 0.000000 
#    y 0.000000 1.690930 0.000000 
#    z 0.000000 0.000000 1.708500 
# 
# From -- ./inp_files/9951.got.cif
#   From: 2010.05.17/outbox.cif.g08.bks.cpg/sg53_5_cif.got.tgz:9951.got - 2010.06.03 12:45:16.
