data_PCOD9418390
_publ_section_title
;
Structure prediction by ZEFSAII (Michael W. Deem and Ramdas Pophale) SiO2 
 PCOD9418390
Probable space group: P M N A
;
_chemical_formula_sum "Si O2"
_cell_formula_units_Z 40
_cell_length_a 17.532175
_cell_length_b 9.186189
_cell_length_c 13.125811
_cell_angle_alpha 90.000000
_cell_angle_beta 90.000000
_cell_angle_gamma 90.000000
_cell_volume 2113.962700
_symmetry_space_group_name_H-M "P M N A"
_symmetry_group_IT_number 53
_symmetry_cell_setting 'orthorhombic'
loop_
_space_group_symop_operation_xyz
x,y,z
1/2-x,-y,1/2+z
x,-y,-z
1/2-x,y,1/2-z
-x,-y,-z
1/2+x,y,1/2-z
-x,y,z
1/2+x,-y,1/2+z
loop_
_atom_site_type_symbol
_atom_site_label
_atom_site_fract_x
_atom_site_fract_y
_atom_site_fract_z
Si Si1 0.087270 0.074143 0.111714
Si Si2 0.215301 0.836393 0.461605
Si Si3 0.316268 0.632869 0.334354
Si Si4 0.412751 0.829404 0.213194
Si Si5 0.281162 0.312495 0.364244
O O1 0.151192 0.196877 0.121703
O O2 0.000000 0.130365 0.119692
O O3 0.097756 0.960698 0.205542
O O4 0.092574 0.000000 0.000000
O O5 0.287698 0.763785 0.405605
O O6 0.145705 0.837389 0.381515
O O7 0.211972 0.732458 0.560421
O O8 0.226870 0.000000 0.500000
O O9 0.250000 0.626046 0.250000
O O10 0.391975 0.684169 0.277223
O O11 0.313798 0.474125 0.383197
O O12 0.500000 0.829830 0.178802
O O13 0.250000 0.303961 0.250000
#
# Coordination Sequence:
#
# PCOD9418390 Si02
#       5
#     8   8   8   8   8
#     4  10  21  36  55  82 114 147 189 242 292 341
#     4  11  21  35  58  84 113 150 194 238 290 350
#     4   9  20  36  56  82 111 145 186 233 283 340
#     4  10  21  38  58  84 119 154 191 239 298 358
#     4  11  21  35  57  82 110 147 194 242 288 346
#
# _framework density 18.921810000000001
#
# number of rings (size 3 to 8) (size 9 to 14) (size 15 to 20)
#    0.000    1.800    0.000    4.800    0.000    2.800 
#    0.000    1.000    0.000   21.600    0.000    0.000 
#    0.000    0.000    0.000    0.000    0.000    0.000 
#
# Total GULP energy -223024.918204 kJ/mol
# GULP energy per Si atom -5575.622955 kJ/mol
# Density = 1.887874 g / cm^3
# Si number density = 18.921810 Si / 1000 Ang^3
#
#
#
# Elastic Constant Matrix: (Units=GPa)
#
#
# Indices 1 2 3 4 5 6 
#
# 1 111.1406 60.2373 54.8850 0.0000 0.0000 0.0000
# 2 60.2373 133.7055 46.2821 0.0000 0.0000 0.0000
# 3 54.8850 46.2821 124.0337 0.0000 0.0000 0.0000
# 4 0.0000 0.0000 0.0000 27.1713 0.0000 0.0000
# 5 0.0000 0.0000 0.0000 0.0000 31.8108 0.0000
# 6 0.0000 0.0000 0.0000 0.0000 0.0000 13.2510
#
#
#
# Elastic Compliance Matrix: (Units=1/GPa)
#
#
# Indices 1 2 3 4 5 6 
#
# 1 0.013647 -0.004660 -0.004300 0.000000 0.000000 0.000000
# 2 -0.004660 0.010179 -0.001736 0.000000 0.000000 0.000000
# 3 -0.004300 -0.001736 0.010613 0.000000 0.000000 0.000000
# 4 0.000000 0.000000 0.000000 0.036804 0.000000 0.000000
# 5 0.000000 0.000000 0.000000 0.000000 0.031436 0.000000
# 6 0.000000 0.000000 0.000000 0.000000 0.000000 0.075466
#
#
# Mechanical properties :
#
#
# Convention : Reuss Voigt Hill
#
# Bulk Modulus (GPa) = 76.64635 76.85430 76.75032
# Shear Modulus (GPa) = 24.52355 28.27831 26.40093
#
# Velocity S-wave (km/s) = 3.60397 3.87005 3.73938
# Velocity P-wave (km/s) = 7.61006 7.78939 7.70025
#
# Compressibility (1/GPa) = 0.01304694
#
# Stress axis : x y z
#
# Youngs Moduli (GPa) = 73.27862 98.23678 94.22425
#
# Poissons Ratio (x) = 0.45775 0.40515
# Poissons Ratio (y) = 0.34145 0.16362
# Poissons Ratio (z) = 0.31509 0.17059
#
# Static dielectric constant tensor:
#      x y z
#    x 1.648310 0.000000 0.000000 
#    y 0.000000 1.669970 0.000000 
#    z 0.000000 0.000000 1.738180 
# 
# From -- ./inp_files/16684.got.cif
#   From: 2010.05.17/outbox.cif.g08.bks.cpg/sg53_9_cif.got.tgz:16684.got - 2010.06.03 12:45:16.
