data_PCOD9418925
_publ_section_title
;
Structure prediction by ZEFSAII (Michael W. Deem and Ramdas Pophale) SiO2 
 PCOD9418925
Probable space group: P M N A
;
_chemical_formula_sum "Si O2"
_cell_formula_units_Z 40
_cell_length_a 19.532411
_cell_length_b 10.157069
_cell_length_c 9.119097
_cell_angle_alpha 90.000000
_cell_angle_beta 90.000000
_cell_angle_gamma 90.000000
_cell_volume 1809.156314
_symmetry_space_group_name_H-M "P M N A"
_symmetry_group_IT_number 53
_symmetry_cell_setting 'orthorhombic'
loop_
_space_group_symop_operation_xyz
x,y,z
1/2-x,-y,1/2+z
x,-y,-z
1/2-x,y,1/2-z
-x,-y,-z
1/2+x,y,1/2-z
-x,y,z
1/2+x,-y,1/2+z
loop_
_atom_site_type_symbol
_atom_site_label
_atom_site_fract_x
_atom_site_fract_y
_atom_site_fract_z
Si Si1 0.578293 0.979153 0.330691
Si Si2 0.322799 0.868241 0.082888
Si Si3 0.418796 0.486886 0.671237
Si Si4 0.924760 0.753027 0.656072
Si Si5 0.196914 0.594281 0.360847
O O1 0.500000 0.920483 0.321368
O O2 0.636191 0.911487 0.229411
O O3 0.596722 0.000000 0.500000
O O4 0.572206 0.125131 0.265514
O O5 0.274891 0.740707 0.102561
O O6 0.377103 0.802240 0.972499
O O7 0.295932 0.000000 0.000000
O O8 0.399798 0.500000 0.500000
O O9 0.500000 0.458133 0.677714
O O10 0.405004 0.625371 0.752272
O O11 0.372668 0.389467 0.766860
O O12 0.000000 0.726232 0.593577
O O13 0.187022 0.500000 0.500000
O O14 0.250000 0.527666 0.250000
#
# Coordination Sequence:
#
# PCOD9418925 Si02
#       5
#     8   8   8   8   8
#     4   9  18  31  54  90 131 171 211 262 325 385
#     4  10  21  40  63  88 124 165 221 265 322 392
#     4  10  22  39  65 100 136 172 218 273 327 390
#     4   9  17  33  57  89 130 169 207 261 320 382
#     4  12  26  47  69  96 129 174 220 270 335 400
#
# _framework density 22.109753000000001
#
# number of rings (size 3 to 8) (size 9 to 14) (size 15 to 20)
#    0.000    2.000    2.000    1.200    2.800    4.400 
#    0.000    2.000    0.000    0.000    0.000    0.000 
#    0.000    0.000    0.000    0.000    0.000    0.000 
#
# Total GULP energy -223087.764511 kJ/mol
# GULP energy per Si atom -5577.194113 kJ/mol
# Density = 2.205943 g / cm^3
# Si number density = 22.109753 Si / 1000 Ang^3
#
#
#
# Elastic Constant Matrix: (Units=GPa)
#
#
# Indices 1 2 3 4 5 6 
#
# 1 21.7990 7.7016 35.6452 0.0000 0.0000 0.0000
# 2 7.7016 94.8771 9.7842 0.0000 0.0000 0.0000
# 3 35.6452 9.7842 134.3919 0.0000 0.0000 0.0000
# 4 0.0000 0.0000 0.0000 13.9181 0.0000 0.0000
# 5 0.0000 0.0000 0.0000 0.0000 12.5032 0.0000
# 6 0.0000 0.0000 0.0000 0.0000 0.0000 16.9823
#
#
#
# Elastic Compliance Matrix: (Units=1/GPa)
#
#
# Indices 1 2 3 4 5 6 
#
# 1 0.082865 -0.004494 -0.021651 0.000000 0.000000 0.000000
# 2 -0.004494 0.010863 0.000401 0.000000 0.000000 0.000000
# 3 -0.021651 0.000401 0.013154 0.000000 0.000000 0.000000
# 4 0.000000 0.000000 0.000000 0.071849 0.000000 0.000000
# 5 0.000000 0.000000 0.000000 0.000000 0.079980 0.000000
# 6 0.000000 0.000000 0.000000 0.000000 0.000000 0.058885
#
#
# Mechanical properties :
#
#
# Convention : Reuss Voigt Hill
#
# Bulk Modulus (GPa) = 18.05230 39.70332 28.87781
# Shear Modulus (GPa) = 12.90159 21.87652 17.38905
#
# Velocity S-wave (km/s) = 2.41825 3.14897 2.80748
# Velocity P-wave (km/s) = 3.99747 5.58728 4.85785
#
# Compressibility (1/GPa) = 0.05539462
#
# Stress axis : x y z
#
# Youngs Moduli (GPa) = 12.06780 92.05241 76.02009
#
# Poissons Ratio (x) = 0.41366 1.64594
# Poissons Ratio (y) = 0.05423 -0.03048
# Poissons Ratio (z) = 0.26129 -0.03691
#
# Static dielectric constant tensor:
#      x y z
#    x 1.863760 0.000000 0.000000 
#    y 0.000000 1.852180 0.000000 
#    z 0.000000 0.000000 2.093340 
# 
# From -- ./inp_files/10754.got.cif
#   From: 2010.05.17/outbox.cif.g08.bks.cpg/sg53_6_cif.got.tgz:10754.got - 2010.06.03 12:45:16.
