data_PCOD9418006
_publ_section_title
;
Structure prediction by ZEFSAII (Michael W. Deem and Ramdas Pophale) SiO2 
 PCOD9418006
Probable space group: P M N A
;
_chemical_formula_sum "Si O2"
_cell_formula_units_Z 48
_cell_length_a 7.758762
_cell_length_b 10.287508
_cell_length_c 30.893063
_cell_angle_alpha 90.000000
_cell_angle_beta 90.000000
_cell_angle_gamma 90.000000
_cell_volume 2465.832578
_symmetry_space_group_name_H-M "P M N A"
_symmetry_group_IT_number 53
_symmetry_cell_setting 'orthorhombic'
loop_
_space_group_symop_operation_xyz
x,y,z
1/2-x,-y,1/2+z
x,-y,-z
1/2-x,y,1/2-z
-x,-y,-z
1/2+x,y,1/2-z
-x,y,z
1/2+x,-y,1/2+z
loop_
_atom_site_type_symbol
_atom_site_label
_atom_site_fract_x
_atom_site_fract_y
_atom_site_fract_z
Si Si1 0.196924 0.321995 0.627831
Si Si2 0.500000 0.699391 0.529534
Si Si3 0.793517 0.809407 0.699925
Si Si4 0.791888 0.971703 0.365867
Si Si5 0.703780 0.907374 0.958438
Si Si6 0.500000 0.417381 0.566555
Si Si7 0.199211 0.514629 0.800206
O O1 0.257596 0.177520 0.641398
O O2 0.330428 0.375353 0.592760
O O3 0.199269 0.419468 0.668317
O O4 0.000000 0.311906 0.611092
O O5 0.669309 0.785953 0.537635
O O6 0.500000 0.571801 0.559199
O O7 0.500000 0.651277 0.480025
O O8 0.750000 0.835816 0.750000
O O9 0.724522 0.666375 0.688416
O O10 0.000000 0.801713 0.696293
O O11 0.726731 0.922750 0.668579
O O12 0.000000 0.974647 0.362357
O O13 0.749856 0.015646 0.414564
O O14 0.500000 0.871893 0.956219
O O15 0.727207 0.000000 0.000000
O O16 0.250000 0.500976 0.750000
O O17 0.000000 0.480926 0.805299
#
# Coordination Sequence:
#
# PCOD9418006 Si02
#       7
#     8   4   8   8   8   4   8
#     4  11  23  43  64  89 128 170 208 265 316 377
#     4  11  25  42  64  92 131 166 213 274 317 378
#     4  10  20  38  59  89 124 159 205 260 313 373
#     4   9  21  38  61  90 122 160 208 259 320 378
#     4  10  21  40  66  95 125 165 213 263 323 390
#     4  11  26  44  60  96 128 167 220 261 318 390
#     4  11  22  39  61  92 125 166 215 256 312 380
#
# _framework density 19.466042999999999
#
# number of rings (size 3 to 8) (size 9 to 14) (size 15 to 20)
#    0.000    1.667    0.833    4.250    2.333    4.000 
#    4.500    3.333    0.000    0.000    0.000    0.000 
#    0.000    0.000    0.000    0.000    0.000    0.000 
#
# Total GULP energy -268215.518195 kJ/mol
# GULP energy per Si atom -5587.823296 kJ/mol
# Density = 1.942174 g / cm^3
# Si number density = 19.466043 Si / 1000 Ang^3
#
#
#
# Elastic Constant Matrix: (Units=GPa)
#
#
# Indices 1 2 3 4 5 6 
#
# 1 86.2525 37.1242 13.6744 0.0000 0.0000 0.0000
# 2 37.1242 165.6051 85.0852 0.0000 0.0000 0.0000
# 3 13.6744 85.0852 95.9691 0.0000 0.0000 0.0000
# 4 0.0000 0.0000 0.0000 25.1392 0.0000 0.0000
# 5 0.0000 0.0000 0.0000 0.0000 24.3067 0.0000
# 6 0.0000 0.0000 0.0000 0.0000 0.0000 -52.5399
#
#
#
# Elastic Compliance Matrix: (Units=1/GPa)
#
#
# Indices 1 2 3 4 5 6 
#
# 1 0.012925 -0.003583 0.001336 0.000000 0.000000 0.000000
# 2 -0.003583 0.012084 -0.010203 0.000000 0.000000 0.000000
# 3 0.001336 -0.010203 0.019275 0.000000 0.000000 0.000000
# 4 0.000000 0.000000 0.000000 0.039779 0.000000 0.000000
# 5 0.000000 0.000000 0.000000 0.000000 0.041141 0.000000
# 6 0.000000 0.000000 0.000000 0.000000 0.000000 -0.019033
#
#
# Mechanical properties :
#
#
# Convention : Reuss Voigt Hill
#
# Bulk Modulus (GPa) = 51.59374 68.84381 60.21877
# Shear Modulus (GPa) = 36.35512 13.51073 24.93293
#
# Velocity S-wave (km/s) = 4.32628 2.63737 3.58277
# Velocity P-wave (km/s) = 7.17758 6.68709 6.93667
#
# Compressibility (1/GPa) = 0.01938220
#
# Stress axis : x y z
#
# Youngs Moduli (GPa) = 77.37237 82.75550 51.87967
#
# Poissons Ratio (x) = 0.29655 -0.06929
# Poissons Ratio (y) = 0.27726 0.52932
# Poissons Ratio (z) = -0.10333 0.84433
#
# Static dielectric constant tensor:
#      x y z
#    x 1.692710 0.000000 0.000000 
#    y 0.000000 1.659080 0.000000 
#    z 0.000000 0.000000 1.664030 
# 
# From -- ./inp_files/37842.got.cif
#   From: 2010.05.17/outbox.cif.g08.bks.cpg/sg53_19_cif.got.tgz:37842.got - 2010.06.03 12:45:16.
