data_PCOD9418765
_publ_section_title
;
Structure prediction by ZEFSAII (Michael W. Deem and Ramdas Pophale) SiO2 
 PCOD9418765
Probable space group: P M N A
;
_chemical_formula_sum "Si O2"
_cell_formula_units_Z 52
_cell_length_a 20.048611
_cell_length_b 6.048249
_cell_length_c 19.870004
_cell_angle_alpha 90.000000
_cell_angle_beta 90.000000
_cell_angle_gamma 90.000000
_cell_volume 2409.416645
_symmetry_space_group_name_H-M "P M N A"
_symmetry_group_IT_number 53
_symmetry_cell_setting 'orthorhombic'
loop_
_space_group_symop_operation_xyz
x,y,z
1/2-x,-y,1/2+z
x,-y,-z
1/2-x,y,1/2-z
-x,-y,-z
1/2+x,y,1/2-z
-x,y,z
1/2+x,-y,1/2+z
loop_
_atom_site_type_symbol
_atom_site_label
_atom_site_fract_x
_atom_site_fract_y
_atom_site_fract_z
Si Si1 0.421995 0.746838 0.034231
Si Si2 0.750000 0.270342 0.750000
Si Si3 0.328237 0.954867 0.132231
Si Si4 0.571895 0.137235 0.658533
Si Si5 0.854755 0.547855 0.834921
Si Si6 0.924189 0.158021 0.278065
Si Si7 0.188463 0.088870 0.074021
O O1 0.500000 0.749234 0.054897
O O2 0.368340 0.763891 0.094049
O O3 0.412478 0.500000 0.000000
O O4 0.412436 0.000000 0.000000
O O5 0.704236 0.122957 0.797851
O O6 0.795154 0.414898 0.799647
O O7 0.383593 0.134490 0.153421
O O8 0.265564 0.040569 0.090068
O O9 0.500000 0.056638 0.632537
O O10 0.582775 0.394251 0.648158
O O11 0.572035 0.075619 0.737577
O O12 0.636091 0.036177 0.622369
O O13 0.882966 0.701499 0.775654
O O14 0.827161 0.662563 0.902168
O O15 0.000000 0.235253 0.288285
O O16 0.174580 0.000000 0.000000
#
# Coordination Sequence:
#
# PCOD9418765 Si02
#       7
#     8   4   8   8   8   8   8
#     4  10  24  47  72 102 143 190 241 293 348 420
#     4  12  22  38  64  96 130 168 216 280 346 414
#     4  12  22  42  64  97 135 175 218 282 346 409
#     4  10  21  41  63  90 125 159 209 273 329 391
#     4  11  21  40  64  91 126 170 213 274 336 404
#     4  10  21  38  64  97 130 165 211 267 335 409
#     4  11  25  42  62  91 127 173 222 266 327 405
#
# _framework density 21.581989
#
# number of rings (size 3 to 8) (size 9 to 14) (size 15 to 20)
#    0.000    1.231    3.077    3.231    0.000    5.231 
#    0.000    2.308    0.000    0.000    0.000    0.000 
#    0.000    0.000    0.000    0.000    0.000    0.000 
#
# Total GULP energy -289725.551069 kJ/mol
# GULP energy per Si atom -5571.645213 kJ/mol
# Density = 2.153287 g / cm^3
# Si number density = 21.581989 Si / 1000 Ang^3
#
#
#
# Elastic Constant Matrix: (Units=GPa)
#
#
# Indices 1 2 3 4 5 6 
#
# 1 117.2072 1.2009 17.7611 0.0000 0.0000 0.0000
# 2 1.2009 41.7256 -3.0964 0.0000 0.0000 0.0000
# 3 17.7611 -3.0964 31.7226 0.0000 0.0000 0.0000
# 4 0.0000 0.0000 0.0000 17.5329 0.0000 0.0000
# 5 0.0000 0.0000 0.0000 0.0000 24.3340 0.0000
# 6 0.0000 0.0000 0.0000 0.0000 0.0000 1.5599
#
#
#
# Elastic Compliance Matrix: (Units=1/GPa)
#
#
# Indices 1 2 3 4 5 6 
#
# 1 0.009341 -0.000662 -0.005295 0.000000 0.000000 0.000000
# 2 -0.000662 0.024188 0.002731 0.000000 0.000000 0.000000
# 3 -0.005295 0.002731 0.034754 0.000000 0.000000 0.000000
# 4 0.000000 0.000000 0.000000 0.057036 0.000000 0.000000
# 5 0.000000 0.000000 0.000000 0.000000 0.041095 0.000000
# 6 0.000000 0.000000 0.000000 0.000000 0.000000 0.641072
#
#
# Mechanical properties :
#
#
# Convention : Reuss Voigt Hill
#
# Bulk Modulus (GPa) = 16.17249 24.70962 20.44105
# Shear Modulus (GPa) = 5.99128 20.33801 13.16465
#
# Velocity S-wave (km/s) = 1.66796 3.07312 2.47246
# Velocity P-wave (km/s) = 3.34951 4.90572 4.20032
#
# Compressibility (1/GPa) = 0.06183341
#
# Stress axis : x y z
#
# Youngs Moduli (GPa) = 107.05503 41.34305 28.77354
#
# Poissons Ratio (x) = 0.02736 0.15234
# Poissons Ratio (y) = 0.07084 -0.07859
# Poissons Ratio (z) = 0.56680 -0.11293
#
# Static dielectric constant tensor:
#      x y z
#    x 1.796050 0.000000 0.000000 
#    y 0.000000 1.951160 0.000000 
#    z 0.000000 0.000000 1.770570 
# 
# From -- ./inp_files/33017.got.cif
#   From: 2010.05.17/outbox.cif.g08.bks.cpg/sg53_17_cif.got.tgz:33017.got - 2010.06.03 12:45:16.
