data_PCOD9418613
_publ_section_title
;
Structure prediction by ZEFSAII (Michael W. Deem and Ramdas Pophale) SiO2 
 PCOD9418613
Probable space group: P M N A
;
_chemical_formula_sum "Si O2"
_cell_formula_units_Z 48
_cell_length_a 17.537609
_cell_length_b 12.694030
_cell_length_c 11.834246
_cell_angle_alpha 90.000000
_cell_angle_beta 90.000000
_cell_angle_gamma 90.000000
_cell_volume 2634.574575
_symmetry_space_group_name_H-M "P M N A"
_symmetry_group_IT_number 53
_symmetry_cell_setting 'orthorhombic'
loop_
_space_group_symop_operation_xyz
x,y,z
1/2-x,-y,1/2+z
x,-y,-z
1/2-x,y,1/2-z
-x,-y,-z
1/2+x,y,1/2-z
-x,y,z
1/2+x,-y,1/2+z
loop_
_atom_site_type_symbol
_atom_site_label
_atom_site_fract_x
_atom_site_fract_y
_atom_site_fract_z
Si Si1 0.412279 0.171681 0.863317
Si Si2 0.339941 0.358920 0.725339
Si Si3 0.795805 0.982828 0.632099
Si Si4 0.699246 0.617892 0.521981
Si Si5 0.846692 0.749521 0.589683
Si Si6 0.090171 0.418216 0.234531
O O1 0.500000 0.156708 0.834813
O O2 0.372223 0.254231 0.780336
O O3 0.366612 0.062746 0.865443
O O4 0.401705 0.223457 0.986203
O O5 0.250000 0.370701 0.750000
O O6 0.345895 0.351659 0.590466
O O7 0.383455 0.463446 0.767335
O O8 0.750000 0.005733 0.750000
O O9 0.822081 0.861739 0.640863
O O10 0.763418 0.000000 0.500000
O O11 0.730567 0.500000 0.500000
O O12 0.769057 0.695019 0.545388
O O13 0.641181 0.609839 0.625492
O O14 0.886502 0.667868 0.673141
O O15 0.000000 0.416957 0.212684
#
# Coordination Sequence:
#
# PCOD9418613 Si02
#       6
#     8   8   8   8   8   8
#     4  11  24  39  62  92 122 157 199 256 316 358
#     4  11  21  39  62  86 121 159 206 249 297 363
#     4  10  23  41  66  91 120 161 212 255 303 367
#     4  10  21  37  62  87 119 163 208 248 299 363
#     4  11  22  40  62  90 119 161 206 248 296 366
#     4  11  23  36  57  90 128 162 197 249 310 364
#
# _framework density 18.219260999999999
#
# number of rings (size 3 to 8) (size 9 to 14) (size 15 to 20)
#    0.000    1.333    1.667    5.000    2.333    7.333 
#    0.000    1.667    0.000    0.500    0.000    0.000 
#    0.000    0.000    0.000    0.000    0.000    0.000 
#
# Total GULP energy -267889.855384 kJ/mol
# GULP energy per Si atom -5581.038654 kJ/mol
# Density = 1.817779 g / cm^3
# Si number density = 18.219261 Si / 1000 Ang^3
#
#
#
# Elastic Constant Matrix: (Units=GPa)
#
#
# Indices 1 2 3 4 5 6 
#
# 1 76.7959 43.9431 9.2860 0.0000 0.0000 0.0000
# 2 43.9431 130.4196 35.3714 0.0000 0.0000 0.0000
# 3 9.2860 35.3714 51.4649 0.0000 0.0000 0.0000
# 4 0.0000 0.0000 0.0000 46.2983 0.0000 0.0000
# 5 0.0000 0.0000 0.0000 0.0000 -15.3139 0.0000
# 6 0.0000 0.0000 0.0000 0.0000 0.0000 13.6741
#
#
#
# Elastic Compliance Matrix: (Units=1/GPa)
#
#
# Indices 1 2 3 4 5 6 
#
# 1 0.016175 -0.005726 0.001017 0.000000 0.000000 0.000000
# 2 -0.005726 0.011451 -0.006837 0.000000 0.000000 0.000000
# 3 0.001017 -0.006837 0.023946 0.000000 0.000000 0.000000
# 4 0.000000 0.000000 0.000000 0.021599 0.000000 0.000000
# 5 0.000000 0.000000 0.000000 0.000000 -0.065300 0.000000
# 6 0.000000 0.000000 0.000000 0.000000 0.000000 0.073131
#
#
# Mechanical properties :
#
#
# Convention : Reuss Voigt Hill
#
# Bulk Modulus (GPa) = 35.11217 48.43128 41.77173
# Shear Modulus (GPa) = 44.01886 20.27036 32.14461
#
# Velocity S-wave (km/s) = 4.92068 3.33915 4.20494
# Velocity P-wave (km/s) = 7.18317 6.44257 6.82293
#
# Compressibility (1/GPa) = 0.02848015
#
# Stress axis : x y z
#
# Youngs Moduli (GPa) = 61.82444 87.32826 41.75998
#
# Poissons Ratio (x) = 0.50001 -0.04246
# Poissons Ratio (y) = 0.35398 0.28552
# Poissons Ratio (z) = -0.06286 0.59707
#
# Static dielectric constant tensor:
#      x y z
#    x 1.589660 0.000000 0.000000 
#    y 0.000000 1.611600 0.000000 
#    z 0.000000 0.000000 1.684650 
# 
# From -- ./inp_files/16917.got.cif
#   From: 2010.05.17/outbox.cif.g08.bks.cpg/sg53_9_cif.got.tgz:16917.got - 2010.06.03 12:45:16.
