data_PCOD9418400
_publ_section_title
;
Structure prediction by ZEFSAII (Michael W. Deem and Ramdas Pophale) SiO2 
 PCOD9418400
Probable space group: P M N A
;
_chemical_formula_sum "Si O2"
_cell_formula_units_Z 64
_cell_length_a 18.992058
_cell_length_b 14.581814
_cell_length_c 11.938909
_cell_angle_alpha 90.000000
_cell_angle_beta 90.000000
_cell_angle_gamma 90.000000
_cell_volume 3306.345427
_symmetry_space_group_name_H-M "P M N A"
_symmetry_group_IT_number 53
_symmetry_cell_setting 'orthorhombic'
loop_
_space_group_symop_operation_xyz
x,y,z
1/2-x,-y,1/2+z
x,-y,-z
1/2-x,y,1/2-z
-x,-y,-z
1/2+x,y,1/2-z
-x,y,z
1/2+x,-y,1/2+z
loop_
_atom_site_type_symbol
_atom_site_label
_atom_site_fract_x
_atom_site_fract_y
_atom_site_fract_z
Si Si1 0.576280 0.902338 0.943060
Si Si2 0.174259 0.663432 0.307145
Si Si3 0.583038 0.029787 0.308390
Si Si4 0.171564 0.671734 0.740457
Si Si5 0.855427 0.806569 0.945913
Si Si6 0.198029 0.223746 0.482326
Si Si7 0.083815 0.508573 0.634725
Si Si8 0.917633 0.814868 0.180106
O O1 0.500000 0.854134 0.951116
O O2 0.590936 0.924775 0.813756
O O3 0.637006 0.848214 0.004977
O O4 0.570630 0.000000 0.000000
O O5 0.250000 0.648686 0.250000
O O6 0.188887 0.691241 0.435420
O O7 0.124438 0.575332 0.307000
O O8 0.132839 0.747794 0.249610
O O9 0.500000 0.032502 0.337971
O O10 0.624105 0.096659 0.391111
O O11 0.602842 0.922515 0.307548
O O12 0.250000 0.627407 0.750000
O O13 0.147117 0.724831 0.852962
O O14 0.185108 0.747777 0.645599
O O15 0.116218 0.600389 0.689458
O O16 0.776465 0.813149 0.993789
O O17 0.907023 0.789096 0.049579
O O18 0.095571 0.500000 0.500000
O O19 0.000000 0.504575 0.652685
O O20 0.000000 0.806097 0.212917
#
# Coordination Sequence:
#
# PCOD9418400 Si02
#       8
#     8   8   8   8   8   8   8   8
#     4  10  21  36  55  86 124 167 213 265 321 366
#     4  12  24  45  66  93 130 167 208 263 321 382
#     4  10  21  38  60  89 129 174 218 262 312 373
#     4  10  22  42  65  94 126 162 206 259 321 381
#     4  11  22  40  63  95 128 170 212 259 317 375
#     4  11  22  40  63  91 126 162 214 264 312 374
#     4  11  24  42  69  99 124 159 209 264 322 384
#     4  11  24  42  63  92 130 174 216 257 313 382
#
# _framework density 19.356718999999998
#
# number of rings (size 3 to 8) (size 9 to 14) (size 15 to 20)
#    0.000    1.250    3.750    2.250    0.000    5.500 
#    2.250    0.625    0.000    1.500    0.000    0.000 
#    0.000    0.000    0.000    0.000    0.000    0.000 
#
# Total GULP energy -357296.265916 kJ/mol
# GULP energy per Si atom -5582.754155 kJ/mol
# Density = 1.931266 g / cm^3
# Si number density = 19.356719 Si / 1000 Ang^3
#
#
#
# Elastic Constant Matrix: (Units=GPa)
#
#
# Indices 1 2 3 4 5 6 
#
# 1 112.1319 59.3286 19.7639 0.0000 0.0000 0.0000
# 2 59.3286 70.6878 -3.9724 0.0000 0.0000 0.0000
# 3 19.7639 -3.9724 41.6140 0.0000 0.0000 0.0000
# 4 0.0000 0.0000 0.0000 25.2186 0.0000 0.0000
# 5 0.0000 0.0000 0.0000 0.0000 33.6633 0.0000
# 6 0.0000 0.0000 0.0000 0.0000 0.0000 36.8001
#
#
#
# Elastic Compliance Matrix: (Units=1/GPa)
#
#
# Indices 1 2 3 4 5 6 
#
# 1 0.020224 -0.017608 -0.011286 0.000000 0.000000 0.000000
# 2 -0.017608 0.029554 0.011184 0.000000 0.000000 0.000000
# 3 -0.011286 0.011184 0.030458 0.000000 0.000000 0.000000
# 4 0.000000 0.000000 0.000000 0.039653 0.000000 0.000000
# 5 0.000000 0.000000 0.000000 0.000000 0.029706 0.000000
# 6 0.000000 0.000000 0.000000 0.000000 0.000000 0.027174
#
#
# Mechanical properties :
#
#
# Convention : Reuss Voigt Hill
#
# Bulk Modulus (GPa) = 22.31373 41.63042 31.97207
# Shear Modulus (GPa) = 22.01417 29.09063 25.55240
#
# Velocity S-wave (km/s) = 3.37603 3.88089 3.63723
# Velocity P-wave (km/s) = 5.17198 6.45255 5.84743
#
# Compressibility (1/GPa) = 0.04481546
#
# Stress axis : x y z
#
# Youngs Moduli (GPa) = 49.44733 33.83677 32.83212
#
# Poissons Ratio (x) = 0.59580 0.37053
# Poissons Ratio (y) = 0.87067 -0.36719
# Poissons Ratio (z) = 0.55805 -0.37842
#
# Static dielectric constant tensor:
#      x y z
#    x 1.716730 0.000000 0.000000 
#    y 0.000000 1.655250 0.000000 
#    z 0.000000 0.000000 1.721080 
# 
# From -- ./inp_files/17146.got.cif
#   From: 2010.05.17/outbox.cif.g08.bks.cpg/sg53_9_cif.got.tgz:17146.got - 2010.06.03 12:45:16.
