data_PCOD9418553
_publ_section_title
;
Structure prediction by ZEFSAII (Michael W. Deem and Ramdas Pophale) SiO2 
 PCOD9418553
Probable space group: P M N A
;
_chemical_formula_sum "Si O2"
_cell_formula_units_Z 52
_cell_length_a 31.896806
_cell_length_b 6.702973
_cell_length_c 14.168305
_cell_angle_alpha 90.000000
_cell_angle_beta 90.000000
_cell_angle_gamma 90.000000
_cell_volume 3029.232198
_symmetry_space_group_name_H-M "P M N A"
_symmetry_group_IT_number 53
_symmetry_cell_setting 'orthorhombic'
loop_
_space_group_symop_operation_xyz
x,y,z
1/2-x,-y,1/2+z
x,-y,-z
1/2-x,y,1/2-z
-x,-y,-z
1/2+x,y,1/2-z
-x,y,z
1/2+x,-y,1/2+z
loop_
_atom_site_type_symbol
_atom_site_label
_atom_site_fract_x
_atom_site_fract_y
_atom_site_fract_z
Si Si1 0.841639 0.119307 0.091964
Si Si2 0.884508 0.415604 0.606465
Si Si3 0.325581 0.059076 0.897114
Si Si4 0.203254 0.500000 0.000000
Si Si5 0.451203 0.927216 0.108646
Si Si6 0.235630 0.826837 0.142978
Si Si7 0.113044 0.808082 0.722558
O O1 0.877875 0.160035 0.167758
O O2 0.804611 0.974087 0.134054
O O3 0.822708 0.330900 0.057081
O O4 0.856968 0.000000 0.000000
O O5 0.881320 0.500000 0.500000
O O6 0.844213 0.276376 0.624967
O O7 0.925357 0.277025 0.612348
O O8 0.888003 0.584560 0.684780
O O9 0.275972 0.057014 0.896052
O O10 0.346120 0.905568 0.826147
O O11 0.341967 0.000000 0.000000
O O12 0.228106 0.632326 0.077760
O O13 0.500000 0.907688 0.132606
O O14 0.426674 0.077331 0.178120
O O15 0.448317 0.000000 0.000000
O O16 0.250000 0.777491 0.250000
#
# Coordination Sequence:
#
# PCOD9418553 Si02
#       7
#     8   8   8   4   8   8   8
#     4  10  23  42  59  78 109 151 204 251 292 336
#     4  11  20  32  53  86 118 151 187 223 274 341
#     4  11  21  34  52  78 115 150 188 232 277 336
#     4  10  24  38  54  82 107 144 197 246 292 332
#     4  10  21  37  58  88 125 154 179 216 277 362
#     4  11  23  39  56  79 114 155 196 242 289 339
#     4  11  21  37  58  82 112 151 188 228 286 337
#
# _framework density 17.166065
#
# number of rings (size 3 to 8) (size 9 to 14) (size 15 to 20)
#    0.000    1.385    4.615    2.308    3.231    4.000 
#    0.000    0.000    0.000    0.462    0.000    1.615 
#    0.000    0.000    0.000    0.000    0.000    0.000 
#
# Total GULP energy -290054.397079 kJ/mol
# GULP energy per Si atom -5577.969175 kJ/mol
# Density = 1.712699 g / cm^3
# Si number density = 17.166065 Si / 1000 Ang^3
#
#
#
# Elastic Constant Matrix: (Units=GPa)
#
#
# Indices 1 2 3 4 5 6 
#
# 1 73.8467 16.0631 25.7544 0.0000 0.0000 0.0000
# 2 16.0631 79.4737 25.7279 0.0000 0.0000 0.0000
# 3 25.7544 25.7279 109.9381 0.0000 0.0000 0.0000
# 4 0.0000 0.0000 0.0000 23.2792 0.0000 0.0000
# 5 0.0000 0.0000 0.0000 0.0000 23.6238 0.0000
# 6 0.0000 0.0000 0.0000 0.0000 0.0000 -6.5733
#
#
#
# Elastic Compliance Matrix: (Units=1/GPa)
#
#
# Indices 1 2 3 4 5 6 
#
# 1 0.015051 -0.002056 -0.003045 0.000000 0.000000 0.000000
# 2 -0.002056 0.013895 -0.002770 0.000000 0.000000 0.000000
# 3 -0.003045 -0.002770 0.010458 0.000000 0.000000 0.000000
# 4 0.000000 0.000000 0.000000 0.042957 0.000000 0.000000
# 5 0.000000 0.000000 0.000000 0.000000 0.042330 0.000000
# 6 0.000000 0.000000 0.000000 0.000000 0.000000 -0.152131
#
#
# Mechanical properties :
#
#
# Convention : Reuss Voigt Hill
#
# Bulk Modulus (GPa) = 42.26304 44.26103 43.26204
# Shear Modulus (GPa) = -1311.89427 21.11350 -645.39038
#
# Velocity S-wave (km/s) = -27.67483 3.51088 -19.41095
# Velocity P-wave (km/s) = 31.56773 6.50192 21.84315
#
# Compressibility (1/GPa) = 0.02366133
#
# Stress axis : x y z
#
# Youngs Moduli (GPa) = 66.44221 71.96758 95.62515
#
# Poissons Ratio (x) = 0.14799 0.29114
# Poissons Ratio (y) = 0.13663 0.26488
# Poissons Ratio (z) = 0.20229 0.19935
#
# Static dielectric constant tensor:
#      x y z
#    x 1.561110 0.000000 0.000000 
#    y 0.000000 1.583400 0.000000 
#    z 0.000000 0.000000 1.623070 
# 
# From -- ./inp_files/25160.got.cif
#   From: 2010.05.17/outbox.cif.g08.bks.cpg/sg53_13_cif.got.tgz:25160.got - 2010.06.03 12:45:16.
