data_PCOD9418409
_publ_section_title
;
Structure prediction by ZEFSAII (Michael W. Deem and Ramdas Pophale) SiO2 
 PCOD9418409
Probable space group: P M N A
;
_chemical_formula_sum "Si O2"
_cell_formula_units_Z 32
_cell_length_a 19.946409
_cell_length_b 12.722477
_cell_length_c 4.936973
_cell_angle_alpha 90.000000
_cell_angle_beta 90.000000
_cell_angle_gamma 90.000000
_cell_volume 1252.844430
_symmetry_space_group_name_H-M "P M N A"
_symmetry_group_IT_number 53
_symmetry_cell_setting 'orthorhombic'
loop_
_space_group_symop_operation_xyz
x,y,z
1/2-x,-y,1/2+z
x,-y,-z
1/2-x,y,1/2-z
-x,-y,-z
1/2+x,y,1/2-z
-x,y,z
1/2+x,-y,1/2+z
loop_
_atom_site_type_symbol
_atom_site_label
_atom_site_fract_x
_atom_site_fract_y
_atom_site_fract_z
Si Si1 0.696095 0.659737 0.527526
Si Si2 0.337354 0.108928 0.430030
Si Si3 0.387204 0.615843 0.019300
Si Si4 0.074421 0.153617 0.582982
O O1 0.750000 0.619794 0.750000
O O2 0.704425 0.785654 0.503331
O O3 0.676887 0.614005 0.232412
O O4 0.630511 0.641875 0.709142
O O5 0.400842 0.110379 0.631886
O O6 0.301208 0.000000 0.500000
O O7 0.368498 0.121258 0.132316
O O8 0.425128 0.719654 0.112069
O O9 0.416982 0.500000 0.000000
O O10 0.000000 0.120364 0.504661
#
# Coordination Sequence:
#
# PCOD9418409 Si02
#       4
#     8   8   8   8
#     4  10  21  38  57  81 111 144 186 232 278 331
#     4  10  21  37  56  82 114 147 188 234 279 332
#     4  10  21  37  57  82 113 146 185 231 277 330
#     4  10  21  36  56  83 114 149 189 232 278 332
#
# _framework density 25.541876999999999
#
# number of rings (size 3 to 8) (size 9 to 14) (size 15 to 20)
#    0.000    2.000    0.000    3.000    0.000    5.500 
#    0.000    7.500    0.000    9.000    0.000    0.000 
#    0.000    0.000    0.000    0.000    0.000    0.000 
#
# Total GULP energy -178645.705273 kJ/mol
# GULP energy per Si atom -5582.678290 kJ/mol
# Density = 2.548374 g / cm^3
# Si number density = 25.541877 Si / 1000 Ang^3
#
#
#
# Elastic Constant Matrix: (Units=GPa)
#
#
# Indices 1 2 3 4 5 6 
#
# 1 55.4455 1.7433 29.3906 0.0000 0.0000 0.0000
# 2 1.7433 196.5111 14.7651 0.0000 0.0000 0.0000
# 3 29.3906 14.7651 169.2871 0.0000 0.0000 0.0000
# 4 0.0000 0.0000 0.0000 18.7494 0.0000 0.0000
# 5 0.0000 0.0000 0.0000 0.0000 40.7759 0.0000
# 6 0.0000 0.0000 0.0000 0.0000 0.0000 -14.3386
#
#
#
# Elastic Compliance Matrix: (Units=1/GPa)
#
#
# Indices 1 2 3 4 5 6 
#
# 1 0.019865 0.000083 -0.003456 0.000000 0.000000 0.000000
# 2 0.000083 0.005123 -0.000461 0.000000 0.000000 0.000000
# 3 -0.003456 -0.000461 0.006547 0.000000 0.000000 0.000000
# 4 0.000000 0.000000 0.000000 0.053335 0.000000 0.000000
# 5 0.000000 0.000000 0.000000 0.000000 0.024524 0.000000
# 6 0.000000 0.000000 0.000000 0.000000 0.000000 -0.069742
#
#
# Mechanical properties :
#
#
# Convention : Reuss Voigt Hill
#
# Bulk Modulus (GPa) = 41.89840 57.00464 49.45152
# Shear Modulus (GPa) = 90.45463 34.06033 62.25748
#
# Velocity S-wave (km/s) = 5.95744 3.65569 4.94243
# Velocity P-wave (km/s) = 7.98504 6.33919 7.20924
#
# Compressibility (1/GPa) = 0.02386726
#
# Stress axis : x y z
#
# Youngs Moduli (GPa) = 50.33948 195.20994 152.73259
#
# Poissons Ratio (x) = -0.01629 0.52787
# Poissons Ratio (y) = -0.00420 0.07045
# Poissons Ratio (z) = 0.17398 0.09005
#
# Static dielectric constant tensor:
#      x y z
#    x 2.123030 0.000000 0.000000 
#    y 0.000000 2.091710 0.000000 
#    z 0.000000 0.000000 1.916670 
# 
# From -- ./inp_files/2628.got.cif
#   From: 2010.05.17/outbox.cif.g08.bks.cpg/sg53_2_cif.got.tgz:2628.got - 2010.06.03 12:45:16.
