data_PCOD9418752
_publ_section_title
;
Structure prediction by ZEFSAII (Michael W. Deem and Ramdas Pophale) SiO2 
 PCOD9418752
Probable space group: P M N A
;
_chemical_formula_sum "Si O2"
_cell_formula_units_Z 48
_cell_length_a 15.492071
_cell_length_b 17.420988
_cell_length_c 8.698144
_cell_angle_alpha 90.000000
_cell_angle_beta 90.000000
_cell_angle_gamma 90.000000
_cell_volume 2347.517581
_symmetry_space_group_name_H-M "P M N A"
_symmetry_group_IT_number 53
_symmetry_cell_setting 'orthorhombic'
loop_
_space_group_symop_operation_xyz
x,y,z
1/2-x,-y,1/2+z
x,-y,-z
1/2-x,y,1/2-z
-x,-y,-z
1/2+x,y,1/2-z
-x,y,z
1/2+x,-y,1/2+z
loop_
_atom_site_type_symbol
_atom_site_label
_atom_site_fract_x
_atom_site_fract_y
_atom_site_fract_z
Si Si1 0.757084 0.342506 0.589394
Si Si2 0.826554 0.930311 0.624789
Si Si3 0.098665 0.414853 0.048362
Si Si4 0.092174 0.418154 0.415260
Si Si5 0.500000 0.933233 0.682260
Si Si6 0.669806 0.825147 0.158027
Si Si7 0.000000 0.119114 0.843935
O O1 0.750000 0.388113 0.750000
O O2 0.662219 0.348849 0.514906
O O3 0.822304 0.378369 0.470971
O O4 0.805532 0.263917 0.638351
O O5 0.750000 0.936640 0.750000
O O6 0.825462 0.857709 0.512886
O O7 0.913966 0.922054 0.720322
O O8 0.827263 0.000000 0.500000
O O9 0.095234 0.419096 0.231965
O O10 0.000000 0.404474 0.990452
O O11 0.129500 0.500000 0.000000
O O12 0.091381 0.500000 0.500000
O O13 0.000000 0.379981 0.459420
O O14 0.500000 0.877692 0.531261
O O15 0.500000 0.026202 0.663107
O O16 0.750000 0.861910 0.250000
O O17 0.583614 0.846314 0.254437
#
# Coordination Sequence:
#
# PCOD9418752 Si02
#       7
#     8   8   8   8   4   8   4
#     4  11  24  40  63  89 129 176 217 263 333 406
#     4  12  24  40  67  98 135 169 218 277 340 402
#     4  10  21  40  67  97 131 169 223 288 336 388
#     4  10  21  38  63  95 128 167 222 277 333 391
#     4  11  24  41  74 105 124 171 222 293 340 400
#     4  11  25  45  64  95 134 180 221 270 338 414
#     4  11  23  44  71  96 137 165 228 279 342 404
#
# _framework density 20.447130999999999
#
# number of rings (size 3 to 8) (size 9 to 14) (size 15 to 20)
#    0.000    1.167    1.667    4.250    3.500    3.333 
#    4.500    0.000    0.000    0.000    0.000    0.000 
#    0.000    0.000    0.000    0.000    0.000    0.000 
#
# Total GULP energy -267432.897751 kJ/mol
# GULP energy per Si atom -5571.518703 kJ/mol
# Density = 2.040059 g / cm^3
# Si number density = 20.447131 Si / 1000 Ang^3
#
#
#
# Elastic Constant Matrix: (Units=GPa)
#
#
# Indices 1 2 3 4 5 6 
#
# 1 166.8348 34.6016 74.2475 0.0000 0.0000 0.0000
# 2 34.6016 36.1275 18.7129 0.0000 0.0000 0.0000
# 3 74.2475 18.7129 134.4751 0.0000 0.0000 0.0000
# 4 0.0000 0.0000 0.0000 23.8400 0.0000 0.0000
# 5 0.0000 0.0000 0.0000 0.0000 23.7329 0.0000
# 6 0.0000 0.0000 0.0000 0.0000 0.0000 -114.2579
#
#
#
# Elastic Compliance Matrix: (Units=1/GPa)
#
#
# Indices 1 2 3 4 5 6 
#
# 1 0.009236 -0.006687 -0.004169 0.000000 0.000000 0.000000
# 2 -0.006687 0.034671 -0.001133 0.000000 0.000000 0.000000
# 3 -0.004169 -0.001133 0.009896 0.000000 0.000000 0.000000
# 4 0.000000 0.000000 0.000000 0.041946 0.000000 0.000000
# 5 0.000000 0.000000 0.000000 0.000000 0.042136 0.000000
# 6 0.000000 0.000000 0.000000 0.000000 0.000000 -0.008752
#
#
# Mechanical properties :
#
#
# Convention : Reuss Voigt Hill
#
# Bulk Modulus (GPa) = 33.52801 65.84015 49.68408
# Shear Modulus (GPa) = 30.66523 0.65469 15.65996
#
# Velocity S-wave (km/s) = 3.87684 0.56646 2.77045
# Velocity P-wave (km/s) = 6.03928 5.71821 5.88094
#
# Compressibility (1/GPa) = 0.02982581
#
# Stress axis : x y z
#
# Youngs Moduli (GPa) = 108.27043 28.84285 101.05300
#
# Poissons Ratio (x) = 0.19286 0.42130
# Poissons Ratio (y) = 0.72396 0.11447
# Poissons Ratio (z) = 0.45139 0.03267
#
# Static dielectric constant tensor:
#      x y z
#    x 1.747240 0.000000 0.000000 
#    y 0.000000 1.868530 0.000000 
#    z 0.000000 0.000000 1.822720 
# 
# From -- ./inp_files/8707.got.cif
#   From: 2010.05.17/outbox.cif.g08.bks.cpg/sg53_5_cif.got.tgz:8707.got - 2010.06.03 12:45:16.
