data_PCOD9418650
_publ_section_title
;
Structure prediction by ZEFSAII (Michael W. Deem and Ramdas Pophale) SiO2 
 PCOD9418650
Probable space group: P M N A
;
_chemical_formula_sum "Si O2"
_cell_formula_units_Z 44
_cell_length_a 18.552763
_cell_length_b 9.447396
_cell_length_c 11.804551
_cell_angle_alpha 90.000000
_cell_angle_beta 90.000000
_cell_angle_gamma 90.000000
_cell_volume 2069.046206
_symmetry_space_group_name_H-M "P M N A"
_symmetry_group_IT_number 53
_symmetry_cell_setting 'orthorhombic'
loop_
_space_group_symop_operation_xyz
x,y,z
1/2-x,-y,1/2+z
x,-y,-z
1/2-x,y,1/2-z
-x,-y,-z
1/2+x,y,1/2-z
-x,y,z
1/2+x,-y,1/2+z
loop_
_atom_site_type_symbol
_atom_site_label
_atom_site_fract_x
_atom_site_fract_y
_atom_site_fract_z
Si Si1 0.164103 0.082713 0.253979
Si Si2 0.080979 0.510161 0.287895
Si Si3 0.180265 0.330065 0.433034
Si Si4 0.915976 0.281907 0.084261
Si Si5 0.172599 0.226396 0.690624
Si Si6 0.313781 0.500000 0.500000
O O1 0.250000 0.063404 0.250000
O O2 0.161774 0.199440 0.351737
O O3 0.125858 0.148431 0.141909
O O4 0.137307 0.927279 0.288521
O O5 0.118934 0.437446 0.394239
O O6 0.082253 0.399004 0.184910
O O7 0.124596 0.649530 0.259636
O O8 0.000000 0.547764 0.315149
O O9 0.182326 0.265545 0.558360
O O10 0.254692 0.421856 0.416271
O O11 0.000000 0.252120 0.053613
O O12 0.868479 0.365160 0.990430
O O13 0.250000 0.232699 0.750000
#
# Coordination Sequence:
#
# PCOD9418650 Si02
#       6
#     8   8   8   8   8   4
#     4  10  21  38  58  84 121 158 199 245 297 364
#     4  10  22  38  58  86 121 153 198 255 304 358
#     4  11  21  36  60  90 113 156 202 252 301 358
#     4  10  22  38  59  88 120 156 200 253 308 359
#     4  11  22  36  57  87 118 160 201 245 300 366
#     4  12  19  34  65  88 116 156 204 258 297 362
#
# _framework density 21.265837999999999
#
# number of rings (size 3 to 8) (size 9 to 14) (size 15 to 20)
#    0.000    1.455    3.636    1.909    0.000    2.182 
#    0.000    0.000    0.000    5.455    0.000    6.364 
#    0.000    0.000    0.000    0.000    0.000    0.000 
#
# Total GULP energy -245023.963147 kJ/mol
# GULP energy per Si atom -5568.726435 kJ/mol
# Density = 2.121744 g / cm^3
# Si number density = 21.265838 Si / 1000 Ang^3
#
#
#
# Elastic Constant Matrix: (Units=GPa)
#
#
# Indices 1 2 3 4 5 6 
#
# 1 127.2615 44.8436 21.4051 0.0000 0.0000 0.0000
# 2 44.8436 156.3057 27.6126 0.0000 0.0000 0.0000
# 3 21.4051 27.6126 87.0151 0.0000 0.0000 0.0000
# 4 0.0000 0.0000 0.0000 71.5249 0.0000 0.0000
# 5 0.0000 0.0000 0.0000 0.0000 16.8461 0.0000
# 6 0.0000 0.0000 0.0000 0.0000 0.0000 -27.1623
#
#
#
# Elastic Compliance Matrix: (Units=1/GPa)
#
#
# Indices 1 2 3 4 5 6 
#
# 1 0.008914 -0.002299 -0.001463 0.000000 0.000000 0.000000
# 2 -0.002299 0.007371 -0.001773 0.000000 0.000000 0.000000
# 3 -0.001463 -0.001773 0.012415 0.000000 0.000000 0.000000
# 4 0.000000 0.000000 0.000000 0.013981 0.000000 0.000000
# 5 0.000000 0.000000 0.000000 0.000000 0.059361 0.000000
# 6 0.000000 0.000000 0.000000 0.000000 0.000000 -0.036816
#
#
# Mechanical properties :
#
#
# Convention : Reuss Voigt Hill
#
# Bulk Modulus (GPa) = 56.72666 62.03390 59.38028
# Shear Modulus (GPa) = 60.84719 30.68980 45.76849
#
# Velocity S-wave (km/s) = 5.35488 3.80300 4.64422
# Velocity P-wave (km/s) = 8.06015 6.96547 7.53272
#
# Compressibility (1/GPa) = 0.01762840
#
# Stress axis : x y z
#
# Youngs Moduli (GPa) = 112.18269 135.67502 80.54796
#
# Poissons Ratio (x) = 0.31190 0.11786
# Poissons Ratio (y) = 0.25790 0.14284
# Poissons Ratio (z) = 0.16415 0.24060
#
# Static dielectric constant tensor:
#      x y z
#    x 1.828030 0.000000 0.000000 
#    y 0.000000 1.813660 0.000000 
#    z 0.000000 0.000000 1.999740 
# 
# From -- ./inp_files/23551.got.cif
#   From: 2010.05.17/outbox.cif.g08.bks.cpg/sg53_12_cif.got.tgz:23551.got - 2010.06.03 12:45:16.
