data_PCOD9418732
_publ_section_title
;
Structure prediction by ZEFSAII (Michael W. Deem and Ramdas Pophale) SiO2 
 PCOD9418732
Probable space group: P M N A
;
_chemical_formula_sum "Si O2"
_cell_formula_units_Z 48
_cell_length_a 9.377941
_cell_length_b 30.382365
_cell_length_c 8.862453
_cell_angle_alpha 90.000000
_cell_angle_beta 90.000000
_cell_angle_gamma 90.000000
_cell_volume 2525.125793
_symmetry_space_group_name_H-M "P M N A"
_symmetry_group_IT_number 53
_symmetry_cell_setting 'orthorhombic'
loop_
_space_group_symop_operation_xyz
x,y,z
1/2-x,-y,1/2+z
x,-y,-z
1/2-x,y,1/2-z
-x,-y,-z
1/2+x,y,1/2-z
-x,y,z
1/2+x,-y,1/2+z
loop_
_atom_site_type_symbol
_atom_site_label
_atom_site_fract_x
_atom_site_fract_y
_atom_site_fract_z
Si Si1 0.825242 0.622827 0.915609
Si Si2 0.668306 0.454790 0.906381
Si Si3 0.500000 0.951750 0.929303
Si Si4 0.670002 0.807179 0.911066
Si Si5 0.251551 0.104966 0.930071
Si Si6 0.828641 0.708274 0.587534
Si Si7 0.500000 0.950904 0.568460
O O1 0.750000 0.619725 0.750000
O O2 0.758780 0.668009 0.985337
O O3 0.000000 0.623153 0.907959
O O4 0.760023 0.582300 0.007800
O O5 0.750000 0.462321 0.750000
O O6 0.500000 0.442217 0.887531
O O7 0.670277 0.500000 0.000000
O O8 0.500000 0.954372 0.748931
O O9 0.374381 0.923207 0.995212
O O10 0.500000 0.000000 0.000000
O O11 0.750000 0.810117 0.750000
O O12 0.500000 0.814266 0.888935
O O13 0.686552 0.757609 0.975836
O O14 0.732642 0.844732 0.017755
O O15 0.250000 0.102192 0.750000
O O16 0.124727 0.078837 0.005218
O O17 0.750000 0.711713 0.750000
O O18 0.000000 0.698878 0.601244
O O19 0.500000 0.000000 0.500000
#
# Coordination Sequence:
#
# PCOD9418732 Si02
#       7
#     8   8   4   8   8   8   4
#     4  11  21  36  60  90 126 165 210 260 313 372
#     4  11  24  41  62  89 122 162 209 260 319 381
#     4  12  24  44  68  90 124 158 200 252 297 368
#     4  10  21  38  62  91 122 160 206 255 306 365
#     4  12  25  42  62  91 126 161 201 249 307 366
#     4   9  17  32  56  86 120 157 203 254 303 361
#     4  12  26  44  66  94 120 160 204 244 307 364
#
# _framework density 19.008955
#
# number of rings (size 3 to 8) (size 9 to 14) (size 15 to 20)
#    0.000    1.167    0.833    7.500    1.167    3.333 
#    0.000    0.833    0.000    2.000    0.000    0.000 
#    0.000    0.000    0.000    0.000    0.000    0.000 
#
# Total GULP energy -267574.614913 kJ/mol
# GULP energy per Si atom -5574.471144 kJ/mol
# Density = 1.896569 g / cm^3
# Si number density = 19.008955 Si / 1000 Ang^3
#
#
#
# Elastic Constant Matrix: (Units=GPa)
#
#
# Indices 1 2 3 4 5 6 
#
# 1 200.4914 82.5412 55.3289 0.0000 0.0000 0.0000
# 2 82.5412 168.2463 66.3504 0.0000 0.0000 0.0000
# 3 55.3289 66.3504 134.9732 0.0000 0.0000 0.0000
# 4 0.0000 0.0000 0.0000 35.4153 0.0000 0.0000
# 5 0.0000 0.0000 0.0000 0.0000 17.1636 0.0000
# 6 0.0000 0.0000 0.0000 0.0000 0.0000 32.5863
#
#
#
# Elastic Compliance Matrix: (Units=1/GPa)
#
#
# Indices 1 2 3 4 5 6 
#
# 1 0.006442 -0.002629 -0.001349 0.000000 0.000000 0.000000
# 2 -0.002629 0.008446 -0.003074 0.000000 0.000000 0.000000
# 3 -0.001349 -0.003074 0.009473 0.000000 0.000000 0.000000
# 4 0.000000 0.000000 0.000000 0.028236 0.000000 0.000000
# 5 0.000000 0.000000 0.000000 0.000000 0.058263 0.000000
# 6 0.000000 0.000000 0.000000 0.000000 0.000000 0.030688
#
#
# Mechanical properties :
#
#
# Convention : Reuss Voigt Hill
#
# Bulk Modulus (GPa) = 97.48652 101.35023 99.41837
# Shear Modulus (GPa) = 31.43279 36.99908 34.21593
#
# Velocity S-wave (km/s) = 4.07083 4.41659 4.24723
# Velocity P-wave (km/s) = 8.57271 8.91298 8.74450
#
# Compressibility (1/GPa) = 0.01025783
#
# Stress axis : x y z
#
# Youngs Moduli (GPa) = 155.22871 118.40459 105.56429
#
# Poissons Ratio (x) = 0.31124 0.14236
# Poissons Ratio (y) = 0.40804 0.32452
# Poissons Ratio (z) = 0.20934 0.36400
#
# Static dielectric constant tensor:
#      x y z
#    x 1.628940 0.000000 0.000000 
#    y 0.000000 1.674490 0.000000 
#    z 0.000000 0.000000 1.638520 
# 
# From -- ./inp_files/6788.got.cif
#   From: 2010.05.17/outbox.cif.g08.bks.cpg/sg53_4_cif.got.tgz:6788.got - 2010.06.03 12:45:16.
