data_PCOD9418506
_publ_section_title
;
Structure prediction by ZEFSAII (Michael W. Deem and Ramdas Pophale) SiO2 
 PCOD9418506
Probable space group: P M N A
;
_chemical_formula_sum "Si O2"
_cell_formula_units_Z 40
_cell_length_a 11.163684
_cell_length_b 17.028054
_cell_length_c 9.117313
_cell_angle_alpha 90.000000
_cell_angle_beta 90.000000
_cell_angle_gamma 90.000000
_cell_volume 1733.163036
_symmetry_space_group_name_H-M "P M N A"
_symmetry_group_IT_number 53
_symmetry_cell_setting 'orthorhombic'
loop_
_space_group_symop_operation_xyz
x,y,z
1/2-x,-y,1/2+z
x,-y,-z
1/2-x,y,1/2-z
-x,-y,-z
1/2+x,y,1/2-z
-x,y,z
1/2+x,-y,1/2+z
loop_
_atom_site_type_symbol
_atom_site_label
_atom_site_fract_x
_atom_site_fract_y
_atom_site_fract_z
Si Si1 0.866749 0.956555 0.343768
Si Si2 0.369219 0.261280 0.456304
Si Si3 0.125715 0.665838 0.265409
Si Si4 0.129227 0.794997 0.503935
Si Si5 0.862903 0.556776 0.857351
O O1 0.750000 0.977253 0.250000
O O2 0.862209 0.864711 0.386509
O O3 0.000000 0.972585 0.278782
O O4 0.861466 0.000000 0.500000
O O5 0.500000 0.231175 0.412842
O O6 0.370399 0.270588 0.633951
O O7 0.254606 0.210494 0.412964
O O8 0.357008 0.351264 0.404230
O O9 0.250000 0.620889 0.250000
O O10 0.124057 0.712286 0.417288
O O11 0.000000 0.622390 0.247992
O O12 0.000000 0.804980 0.579960
O O13 0.750000 0.545713 0.750000
O O14 0.000000 0.547926 0.797703
O O15 0.853246 0.500000 0.000000
#
# Coordination Sequence:
#
# PCOD9418506 Si02
#       5
#     8   8   8   8   8
#     4  10  21  37  57  83 116 154 198 246 296 354
#     4   9  17  31  52  78 107 138 177 228 283 336
#     4   8  13  22  40  68  98 126 161 209 262 313
#     4   9  17  30  52  82 112 144 188 239 288 343
#     4  10  23  42  62  87 120 158 200 244 292 350
#
# _framework density 23.079190000000001
#
# number of rings (size 3 to 8) (size 9 to 14) (size 15 to 20)
#    0.000    2.800    0.000    1.800    0.000    6.400 
#    0.000    3.000    0.000    4.800    0.000    0.000 
#    0.000    0.000    0.000    0.000    0.000    0.000 
#
# Total GULP energy -222944.460238 kJ/mol
# GULP energy per Si atom -5573.611506 kJ/mol
# Density = 2.302666 g / cm^3
# Si number density = 23.079190 Si / 1000 Ang^3
#
#
#
# Elastic Constant Matrix: (Units=GPa)
#
#
# Indices 1 2 3 4 5 6 
#
# 1 325.8885 23.5665 55.6240 0.0000 0.0000 0.0000
# 2 23.5665 33.6502 -5.7233 0.0000 0.0000 0.0000
# 3 55.6240 -5.7233 64.0780 0.0000 0.0000 0.0000
# 4 0.0000 0.0000 0.0000 15.1063 0.0000 0.0000
# 5 0.0000 0.0000 0.0000 0.0000 11.1160 0.0000
# 6 0.0000 0.0000 0.0000 0.0000 0.0000 14.2388
#
#
#
# Elastic Compliance Matrix: (Units=1/GPa)
#
#
# Indices 1 2 3 4 5 6 
#
# 1 0.003952 -0.003403 -0.003735 0.000000 0.000000 0.000000
# 2 -0.003403 0.033106 0.005911 0.000000 0.000000 0.000000
# 3 -0.003735 0.005911 0.019376 0.000000 0.000000 0.000000
# 4 0.000000 0.000000 0.000000 0.066198 0.000000 0.000000
# 5 0.000000 0.000000 0.000000 0.000000 0.089961 0.000000
# 6 0.000000 0.000000 0.000000 0.000000 0.000000 0.070231
#
#
# Mechanical properties :
#
#
# Convention : Reuss Voigt Hill
#
# Bulk Modulus (GPa) = 18.52512 63.39456 40.95984
# Shear Modulus (GPa) = 16.48696 31.43550 23.96123
#
# Velocity S-wave (km/s) = 2.67566 3.69463 3.22563
# Velocity P-wave (km/s) = 4.19401 6.76227 5.62663
#
# Compressibility (1/GPa) = 0.05398076
#
# Stress axis : x y z
#
# Youngs Moduli (GPa) = 253.03302 30.20593 51.61075
#
# Poissons Ratio (x) = 0.10279 0.19275
# Poissons Ratio (y) = 0.86106 -0.30507
# Poissons Ratio (z) = 0.94498 -0.17855
#
# Static dielectric constant tensor:
#      x y z
#    x 2.009030 0.000000 0.000000 
#    y 0.000000 1.835750 0.000000 
#    z 0.000000 0.000000 1.882990 
# 
# From -- ./inp_files/7420.got.cif
#   From: 2010.05.17/outbox.cif.g08.bks.cpg/sg53_4_cif.got.tgz:7420.got - 2010.06.03 12:45:16.
