data_PCOD9418230
_publ_section_title
;
Structure prediction by ZEFSAII (Michael W. Deem and Ramdas Pophale) SiO2 
 PCOD9418230
Probable space group: P M N A
;
_chemical_formula_sum "Si O2"
_cell_formula_units_Z 64
_cell_length_a 16.830114
_cell_length_b 14.653237
_cell_length_c 12.520254
_cell_angle_alpha 90.000000
_cell_angle_beta 90.000000
_cell_angle_gamma 90.000000
_cell_volume 3087.690568
_symmetry_space_group_name_H-M "P M N A"
_symmetry_group_IT_number 53
_symmetry_cell_setting 'orthorhombic'
loop_
_space_group_symop_operation_xyz
x,y,z
1/2-x,-y,1/2+z
x,-y,-z
1/2-x,y,1/2-z
-x,-y,-z
1/2+x,y,1/2-z
-x,y,z
1/2+x,-y,1/2+z
loop_
_atom_site_type_symbol
_atom_site_label
_atom_site_fract_x
_atom_site_fract_y
_atom_site_fract_z
Si Si1 0.909149 0.296273 0.011479
Si Si2 0.593457 0.181949 0.704889
Si Si3 0.904147 0.014440 0.124047
Si Si4 0.591831 0.496896 0.212981
Si Si5 0.811138 0.557080 0.093641
Si Si6 0.160099 0.795519 0.788705
Si Si7 0.591998 0.690468 0.907593
Si Si8 0.664002 0.320197 0.870620
O O1 0.853785 0.269469 0.109400
O O2 0.000000 0.294518 0.048974
O O3 0.901201 0.225672 0.913438
O O4 0.885121 0.392563 0.961712
O O5 0.500000 0.188929 0.736155
O O6 0.645115 0.240144 0.787535
O O7 0.615499 0.076310 0.691225
O O8 0.866374 0.104567 0.173339
O O9 0.000000 0.024754 0.124474
O O10 0.880673 0.000000 0.000000
O O11 0.500000 0.490205 0.248996
O O12 0.654413 0.497968 0.310022
O O13 0.607381 0.412038 0.135594
O O14 0.606005 0.594506 0.157128
O O15 0.751111 0.635025 0.132205
O O16 0.770113 0.500000 0.000000
O O17 0.250000 0.794392 0.750000
O O18 0.108334 0.757529 0.690795
O O19 0.500000 0.695827 0.939873
O O20 0.645913 0.711066 0.009433
#
# Coordination Sequence:
#
# PCOD9418230 Si02
#       8
#     8   8   8   8   8   8   8   8
#     4  11  22  41  70  98 128 174 226 281 334 388
#     4  10  21  40  71 103 128 168 230 285 330 390
#     4  10  20  42  75 102 126 165 219 276 333 396
#     4  11  23  40  63  92 126 173 233 280 325 397
#     4  12  25  39  60  97 138 175 221 284 347 391
#     4  12  25  43  63 100 141 169 212 271 340 408
#     4  11  24  42  66  90 128 184 227 268 323 399
#     4  12  24  42  63  95 136 179 223 270 337 406
#
# _framework density 20.727466
#
# number of rings (size 3 to 8) (size 9 to 14) (size 15 to 20)
#    0.000    0.875    2.500    5.625    0.000    4.000 
#    2.250    0.625    0.000    2.250    0.000    0.000 
#    0.000    0.000    0.000    0.000    0.000    0.000 
#
# Total GULP energy -358201.641300 kJ/mol
# GULP energy per Si atom -5596.900645 kJ/mol
# Density = 2.068029 g / cm^3
# Si number density = 20.727466 Si / 1000 Ang^3
#
#
#
# Elastic Constant Matrix: (Units=GPa)
#
#
# Indices 1 2 3 4 5 6 
#
# 1 69.8482 15.3771 32.3764 0.0000 0.0000 0.0000
# 2 15.3771 75.3546 25.0575 0.0000 0.0000 0.0000
# 3 32.3764 25.0575 108.0203 0.0000 0.0000 0.0000
# 4 0.0000 0.0000 0.0000 26.9197 0.0000 0.0000
# 5 0.0000 0.0000 0.0000 0.0000 32.2307 0.0000
# 6 0.0000 0.0000 0.0000 0.0000 0.0000 12.6194
#
#
#
# Elastic Compliance Matrix: (Units=1/GPa)
#
#
# Indices 1 2 3 4 5 6 
#
# 1 0.016876 -0.001909 -0.004615 0.000000 0.000000 0.000000
# 2 -0.001909 0.014596 -0.002814 0.000000 0.000000 0.000000
# 3 -0.004615 -0.002814 0.011294 0.000000 0.000000 0.000000
# 4 0.000000 0.000000 0.000000 0.037147 0.000000 0.000000
# 5 0.000000 0.000000 0.000000 0.000000 0.031026 0.000000
# 6 0.000000 0.000000 0.000000 0.000000 0.000000 0.079243
#
#
# Mechanical properties :
#
#
# Convention : Reuss Voigt Hill
#
# Bulk Modulus (GPa) = 41.51185 44.31613 42.91399
# Shear Modulus (GPa) = 23.05328 26.38143 24.71736
#
# Velocity S-wave (km/s) = 3.33860 3.57147 3.45700
# Velocity P-wave (km/s) = 5.91038 6.19952 6.05667
#
# Compressibility (1/GPa) = 0.02408951
#
# Stress axis : x y z
#
# Youngs Moduli (GPa) = 59.25422 68.51300 88.54613
#
# Poissons Ratio (x) = 0.13080 0.40868
# Poissons Ratio (y) = 0.11312 0.24913
# Poissons Ratio (z) = 0.27348 0.19277
#
# Static dielectric constant tensor:
#      x y z
#    x 1.752060 0.000000 0.000000 
#    y 0.000000 1.732380 0.000000 
#    z 0.000000 0.000000 1.747510 
# 
# From -- ./inp_files/17089.got.cif
#   From: 2010.05.17/outbox.cif.g08.bks.cpg/sg53_9_cif.got.tgz:17089.got - 2010.06.03 12:45:16.
