data_PCOD9418696
_publ_section_title
;
Structure prediction by ZEFSAII (Michael W. Deem and Ramdas Pophale) SiO2 
 PCOD9418696
Probable space group: P M N A
;
_chemical_formula_sum "Si O2"
_cell_formula_units_Z 48
_cell_length_a 13.842698
_cell_length_b 7.862857
_cell_length_c 22.186800
_cell_angle_alpha 90.000000
_cell_angle_beta 90.000000
_cell_angle_gamma 90.000000
_cell_volume 2414.881308
_symmetry_space_group_name_H-M "P M N A"
_symmetry_group_IT_number 53
_symmetry_cell_setting 'orthorhombic'
loop_
_space_group_symop_operation_xyz
x,y,z
1/2-x,-y,1/2+z
x,-y,-z
1/2-x,y,1/2-z
-x,-y,-z
1/2+x,y,1/2-z
-x,y,z
1/2+x,-y,1/2+z
loop_
_atom_site_type_symbol
_atom_site_label
_atom_site_fract_x
_atom_site_fract_y
_atom_site_fract_z
Si Si1 0.718413 0.392276 0.946311
Si Si2 0.205059 0.709956 0.873761
Si Si3 0.389938 0.583319 0.747519
Si Si4 0.391621 0.109141 0.157754
Si Si5 0.605864 0.199413 0.488074
Si Si6 0.613325 0.272483 0.831263
O O1 0.762753 0.534793 0.903469
O O2 0.805519 0.289447 0.977568
O O3 0.656181 0.285895 0.898841
O O4 0.666945 0.500000 0.000000
O O5 0.171310 0.661208 0.807078
O O6 0.295611 0.839978 0.878865
O O7 0.120669 0.776285 0.916717
O O8 0.500000 0.546303 0.726195
O O9 0.395690 0.735124 0.795779
O O10 0.352798 0.414325 0.782823
O O11 0.500000 0.101522 0.128719
O O12 0.375190 0.924297 0.187577
O O13 0.500000 0.265547 0.506803
O O14 0.609689 0.000000 0.500000
O O15 0.500000 0.310058 0.836861
#
# Coordination Sequence:
#
# PCOD9418696 Si02
#       6
#     8   8   8   8   8   8
#     4  10  22  37  61  88 116 158 208 249 305 366
#     4  11  21  38  62  89 121 160 204 256 308 368
#     4  10  21  39  61  88 121 158 202 250 309 370
#     4  10  21  38  60  88 124 159 197 249 307 367
#     4  10  22  41  61  87 125 163 207 261 307 361
#     4  10  21  40  62  87 124 161 200 257 310 364
#
# _framework density 19.876753999999998
#
# number of rings (size 3 to 8) (size 9 to 14) (size 15 to 20)
#    0.000    1.833    1.667    2.000    0.000    4.000 
#    9.000    2.500    0.000    9.000    0.000    0.000 
#    0.000    0.000    0.000    0.000    0.000    0.000 
#
# Total GULP energy -267334.411913 kJ/mol
# GULP energy per Si atom -5569.466915 kJ/mol
# Density = 1.983151 g / cm^3
# Si number density = 19.876754 Si / 1000 Ang^3
#
#
#
# Elastic Constant Matrix: (Units=GPa)
#
#
# Indices 1 2 3 4 5 6 
#
# 1 81.8950 26.1627 19.3453 0.0000 0.0000 0.0000
# 2 26.1627 107.2499 13.7435 0.0000 0.0000 0.0000
# 3 19.3453 13.7435 45.7842 0.0000 0.0000 0.0000
# 4 0.0000 0.0000 0.0000 13.7849 0.0000 0.0000
# 5 0.0000 0.0000 0.0000 0.0000 23.4136 0.0000
# 6 0.0000 0.0000 0.0000 0.0000 0.0000 10.4522
#
#
#
# Elastic Compliance Matrix: (Units=1/GPa)
#
#
# Indices 1 2 3 4 5 6 
#
# 1 0.014347 -0.002832 -0.005212 0.000000 0.000000 0.000000
# 2 -0.002832 0.010256 -0.001882 0.000000 0.000000 0.000000
# 3 -0.005212 -0.001882 0.024609 0.000000 0.000000 0.000000
# 4 0.000000 0.000000 0.000000 0.072543 0.000000 0.000000
# 5 0.000000 0.000000 0.000000 0.000000 0.042710 0.000000
# 6 0.000000 0.000000 0.000000 0.000000 0.000000 0.095674
#
#
# Mechanical properties :
#
#
# Convention : Reuss Voigt Hill
#
# Bulk Modulus (GPa) = 34.06021 39.27022 36.66522
# Shear Modulus (GPa) = 17.25466 21.24197 19.24831
#
# Velocity S-wave (km/s) = 2.94952 3.27262 3.11526
# Velocity P-wave (km/s) = 5.36400 5.83779 5.60590
#
# Compressibility (1/GPa) = 0.02935977
#
# Stress axis : x y z
#
# Youngs Moduli (GPa) = 69.70306 97.50384 40.63594
#
# Poissons Ratio (x) = 0.27612 0.21179
# Poissons Ratio (y) = 0.19739 0.07648
# Poissons Ratio (z) = 0.36328 0.18351
#
# Static dielectric constant tensor:
#      x y z
#    x 1.798550 0.000000 0.000000 
#    y 0.000000 1.709260 0.000000 
#    z 0.000000 0.000000 1.741600 
# 
# From -- ./inp_files/32267.got.cif
#   From: 2010.05.17/outbox.cif.g08.bks.cpg/sg53_17_cif.got.tgz:32267.got - 2010.06.03 12:45:16.
