data_PCOD9418404
_publ_section_title
;
Structure prediction by ZEFSAII (Michael W. Deem and Ramdas Pophale) SiO2 
 PCOD9418404
Probable space group: P M N A
;
_chemical_formula_sum "Si O2"
_cell_formula_units_Z 48
_cell_length_a 8.694553
_cell_length_b 31.823742
_cell_length_c 9.226125
_cell_angle_alpha 90.000000
_cell_angle_beta 90.000000
_cell_angle_gamma 90.000000
_cell_volume 2552.806156
_symmetry_space_group_name_H-M "P M N A"
_symmetry_group_IT_number 53
_symmetry_cell_setting 'orthorhombic'
loop_
_space_group_symop_operation_xyz
x,y,z
1/2-x,-y,1/2+z
x,-y,-z
1/2-x,y,1/2-z
-x,-y,-z
1/2+x,y,1/2-z
-x,y,z
1/2+x,-y,1/2+z
loop_
_atom_site_type_symbol
_atom_site_label
_atom_site_fract_x
_atom_site_fract_y
_atom_site_fract_z
Si Si1 0.314131 0.541597 0.912106
Si Si2 0.184272 0.870568 0.912394
Si Si3 0.684697 0.786933 0.411796
Si Si4 0.684960 0.291923 0.087954
Si Si5 0.185512 0.375510 0.588051
Si Si6 0.184448 0.041400 0.411587
O O1 0.250000 0.541421 0.750000
O O2 0.500000 0.541772 0.904775
O O3 0.266288 0.500000 0.000000
O O4 0.264763 0.583183 0.999400
O O5 0.250000 0.864694 0.750000
O O6 0.249745 0.914670 0.970908
O O7 0.000000 0.873330 0.903052
O O8 0.226152 0.830973 0.011383
O O9 0.750000 0.785113 0.250000
O O10 0.500000 0.783744 0.408058
O O11 0.751605 0.748828 0.505839
O O12 0.750000 0.293792 0.250000
O O13 0.500000 0.290132 0.093224
O O14 0.731062 0.333556 0.998564
O O15 0.250000 0.375539 0.750000
O O16 0.000000 0.376119 0.595958
O O17 0.250000 0.037572 0.250000
O O18 0.000000 0.044040 0.407080
O O19 0.229156 0.000000 0.500000
#
# Coordination Sequence:
#
# PCOD9418404 Si02
#       6
#     8   8   8   8   8   8
#     4  10  21  37  57  83 114 148 189 234 281 335
#     4  10  21  37  58  82 109 144 184 227 275 328
#     4  11  24  40  59  85 115 148 187 232 282 334
#     4  11  23  39  60  85 114 149 189 232 280 336
#     4  10  22  38  57  84 115 148 188 233 281 335
#     4  10  21  36  56  82 111 145 184 226 273 326
#
# _framework density 18.802837
#
# number of rings (size 3 to 8) (size 9 to 14) (size 15 to 20)
#    0.000    1.667    0.000    5.000    0.000    9.667 
#    0.000    3.333    0.000    0.000    0.000    0.000 
#    0.000    0.000    0.000    0.000    0.000    0.000 
#
# Total GULP energy -268310.187651 kJ/mol
# GULP energy per Si atom -5589.795576 kJ/mol
# Density = 1.876004 g / cm^3
# Si number density = 18.802837 Si / 1000 Ang^3
#
#
#
# Elastic Constant Matrix: (Units=GPa)
#
#
# Indices 1 2 3 4 5 6 
#
# 1 41.9776 60.0689 44.7060 0.0000 0.0000 0.0000
# 2 60.0689 228.0769 125.8434 0.0000 0.0000 0.0000
# 3 44.7060 125.8434 173.6131 0.0000 0.0000 0.0000
# 4 0.0000 0.0000 0.0000 50.6184 0.0000 0.0000
# 5 0.0000 0.0000 0.0000 0.0000 34.4100 0.0000
# 6 0.0000 0.0000 0.0000 0.0000 0.0000**********
#
#
#
# Elastic Compliance Matrix: (Units=1/GPa)
#
#
# Indices 1 2 3 4 5 6 
#
# 1 0.040203 -0.008126 -0.004462 0.000000 0.000000 0.000000
# 2 -0.008126 0.008949 -0.004394 0.000000 0.000000 0.000000
# 3 -0.004462 -0.004394 0.010094 0.000000 0.000000 0.000000
# 4 0.000000 0.000000 0.000000 0.019756 0.000000 0.000000
# 5 0.000000 0.000000 0.000000 0.000000 0.029061 0.000000
# 6 0.000000 0.000000 0.000000 0.000000 0.000000 -0.000014
#
#
# Mechanical properties :
#
#
# Convention : Reuss Voigt Hill
#
# Bulk Modulus (GPa) = 39.55553 100.54491 70.05022
# Shear Modulus (GPa) = 33.23551 -14063.07459 -7014.91954
#
# Velocity S-wave (km/s) = 4.20882 -86.57636 -61.14635
# Velocity P-wave (km/s) = 6.68592 99.70139 70.34083
#
# Compressibility (1/GPa) = 0.02528091
#
# Stress axis : x y z
#
# Youngs Moduli (GPa) = 24.87391 111.73980 99.06685
#
# Poissons Ratio (x) = 0.90803 0.44204
# Poissons Ratio (y) = 0.20213 0.43534
# Poissons Ratio (z) = 0.11099 0.49103
#
# Static dielectric constant tensor:
#      x y z
#    x 1.636400 0.000000 0.000000 
#    y 0.000000 1.650500 0.000000 
#    z 0.000000 0.000000 1.601580 
# 
# From -- ./inp_files/6756.got.cif
#   From: 2010.05.17/outbox.cif.g08.bks.cpg/sg53_4_cif.got.tgz:6756.got - 2010.06.03 12:45:16.
