data_PCOD9418577
_publ_section_title
;
Structure prediction by ZEFSAII (Michael W. Deem and Ramdas Pophale) SiO2 
 PCOD9418577
Probable space group: P M N A
;
_chemical_formula_sum "Si O2"
_cell_formula_units_Z 40
_cell_length_a 14.098950
_cell_length_b 15.551143
_cell_length_c 8.458200
_cell_angle_alpha 90.000000
_cell_angle_beta 90.000000
_cell_angle_gamma 90.000000
_cell_volume 1854.500844
_symmetry_space_group_name_H-M "P M N A"
_symmetry_group_IT_number 53
_symmetry_cell_setting 'orthorhombic'
loop_
_space_group_symop_operation_xyz
x,y,z
1/2-x,-y,1/2+z
x,-y,-z
1/2-x,y,1/2-z
-x,-y,-z
1/2+x,y,1/2-z
-x,y,z
1/2+x,-y,1/2+z
loop_
_atom_site_type_symbol
_atom_site_label
_atom_site_fract_x
_atom_site_fract_y
_atom_site_fract_z
Si Si1 0.797225 0.398383 0.509278
Si Si2 0.105600 0.166058 0.978132
Si Si3 0.286404 0.916634 0.928746
Si Si4 0.891722 0.342721 0.833350
Si Si5 0.610395 0.748881 0.825989
O O1 0.810940 0.500000 0.500000
O O2 0.858449 0.368556 0.660089
O O3 0.687054 0.380483 0.548501
O O4 0.833953 0.338194 0.367524
O O5 0.191693 0.100991 0.969700
O O6 0.117084 0.218556 0.144460
O O7 0.000000 0.127767 0.977858
O O8 0.112361 0.239693 0.847662
O O9 0.250000 0.931885 0.750000
O O10 0.346297 0.828822 0.923915
O O11 0.336689 0.000000 0.000000
O O12 0.000000 0.368958 0.868167
O O13 0.500000 0.736142 0.861812
#
# Coordination Sequence:
#
# PCOD9418577 Si02
#       5
#     8   8   8   8   8
#     4  11  24  40  61  89 124 161 202 250 299 353
#     4   9  19  38  63  87 118 161 201 243 301 361
#     4  10  21  37  59  88 121 155 198 248 303 361
#     4  10  22  40  61  88 120 157 203 247 295 351
#     4  10  21  39  62  86 121 161 199 248 302 360
#
# _framework density 21.569144999999999
#
# number of rings (size 3 to 8) (size 9 to 14) (size 15 to 20)
#    0.000    2.000    2.000    0.600    0.000    7.600 
#    0.000    2.000    0.000    0.000    0.000    0.000 
#    0.000    0.000    0.000    0.000    0.000    0.000 
#
# Total GULP energy -223499.408149 kJ/mol
# GULP energy per Si atom -5587.485204 kJ/mol
# Density = 2.152005 g / cm^3
# Si number density = 21.569145 Si / 1000 Ang^3
#
#
#
# Elastic Constant Matrix: (Units=GPa)
#
#
# Indices 1 2 3 4 5 6 
#
# 1 123.9649 39.1067 22.7669 0.0000 0.0000 0.0000
# 2 39.1067 101.4350 13.6957 0.0000 0.0000 0.0000
# 3 22.7669 13.6957 23.0068 0.0000 0.0000 0.0000
# 4 0.0000 0.0000 0.0000 7.5768 0.0000 0.0000
# 5 0.0000 0.0000 0.0000 0.0000 7.1130 0.0000
# 6 0.0000 0.0000 0.0000 0.0000 0.0000 -0.8348
#
#
#
# Elastic Compliance Matrix: (Units=1/GPa)
#
#
# Indices 1 2 3 4 5 6 
#
# 1 0.010589 -0.002901 -0.008752 0.000000 0.000000 0.000000
# 2 -0.002901 0.011515 -0.003984 0.000000 0.000000 0.000000
# 3 -0.008752 -0.003984 0.054498 0.000000 0.000000 0.000000
# 4 0.000000 0.000000 0.000000 0.131982 0.000000 0.000000
# 5 0.000000 0.000000 0.000000 0.000000 0.140589 0.000000
# 6 0.000000 0.000000 0.000000 0.000000 0.000000 -1.197841
#
#
# Mechanical properties :
#
#
# Convention : Reuss Voigt Hill
#
# Bulk Modulus (GPa) = 22.06135 44.39392 33.22764
# Shear Modulus (GPa) = -6.23220 14.29347 4.03064
#
# Velocity S-wave (km/s) = -1.70167 2.57705 1.36849
# Velocity P-wave (km/s) = 2.52775 5.42971 4.23505
#
# Compressibility (1/GPa) = 0.04532814
#
# Stress axis : x y z
#
# Youngs Moduli (GPa) = 94.43512 86.84461 18.34932
#
# Poissons Ratio (x) = 0.25192 0.16059
# Poissons Ratio (y) = 0.27394 0.07310
# Poissons Ratio (z) = 0.82650 0.34599
#
# Static dielectric constant tensor:
#      x y z
#    x 1.787730 0.000000 0.000000 
#    y 0.000000 1.783690 0.000000 
#    z 0.000000 0.000000 1.825820 
# 
# From -- ./inp_files/8366.got.cif
#   From: 2010.05.17/outbox.cif.g08.bks.cpg/sg53_5_cif.got.tgz:8366.got - 2010.06.03 12:45:16.
