data_PCOD9418338
_publ_section_title
;
Structure prediction by ZEFSAII (Michael W. Deem and Ramdas Pophale) SiO2 
 PCOD9418338
Probable space group: P M N A
;
_chemical_formula_sum "Si O2"
_cell_formula_units_Z 64
_cell_length_a 8.675867
_cell_length_b 18.138939
_cell_length_c 20.326183
_cell_angle_alpha 90.000000
_cell_angle_beta 90.000000
_cell_angle_gamma 90.000000
_cell_volume 3198.752198
_symmetry_space_group_name_H-M "P M N A"
_symmetry_group_IT_number 53
_symmetry_cell_setting 'orthorhombic'
loop_
_space_group_symop_operation_xyz
x,y,z
1/2-x,-y,1/2+z
x,-y,-z
1/2-x,y,1/2-z
-x,-y,-z
1/2+x,y,1/2-z
-x,y,z
1/2+x,-y,1/2+z
loop_
_atom_site_type_symbol
_atom_site_label
_atom_site_fract_x
_atom_site_fract_y
_atom_site_fract_z
Si Si1 0.685446 0.881579 0.323055
Si Si2 0.682091 0.258499 0.319262
Si Si3 0.323018 0.378244 0.998258
Si Si4 0.313457 0.074886 0.536685
Si Si5 0.185559 0.782532 0.538820
Si Si6 0.175044 0.413300 0.347194
Si Si7 0.682134 0.561921 0.377685
Si Si8 0.314489 0.283132 0.677320
O O1 0.750000 0.897019 0.250000
O O2 0.500000 0.883801 0.317050
O O3 0.732309 0.929306 0.386196
O O4 0.732092 0.798414 0.345122
O O5 0.750000 0.229931 0.250000
O O6 0.500000 0.247912 0.320645
O O7 0.754289 0.223891 0.385850
O O8 0.722713 0.345842 0.321942
O O9 0.500000 0.380542 0.973974
O O10 0.265507 0.293276 0.001492
O O11 0.326525 0.402487 0.073975
O O12 0.222294 0.432547 0.954539
O O13 0.500000 0.082015 0.534983
O O14 0.245437 0.145744 0.499090
O O15 0.269331 0.000000 0.500000
O O16 0.000000 0.781392 0.540657
O O17 0.238247 0.495489 0.338865
O O18 0.000000 0.405359 0.322572
O O19 0.500000 0.555575 0.367861
O O20 0.740575 0.642807 0.356788
O O21 0.250000 0.287423 0.750000
O O22 0.500000 0.284788 0.675931
#
# Coordination Sequence:
#
# PCOD9418338 Si02
#       8
#     8   8   8   8   8   8   8   8
#     4   9  18  35  58  83 113 151 194 236 281 337
#     4  11  22  39  62  85 111 147 195 247 300 357
#     4   9  19  34  51  72 100 136 178 225 279 339
#     4  10  21  38  61  90 124 159 193 234 288 348
#     4  10  21  38  60  87 117 150 191 239 293 352
#     4  10  21  36  51  72 105 142 183 233 288 343
#     4  11  21  31  47  73 103 137 180 230 285 342
#     4   9  19  33  48  69  97 130 172 219 264 317
#
# _framework density 20.007802000000002
#
# number of rings (size 3 to 8) (size 9 to 14) (size 15 to 20)
#    0.000    2.125    0.000    4.125    0.000    7.750 
#    0.000    4.375    0.000    1.500    0.000    0.000 
#    0.000    0.000    0.000    0.000    0.000    0.000 
#
# Total GULP energy -357067.627823 kJ/mol
# GULP energy per Si atom -5579.181685 kJ/mol
# Density = 1.996226 g / cm^3
# Si number density = 20.007802 Si / 1000 Ang^3
#
#
#
# Elastic Constant Matrix: (Units=GPa)
#
#
# Indices 1 2 3 4 5 6 
#
# 1 37.8742 22.0588 12.5199 0.0000 0.0000 0.0000
# 2 22.0588 92.6378 53.2918 0.0000 0.0000 0.0000
# 3 12.5199 53.2918 94.4629 0.0000 0.0000 0.0000
# 4 0.0000 0.0000 0.0000 22.2238 0.0000 0.0000
# 5 0.0000 0.0000 0.0000 0.0000 27.8635 0.0000
# 6 0.0000 0.0000 0.0000 0.0000 0.0000 34.8381
#
#
#
# Elastic Compliance Matrix: (Units=1/GPa)
#
#
# Indices 1 2 3 4 5 6 
#
# 1 0.030655 -0.007346 0.000082 0.000000 0.000000 0.000000
# 2 -0.007346 0.017742 -0.009036 0.000000 0.000000 0.000000
# 3 0.000082 -0.009036 0.015673 0.000000 0.000000 0.000000
# 4 0.000000 0.000000 0.000000 0.044997 0.000000 0.000000
# 5 0.000000 0.000000 0.000000 0.000000 0.035889 0.000000
# 6 0.000000 0.000000 0.000000 0.000000 0.000000 0.028704
#
#
# Mechanical properties :
#
#
# Convention : Reuss Voigt Hill
#
# Bulk Modulus (GPa) = 31.77736 44.52398 38.15067
# Shear Modulus (GPa) = 23.06800 26.12537 24.59669
#
# Velocity S-wave (km/s) = 3.39920 3.61745 3.51002
# Velocity P-wave (km/s) = 5.59670 6.30472 5.96123
#
# Compressibility (1/GPa) = 0.03146895
#
# Stress axis : x y z
#
# Youngs Moduli (GPa) = 32.62111 56.36360 63.80479
#
# Poissons Ratio (x) = 0.41407 -0.00521
# Poissons Ratio (y) = 0.23965 0.57651
# Poissons Ratio (z) = -0.00266 0.50928
#
# Static dielectric constant tensor:
#      x y z
#    x 1.689400 0.000000 0.000000 
#    y 0.000000 1.745610 0.000000 
#    z 0.000000 0.000000 1.766270 
# 
# From -- ./inp_files/31198.got.cif
#   From: 2010.05.17/outbox.cif.g08.bks.cpg/sg53_16_cif.got.tgz:31198.got - 2010.06.03 12:45:16.
