data_PCOD9418300
_publ_section_title
;
Structure prediction by ZEFSAII (Michael W. Deem and Ramdas Pophale) SiO2 
 PCOD9418300
Probable space group: P M N A
;
_chemical_formula_sum "Si O2"
_cell_formula_units_Z 48
_cell_length_a 8.983395
_cell_length_b 15.374729
_cell_length_c 17.832678
_cell_angle_alpha 90.000000
_cell_angle_beta 90.000000
_cell_angle_gamma 90.000000
_cell_volume 2463.000688
_symmetry_space_group_name_H-M "P M N A"
_symmetry_group_IT_number 53
_symmetry_cell_setting 'orthorhombic'
loop_
_space_group_symop_operation_xyz
x,y,z
1/2-x,-y,1/2+z
x,-y,-z
1/2-x,y,1/2-z
-x,-y,-z
1/2+x,y,1/2-z
-x,y,z
1/2+x,-y,1/2+z
loop_
_atom_site_type_symbol
_atom_site_label
_atom_site_fract_x
_atom_site_fract_y
_atom_site_fract_z
Si Si1 0.323696 0.666713 0.122073
Si Si2 0.324779 0.151770 0.623733
Si Si3 0.825347 0.851268 0.943852
Si Si4 0.320802 0.477437 0.173166
Si Si5 0.675807 0.329867 0.056523
Si Si6 0.676618 0.023027 0.173501
O O1 0.500000 0.679553 0.136813
O O2 0.234396 0.752687 0.144607
O O3 0.272422 0.576801 0.158860
O O4 0.306510 0.654984 0.032251
O O5 0.500000 0.143319 0.640096
O O6 0.303846 0.141116 0.533602
O O7 0.233391 0.075296 0.662197
O O8 0.769727 0.754995 0.922626
O O9 0.000000 0.862644 0.928387
O O10 0.734037 0.921412 0.896982
O O11 0.250000 0.445032 0.250000
O O12 0.500000 0.478262 0.178299
O O13 0.281449 0.413865 0.104719
O O14 0.500000 0.312209 0.069549
O O15 0.750000 0.057687 0.250000
O O16 0.500000 0.026034 0.178649
#
# Coordination Sequence:
#
# PCOD9418300 Si02
#       6
#     8   8   8   8   8   8
#     4   9  18  35  58  81 106 142 189 233 272 320
#     4  10  21  38  60  86 115 146 183 229 278 329
#     4  10  21  38  60  86 115 146 183 229 278 329
#     4  10  21  35  53  79 111 146 182 226 278 330
#     4   9  18  35  58  81 106 142 189 233 272 320
#     4  12  25  40  59  83 113 149 187 228 277 332
#
# _framework density 19.488424999999999
#
# number of rings (size 3 to 8) (size 9 to 14) (size 15 to 20)
#    0.000    2.000    0.000    3.500    0.000    8.667 
#    0.000    3.333    0.000    5.000    0.000    0.000 
#    0.000    0.000    0.000    0.000    0.000    0.000 
#
# Total GULP energy -268239.560160 kJ/mol
# GULP energy per Si atom -5588.324170 kJ/mol
# Density = 1.944407 g / cm^3
# Si number density = 19.488425 Si / 1000 Ang^3
#
#
#
# Elastic Constant Matrix: (Units=GPa)
#
#
# Indices 1 2 3 4 5 6 
#
# 1 79.5964 30.8592 30.9455 0.0000 0.0000 0.0000
# 2 30.8592 69.3784 14.2097 0.0000 0.0000 0.0000
# 3 30.9455 14.2097 25.5869 0.0000 0.0000 0.0000
# 4 0.0000 0.0000 0.0000 -24.5912 0.0000 0.0000
# 5 0.0000 0.0000 0.0000 0.0000 26.6085 0.0000
# 6 0.0000 0.0000 0.0000 0.0000 0.0000 25.4377
#
#
#
# Elastic Compliance Matrix: (Units=1/GPa)
#
#
# Indices 1 2 3 4 5 6 
#
# 1 0.025556 -0.005683 -0.027752 0.000000 0.000000 0.000000
# 2 -0.005683 0.017527 -0.002860 0.000000 0.000000 0.000000
# 3 -0.027752 -0.002860 0.074235 0.000000 0.000000 0.000000
# 4 0.000000 0.000000 0.000000 -0.040665 0.000000 0.000000
# 5 0.000000 0.000000 0.000000 0.000000 0.037582 0.000000
# 6 0.000000 0.000000 0.000000 0.000000 0.000000 0.039312
#
#
# Mechanical properties :
#
#
# Convention : Reuss Voigt Hill
#
# Bulk Modulus (GPa) = 22.35774 36.28785 29.32280
# Shear Modulus (GPa) = 20.74271 12.06082 16.40177
#
# Velocity S-wave (km/s) = 3.26599 2.49041 2.90421
# Velocity P-wave (km/s) = 5.07144 5.18943 5.13077
#
# Compressibility (1/GPa) = 0.04472723
#
# Stress axis : x y z
#
# Youngs Moduli (GPa) = 39.12930 57.05340 13.47070
#
# Poissons Ratio (x) = 0.32425 0.37384
# Poissons Ratio (y) = 0.22238 0.03853
# Poissons Ratio (z) = 1.08593 0.16319
#
# Static dielectric constant tensor:
#      x y z
#    x 1.648110 0.000000 0.000000 
#    y 0.000000 1.664580 0.000000 
#    z 0.000000 0.000000 1.685680 
# 
# From -- ./inp_files/9933.got.cif
#   From: 2010.05.17/outbox.cif.g08.bks.cpg/sg53_5_cif.got.tgz:9933.got - 2010.06.03 12:45:16.
