data_PCOD9418432
_publ_section_title
;
Structure prediction by ZEFSAII (Michael W. Deem and Ramdas Pophale) SiO2 
 PCOD9418432
Probable space group: P M N A
;
_chemical_formula_sum "Si O2"
_cell_formula_units_Z 48
_cell_length_a 8.387910
_cell_length_b 10.272252
_cell_length_c 29.673159
_cell_angle_alpha 90.000000
_cell_angle_beta 90.000000
_cell_angle_gamma 90.000000
_cell_volume 2556.720247
_symmetry_space_group_name_H-M "P M N A"
_symmetry_group_IT_number 53
_symmetry_cell_setting 'orthorhombic'
loop_
_space_group_symop_operation_xyz
x,y,z
1/2-x,-y,1/2+z
x,-y,-z
1/2-x,y,1/2-z
-x,-y,-z
1/2+x,y,1/2-z
-x,y,z
1/2+x,-y,1/2+z
loop_
_atom_site_type_symbol
_atom_site_label
_atom_site_fract_x
_atom_site_fract_y
_atom_site_fract_z
Si Si1 0.191095 0.009537 0.301328
Si Si2 0.693231 0.508181 0.371424
Si Si3 0.809015 0.787922 0.622066
Si Si4 0.691196 0.276413 0.699262
Si Si5 0.193277 0.865234 0.977347
Si Si6 0.305956 0.383759 0.532854
O O1 0.250000 0.032024 0.250000
O O2 0.246732 0.117634 0.337271
O O3 0.000000 0.010645 0.300158
O O4 0.246853 0.865245 0.315946
O O5 0.500000 0.502705 0.371706
O O6 0.753003 0.360394 0.370516
O O7 0.744408 0.601959 0.330863
O O8 0.746755 0.579644 0.417252
O O9 0.750498 0.838979 0.573428
O O10 0.000000 0.789870 0.621959
O O11 0.750000 0.294027 0.750000
O O12 0.500000 0.271475 0.698367
O O13 0.000000 0.863676 0.975918
O O14 0.247980 0.749652 0.010383
O O15 0.244506 0.000000 0.000000
O O16 0.258268 0.500000 0.500000
O O17 0.500000 0.379859 0.533847
#
# Coordination Sequence:
#
# PCOD9418432 Si02
#       6
#     8   8   8   8   8   8
#     4  10  22  40  60  83 113 150 189 234 284 338
#     4  10  21  37  59  85 112 148 192 234 277 334
#     4  11  24  39  56  83 120 153 186 234 290 340
#     4  10  21  37  61  88 115 147 186 235 286 342
#     4  10  21  36  59  85 111 149 193 236 277 330
#     4   9  16  32  56  81 110 140 182 235 273 313
#
# _framework density 18.774052999999999
#
# number of rings (size 3 to 8) (size 9 to 14) (size 15 to 20)
#    0.000    2.000    1.667    2.500    2.333    5.000 
#    0.000    5.000    0.000    0.000    0.000    0.000 
#    0.000    0.000    0.000    0.000    0.000    0.000 
#
# Total GULP energy -267923.719872 kJ/mol
# GULP energy per Si atom -5581.744164 kJ/mol
# Density = 1.873132 g / cm^3
# Si number density = 18.774053 Si / 1000 Ang^3
#
#
#
# Elastic Constant Matrix: (Units=GPa)
#
#
# Indices 1 2 3 4 5 6 
#
# 1 27.6615 28.9087 23.6604 0.0000 0.0000 0.0000
# 2 28.9087 214.5160 123.0060 0.0000 0.0000 0.0000
# 3 23.6604 123.0060 132.1347 0.0000 0.0000 0.0000
# 4 0.0000 0.0000 0.0000 43.1583 0.0000 0.0000
# 5 0.0000 0.0000 0.0000 0.0000 -364.8573 0.0000
# 6 0.0000 0.0000 0.0000 0.0000 0.0000 -23.8147
#
#
#
# Elastic Compliance Matrix: (Units=1/GPa)
#
#
# Indices 1 2 3 4 5 6 
#
# 1 0.043571 -0.002999 -0.005010 0.000000 0.000000 0.000000
# 2 -0.002999 0.010206 -0.008964 0.000000 0.000000 0.000000
# 3 -0.005010 -0.008964 0.016810 0.000000 0.000000 0.000000
# 4 0.000000 0.000000 0.000000 0.023170 0.000000 0.000000
# 5 0.000000 0.000000 0.000000 0.000000 -0.002741 0.000000
# 6 0.000000 0.000000 0.000000 0.000000 0.000000 -0.041991
#
#
# Mechanical properties :
#
#
# Convention : Reuss Voigt Hill
#
# Bulk Modulus (GPa) = 27.29207 80.60695 53.94951
# Shear Modulus (GPa) = 52.52998 -55.85359 -1.66180
#
# Velocity S-wave (km/s) = 5.29536 -5.46031 -0.94185
# Velocity P-wave (km/s) = 7.20808 1.80974 5.25508
#
# Compressibility (1/GPa) = 0.03664068
#
# Stress axis : x y z
#
# Youngs Moduli (GPa) = 22.95109 97.98568 59.49014
#
# Poissons Ratio (x) = 0.29383 0.29807
# Poissons Ratio (y) = 0.06882 0.53324
# Poissons Ratio (z) = 0.11499 0.87830
#
# Static dielectric constant tensor:
#      x y z
#    x 1.652370 0.000000 0.000000 
#    y 0.000000 1.656690 0.000000 
#    z 0.000000 0.000000 1.589030 
# 
# From -- ./inp_files/37727.got.cif
#   From: 2010.05.17/outbox.cif.g08.bks.cpg/sg53_19_cif.got.tgz:37727.got - 2010.06.03 12:45:16.
