data_PCOD9418103
_publ_section_title
;
Structure prediction by ZEFSAII (Michael W. Deem and Ramdas Pophale) SiO2 
 PCOD9418103
Probable space group: P M N A
;
_chemical_formula_sum "Si O2"
_cell_formula_units_Z 64
_cell_length_a 23.481781
_cell_length_b 15.591455
_cell_length_c 9.281952
_cell_angle_alpha 90.000000
_cell_angle_beta 90.000000
_cell_angle_gamma 90.000000
_cell_volume 3398.263080
_symmetry_space_group_name_H-M "P M N A"
_symmetry_group_IT_number 53
_symmetry_cell_setting 'orthorhombic'
loop_
_space_group_symop_operation_xyz
x,y,z
1/2-x,-y,1/2+z
x,-y,-z
1/2-x,y,1/2-z
-x,-y,-z
1/2+x,y,1/2-z
-x,y,z
1/2+x,-y,1/2+z
loop_
_atom_site_type_symbol
_atom_site_label
_atom_site_fract_x
_atom_site_fract_y
_atom_site_fract_z
Si Si1 0.137864 0.107805 0.194701
Si Si2 0.563928 0.120509 0.569698
Si Si3 0.594240 0.044295 0.862196
Si Si4 0.355564 0.282432 0.631581
Si Si5 0.564218 0.601817 0.524345
Si Si6 0.931677 0.723297 0.699396
Si Si7 0.855541 0.228926 0.551257
Si Si8 0.263721 0.772925 0.600391
O O1 0.099458 0.189187 0.247001
O O2 0.199126 0.144958 0.150960
O O3 0.138292 0.028861 0.305582
O O4 0.103838 0.081418 0.052299
O O5 0.500000 0.134212 0.515016
O O6 0.560834 0.067768 0.717704
O O7 0.597113 0.208370 0.604365
O O8 0.618465 0.135625 0.912926
O O9 0.565339 0.000000 0.000000
O O10 0.388605 0.366471 0.586143
O O11 0.340532 0.274525 0.798351
O O12 0.303528 0.269047 0.521357
O O13 0.562834 0.500000 0.500000
O O14 0.500000 0.633255 0.490465
O O15 0.577217 0.647463 0.680938
O O16 0.899334 0.715026 0.545668
O O17 0.000000 0.733870 0.682313
O O18 0.797453 0.210759 0.467003
O O19 0.250000 0.723386 0.750000
#
# Coordination Sequence:
#
# PCOD9418103 Si02
#       8
#     8   8   8   8   8   8   8   8
#     4  11  21  38  57  82 113 158 207 261 305 363
#     4  10  21  36  55  76 110 156 200 248 304 366
#     4  11  22  38  49  80 120 150 209 256 307 363
#     4  10  21  37  60  88 120 156 202 253 309 380
#     4  10  20  38  67  98 124 156 203 259 317 385
#     4  11  21  38  63  89 121 161 202 251 313 387
#     4  11  23  40  58  87 122 164 208 250 315 377
#     4  11  19  38  64  82 111 164 209 256 305 354
#
# _framework density 18.833151000000001
#
# number of rings (size 3 to 8) (size 9 to 14) (size 15 to 20)
#    0.000    1.375    5.000    1.500    0.000    4.250 
#    0.000   15.625    0.000    6.750    0.000    0.000 
#    0.000    0.000    0.000    0.000    0.000    0.000 
#
# Total GULP energy -356380.783217 kJ/mol
# GULP energy per Si atom -5568.449738 kJ/mol
# Density = 1.879029 g / cm^3
# Si number density = 18.833151 Si / 1000 Ang^3
#
#
#
# Elastic Constant Matrix: (Units=GPa)
#
#
# Indices 1 2 3 4 5 6 
#
# 1 119.2643 23.1857 48.0965 0.0000 0.0000 0.0000
# 2 23.1857 62.9373 27.5293 0.0000 0.0000 0.0000
# 3 48.0965 27.5293 133.7543 0.0000 0.0000 0.0000
# 4 0.0000 0.0000 0.0000 23.1568 0.0000 0.0000
# 5 0.0000 0.0000 0.0000 0.0000 14.3496 0.0000
# 6 0.0000 0.0000 0.0000 0.0000 0.0000 42.6812
#
#
#
# Elastic Compliance Matrix: (Units=1/GPa)
#
#
# Indices 1 2 3 4 5 6 
#
# 1 0.010113 -0.002346 -0.003153 0.000000 0.000000 0.000000
# 2 -0.002346 0.018005 -0.002862 0.000000 0.000000 0.000000
# 3 -0.003153 -0.002862 0.009199 0.000000 0.000000 0.000000
# 4 0.000000 0.000000 0.000000 0.043184 0.000000 0.000000
# 5 0.000000 0.000000 0.000000 0.000000 0.069688 0.000000
# 6 0.000000 0.000000 0.000000 0.000000 0.000000 0.023430
#
#
# Mechanical properties :
#
#
# Convention : Reuss Voigt Hill
#
# Bulk Modulus (GPa) = 48.55876 57.06432 52.81154
# Shear Modulus (GPa) = 25.35407 30.51379 27.93393
#
# Velocity S-wave (km/s) = 3.67310 4.02956 3.85545
# Velocity P-wave (km/s) = 6.62031 7.21218 6.92257
#
# Compressibility (1/GPa) = 0.02059361
#
# Stress axis : x y z
#
# Youngs Moduli (GPa) = 98.88699 55.53997 108.70212
#
# Poissons Ratio (x) = 0.13030 0.34279
# Poissons Ratio (y) = 0.23199 0.31113
# Poissons Ratio (z) = 0.31184 0.15897
#
# Static dielectric constant tensor:
#      x y z
#    x 1.640520 0.000000 0.000000 
#    y 0.000000 1.721420 0.000000 
#    z 0.000000 0.000000 1.326880 
# 
# From -- ./inp_files/11940.got.cif
#   From: 2010.05.17/outbox.cif.g08.bks.cpg/sg53_6_cif.got.tgz:11940.got - 2010.06.03 12:45:16.
