data_PCOD9418141
_publ_section_title
;
Structure prediction by ZEFSAII (Michael W. Deem and Ramdas Pophale) SiO2 
 PCOD9418141
Probable space group: P M N A
;
_chemical_formula_sum "Si O2"
_cell_formula_units_Z 40
_cell_length_a 17.126697
_cell_length_b 8.852055
_cell_length_c 12.823112
_cell_angle_alpha 90.000000
_cell_angle_beta 90.000000
_cell_angle_gamma 90.000000
_cell_volume 1944.066665
_symmetry_space_group_name_H-M "P M N A"
_symmetry_group_IT_number 53
_symmetry_cell_setting 'orthorhombic'
loop_
_space_group_symop_operation_xyz
x,y,z
1/2-x,-y,1/2+z
x,-y,-z
1/2-x,y,1/2-z
-x,-y,-z
1/2+x,y,1/2-z
-x,y,z
1/2+x,-y,1/2+z
loop_
_atom_site_type_symbol
_atom_site_label
_atom_site_fract_x
_atom_site_fract_y
_atom_site_fract_z
Si Si1 0.406403 0.174823 0.336430
Si Si2 0.090592 0.390140 0.352115
Si Si3 0.843269 0.146635 0.767119
Si Si4 0.830221 0.325520 0.966877
Si Si5 0.852191 0.296101 0.563828
O O1 0.500000 0.169789 0.335639
O O2 0.381600 0.295022 0.246988
O O3 0.375342 0.229147 0.447322
O O4 0.372966 0.010992 0.310554
O O5 0.138266 0.540720 0.379856
O O6 0.098723 0.293567 0.458261
O O7 0.000000 0.431898 0.336920
O O8 0.750000 0.142143 0.750000
O O9 0.859527 0.278813 0.851580
O O10 0.876818 0.179811 0.652769
O O11 0.738500 0.282687 0.967382
O O12 0.838496 0.500000 0.000000
#
# Coordination Sequence:
#
# PCOD9418141 Si02
#       5
#     8   8   8   8   8
#     4  11  26  43  61  90 130 171 206 253 312 373
#     4  10  21  39  64  94 125 162 206 254 310 373
#     4  10  24  39  61  91 125 163 209 256 310 369
#     4  11  22  40  65  92 121 162 209 258 312 364
#     4  10  20  39  63  95 121 159 206 260 311 362
#
# _framework density 20.575426
#
# number of rings (size 3 to 8) (size 9 to 14) (size 15 to 20)
#    0.000    1.600    2.000    3.000    2.800    4.400 
#    0.000    2.000    0.000    0.000    0.000    0.000 
#    0.000    0.000    0.000    0.000    0.000    0.000 
#
# Total GULP energy -223485.021648 kJ/mol
# GULP energy per Si atom -5587.125541 kJ/mol
# Density = 2.052860 g / cm^3
# Si number density = 20.575426 Si / 1000 Ang^3
#
#
#
# Elastic Constant Matrix: (Units=GPa)
#
#
# Indices 1 2 3 4 5 6 
#
# 1 10.5897 9.3697 26.2958 0.0000 0.0000 0.0000
# 2 9.3697 49.6819 25.4835 0.0000 0.0000 0.0000
# 3 26.2958 25.4835 107.8136 0.0000 0.0000 0.0000
# 4 0.0000 0.0000 0.0000 16.4922 0.0000 0.0000
# 5 0.0000 0.0000 0.0000 0.0000 49.7402 0.0000
# 6 0.0000 0.0000 0.0000 0.0000 0.0000 -228.0779
#
#
#
# Elastic Compliance Matrix: (Units=1/GPa)
#
#
# Indices 1 2 3 4 5 6 
#
# 1 0.253279 -0.018299 -0.057450 0.000000 0.000000 0.000000
# 2 -0.018299 0.024227 -0.001263 0.000000 0.000000 0.000000
# 3 -0.057450 -0.001263 0.023586 0.000000 0.000000 0.000000
# 4 0.000000 0.000000 0.000000 0.060635 0.000000 0.000000
# 5 0.000000 0.000000 0.000000 0.000000 0.020104 0.000000
# 6 0.000000 0.000000 0.000000 0.000000 0.000000 -0.004384
#
#
# Mechanical properties :
#
#
# Convention : Reuss Voigt Hill
#
# Bulk Modulus (GPa) = 6.79959 32.26483 19.53221
# Shear Modulus (GPa) = 8.61336 -25.24004 -8.31334
#
# Velocity S-wave (km/s) = 2.04825 -3.50624 -2.01226
# Velocity P-wave (km/s) = 2.98423 0.82239 2.02846
#
# Compressibility (1/GPa) = 0.14706769
#
# Stress axis : x y z
#
# Youngs Moduli (GPa) = 3.94822 41.27596 42.39825
#
# Poissons Ratio (x) = 0.75532 2.43576
# Poissons Ratio (y) = 0.07225 0.05356
# Poissons Ratio (z) = 0.22682 0.05214
#
# Static dielectric constant tensor:
#      x y z
#    x 1.698730 0.000000 0.000000 
#    y 0.000000 1.730420 0.000000 
#    z 0.000000 0.000000 1.735380 
# 
# From -- ./inp_files/16658.got.cif
#   From: 2010.05.17/outbox.cif.g08.bks.cpg/sg53_9_cif.got.tgz:16658.got - 2010.06.03 12:45:16.
