data_PCOD9418184
_publ_section_title
;
Structure prediction by ZEFSAII (Michael W. Deem and Ramdas Pophale) SiO2 
 PCOD9418184
Probable space group: P M N A
;
_chemical_formula_sum "Si O2"
_cell_formula_units_Z 58
_cell_length_a 15.541945
_cell_length_b 8.930843
_cell_length_c 22.228174
_cell_angle_alpha 90.000000
_cell_angle_beta 90.000000
_cell_angle_gamma 90.000000
_cell_volume 3085.329916
_symmetry_space_group_name_H-M "P M N A"
_symmetry_group_IT_number 53
_symmetry_cell_setting 'orthorhombic'
loop_
_space_group_symop_operation_xyz
x,y,z
1/2-x,-y,1/2+z
x,-y,-z
1/2-x,y,1/2-z
-x,-y,-z
1/2+x,y,1/2-z
-x,y,z
1/2+x,-y,1/2+z
loop_
_atom_site_type_symbol
_atom_site_label
_atom_site_fract_x
_atom_site_fract_y
_atom_site_fract_z
Si Si1 0.097970 0.348674 0.799596
Si Si2 0.182798 0.347740 0.586047
Si Si3 0.400252 0.829157 0.976619
Si Si4 0.897739 0.544093 0.685984
Si Si5 0.348102 0.450127 0.409118
Si Si6 0.264971 0.879659 0.320754
Si Si7 0.218988 0.209071 0.360823
Si Si8 0.000000 0.500000 0.000000
O O1 0.130739 0.429250 0.738712
O O2 0.109119 0.471165 0.851376
O O3 0.143070 0.200925 0.825390
O O4 0.000000 0.312247 0.787110
O O5 0.139775 0.278613 0.527310
O O6 0.121972 0.462169 0.622590
O O7 0.271052 0.436124 0.571146
O O8 0.205501 0.215873 0.633689
O O9 0.500000 0.790912 0.966144
O O10 0.346129 0.818918 0.915896
O O11 0.395953 0.000000 0.000000
O O12 0.836121 0.689170 0.685670
O O13 0.000000 0.575952 0.692373
O O14 0.298493 0.303532 0.386868
O O15 0.423048 0.429300 0.456977
O O16 0.250000 0.858707 0.250000
O O17 0.252516 0.052538 0.335604
#
# Coordination Sequence:
#
# PCOD9418184 Si02
#       8
#     8   8   8   8   8   8   8   2
#     4  10  21  42  62  91 120 163 207 261 310 367
#     4  10  20  40  64  90 119 170 208 247 304 374
#     4  11  22  38  59  89 130 167 205 249 305 373
#     4  10  21  38  64  94 130 157 204 256 311 370
#     4  10  23  37  66  85 123 160 213 261 313 365
#     4  11  22  39  64  91 125 165 204 248 307 383
#     4  11  24  40  61  97 126 166 203 255 318 374
#     4  12  20  44  60  94 114 168 220 268 312 356
#
# _framework density 18.798638
#
# number of rings (size 3 to 8) (size 9 to 14) (size 15 to 20)
#    0.000    1.517    3.448    1.655    1.931    1.655 
#    1.241    4.828    0.000    1.655    0.000    0.000 
#    0.000    0.000    0.000    0.000    0.000    0.000 
#
# Total GULP energy -323096.232120 kJ/mol
# GULP energy per Si atom -5570.624692 kJ/mol
# Density = 1.875585 g / cm^3
# Si number density = 18.798638 Si / 1000 Ang^3
#
#
#
# Elastic Constant Matrix: (Units=GPa)
#
#
# Indices 1 2 3 4 5 6 
#
# 1 80.1105 51.9533 12.1719 0.0000 0.0000 0.0000
# 2 51.9533 114.0878 11.7218 0.0000 0.0000 0.0000
# 3 12.1719 11.7218 31.6912 0.0000 0.0000 0.0000
# 4 0.0000 0.0000 0.0000 23.5586 0.0000 0.0000
# 5 0.0000 0.0000 0.0000 0.0000 27.7146 0.0000
# 6 0.0000 0.0000 0.0000 0.0000 0.0000 7.0256
#
#
#
# Elastic Compliance Matrix: (Units=1/GPa)
#
#
# Indices 1 2 3 4 5 6 
#
# 1 0.018208 -0.007872 -0.004082 0.000000 0.000000 0.000000
# 2 -0.007872 0.012515 -0.001605 0.000000 0.000000 0.000000
# 3 -0.004082 -0.001605 0.033716 0.000000 0.000000 0.000000
# 4 0.000000 0.000000 0.000000 0.042447 0.000000 0.000000
# 5 0.000000 0.000000 0.000000 0.000000 0.036082 0.000000
# 6 0.000000 0.000000 0.000000 0.000000 0.000000 0.142337
#
#
# Mechanical properties :
#
#
# Convention : Reuss Voigt Hill
#
# Bulk Modulus (GPa) = 26.79487 41.95372 34.37429
# Shear Modulus (GPa) = 15.39104 21.66260 18.52682
#
# Velocity S-wave (km/s) = 2.86445 3.39831 3.14274
# Velocity P-wave (km/s) = 5.02242 6.14523 5.61198
#
# Compressibility (1/GPa) = 0.03732058
#
# Stress axis : x y z
#
# Youngs Moduli (GPa) = 54.92012 79.90397 29.65950
#
# Poissons Ratio (x) = 0.62903 0.12106
# Poissons Ratio (y) = 0.43235 0.04762
# Poissons Ratio (z) = 0.22416 0.12828
#
# Static dielectric constant tensor:
#      x y z
#    x 1.661100 0.000000 0.000000 
#    y 0.000000 1.646220 0.000000 
#    z 0.000000 0.000000 1.664360 
# 
# From -- ./inp_files/35305.got.cif
#   From: 2010.05.17/outbox.cif.g08.bks.cpg/sg53_18_cif.got.tgz:35305.got - 2010.06.03 12:45:16.
