data_PCOD9418575
_publ_section_title
;
Structure prediction by ZEFSAII (Michael W. Deem and Ramdas Pophale) SiO2 
 PCOD9418575
Probable space group: P M N A
;
_chemical_formula_sum "Si O2"
_cell_formula_units_Z 64
_cell_length_a 16.742052
_cell_length_b 12.029901
_cell_length_c 14.916233
_cell_angle_alpha 90.000000
_cell_angle_beta 90.000000
_cell_angle_gamma 90.000000
_cell_volume 3004.207310
_symmetry_space_group_name_H-M "P M N A"
_symmetry_group_IT_number 53
_symmetry_cell_setting 'orthorhombic'
loop_
_space_group_symop_operation_xyz
x,y,z
1/2-x,-y,1/2+z
x,-y,-z
1/2-x,y,1/2-z
-x,-y,-z
1/2+x,y,1/2-z
-x,y,z
1/2+x,-y,1/2+z
loop_
_atom_site_type_symbol
_atom_site_label
_atom_site_fract_x
_atom_site_fract_y
_atom_site_fract_z
Si Si1 0.819194 0.378232 0.473768
Si Si2 0.133340 0.620715 0.005883
Si Si3 0.590259 0.070901 0.634653
Si Si4 0.834936 0.279656 0.797086
Si Si5 0.707699 0.802381 0.845332
Si Si6 0.910814 0.252964 0.623836
Si Si7 0.592898 0.994545 0.894509
Si Si8 0.626923 0.845449 0.565440
O O1 0.852849 0.500000 0.500000
O O2 0.723924 0.392032 0.470347
O O3 0.836376 0.307957 0.383582
O O4 0.846803 0.298662 0.554189
O O5 0.144854 0.660868 0.109063
O O6 0.094735 0.500000 0.000000
O O7 0.096969 0.718821 0.944656
O O8 0.500000 0.102110 0.662463
O O9 0.655065 0.147727 0.683100
O O10 0.603724 0.105882 0.531308
O O11 0.597472 0.937582 0.635986
O O12 0.750000 0.302884 0.750000
O O13 0.898293 0.308544 0.720016
O O14 0.750000 0.783478 0.750000
O O15 0.778584 0.835270 0.915153
O O16 0.648076 0.906127 0.845555
O O17 0.899634 0.121312 0.636457
O O18 0.000000 0.271116 0.588184
O O19 0.500000 0.961735 0.886614
O O20 0.613276 0.000000 0.000000
#
# Coordination Sequence:
#
# PCOD9418575 Si02
#       8
#     8   8   8   8   8   8   8   8
#     4  10  21  42  63  87 119 167 214 262 320 377
#     4   9  19  39  60  88 122 161 216 262 317 372
#     4  10  21  37  59  87 126 165 202 253 318 384
#     4  11  22  36  63  96 125 160 205 271 317 375
#     4  11  24  39  61  98 130 162 216 272 317 380
#     4  11  23  38  61  95 128 167 213 259 319 383
#     4  10  22  39  63  89 132 180 210 257 327 396
#     4   9  20  34  58  86 120 166 206 254 307 372
#
# _framework density 21.303456000000001
#
# number of rings (size 3 to 8) (size 9 to 14) (size 15 to 20)
#    0.000    1.875    2.500    1.125    5.250    0.250 
#    6.750    0.625    0.000   13.500    0.000    0.000 
#    0.000    0.500    0.000    0.000    0.000    0.000 
#
# Total GULP energy -356710.243224 kJ/mol
# GULP energy per Si atom -5573.597550 kJ/mol
# Density = 2.125497 g / cm^3
# Si number density = 21.303456 Si / 1000 Ang^3
#
#
#
# Elastic Constant Matrix: (Units=GPa)
#
#
# Indices 1 2 3 4 5 6 
#
# 1 44.5540 25.6065 -1.7852 0.0000 0.0000 0.0000
# 2 25.6065 123.1096 26.5658 0.0000 0.0000 0.0000
# 3 -1.7852 26.5658 62.6401 0.0000 0.0000 0.0000
# 4 0.0000 0.0000 0.0000 15.3392 0.0000 0.0000
# 5 0.0000 0.0000 0.0000 0.0000 94.6527 0.0000
# 6 0.0000 0.0000 0.0000 0.0000 0.0000 9.4308
#
#
#
# Elastic Compliance Matrix: (Units=1/GPa)
#
#
# Indices 1 2 3 4 5 6 
#
# 1 0.026117 -0.006156 0.003355 0.000000 0.000000 0.000000
# 2 -0.006156 0.010392 -0.004583 0.000000 0.000000 0.000000
# 3 0.003355 -0.004583 0.018003 0.000000 0.000000 0.000000
# 4 0.000000 0.000000 0.000000 0.065193 0.000000 0.000000
# 5 0.000000 0.000000 0.000000 0.000000 0.010565 0.000000
# 6 0.000000 0.000000 0.000000 0.000000 0.000000 0.106036
#
#
# Mechanical properties :
#
#
# Convention : Reuss Voigt Hill
#
# Bulk Modulus (GPa) = 25.16028 36.78642 30.97335
# Shear Modulus (GPa) = 18.91628 35.87897 27.39763
#
# Velocity S-wave (km/s) = 2.98307 4.10834 3.59007
# Velocity P-wave (km/s) = 4.86837 6.30951 5.63520
#
# Compressibility (1/GPa) = 0.03974518
#
# Stress axis : x y z
#
# Youngs Moduli (GPa) = 38.28868 96.22526 55.54499
#
# Poissons Ratio (x) = 0.59240 -0.18637
# Poissons Ratio (y) = 0.23572 0.25455
# Poissons Ratio (z) = -0.12847 0.44098
#
# Static dielectric constant tensor:
#      x y z
#    x 1.765940 0.000000 0.000000 
#    y 0.000000 1.831810 0.000000 
#    z 0.000000 0.000000 1.717990 
# 
# From -- ./inp_files/23897.got.cif
#   From: 2010.05.17/outbox.cif.g08.bks.cpg/sg53_12_cif.got.tgz:23897.got - 2010.06.03 12:45:16.
