data_PCOD9418078
_publ_section_title
;
Structure prediction by ZEFSAII (Michael W. Deem and Ramdas Pophale) SiO2 
 PCOD9418078
Probable space group: P M N A
;
_chemical_formula_sum "Si O2"
_cell_formula_units_Z 56
_cell_length_a 27.185647
_cell_length_b 15.899828
_cell_length_c 5.490774
_cell_angle_alpha 90.000000
_cell_angle_beta 90.000000
_cell_angle_gamma 90.000000
_cell_volume 2373.371201
_symmetry_space_group_name_H-M "P M N A"
_symmetry_group_IT_number 53
_symmetry_cell_setting 'orthorhombic'
loop_
_space_group_symop_operation_xyz
x,y,z
1/2-x,-y,1/2+z
x,-y,-z
1/2-x,y,1/2-z
-x,-y,-z
1/2+x,y,1/2-z
-x,y,z
1/2+x,-y,1/2+z
loop_
_atom_site_type_symbol
_atom_site_label
_atom_site_fract_x
_atom_site_fract_y
_atom_site_fract_z
Si Si1 0.792040 0.306646 0.950988
Si Si2 0.166331 0.549397 0.740648
Si Si3 0.447092 0.753411 0.767772
Si Si4 0.199585 0.135567 0.242220
Si Si5 0.362628 0.221397 0.866784
Si Si6 0.554204 0.574840 0.692685
Si Si7 0.098366 0.093167 0.012055
O O1 0.750000 0.328086 0.750000
O O2 0.842863 0.296191 0.801179
O O3 0.803062 0.367410 0.180690
O O4 0.788107 0.212156 0.057255
O O5 0.185641 0.500000 0.500000
O O6 0.108282 0.565812 0.689511
O O7 0.169141 0.500000 0.000000
O O8 0.500000 0.754863 0.892255
O O9 0.445680 0.671241 0.595825
O O10 0.437659 0.841482 0.640328
O O11 0.402328 0.743444 0.949578
O O12 0.250000 0.083955 0.250000
O O13 0.182982 0.181499 0.488567
O O14 0.150591 0.088849 0.155324
O O15 0.387394 0.142694 0.731556
O O16 0.552948 0.500000 0.500000
O O17 0.500000 0.570359 0.822837
O O18 0.078176 0.000000 0.000000
#
# Coordination Sequence:
#
# PCOD9418078 Si02
#       7
#     8   8   8   8   8   8   8
#     4  11  23  42  71  95 129 189 244 300 371 444
#     4  11  26  43  67 101 146 187 239 304 373 443
#     4  10  22  41  69 102 136 183 245 302 367 450
#     4  10  20  38  64  97 126 172 238 296 356 431
#     4  10  21  40  70  99 136 178 242 301 368 432
#     4   9  19  41  71 103 139 183 240 307 381 447
#     4  10  23  41  61  97 145 188 230 293 364 451
#
# _framework density 23.595130999999999
#
# number of rings (size 3 to 8) (size 9 to 14) (size 15 to 20)
#    0.000    1.857    1.429    2.571    4.000    3.429 
#    2.571    2.857    0.000    0.000    0.000    0.000 
#    0.000    0.000    0.000    0.000    0.000    0.000 
#
# Total GULP energy -312323.678416 kJ/mol
# GULP energy per Si atom -5577.208543 kJ/mol
# Density = 2.354143 g / cm^3
# Si number density = 23.595131 Si / 1000 Ang^3
#
#
#
# Elastic Constant Matrix: (Units=GPa)
#
#
# Indices 1 2 3 4 5 6 
#
# 1 85.6116 22.4764 13.8540 0.0000 0.0000 0.0000
# 2 22.4764 149.2910 39.8466 0.0000 0.0000 0.0000
# 3 13.8540 39.8466 89.8264 0.0000 0.0000 0.0000
# 4 0.0000 0.0000 0.0000 14.6918 0.0000 0.0000
# 5 0.0000 0.0000 0.0000 0.0000 -110.5402 0.0000
# 6 0.0000 0.0000 0.0000 0.0000 0.0000 -7.5029
#
#
#
# Elastic Compliance Matrix: (Units=1/GPa)
#
#
# Indices 1 2 3 4 5 6 
#
# 1 0.012278 -0.001523 -0.001218 0.000000 0.000000 0.000000
# 2 -0.001523 0.007787 -0.003219 0.000000 0.000000 0.000000
# 3 -0.001218 -0.003219 0.012748 0.000000 0.000000 0.000000
# 4 0.000000 0.000000 0.000000 0.068065 0.000000 0.000000
# 5 0.000000 0.000000 0.000000 0.000000 -0.009046 0.000000
# 6 0.000000 0.000000 0.000000 0.000000 0.000000 -0.133282
#
#
# Mechanical properties :
#
#
# Convention : Reuss Voigt Hill
#
# Bulk Modulus (GPa) = 47.86513 53.00923 50.43718
# Shear Modulus (GPa) = -221.58273 -4.10013 -112.84143
#
# Velocity S-wave (km/s) = -9.70125 -1.31965 -6.92299
# Velocity P-wave (km/s) = 10.25454 4.49366 6.51777
#
# Compressibility (1/GPa) = 0.02089203
#
# Stress axis : x y z
#
# Youngs Moduli (GPa) = 81.44858 128.42028 78.44078
#
# Poissons Ratio (x) = 0.19564 0.09553
# Poissons Ratio (y) = 0.12408 0.25252
# Poissons Ratio (z) = 0.09919 0.41342
#
# Static dielectric constant tensor:
#      x y z
#    x 1.882100 0.000000 0.000000 
#    y 0.000000 1.898810 0.000000 
#    z 0.000000 0.000000 1.971450 
# 
# From -- ./inp_files/5368.got.cif
#   From: 2010.05.17/outbox.cif.g08.bks.cpg/sg53_3_cif.got.tgz:5368.got - 2010.06.03 12:45:16.
