data_PCOD9418318
_publ_section_title
;
Structure prediction by ZEFSAII (Michael W. Deem and Ramdas Pophale) SiO2 
 PCOD9418318
Probable space group: P M N A
;
_chemical_formula_sum "Si O2"
_cell_formula_units_Z 64
_cell_length_a 14.534410
_cell_length_b 18.142374
_cell_length_c 11.390783
_cell_angle_alpha 90.000000
_cell_angle_beta 90.000000
_cell_angle_gamma 90.000000
_cell_volume 3003.620785
_symmetry_space_group_name_H-M "P M N A"
_symmetry_group_IT_number 53
_symmetry_cell_setting 'orthorhombic'
loop_
_space_group_symop_operation_xyz
x,y,z
1/2-x,-y,1/2+z
x,-y,-z
1/2-x,y,1/2-z
-x,-y,-z
1/2+x,y,1/2-z
-x,y,z
1/2+x,-y,1/2+z
loop_
_atom_site_type_symbol
_atom_site_label
_atom_site_fract_x
_atom_site_fract_y
_atom_site_fract_z
Si Si1 0.757662 0.370642 0.478090
Si Si2 0.392777 0.155869 0.352685
Si Si3 0.153341 0.554740 0.318813
Si Si4 0.599213 0.417451 0.317710
Si Si5 0.394008 0.728718 0.832439
Si Si6 0.603226 0.315580 0.657826
Si Si7 0.609315 0.160207 0.612144
Si Si8 0.189218 0.999065 0.135409
O O1 0.826202 0.423356 0.548791
O O2 0.692687 0.418502 0.392171
O O3 0.818585 0.306207 0.419656
O O4 0.681948 0.338960 0.567706
O O5 0.500000 0.175194 0.351490
O O6 0.359147 0.198336 0.236402
O O7 0.355896 0.180386 0.480296
O O8 0.381036 0.067703 0.357613
O O9 0.250000 0.552556 0.250000
O O10 0.105672 0.478554 0.284149
O O11 0.103590 0.625132 0.260774
O O12 0.500000 0.430008 0.379345
O O13 0.598976 0.335749 0.264910
O O14 0.500000 0.739003 0.878670
O O15 0.500000 0.314561 0.604552
O O16 0.624380 0.231322 0.693166
O O17 0.500000 0.148103 0.603428
O O18 0.650687 0.083053 0.650261
O O19 0.250000 0.013007 0.250000
O O20 0.227514 0.000000 0.000000
#
# Coordination Sequence:
#
# PCOD9418318 Si02
#       8
#     8   8   8   8   8   8   8   8
#     4  11  23  40  62  88 119 159 203 248 306 368
#     4   9  18  36  59  85 115 150 199 250 300 361
#     4  10  23  39  56  83 117 153 195 243 297 358
#     4  11  23  40  61  86 116 152 196 246 296 350
#     4  10  22  37  58  88 121 156 194 244 303 361
#     4  10  21  38  60  87 117 153 200 251 302 361
#     4   9  18  35  60  85 113 153 201 251 302 362
#     4  10  21  35  57  88 121 157 198 251 313 376
#
# _framework density 21.307615999999999
#
# number of rings (size 3 to 8) (size 9 to 14) (size 15 to 20)
#    0.000    2.000    0.000    3.000    0.000   13.500 
#    0.000    4.375    0.000    3.750    0.000    0.000 
#    0.000    3.000    0.000    0.000    0.000    0.000 
#
# Total GULP energy -356796.656873 kJ/mol
# GULP energy per Si atom -5574.947764 kJ/mol
# Density = 2.125912 g / cm^3
# Si number density = 21.307616 Si / 1000 Ang^3
#
#
#
# Elastic Constant Matrix: (Units=GPa)
#
#
# Indices 1 2 3 4 5 6 
#
# 1 84.9678 17.5123 28.6564 0.0000 0.0000 0.0000
# 2 17.5123 118.8801 26.2952 0.0000 0.0000 0.0000
# 3 28.6564 26.2952 55.9688 0.0000 0.0000 0.0000
# 4 0.0000 0.0000 0.0000 26.3836 0.0000 0.0000
# 5 0.0000 0.0000 0.0000 0.0000 4.6830 0.0000
# 6 0.0000 0.0000 0.0000 0.0000 0.0000 19.6759
#
#
#
# Elastic Compliance Matrix: (Units=1/GPa)
#
#
# Indices 1 2 3 4 5 6 
#
# 1 0.014257 -0.000542 -0.007045 0.000000 0.000000 0.000000
# 2 -0.000542 0.009408 -0.004143 0.000000 0.000000 0.000000
# 3 -0.007045 -0.004143 0.023420 0.000000 0.000000 0.000000
# 4 0.000000 0.000000 0.000000 0.037902 0.000000 0.000000
# 5 0.000000 0.000000 0.000000 0.000000 0.213539 0.000000
# 6 0.000000 0.000000 0.000000 0.000000 0.000000 0.050824
#
#
# Mechanical properties :
#
#
# Convention : Reuss Voigt Hill
#
# Bulk Modulus (GPa) = 42.32574 44.97162 43.64868
# Shear Modulus (GPa) = 13.13423 22.63868 17.88645
#
# Velocity S-wave (km/s) = 2.48545 3.26309 2.90045
# Velocity P-wave (km/s) = 5.30508 5.94548 5.63439
#
# Compressibility (1/GPa) = 0.02362629
#
# Stress axis : x y z
#
# Youngs Moduli (GPa) = 70.14160 106.29295 42.69768
#
# Poissons Ratio (x) = 0.05760 0.30081
# Poissons Ratio (y) = 0.03801 0.17688
# Poissons Ratio (z) = 0.49415 0.44033
#
# Static dielectric constant tensor:
#      x y z
#    x 1.820910 0.000000 0.000000 
#    y 0.000000 1.781060 0.000000 
#    z 0.000000 0.000000 1.828980 
# 
# From -- ./inp_files/16220.got.cif
#   From: 2010.05.17/outbox.cif.g08.bks.cpg/sg53_9_cif.got.tgz:16220.got - 2010.06.03 12:45:16.
