data_PCOD9418093
_publ_section_title
;
Structure prediction by ZEFSAII (Michael W. Deem and Ramdas Pophale) SiO2 
 PCOD9418093
Probable space group: P M N A
;
_chemical_formula_sum "Si O2"
_cell_formula_units_Z 48
_cell_length_a 24.312443
_cell_length_b 5.347479
_cell_length_c 16.723995
_cell_angle_alpha 90.000000
_cell_angle_beta 90.000000
_cell_angle_gamma 90.000000
_cell_volume 2174.291246
_symmetry_space_group_name_H-M "P M N A"
_symmetry_group_IT_number 53
_symmetry_cell_setting 'orthorhombic'
loop_
_space_group_symop_operation_xyz
x,y,z
1/2-x,-y,1/2+z
x,-y,-z
1/2-x,y,1/2-z
-x,-y,-z
1/2+x,y,1/2-z
-x,y,z
1/2+x,-y,1/2+z
loop_
_atom_site_type_symbol
_atom_site_label
_atom_site_fract_x
_atom_site_fract_y
_atom_site_fract_z
Si Si1 0.390460 0.434419 0.795011
Si Si2 0.500000 0.346388 0.259676
Si Si3 0.803547 0.278209 0.219432
Si Si4 0.346885 0.240058 0.949330
Si Si5 0.120124 0.099095 0.865656
Si Si6 0.500000 0.849765 0.362392
Si Si7 0.273635 0.654701 0.419053
O O1 0.445319 0.595868 0.789702
O O2 0.336500 0.607861 0.793589
O O3 0.385797 0.268150 0.872905
O O4 0.386336 0.271845 0.713779
O O5 0.500000 0.065227 0.293327
O O6 0.500000 0.563614 0.329354
O O7 0.750000 0.125674 0.250000
O O8 0.778444 0.485759 0.160322
O O9 0.852407 0.150696 0.169148
O O10 0.283780 0.198129 0.919196
O O11 0.348907 0.500000 0.000000
O O12 0.362574 0.000000 0.000000
O O13 0.168971 0.198528 0.920530
O O14 0.059237 0.098710 0.902836
O O15 0.271897 0.500000 0.500000
#
# Coordination Sequence:
#
# PCOD9418093 Si02
#       7
#     8   4   8   8   8   4   8
#     4  10  22  40  59  94 126 161 213 261 315 374
#     4  10  20  38  66  89 124 167 204 264 317 369
#     4  11  21  35  62  95 123 155 214 269 318 375
#     4  11  26  41  61  89 130 172 205 257 322 386
#     4  10  23  35  65  89 122 164 209 269 309 386
#     4  10  20  40  59  96 123 160 212 258 323 365
#     4  10  24  39  56  89 128 169 207 256 331 387
#
# _framework density 22.076162
#
# number of rings (size 3 to 8) (size 9 to 14) (size 15 to 20)
#    0.000    1.667    3.333    0.000    9.333    0.000 
#    0.000    1.250    0.000    1.000    0.000    0.000 
#    0.000    0.000    0.000    0.000    0.000    0.000 
#
# Total GULP energy -267878.019112 kJ/mol
# GULP energy per Si atom -5580.792065 kJ/mol
# Density = 2.202592 g / cm^3
# Si number density = 22.076162 Si / 1000 Ang^3
#
#
#
# Elastic Constant Matrix: (Units=GPa)
#
#
# Indices 1 2 3 4 5 6 
#
# 1 95.8208 -3.0666 -1.4218 0.0000 0.0000 0.0000
# 2 -3.0666 53.9142 1.7120 0.0000 0.0000 0.0000
# 3 -1.4218 1.7120 49.1798 0.0000 0.0000 0.0000
# 4 0.0000 0.0000 0.0000 24.7819 0.0000 0.0000
# 5 0.0000 0.0000 0.0000 0.0000 3.7676 0.0000
# 6 0.0000 0.0000 0.0000 0.0000 0.0000 17.8852
#
#
#
# Elastic Compliance Matrix: (Units=1/GPa)
#
#
# Indices 1 2 3 4 5 6 
#
# 1 0.010459 0.000586 0.000282 0.000000 0.000000 0.000000
# 2 0.000586 0.018601 -0.000631 0.000000 0.000000 0.000000
# 3 0.000282 -0.000631 0.020364 0.000000 0.000000 0.000000
# 4 0.000000 0.000000 0.000000 0.040352 0.000000 0.000000
# 5 0.000000 0.000000 0.000000 0.000000 0.265424 0.000000
# 6 0.000000 0.000000 0.000000 0.000000 0.000000 0.055912
#
#
# Mechanical properties :
#
#
# Convention : Reuss Voigt Hill
#
# Bulk Modulus (GPa) = 20.04059 21.48468 20.76263
# Shear Modulus (GPa) = 11.70220 22.73300 17.21760
#
# Velocity S-wave (km/s) = 2.30485 3.21246 2.79573
# Velocity P-wave (km/s) = 4.02253 4.84903 4.45499
#
# Compressibility (1/GPa) = 0.04989873
#
# Stress axis : x y z
#
# Youngs Moduli (GPa) = 95.61068 53.75956 49.10705
#
# Poissons Ratio (x) = -0.03150 -0.01385
# Poissons Ratio (y) = -0.05602 0.03097
# Poissons Ratio (z) = -0.02696 0.03390
#
# Static dielectric constant tensor:
#      x y z
#    x 1.837160 0.000000 0.000000 
#    y 0.000000 1.978660 0.000000 
#    z 0.000000 0.000000 1.858570 
# 
# From -- ./inp_files/29541.got.cif
#   From: 2010.05.17/outbox.cif.g08.bks.cpg/sg53_15_cif.got.tgz:29541.got - 2010.06.03 12:45:16.
