data_PCOD9418370
_publ_section_title
;
Structure prediction by ZEFSAII (Michael W. Deem and Ramdas Pophale) SiO2 
 PCOD9418370
Probable space group: P M N A
;
_chemical_formula_sum "Si O2"
_cell_formula_units_Z 28
_cell_length_a 16.619786
_cell_length_b 15.977660
_cell_length_c 5.147464
_cell_angle_alpha 90.000000
_cell_angle_beta 90.000000
_cell_angle_gamma 90.000000
_cell_volume 1366.884821
_symmetry_space_group_name_H-M "P M N A"
_symmetry_group_IT_number 53
_symmetry_cell_setting 'orthorhombic'
loop_
_space_group_symop_operation_xyz
x,y,z
1/2-x,-y,1/2+z
x,-y,-z
1/2-x,y,1/2-z
-x,-y,-z
1/2+x,y,1/2-z
-x,y,z
1/2+x,-y,1/2+z
loop_
_atom_site_type_symbol
_atom_site_label
_atom_site_fract_x
_atom_site_fract_y
_atom_site_fract_z
Si Si1 0.801383 0.500000 0.500000
Si Si2 0.653205 0.049399 0.747904
Si Si3 0.905760 0.346655 0.289119
Si Si4 0.593820 0.762925 0.305816
O O1 0.750000 0.468707 0.750000
O O2 0.855545 0.427250 0.373523
O O3 0.750000 0.043185 0.750000
O O4 0.632930 0.146685 0.723723
O O5 0.621479 0.000000 0.500000
O O6 0.622757 0.000000 0.000000
O O7 0.901701 0.283950 0.532001
O O8 0.000000 0.369530 0.245174
O O9 0.874244 0.297762 0.034350
O O10 0.500000 0.776548 0.371711
#
# Coordination Sequence:
#
# PCOD9418370 Si02
#       4
#     4   8   8   8
#     4  12  25  40  61  92 120 150 198 246 293 350
#     4  10  21  36  54  80 115 153 189 232 292 350
#     4  10  22  41  61  84 118 156 192 237 297 353
#     4  10  21  37  60  86 111 149 198 240 284 343
#
# _framework density 20.484534
#
# number of rings (size 3 to 8) (size 9 to 14) (size 15 to 20)
#    0.000    1.714    0.000    3.857    0.000    4.571 
#    0.000    5.714    0.000    0.000    0.000    0.000 
#    0.000    0.000    0.000    0.000    0.000    0.000 
#
# Total GULP energy -156418.800524 kJ/mol
# GULP energy per Si atom -5586.385733 kJ/mol
# Density = 2.043791 g / cm^3
# Si number density = 20.484534 Si / 1000 Ang^3
#
#
#
# Elastic Constant Matrix: (Units=GPa)
#
#
# Indices 1 2 3 4 5 6 
#
# 1 24.0186 29.6598 25.9050 0.0000 0.0000 0.0000
# 2 29.6598 106.6120 30.2816 0.0000 0.0000 0.0000
# 3 25.9050 30.2816 124.0549 0.0000 0.0000 0.0000
# 4 0.0000 0.0000 0.0000 33.5609 0.0000 0.0000
# 5 0.0000 0.0000 0.0000 0.0000 -56.0282 0.0000
# 6 0.0000 0.0000 0.0000 0.0000 0.0000 32.9665
#
#
#
# Elastic Compliance Matrix: (Units=1/GPa)
#
#
# Indices 1 2 3 4 5 6 
#
# 1 0.076217 -0.017926 -0.011540 0.000000 0.000000 0.000000
# 2 -0.017926 0.014295 0.000254 0.000000 0.000000 0.000000
# 3 -0.011540 0.000254 0.010409 0.000000 0.000000 0.000000
# 4 0.000000 0.000000 0.000000 0.029797 0.000000 0.000000
# 5 0.000000 0.000000 0.000000 0.000000 -0.017848 0.000000
# 6 0.000000 0.000000 0.000000 0.000000 0.000000 0.030334
#
#
# Mechanical properties :
#
#
# Convention : Reuss Voigt Hill
#
# Bulk Modulus (GPa) = 23.53140 47.37537 35.45338
# Shear Modulus (GPa) = 23.17054 13.35578 18.26316
#
# Velocity S-wave (km/s) = 3.36687 2.55619 2.98914
# Velocity P-wave (km/s) = 5.16011 5.64710 5.40909
#
# Compressibility (1/GPa) = 0.04249641
#
# Stress axis : x y z
#
# Youngs Moduli (GPa) = 13.12051 69.95583 96.07368
#
# Poissons Ratio (x) = 1.25403 1.10867
# Poissons Ratio (y) = 0.23520 -0.02440
# Poissons Ratio (z) = 0.15141 -0.01777
#
# Static dielectric constant tensor:
#      x y z
#    x 1.753220 0.000000 0.000000 
#    y 0.000000 1.691070 0.000000 
#    z 0.000000 0.000000 1.718470 
# 
# From -- ./inp_files/1850.got.cif
#   From: 2010.05.17/outbox.cif.g08.bks.cpg/sg53_1_cif.got.tgz:1850.got - 2010.06.03 12:45:16.
