data_PCOD9418076
_publ_section_title
;
Structure prediction by ZEFSAII (Michael W. Deem and Ramdas Pophale) SiO2 
 PCOD9418076
Probable space group: P M N A
;
_chemical_formula_sum "Si O2"
_cell_formula_units_Z 40
_cell_length_a 27.434346
_cell_length_b 8.084022
_cell_length_c 8.828519
_cell_angle_alpha 90.000000
_cell_angle_beta 90.000000
_cell_angle_gamma 90.000000
_cell_volume 1957.987678
_symmetry_space_group_name_H-M "P M N A"
_symmetry_group_IT_number 53
_symmetry_cell_setting 'orthorhombic'
loop_
_space_group_symop_operation_xyz
x,y,z
1/2-x,-y,1/2+z
x,-y,-z
1/2-x,y,1/2-z
-x,-y,-z
1/2+x,y,1/2-z
-x,y,z
1/2+x,-y,1/2+z
loop_
_atom_site_type_symbol
_atom_site_label
_atom_site_fract_x
_atom_site_fract_y
_atom_site_fract_z
Si Si1 0.299400 0.119741 0.177800
Si Si2 0.444664 0.196382 0.532457
Si Si3 0.216183 0.657450 0.397958
Si Si4 0.638846 0.183473 0.736241
Si Si5 0.348829 0.319783 0.429625
O O1 0.250000 0.050061 0.250000
O O2 0.318156 0.272046 0.283507
O O3 0.343209 0.987576 0.191572
O O4 0.283996 0.190084 0.015403
O O5 0.500000 0.255203 0.528334
O O6 0.417351 0.209245 0.694864
O O7 0.407300 0.288670 0.418124
O O8 0.443966 0.000000 0.500000
O O9 0.227081 0.500000 0.500000
O O10 0.250000 0.665174 0.250000
O O11 0.161316 0.667918 0.332534
O O12 0.663026 0.193807 0.567924
O O13 0.340630 0.500000 0.500000
#
# Coordination Sequence:
#
# PCOD9418076 Si02
#       5
#     8   8   8   8   8
#     4  12  23  38  61  88 126 172 222 265 318 391
#     4   9  18  37  69  97 130 167 223 273 320 389
#     4  12  26  41  60  88 127 174 218 269 335 402
#     4  10  21  40  59  91 126 168 220 265 321 381
#     4  10  20  38  64  94 134 167 218 270 328 381
#
# _framework density 20.429137999999998
#
# number of rings (size 3 to 8) (size 9 to 14) (size 15 to 20)
#    1.200    0.200    2.000    4.800    0.000    3.600 
#    0.000    2.000    0.000    4.200    0.000    0.000 
#    0.000    0.000    0.000    0.000    0.000    0.000 
#
# Total GULP energy -222921.402497 kJ/mol
# GULP energy per Si atom -5573.035062 kJ/mol
# Density = 2.038264 g / cm^3
# Si number density = 20.429138 Si / 1000 Ang^3
#
#
#
# Elastic Constant Matrix: (Units=GPa)
#
#
# Indices 1 2 3 4 5 6 
#
# 1 135.5884 13.7270 35.9113 0.0000 0.0000 0.0000
# 2 13.7270 82.7027 32.3610 0.0000 0.0000 0.0000
# 3 35.9113 32.3610 115.7646 0.0000 0.0000 0.0000
# 4 0.0000 0.0000 0.0000 38.8419 0.0000 0.0000
# 5 0.0000 0.0000 0.0000 0.0000 25.8425 0.0000
# 6 0.0000 0.0000 0.0000 0.0000 0.0000 14.3567
#
#
#
# Elastic Compliance Matrix: (Units=1/GPa)
#
#
# Indices 1 2 3 4 5 6 
#
# 1 0.008047 -0.000403 -0.002384 0.000000 0.000000 0.000000
# 2 -0.000403 0.013597 -0.003676 0.000000 0.000000 0.000000
# 3 -0.002384 -0.003676 0.010405 0.000000 0.000000 0.000000
# 4 0.000000 0.000000 0.000000 0.025745 0.000000 0.000000
# 5 0.000000 0.000000 0.000000 0.000000 0.038696 0.000000
# 6 0.000000 0.000000 0.000000 0.000000 0.000000 0.069654
#
#
# Mechanical properties :
#
#
# Convention : Reuss Voigt Hill
#
# Bulk Modulus (GPa) = 52.28961 55.33936 53.81448
# Shear Modulus (GPa) = 26.96227 32.61199 29.78713
#
# Velocity S-wave (km/s) = 3.63684 3.99977 3.82261
# Velocity P-wave (km/s) = 6.57926 6.96262 6.77365
#
# Compressibility (1/GPa) = 0.01912426
#
# Stress axis : x y z
#
# Youngs Moduli (GPa) = 124.26373 73.54713 96.10552
#
# Poissons Ratio (x) = 0.02964 0.22909
# Poissons Ratio (y) = 0.05007 0.35327
# Poissons Ratio (z) = 0.29621 0.27035
#
# Static dielectric constant tensor:
#      x y z
#    x 1.756110 0.000000 0.000000 
#    y 0.000000 1.818930 0.000000 
#    z 0.000000 0.000000 1.780120 
# 
# From -- ./inp_files/12303.got.cif
#   From: 2010.05.17/outbox.cif.g08.bks.cpg/sg53_7_cif.got.tgz:12303.got - 2010.06.03 12:45:16.
