data_PCOD9418040
_publ_section_title
;
Structure prediction by ZEFSAII (Michael W. Deem and Ramdas Pophale) SiO2 
 PCOD9418040
Probable space group: P M N A
;
_chemical_formula_sum "Si O2"
_cell_formula_units_Z 64
_cell_length_a 14.258714
_cell_length_b 8.745146
_cell_length_c 23.079658
_cell_angle_alpha 90.000000
_cell_angle_beta 90.000000
_cell_angle_gamma 90.000000
_cell_volume 2877.907238
_symmetry_space_group_name_H-M "P M N A"
_symmetry_group_IT_number 53
_symmetry_cell_setting 'orthorhombic'
loop_
_space_group_symop_operation_xyz
x,y,z
1/2-x,-y,1/2+z
x,-y,-z
1/2-x,y,1/2-z
-x,-y,-z
1/2+x,y,1/2-z
-x,y,z
1/2+x,-y,1/2+z
loop_
_atom_site_type_symbol
_atom_site_label
_atom_site_fract_x
_atom_site_fract_y
_atom_site_fract_z
Si Si1 0.888920 0.694160 0.087127
Si Si2 0.744046 0.770489 0.645090
Si Si3 0.889072 0.745698 0.269001
Si Si4 0.896607 0.442851 0.402669
Si Si5 0.729343 0.111969 0.669436
Si Si6 0.801317 0.165616 0.012037
Si Si7 0.390205 0.458712 0.311676
Si Si8 0.104792 0.260013 0.524378
O O1 0.831081 0.833959 0.114984
O O2 0.866903 0.549901 0.128267
O O3 0.000000 0.717839 0.091571
O O4 0.855399 0.698470 0.021205
O O5 0.827020 0.647679 0.638471
O O6 0.705133 0.795212 0.579658
O O7 0.669369 0.693615 0.687566
O O8 0.767122 0.940825 0.665404
O O9 0.845137 0.862055 0.221472
O O10 0.818341 0.776903 0.321243
O O11 0.873782 0.579871 0.239786
O O12 0.000000 0.767009 0.279002
O O13 0.874756 0.610469 0.427607
O O14 0.901323 0.344591 0.462130
O O15 0.000000 0.450899 0.375899
O O16 0.696526 0.158809 0.983908
O O17 0.846421 0.000000 0.000000
O O18 0.500000 0.424734 0.312369
O O19 0.000000 0.193974 0.535854
#
# Coordination Sequence:
#
# PCOD9418040 Si02
#       8
#     8   8   8   8   8   8   8   8
#     4  10  21  39  58  81 124 177 210 241 297 365
#     4  11  21  34  58  94 126 162 207 259 304 354
#     4   9  20  42  67  87 114 155 202 259 324 385
#     4   8  15  29  49  76 111 153 198 245 297 340
#     4  10  20  38  62  88 119 158 201 244 317 386
#     4  11  21  34  50  86 134 173 216 248 292 363
#     4   9  20  38  62  89 116 155 208 263 313 366
#     4   8  15  29  49  69 104 162 212 248 289 334
#
# _framework density 22.238384
#
# number of rings (size 3 to 8) (size 9 to 14) (size 15 to 20)
#    0.000    2.500    1.250    2.625    0.000    4.000 
#    0.000    6.875    0.000    9.000    0.000    0.000 
#    0.000    0.000    0.000    0.000    0.000    0.000 
#
# Total GULP energy -357257.284996 kJ/mol
# GULP energy per Si atom -5582.145078 kJ/mol
# Density = 2.218777 g / cm^3
# Si number density = 22.238384 Si / 1000 Ang^3
#
#
#
# Elastic Constant Matrix: (Units=GPa)
#
#
# Indices 1 2 3 4 5 6 
#
# 1 95.0592 29.9755 25.9408 0.0000 0.0000 0.0000
# 2 29.9755 47.3543 18.7633 0.0000 0.0000 0.0000
# 3 25.9408 18.7633 44.9814 0.0000 0.0000 0.0000
# 4 0.0000 0.0000 0.0000 17.5915 0.0000 0.0000
# 5 0.0000 0.0000 0.0000 0.0000 9.3043 0.0000
# 6 0.0000 0.0000 0.0000 0.0000 0.0000 9.5207
#
#
#
# Elastic Compliance Matrix: (Units=1/GPa)
#
#
# Indices 1 2 3 4 5 6 
#
# 1 0.014121 -0.006843 -0.005289 0.000000 0.000000 0.000000
# 2 -0.006843 0.028615 -0.007990 0.000000 0.000000 0.000000
# 3 -0.005289 -0.007990 0.028615 0.000000 0.000000 0.000000
# 4 0.000000 0.000000 0.000000 0.056846 0.000000 0.000000
# 5 0.000000 0.000000 0.000000 0.000000 0.107478 0.000000
# 6 0.000000 0.000000 0.000000 0.000000 0.000000 0.105034
#
#
# Mechanical properties :
#
#
# Convention : Reuss Voigt Hill
#
# Bulk Modulus (GPa) = 32.14774 37.41712 34.78243
# Shear Modulus (GPa) = 12.77726 14.79765 13.78746
#
# Velocity S-wave (km/s) = 2.39960 2.58235 2.49265
# Velocity P-wave (km/s) = 4.70795 5.07478 4.89480
#
# Compressibility (1/GPa) = 0.03110639
#
# Stress axis : x y z
#
# Youngs Moduli (GPa) = 70.81691 34.94681 34.94724
#
# Poissons Ratio (x) = 0.23914 0.18484
# Poissons Ratio (y) = 0.48459 0.27923
# Poissons Ratio (z) = 0.37456 0.27922
#
# Static dielectric constant tensor:
#      x y z
#    x 1.822300 0.000000 0.000000 
#    y 0.000000 1.781030 0.000000 
#    z 0.000000 0.000000 1.905660 
# 
# From -- ./inp_files/35330.got.cif
#   From: 2010.05.17/outbox.cif.g08.bks.cpg/sg53_18_cif.got.tgz:35330.got - 2010.06.03 12:45:16.
