data_PCOD9418537
_publ_section_title
;
Structure prediction by ZEFSAII (Michael W. Deem and Ramdas Pophale) SiO2 
 PCOD9418537
Probable space group: P M N A
;
_chemical_formula_sum "Si O2"
_cell_formula_units_Z 48
_cell_length_a 8.570663
_cell_length_b 15.866475
_cell_length_c 18.305303
_cell_angle_alpha 90.000000
_cell_angle_beta 90.000000
_cell_angle_gamma 90.000000
_cell_volume 2489.268782
_symmetry_space_group_name_H-M "P M N A"
_symmetry_group_IT_number 53
_symmetry_cell_setting 'orthorhombic'
loop_
_space_group_symop_operation_xyz
x,y,z
1/2-x,-y,1/2+z
x,-y,-z
1/2-x,y,1/2-z
-x,-y,-z
1/2+x,y,1/2-z
-x,y,z
1/2+x,-y,1/2+z
loop_
_atom_site_type_symbol
_atom_site_label
_atom_site_fract_x
_atom_site_fract_y
_atom_site_fract_z
Si Si1 0.312669 0.499029 0.832174
Si Si2 0.312494 0.659199 0.579786
Si Si3 0.309692 0.995544 0.584124
Si Si4 0.812794 0.671923 0.415657
Si Si5 0.312608 0.835080 0.332160
Si Si6 0.188570 0.826673 0.832268
O O1 0.250000 0.503539 0.750000
O O2 0.500000 0.503294 0.831167
O O3 0.248233 0.576505 0.879246
O O4 0.265845 0.410859 0.869694
O O5 0.500000 0.657595 0.577346
O O6 0.248140 0.663824 0.497946
O O7 0.263294 0.742388 0.624824
O O8 0.500000 0.994772 0.583346
O O9 0.258908 0.910139 0.624299
O O10 0.258033 0.000000 0.500000
O O11 0.261152 0.078410 0.628560
O O12 0.746389 0.755173 0.377623
O O13 0.000000 0.675979 0.416181
O O14 0.250000 0.831546 0.250000
O O15 0.500000 0.833898 0.330799
O O16 0.250000 0.826722 0.750000
O O17 0.000000 0.827729 0.830242
#
# Coordination Sequence:
#
# PCOD9418537 Si02
#       6
#     8   8   8   8   8   8
#     4  11  24  41  61  86 117 154 194 238 290 345
#     4  11  23  39  62  89 117 153 195 239 291 349
#     4   9  18  35  58  83 114 152 193 237 286 343
#     4  11  24  41  61  86 118 154 194 242 293 346
#     4  11  22  37  60  87 117 154 195 240 290 344
#     4  10  21  37  58  85 116 152 192 234 285 343
#
# _framework density 19.282771
#
# number of rings (size 3 to 8) (size 9 to 14) (size 15 to 20)
#    0.000    1.500    0.000    5.000    0.000   11.333 
#    0.000    0.833    0.000    3.500    0.000    0.000 
#    0.000    0.000    0.000    0.000    0.000    0.000 
#
# Total GULP energy -268461.877958 kJ/mol
# GULP energy per Si atom -5592.955791 kJ/mol
# Density = 1.923888 g / cm^3
# Si number density = 19.282771 Si / 1000 Ang^3
#
#
#
# Elastic Constant Matrix: (Units=GPa)
#
#
# Indices 1 2 3 4 5 6 
#
# 1 34.0989 32.1466 24.8205 0.0000 0.0000 0.0000
# 2 32.1466 130.2128 36.1469 0.0000 0.0000 0.0000
# 3 24.8205 36.1469 129.6495 0.0000 0.0000 0.0000
# 4 0.0000 0.0000 0.0000 47.4524 0.0000 0.0000
# 5 0.0000 0.0000 0.0000 0.0000 38.3544 0.0000
# 6 0.0000 0.0000 0.0000 0.0000 0.0000 11.8362
#
#
#
# Elastic Compliance Matrix: (Units=1/GPa)
#
#
# Indices 1 2 3 4 5 6 
#
# 1 0.041580 -0.008731 -0.005526 0.000000 0.000000 0.000000
# 2 -0.008731 0.010157 -0.001160 0.000000 0.000000 0.000000
# 3 -0.005526 -0.001160 0.009095 0.000000 0.000000 0.000000
# 4 0.000000 0.000000 0.000000 0.021074 0.000000 0.000000
# 5 0.000000 0.000000 0.000000 0.000000 0.026073 0.000000
# 6 0.000000 0.000000 0.000000 0.000000 0.000000 0.084487
#
#
# Mechanical properties :
#
#
# Convention : Reuss Voigt Hill
#
# Bulk Modulus (GPa) = 33.33673 53.35435 43.34554
# Shear Modulus (GPa) = 21.43171 32.91842 27.17506
#
# Velocity S-wave (km/s) = 3.33745 4.13624 3.75813
# Velocity P-wave (km/s) = 5.67250 7.10921 6.43110
#
# Compressibility (1/GPa) = 0.02999694
#
# Stress axis : x y z
#
# Youngs Moduli (GPa) = 24.04999 98.45040 109.95614
#
# Poissons Ratio (x) = 0.85959 0.60761
# Poissons Ratio (y) = 0.20999 0.12759
# Poissons Ratio (z) = 0.13290 0.11424
#
# Static dielectric constant tensor:
#      x y z
#    x 1.661440 0.000000 0.000000 
#    y 0.000000 1.650490 0.000000 
#    z 0.000000 0.000000 1.621380 
# 
# From -- ./inp_files/26236.got.cif
#   From: 2010.05.17/outbox.cif.g08.bks.cpg/sg53_14_cif.got.tgz:26236.got - 2010.06.03 12:45:16.
