data_PCOD9418102
_publ_section_title
;
Structure prediction by ZEFSAII (Michael W. Deem and Ramdas Pophale) SiO2 
 PCOD9418102
Probable space group: P M N A
;
_chemical_formula_sum "Si O2"
_cell_formula_units_Z 56
_cell_length_a 13.680677
_cell_length_b 9.794124
_cell_length_c 21.200916
_cell_angle_alpha 90.000000
_cell_angle_beta 90.000000
_cell_angle_gamma 90.000000
_cell_volume 2840.715970
_symmetry_space_group_name_H-M "P M N A"
_symmetry_group_IT_number 53
_symmetry_cell_setting 'orthorhombic'
loop_
_space_group_symop_operation_xyz
x,y,z
1/2-x,-y,1/2+z
x,-y,-z
1/2-x,y,1/2-z
-x,-y,-z
1/2+x,y,1/2-z
-x,y,z
1/2+x,-y,1/2+z
loop_
_atom_site_type_symbol
_atom_site_label
_atom_site_fract_x
_atom_site_fract_y
_atom_site_fract_z
Si Si1 0.116575 0.081134 0.240275
Si Si2 0.882343 0.841256 0.326153
Si Si3 0.317340 0.051490 0.065947
Si Si4 0.113011 0.150703 0.095737
Si Si5 0.114545 0.524007 0.927223
Si Si6 0.884261 0.714067 0.651217
Si Si7 0.768509 0.442142 0.675097
O O1 0.136023 0.116880 0.168643
O O2 0.152733 0.194575 0.289550
O O3 0.000000 0.086583 0.247180
O O4 0.142520 0.929578 0.263425
O O5 0.826551 0.699316 0.330111
O O6 0.000000 0.822757 0.328794
O O7 0.847147 0.939951 0.382211
O O8 0.200775 0.075484 0.060630
O O9 0.360162 0.194848 0.090346
O O10 0.357287 0.000000 0.000000
O O11 0.120183 0.313424 0.085736
O O12 0.000000 0.110684 0.081940
O O13 0.175374 0.448022 0.872234
O O14 0.000000 0.483722 0.923877
O O15 0.147669 0.500000 0.000000
O O16 0.832953 0.569418 0.652094
O O17 0.000000 0.696183 0.656736
O O18 0.750000 0.462375 0.750000
#
# Coordination Sequence:
#
# PCOD9418102 Si02
#       7
#     8   8   8   8   8   8   8
#     4   8  17  36  63  90 122 162 207 261 323 388
#     4  10  24  42  61  93 137 172 209 272 336 392
#     4  11  24  40  64  93 124 171 222 270 324 396
#     4  10  20  38  67  95 122 166 222 274 325 394
#     4  10  23  44  67  95 136 180 225 280 339 402
#     4  10  21  39  64  93 124 164 215 266 322 391
#     4  12  25  39  67 102 133 175 219 278 336 401
#
# _framework density 19.713339999999999
#
# number of rings (size 3 to 8) (size 9 to 14) (size 15 to 20)
#    0.000    1.857    1.429    2.571    4.000    4.857 
#    0.000    0.714    0.000    2.571    0.000    0.000 
#    0.000    0.000    0.000    0.000    0.000    0.000 
#
# Total GULP energy -312625.839537 kJ/mol
# GULP energy per Si atom -5582.604277 kJ/mol
# Density = 1.966847 g / cm^3
# Si number density = 19.713340 Si / 1000 Ang^3
#
#
#
# Elastic Constant Matrix: (Units=GPa)
#
#
# Indices 1 2 3 4 5 6 
#
# 1 107.0172 38.8260 9.6484 0.0000 0.0000 0.0000
# 2 38.8260 136.9194 62.7471 0.0000 0.0000 0.0000
# 3 9.6484 62.7471 68.3383 0.0000 0.0000 0.0000
# 4 0.0000 0.0000 0.0000 42.3413 0.0000 0.0000
# 5 0.0000 0.0000 0.0000 0.0000 23.4169 0.0000
# 6 0.0000 0.0000 0.0000 0.0000 0.0000 86.2549
#
#
#
# Elastic Compliance Matrix: (Units=1/GPa)
#
#
# Indices 1 2 3 4 5 6 
#
# 1 0.010601 -0.004006 0.002181 0.000000 0.000000 0.000000
# 2 -0.004006 0.014123 -0.012402 0.000000 0.000000 0.000000
# 3 0.002181 -0.012402 0.025712 0.000000 0.000000 0.000000
# 4 0.000000 0.000000 0.000000 0.023618 0.000000 0.000000
# 5 0.000000 0.000000 0.000000 0.000000 0.042704 0.000000
# 6 0.000000 0.000000 0.000000 0.000000 0.000000 0.011594
#
#
# Mechanical properties :
#
#
# Convention : Reuss Voigt Hill
#
# Bulk Modulus (GPa) = 45.48860 59.41310 52.45085
# Shear Modulus (GPa) = 30.46326 43.80620 37.13473
#
# Velocity S-wave (km/s) = 3.93531 4.71909 4.34491
# Velocity P-wave (km/s) = 6.61619 7.73932 7.19969
#
# Compressibility (1/GPa) = 0.02198353
#
# Stress axis : x y z
#
# Youngs Moduli (GPa) = 94.33152 70.80651 38.89177
#
# Poissons Ratio (x) = 0.28363 -0.08483
# Poissons Ratio (y) = 0.37787 0.48233
# Poissons Ratio (z) = -0.20576 0.87814
#
# Static dielectric constant tensor:
#      x y z
#    x 1.733100 0.000000 0.000000 
#    y 0.000000 1.662300 0.000000 
#    z 0.000000 0.000000 1.690650 
# 
# From -- ./inp_files/32480.got.cif
#   From: 2010.05.17/outbox.cif.g08.bks.cpg/sg53_17_cif.got.tgz:32480.got - 2010.06.03 12:45:16.
