data_PCOD9418408
_publ_section_title
;
Structure prediction by ZEFSAII (Michael W. Deem and Ramdas Pophale) SiO2 
 PCOD9418408
Probable space group: P M N A
;
_chemical_formula_sum "Si O2"
_cell_formula_units_Z 40
_cell_length_a 8.554370
_cell_length_b 7.488362
_cell_length_c 31.362229
_cell_angle_alpha 90.000000
_cell_angle_beta 90.000000
_cell_angle_gamma 90.000000
_cell_volume 2009.008541
_symmetry_space_group_name_H-M "P M N A"
_symmetry_group_IT_number 53
_symmetry_cell_setting 'orthorhombic'
loop_
_space_group_symop_operation_xyz
x,y,z
1/2-x,-y,1/2+z
x,-y,-z
1/2-x,y,1/2-z
-x,-y,-z
1/2+x,y,1/2-z
-x,y,z
1/2+x,-y,1/2+z
loop_
_atom_site_type_symbol
_atom_site_label
_atom_site_fract_x
_atom_site_fract_y
_atom_site_fract_z
Si Si1 0.310945 0.304605 0.112809
Si Si2 0.686699 0.299830 0.206510
Si Si3 0.313028 0.707101 0.293862
Si Si4 0.187219 0.292603 0.887705
Si Si5 0.311160 0.000805 0.951209
O O1 0.500000 0.318450 0.111798
O O2 0.267959 0.228493 0.159816
O O3 0.242593 0.502717 0.108335
O O4 0.258988 0.172560 0.075526
O O5 0.750000 0.214513 0.250000
O O6 0.500000 0.305099 0.209316
O O7 0.752104 0.502475 0.205888
O O8 0.250000 0.789866 0.250000
O O9 0.500000 0.706817 0.291881
O O10 0.263069 0.776912 0.340400
O O11 0.256545 0.172158 0.924840
O O12 0.000000 0.287423 0.889235
O O13 0.500000 0.999539 0.951656
O O14 0.256097 0.000000 0.000000
#
# Coordination Sequence:
#
# PCOD9418408 Si02
#       5
#     8   8   8   8   8
#     4   9  19  36  57  80 107 142 181 220 265 318
#     4   9  15  25  45  73 104 137 172 210 255 308
#     4   9  16  27  46  74 106 140 176 211 254 309
#     4  10  21  36  56  83 113 144 177 219 273 326
#     4  10  22  40  60  80 104 139 185 233 276 323
#
# _framework density 19.910319999999999
#
# number of rings (size 3 to 8) (size 9 to 14) (size 15 to 20)
#    0.000    2.600    0.000    3.000    0.000    5.200 
#    0.000    5.000    0.000    4.800    0.000    0.000 
#    0.000    0.000    0.000    0.000    0.000    0.000 
#
# Total GULP energy -223080.858101 kJ/mol
# GULP energy per Si atom -5577.021453 kJ/mol
# Density = 1.986500 g / cm^3
# Si number density = 19.910320 Si / 1000 Ang^3
#
#
#
# Elastic Constant Matrix: (Units=GPa)
#
#
# Indices 1 2 3 4 5 6 
#
# 1 21.8379 10.6255 42.0875 0.0000 0.0000 0.0000
# 2 10.6255 90.5395 78.9234 0.0000 0.0000 0.0000
# 3 42.0875 78.9234 245.7717 0.0000 0.0000 0.0000
# 4 0.0000 0.0000 0.0000 40.6088 0.0000 0.0000
# 5 0.0000 0.0000 0.0000 0.0000 27.0714 0.0000
# 6 0.0000 0.0000 0.0000 0.0000 0.0000 16.4693
#
#
#
# Elastic Compliance Matrix: (Units=1/GPa)
#
#
# Indices 1 2 3 4 5 6 
#
# 1 0.068954 0.003056 -0.012790 0.000000 0.000000 0.000000
# 2 0.003056 0.015474 -0.005493 0.000000 0.000000 0.000000
# 3 -0.012790 -0.005493 0.008023 0.000000 0.000000 0.000000
# 4 0.000000 0.000000 0.000000 0.024625 0.000000 0.000000
# 5 0.000000 0.000000 0.000000 0.000000 0.036939 0.000000
# 6 0.000000 0.000000 0.000000 0.000000 0.000000 0.060719
#
#
# Mechanical properties :
#
#
# Convention : Reuss Voigt Hill
#
# Bulk Modulus (GPa) = 16.12923 69.04689 42.58806
# Shear Modulus (GPa) = 18.80747 31.93075 25.36911
#
# Velocity S-wave (km/s) = 3.07678 4.00900 3.57342
# Velocity P-wave (km/s) = 4.55419 7.49558 6.20179
#
# Compressibility (1/GPa) = 0.06199925
#
# Stress axis : x y z
#
# Youngs Moduli (GPa) = 14.50249 64.62443 124.64529
#
# Poissons Ratio (x) = -0.19752 1.59416
# Poissons Ratio (y) = -0.04433 0.68462
# Poissons Ratio (z) = 0.18548 0.35495
#
# Static dielectric constant tensor:
#      x y z
#    x 1.671560 0.000000 0.000000 
#    y 0.000000 1.705480 0.000000 
#    z 0.000000 0.000000 1.752550 
# 
# From -- ./inp_files/37511.got.cif
#   From: 2010.05.17/outbox.cif.g08.bks.cpg/sg53_19_cif.got.tgz:37511.got - 2010.06.03 12:45:16.
