data_PCOD9418760
_publ_section_title
;
Structure prediction by ZEFSAII (Michael W. Deem and Ramdas Pophale) SiO2 
 PCOD9418760
Probable space group: P M N A
;
_chemical_formula_sum "Si O2"
_cell_formula_units_Z 28
_cell_length_a 21.074499
_cell_length_b 7.094727
_cell_length_c 8.195619
_cell_angle_alpha 90.000000
_cell_angle_beta 90.000000
_cell_angle_gamma 90.000000
_cell_volume 1225.391062
_symmetry_space_group_name_H-M "P M N A"
_symmetry_group_IT_number 53
_symmetry_cell_setting 'orthorhombic'
loop_
_space_group_symop_operation_xyz
x,y,z
1/2-x,-y,1/2+z
x,-y,-z
1/2-x,y,1/2-z
-x,-y,-z
1/2+x,y,1/2-z
-x,y,z
1/2+x,-y,1/2+z
loop_
_atom_site_type_symbol
_atom_site_label
_atom_site_fract_x
_atom_site_fract_y
_atom_site_fract_z
Si Si1 0.688235 0.873083 0.157117
Si Si2 0.571014 0.649555 0.736407
Si Si3 0.428276 0.215929 0.616893
Si Si4 0.164137 0.500000 0.500000
O O1 0.750000 0.946372 0.250000
O O2 0.626845 0.869612 0.273027
O O3 0.701400 0.655914 0.102517
O O4 0.677075 0.000000 0.000000
O O5 0.500000 0.699232 0.794558
O O6 0.568879 0.434806 0.671012
O O7 0.586146 0.775243 0.577017
O O8 0.620179 0.629746 0.882969
O O9 0.500000 0.141868 0.642143
#
# Coordination Sequence:
#
# PCOD9418760 Si02
#       4
#     8   8   8   4
#     4  11  26  43  62  89 123 163 208 262 318 375
#     4   8  14  29  58  94 128 159 197 250 306 363
#     4   8  16  34  60  90 124 162 202 247 305 372
#     4  10  21  38  64  92 121 166 210 248 306 380
#
# _framework density 22.849845999999999
#
# number of rings (size 3 to 8) (size 9 to 14) (size 15 to 20)
#    0.000    2.857    0.000    2.143    0.000    9.714 
#    0.000    0.000    0.000    4.286    0.000    0.000 
#    0.000    0.000    0.000    0.000    0.000    0.000 
#
# Total GULP energy -156420.020188 kJ/mol
# GULP energy per Si atom -5586.429292 kJ/mol
# Density = 2.279784 g / cm^3
# Si number density = 22.849846 Si / 1000 Ang^3
#
#
#
# Elastic Constant Matrix: (Units=GPa)
#
#
# Indices 1 2 3 4 5 6 
#
# 1 114.7458 40.1399 85.6193 0.0000 0.0000 0.0000
# 2 40.1399 89.9377 34.8759 0.0000 0.0000 0.0000
# 3 85.6193 34.8759 119.0827 0.0000 0.0000 0.0000
# 4 0.0000 0.0000 0.0000 52.9777 0.0000 0.0000
# 5 0.0000 0.0000 0.0000 0.0000 29.8204 0.0000
# 6 0.0000 0.0000 0.0000 0.0000 0.0000 -87.2949
#
#
#
# Elastic Compliance Matrix: (Units=1/GPa)
#
#
# Indices 1 2 3 4 5 6 
#
# 1 0.019865 -0.003754 -0.013183 0.000000 0.000000 0.000000
# 2 -0.003754 0.013253 -0.001182 0.000000 0.000000 0.000000
# 3 -0.013183 -0.001182 0.018223 0.000000 0.000000 0.000000
# 4 0.000000 0.000000 0.000000 0.018876 0.000000 0.000000
# 5 0.000000 0.000000 0.000000 0.000000 0.033534 0.000000
# 6 0.000000 0.000000 0.000000 0.000000 0.000000 -0.011455
#
#
# Mechanical properties :
#
#
# Convention : Reuss Voigt Hill
#
# Bulk Modulus (GPa) = 66.22015 71.67071 68.94543
# Shear Modulus (GPa) = 37.43426 9.97605 23.70515
#
# Velocity S-wave (km/s) = 4.05195 2.09174 3.22441
# Velocity P-wave (km/s) = 7.13684 6.10474 6.64087
#
# Compressibility (1/GPa) = 0.01510114
#
# Stress axis : x y z
#
# Youngs Moduli (GPa) = 50.33981 75.45669 54.87702
#
# Poissons Ratio (x) = 0.28324 0.72347
# Poissons Ratio (y) = 0.18896 0.06489
# Poissons Ratio (z) = 0.66365 0.08922
#
# Static dielectric constant tensor:
#      x y z
#    x 1.784580 0.000000 0.000000 
#    y 0.000000 1.893980 0.000000 
#    z 0.000000 0.000000 1.881090 
# 
# From -- ./inp_files/17288.got.cif
#   From: 2010.05.17/outbox.cif.g08.bks.cpg/sg53_9_cif.got.tgz:17288.got - 2010.06.03 12:45:16.
