data_PCOD9418686
_publ_section_title
;
Structure prediction by ZEFSAII (Michael W. Deem and Ramdas Pophale) SiO2 
 PCOD9418686
Probable space group: P M N A
;
_chemical_formula_sum "Si O2"
_cell_formula_units_Z 48
_cell_length_a 8.705439
_cell_length_b 31.467252
_cell_length_c 9.272624
_cell_angle_alpha 90.000000
_cell_angle_beta 90.000000
_cell_angle_gamma 90.000000
_cell_volume 2540.107779
_symmetry_space_group_name_H-M "P M N A"
_symmetry_group_IT_number 53
_symmetry_cell_setting 'orthorhombic'
loop_
_space_group_symop_operation_xyz
x,y,z
1/2-x,-y,1/2+z
x,-y,-z
1/2-x,y,1/2-z
-x,-y,-z
1/2+x,y,1/2-z
-x,y,z
1/2+x,-y,1/2+z
loop_
_atom_site_type_symbol
_atom_site_label
_atom_site_fract_x
_atom_site_fract_y
_atom_site_fract_z
Si Si1 0.684086 0.795299 0.089358
Si Si2 0.184620 0.874229 0.911093
Si Si3 0.684252 0.288574 0.090271
Si Si4 0.315961 0.542358 0.090256
Si Si5 0.816384 0.620336 0.910763
Si Si6 0.185344 0.041643 0.911150
O O1 0.750000 0.797703 0.250000
O O2 0.500000 0.799438 0.093453
O O3 0.752744 0.832877 0.992518
O O4 0.721907 0.750177 0.015326
O O5 0.250000 0.876447 0.750000
O O6 0.000000 0.872547 0.905045
O O7 0.230435 0.916012 0.001933
O O8 0.750000 0.279629 0.250000
O O9 0.500000 0.292827 0.099923
O O10 0.755693 0.333368 0.041909
O O11 0.250000 0.538209 0.250000
O O12 0.500000 0.546770 0.094690
O O13 0.278374 0.500000 0.000000
O O14 0.244106 0.583220 0.012777
O O15 0.750000 0.613378 0.750000
O O16 0.000000 0.620452 0.905169
O O17 0.250000 0.041683 0.750000
O O18 0.000000 0.040921 0.902884
O O19 0.235406 0.000000 0.000000
#
# Coordination Sequence:
#
# PCOD9418686 Si02
#       6
#     8   8   8   8   8   8
#     4  11  24  40  60  86 118 155 195 242 293 347
#     4  11  23  39  61  87 117 153 195 242 292 349
#     4  10  21  38  60  86 116 152 195 240 289 346
#     4  11  24  41  62  88 119 155 196 241 290 346
#     4  11  22  38  62  89 120 156 195 241 291 345
#     4  10  22  39  59  86 118 153 194 239 289 345
#
# _framework density 18.896833999999998
#
# number of rings (size 3 to 8) (size 9 to 14) (size 15 to 20)
#    0.000    1.333    0.000    6.500    0.000   10.333 
#    0.000    1.667    0.000    0.000    0.000    0.000 
#    0.000    0.000    0.000    0.000    0.000    0.000 
#
# Total GULP energy -268504.078510 kJ/mol
# GULP energy per Si atom -5593.834969 kJ/mol
# Density = 1.885382 g / cm^3
# Si number density = 18.896834 Si / 1000 Ang^3
#
#
#
# Elastic Constant Matrix: (Units=GPa)
#
#
# Indices 1 2 3 4 5 6 
#
# 1 83.7507 82.7242 69.8691 0.0000 0.0000 0.0000
# 2 82.7242 190.5898 135.9309 0.0000 0.0000 0.0000
# 3 69.8691 135.9309 183.4948 0.0000 0.0000 0.0000
# 4 0.0000 0.0000 0.0000 25.7177 0.0000 0.0000
# 5 0.0000 0.0000 0.0000 0.0000 38.4475 0.0000
# 6 0.0000 0.0000 0.0000 0.0000 0.0000 27.6136
#
#
#
# Elastic Compliance Matrix: (Units=1/GPa)
#
#
# Indices 1 2 3 4 5 6 
#
# 1 0.021515 -0.007411 -0.002702 0.000000 0.000000 0.000000
# 2 -0.007411 0.013677 -0.007310 0.000000 0.000000 0.000000
# 3 -0.002702 -0.007310 0.011894 0.000000 0.000000 0.000000
# 4 0.000000 0.000000 0.000000 0.038884 0.000000 0.000000
# 5 0.000000 0.000000 0.000000 0.000000 0.026009 0.000000
# 6 0.000000 0.000000 0.000000 0.000000 0.000000 0.036214
#
#
# Mechanical properties :
#
#
# Convention : Reuss Voigt Hill
#
# Bulk Modulus (GPa) = 81.70398 114.98709 98.34553
# Shear Modulus (GPa) = 26.72096 29.64318 28.18207
#
# Velocity S-wave (km/s) = 3.76446 3.96496 3.86601
# Velocity P-wave (km/s) = 7.88832 9.05225 8.49025
#
# Compressibility (1/GPa) = 0.01223931
#
# Stress axis : x y z
#
# Youngs Moduli (GPa) = 46.47980 73.11420 84.07801
#
# Poissons Ratio (x) = 0.54187 0.22718
# Poissons Ratio (y) = 0.34447 0.61461
# Poissons Ratio (z) = 0.12559 0.53446
#
# Static dielectric constant tensor:
#      x y z
#    x 1.635760 0.000000 0.000000 
#    y 0.000000 1.639580 0.000000 
#    z 0.000000 0.000000 1.609530 
# 
# From -- ./inp_files/6762.got.cif
#   From: 2010.05.17/outbox.cif.g08.bks.cpg/sg53_4_cif.got.tgz:6762.got - 2010.06.03 12:45:16.
