data_PCOD9418472
_publ_section_title
;
Structure prediction by ZEFSAII (Michael W. Deem and Ramdas Pophale) SiO2 
 PCOD9418472
Probable space group: P M N A
;
_chemical_formula_sum "Si O2"
_cell_formula_units_Z 64
_cell_length_a 14.413892
_cell_length_b 8.841089
_cell_length_c 24.719184
_cell_angle_alpha 90.000000
_cell_angle_beta 90.000000
_cell_angle_gamma 90.000000
_cell_volume 3150.076903
_symmetry_space_group_name_H-M "P M N A"
_symmetry_group_IT_number 53
_symmetry_cell_setting 'orthorhombic'
loop_
_space_group_symop_operation_xyz
x,y,z
1/2-x,-y,1/2+z
x,-y,-z
1/2-x,y,1/2-z
-x,-y,-z
1/2+x,y,1/2-z
-x,y,z
1/2+x,-y,1/2+z
loop_
_atom_site_type_symbol
_atom_site_label
_atom_site_fract_x
_atom_site_fract_y
_atom_site_fract_z
Si Si1 0.279622 0.069807 0.055926
Si Si2 0.892883 0.934310 0.661083
Si Si3 0.720377 0.569804 0.944074
Si Si4 0.391383 0.928844 0.392835
Si Si5 0.113021 0.423564 0.220594
Si Si6 0.113021 0.076436 0.220595
Si Si7 0.608617 0.428843 0.607164
Si Si8 0.607117 0.565687 0.838917
O O1 0.285337 0.250001 0.053170
O O2 0.336287 0.016556 0.108761
O O3 0.174594 0.017944 0.066727
O O4 0.314237 0.000000 0.000000
O O5 0.855363 0.979493 0.720354
O O6 0.000000 0.982175 0.656067
O O7 0.891989 0.749999 0.662328
O O8 0.825405 0.517941 0.933274
O O9 0.663714 0.516553 0.891238
O O10 0.685760 0.500000 0.000000
O O11 0.500000 0.965523 0.400259
O O12 0.365205 0.978339 0.331723
O O13 0.378993 0.750000 0.399533
O O14 0.134796 0.521659 0.168276
O O15 0.144637 0.479494 0.279645
O O16 0.000000 0.418845 0.224466
O O17 0.144846 0.250000 0.211608
O O18 0.000000 0.081156 0.224467
O O19 0.500000 0.465522 0.599740
O O20 0.500000 0.517822 0.843932
#
# Coordination Sequence:
#
# PCOD9418472 Si02
#       8
#     8   8   8   8   8   8   8   8
#     4  11  23  38  56  78 106 141 183 226 264 310
#     4   8  16  33  57  83 110 141 176 214 259 314
#     4  11  23  38  56  78 106 141 183 226 264 310
#     4  10  21  37  56  79 109 142 175 217 269 320
#     4   8  14  29  55  83 108 136 173 214 258 314
#     4   8  14  29  55  83 108 136 173 214 258 314
#     4  10  21  37  56  79 109 142 175 217 269 320
#     4   8  16  33  57  83 110 141 176 214 259 314
#
# _framework density 20.316963999999999
#
# number of rings (size 3 to 8) (size 9 to 14) (size 15 to 20)
#    0.000    2.750    0.000    3.000    0.000    3.500 
#    0.000    7.500    0.000    5.250    0.000    0.000 
#    0.000    0.000    0.000    0.000    0.000    0.000 
#
# Total GULP energy -357319.769028 kJ/mol
# GULP energy per Si atom -5583.121391 kJ/mol
# Density = 2.027072 g / cm^3
# Si number density = 20.316964 Si / 1000 Ang^3
#
#
#
# Elastic Constant Matrix: (Units=GPa)
#
#
# Indices 1 2 3 4 5 6 
#
# 1 44.5671 9.6056 16.0271 0.0000 0.0000 0.0000
# 2 9.6056 21.0777 8.5397 0.0000 0.0000 0.0000
# 3 16.0271 8.5397 85.5241 0.0000 0.0000 0.0000
# 4 0.0000 0.0000 0.0000 34.7965 0.0000 0.0000
# 5 0.0000 0.0000 0.0000 0.0000 24.5473 0.0000
# 6 0.0000 0.0000 0.0000 0.0000 0.0000 10.8491
#
#
#
# Elastic Compliance Matrix: (Units=1/GPa)
#
#
# Indices 1 2 3 4 5 6 
#
# 1 0.026045 -0.010309 -0.003851 0.000000 0.000000 0.000000
# 2 -0.010309 0.053524 -0.003413 0.000000 0.000000 0.000000
# 3 -0.003851 -0.003413 0.012755 0.000000 0.000000 0.000000
# 4 0.000000 0.000000 0.000000 0.028738 0.000000 0.000000
# 5 0.000000 0.000000 0.000000 0.000000 0.040738 0.000000
# 6 0.000000 0.000000 0.000000 0.000000 0.000000 0.092174
#
#
# Mechanical properties :
#
#
# Convention : Reuss Voigt Hill
#
# Bulk Modulus (GPa) = 17.48908 24.39038 20.93973
# Shear Modulus (GPa) = 16.22430 21.83835 19.03132
#
# Velocity S-wave (km/s) = 2.82894 3.28210 3.06391
# Velocity P-wave (km/s) = 4.39288 5.13750 4.77971
#
# Compressibility (1/GPa) = 0.05717854
#
# Stress axis : x y z
#
# Youngs Moduli (GPa) = 38.39506 18.68313 78.39992
#
# Poissons Ratio (x) = 0.19260 0.30195
# Poissons Ratio (y) = 0.39581 0.26755
# Poissons Ratio (z) = 0.14788 0.06376
#
# Static dielectric constant tensor:
#      x y z
#    x 1.760040 0.000000 0.000000 
#    y 0.000000 1.677280 0.000000 
#    z 0.000000 0.000000 1.731650 
# 
# From -- ./inp_files/34196.got.cif
#   From: 2010.05.17/outbox.cif.g08.bks.cpg/sg53_18_cif.got.tgz:34196.got - 2010.06.03 12:45:16.
