data_PCOD9418767
_publ_section_title
;
Structure prediction by ZEFSAII (Michael W. Deem and Ramdas Pophale) SiO2 
 PCOD9418767
Probable space group: P M N A
;
_chemical_formula_sum "Si O2"
_cell_formula_units_Z 64
_cell_length_a 16.630353
_cell_length_b 19.680344
_cell_length_c 9.103504
_cell_angle_alpha 90.000000
_cell_angle_beta 90.000000
_cell_angle_gamma 90.000000
_cell_volume 2979.495546
_symmetry_space_group_name_H-M "P M N A"
_symmetry_group_IT_number 53
_symmetry_cell_setting 'orthorhombic'
loop_
_space_group_symop_operation_xyz
x,y,z
1/2-x,-y,1/2+z
x,-y,-z
1/2-x,y,1/2-z
-x,-y,-z
1/2+x,y,1/2-z
-x,y,z
1/2+x,-y,1/2+z
loop_
_atom_site_type_symbol
_atom_site_label
_atom_site_fract_x
_atom_site_fract_y
_atom_site_fract_z
Si Si1 0.908946 0.680428 0.060710
Si Si2 0.160344 0.394870 0.196631
Si Si3 0.746385 0.867476 0.082093
Si Si4 0.406894 0.389664 0.988798
Si Si5 0.092744 0.924042 0.933231
Si Si6 0.821596 0.723724 0.324277
Si Si7 0.589918 0.073077 0.078927
Si Si8 0.093877 0.467699 0.786553
O O1 0.880685 0.733198 0.185379
O O2 0.904809 0.606015 0.137230
O O3 0.000000 0.695199 0.018909
O O4 0.858921 0.665935 0.914612
O O5 0.250000 0.387663 0.250000
O O6 0.104293 0.396308 0.339707
O O7 0.144659 0.471794 0.143190
O O8 0.750000 0.896762 0.250000
O O9 0.721096 0.789072 0.108440
O O10 0.831780 0.882156 0.002145
O O11 0.670134 0.894853 0.990837
O O12 0.500000 0.384291 0.951172
O O13 0.364472 0.320238 0.944462
O O14 0.377713 0.449213 0.879332
O O15 0.099480 0.928980 0.755796
O O16 0.000000 0.899963 0.965700
O O17 0.099244 0.000000 0.000000
O O18 0.750000 0.680461 0.250000
O O19 0.500000 0.104848 0.050703
O O20 0.586219 0.000000 0.000000
O O21 0.000000 0.489153 0.789414
#
# Coordination Sequence:
#
# PCOD9418767 Si02
#       8
#     8   8   8   8   8   8   8   8
#     4  10  21  39  60  80 111 156 203 248 304 381
#     4  12  23  33  54  88 120 148 187 250 318 379
#     4  11  23  39  63  92 127 171 217 270 322 375
#     4  10  21  39  61  81 110 152 196 244 304 376
#     4  10  21  40  67 100 140 180 218 262 319 391
#     4  10  22  41  60  81 110 151 200 251 302 358
#     4  10  21  38  64  99 136 173 213 262 323 389
#     4   9  19  35  56  83 113 147 190 241 307 389
#
# _framework density 21.480146999999999
#
# number of rings (size 3 to 8) (size 9 to 14) (size 15 to 20)
#    0.000    1.750    0.000    5.250    0.000    8.500 
#    0.000   10.000    0.000    3.000    0.000    0.000 
#    0.000    0.000    0.000    0.000    0.000    0.000 
#
# Total GULP energy -356799.483777 kJ/mol
# GULP energy per Si atom -5574.991934 kJ/mol
# Density = 2.143126 g / cm^3
# Si number density = 21.480147 Si / 1000 Ang^3
#
#
#
# Elastic Constant Matrix: (Units=GPa)
#
#
# Indices 1 2 3 4 5 6 
#
# 1 158.2369 50.5462 54.5080 0.0000 0.0000 0.0000
# 2 50.5462 63.0775 30.9014 0.0000 0.0000 0.0000
# 3 54.5080 30.9014 119.6357 0.0000 0.0000 0.0000
# 4 0.0000 0.0000 0.0000 27.1647 0.0000 0.0000
# 5 0.0000 0.0000 0.0000 0.0000 671.8006 0.0000
# 6 0.0000 0.0000 0.0000 0.0000 0.0000 19.5768
#
#
#
# Elastic Compliance Matrix: (Units=1/GPa)
#
#
# Indices 1 2 3 4 5 6 
#
# 1 0.009152 -0.006058 -0.002605 0.000000 0.000000 0.000000
# 2 -0.006058 0.022160 -0.002964 0.000000 0.000000 0.000000
# 3 -0.002605 -0.002964 0.010311 0.000000 0.000000 0.000000
# 4 0.000000 0.000000 0.000000 0.036812 0.000000 0.000000
# 5 0.000000 0.000000 0.000000 0.000000 0.001489 0.000000
# 6 0.000000 0.000000 0.000000 0.000000 0.000000 0.051081
#
#
# Mechanical properties :
#
#
# Convention : Reuss Voigt Hill
#
# Bulk Modulus (GPa) = 54.43731 68.09571 61.26651
# Shear Modulus (GPa) = 31.17574 157.37472 94.27523
#
# Velocity S-wave (km/s) = 3.81382 8.56880 6.63210
# Velocity P-wave (km/s) = 6.69267 11.38725 9.33973
#
# Compressibility (1/GPa) = 0.01836975
#
# Stress axis : x y z
#
# Youngs Moduli (GPa) = 109.26530 45.12710 96.98186
#
# Poissons Ratio (x) = 0.27336 0.25265
# Poissons Ratio (y) = 0.66188 0.28744
# Poissons Ratio (z) = 0.28465 0.13375
#
# Static dielectric constant tensor:
#      x y z
#    x 1.846690 0.000000 0.000000 
#    y 0.000000 1.818140 0.000000 
#    z 0.000000 0.000000 1.949300 
# 
# From -- ./inp_files/8926.got.cif
#   From: 2010.05.17/outbox.cif.g08.bks.cpg/sg53_5_cif.got.tgz:8926.got - 2010.06.03 12:45:16.
