data_PCOD9418929
_publ_section_title
;
Structure prediction by ZEFSAII (Michael W. Deem and Ramdas Pophale) SiO2 
 PCOD9418929
Probable space group: P M N A
;
_chemical_formula_sum "Si O2"
_cell_formula_units_Z 56
_cell_length_a 18.815096
_cell_length_b 15.576593
_cell_length_c 9.722051
_cell_angle_alpha 90.000000
_cell_angle_beta 90.000000
_cell_angle_gamma 90.000000
_cell_volume 2849.290998
_symmetry_space_group_name_H-M "P M N A"
_symmetry_group_IT_number 53
_symmetry_cell_setting 'orthorhombic'
loop_
_space_group_symop_operation_xyz
x,y,z
1/2-x,-y,1/2+z
x,-y,-z
1/2-x,y,1/2-z
-x,-y,-z
1/2+x,y,1/2-z
-x,y,z
1/2+x,-y,1/2+z
loop_
_atom_site_type_symbol
_atom_site_label
_atom_site_fract_x
_atom_site_fract_y
_atom_site_fract_z
Si Si1 0.153767 0.262584 0.992354
Si Si2 0.915583 0.225675 0.282152
Si Si3 0.315739 0.543958 0.149235
Si Si4 0.081653 0.568090 0.123208
Si Si5 0.334654 0.867385 0.250052
Si Si6 0.084148 0.973074 0.657656
Si Si7 0.680374 0.729051 0.022244
O O1 0.130527 0.352039 0.922772
O O2 0.141930 0.187776 0.881220
O O3 0.108863 0.249519 0.129676
O O4 0.238001 0.259159 0.024169
O O5 0.897555 0.125390 0.310925
O O6 0.871390 0.279844 0.393204
O O7 0.000000 0.236789 0.298982
O O8 0.250000 0.522056 0.250000
O O9 0.385952 0.526483 0.239006
O O10 0.310780 0.500000 0.000000
O O11 0.317220 0.645282 0.117176
O O12 0.000000 0.595807 0.143368
O O13 0.083842 0.500000 0.000000
O O14 0.250000 0.880030 0.250000
O O15 0.373403 0.957833 0.245702
O O16 0.346929 0.808203 0.115334
O O17 0.000000 0.982742 0.680926
O O18 0.098588 0.000000 0.500000
#
# Coordination Sequence:
#
# PCOD9418929 Si02
#       7
#     8   8   8   8   8   8   8
#     4  11  23  43  65  95 132 169 218 275 328 390
#     4  11  25  41  62  97 132 172 220 269 327 391
#     4  12  25  44  71 101 133 170 223 273 325 395
#     4  11  25  45  67  96 140 181 216 271 335 389
#     4  10  21  40  65  91 127 166 213 273 326 386
#     4  10  21  40  63  90 127 170 218 266 324 390
#     4  11  22  42  67  95 128 169 222 261 322 396
#
# _framework density 19.654012999999999
#
# number of rings (size 3 to 8) (size 9 to 14) (size 15 to 20)
#    0.000    1.143    4.286    1.714    2.000    3.714 
#    0.000    1.429    0.000    0.000    0.000    0.000 
#    0.000    0.000    0.000    0.000    0.000    0.000 
#
# Total GULP energy -312944.960964 kJ/mol
# GULP energy per Si atom -5588.302874 kJ/mol
# Density = 1.960928 g / cm^3
# Si number density = 19.654013 Si / 1000 Ang^3
#
#
#
# Elastic Constant Matrix: (Units=GPa)
#
#
# Indices 1 2 3 4 5 6 
#
# 1 68.6363 15.1628 55.9566 0.0000 0.0000 0.0000
# 2 15.1628 34.3402 23.2587 0.0000 0.0000 0.0000
# 3 55.9566 23.2587 124.4543 0.0000 0.0000 0.0000
# 4 0.0000 0.0000 0.0000 28.7025 0.0000 0.0000
# 5 0.0000 0.0000 0.0000 0.0000 15.6652 0.0000
# 6 0.0000 0.0000 0.0000 0.0000 0.0000 23.4936
#
#
#
# Elastic Compliance Matrix: (Units=1/GPa)
#
#
# Indices 1 2 3 4 5 6 
#
# 1 0.023398 -0.003671 -0.009834 0.000000 0.000000 0.000000
# 2 -0.003671 0.033916 -0.004688 0.000000 0.000000 0.000000
# 3 -0.009834 -0.004688 0.013333 0.000000 0.000000 0.000000
# 4 0.000000 0.000000 0.000000 0.034840 0.000000 0.000000
# 5 0.000000 0.000000 0.000000 0.000000 0.063836 0.000000
# 6 0.000000 0.000000 0.000000 0.000000 0.000000 0.042565
#
#
# Mechanical properties :
#
#
# Convention : Reuss Voigt Hill
#
# Bulk Modulus (GPa) = 29.18734 46.24300 37.71517
# Shear Modulus (GPa) = 19.25347 22.44244 20.84795
#
# Velocity S-wave (km/s) = 3.13328 3.38283 3.26045
# Velocity P-wave (km/s) = 5.28893 6.23199 5.77972
#
# Compressibility (1/GPa) = 0.03426143
#
# Stress axis : x y z
#
# Youngs Moduli (GPa) = 42.73918 29.48426 75.00327
#
# Poissons Ratio (x) = 0.10822 0.73758
# Poissons Ratio (y) = 0.15688 0.35163
# Poissons Ratio (z) = 0.42030 0.13823
#
# Static dielectric constant tensor:
#      x y z
#    x 1.680840 0.000000 0.000000 
#    y 0.000000 1.682270 0.000000 
#    z 0.000000 0.000000 1.694340 
# 
# From -- ./inp_files/11075.got.cif
#   From: 2010.05.17/outbox.cif.g08.bks.cpg/sg53_6_cif.got.tgz:11075.got - 2010.06.03 12:45:16.
