data_PCOD9418959
_publ_section_title
;
Structure prediction by ZEFSAII (Michael W. Deem and Ramdas Pophale) SiO2 
 PCOD9418959
Probable space group: P M N A
;
_chemical_formula_sum "Si O2"
_cell_formula_units_Z 40
_cell_length_a 17.235933
_cell_length_b 9.484252
_cell_length_c 10.056464
_cell_angle_alpha 90.000000
_cell_angle_beta 90.000000
_cell_angle_gamma 90.000000
_cell_volume 1643.929487
_symmetry_space_group_name_H-M "P M N A"
_symmetry_group_IT_number 53
_symmetry_cell_setting 'orthorhombic'
loop_
_space_group_symop_operation_xyz
x,y,z
1/2-x,-y,1/2+z
x,-y,-z
1/2-x,y,1/2-z
-x,-y,-z
1/2+x,y,1/2-z
-x,y,z
1/2+x,-y,1/2+z
loop_
_atom_site_type_symbol
_atom_site_label
_atom_site_fract_x
_atom_site_fract_y
_atom_site_fract_z
Si Si1 0.660927 0.729135 0.804090
Si Si2 0.590383 0.962825 0.212958
Si Si3 0.289664 0.112450 0.610777
Si Si4 0.409004 0.492351 0.655332
Si Si5 0.660429 0.687059 0.097661
O O1 0.750000 0.721311 0.750000
O O2 0.605414 0.651892 0.701232
O O3 0.632294 0.889243 0.814603
O O4 0.647946 0.647723 0.944436
O O5 0.500000 0.984422 0.208201
O O6 0.620387 0.901936 0.355384
O O7 0.614832 0.835652 0.115826
O O8 0.250000 0.071048 0.750000
O O9 0.251047 0.263829 0.589540
O O10 0.269756 0.000000 0.500000
O O11 0.385039 0.500000 0.500000
O O12 0.500000 0.451447 0.662109
O O13 0.363560 0.402845 0.772055
#
# Coordination Sequence:
#
# PCOD9418959 Si02
#       5
#     8   8   8   8   8
#     4  12  26  45  73 107 141 184 237 293 353 422
#     4  11  24  41  69 108 145 182 231 292 354 419
#     4  10  21  40  66  98 138 176 225 286 346 412
#     4  11  28  51  72 102 145 188 236 295 356 422
#     4  11  23  45  74 102 140 188 236 290 353 425
#
# _framework density 24.331942999999999
#
# number of rings (size 3 to 8) (size 9 to 14) (size 15 to 20)
#    0.000    1.000    0.000    7.800    0.000   17.200 
#    0.000    0.000    0.000    0.000    0.000    0.000 
#    0.000    0.000    0.000    0.000    0.000    0.000 
#
# Total GULP energy -223123.968157 kJ/mol
# GULP energy per Si atom -5578.099204 kJ/mol
# Density = 2.427656 g / cm^3
# Si number density = 24.331943 Si / 1000 Ang^3
#
#
#
# Elastic Constant Matrix: (Units=GPa)
#
#
# Indices 1 2 3 4 5 6 
#
# 1 84.7588 16.9503 36.6968 0.0000 0.0000 0.0000
# 2 16.9503 83.8675 50.9341 0.0000 0.0000 0.0000
# 3 36.6968 50.9341 192.7179 0.0000 0.0000 0.0000
# 4 0.0000 0.0000 0.0000 45.1471 0.0000 0.0000
# 5 0.0000 0.0000 0.0000 0.0000 19.3117 0.0000
# 6 0.0000 0.0000 0.0000 0.0000 0.0000 16.8500
#
#
#
# Elastic Compliance Matrix: (Units=1/GPa)
#
#
# Indices 1 2 3 4 5 6 
#
# 1 0.012983 -0.001337 -0.002119 0.000000 0.000000 0.000000
# 2 -0.001337 0.014341 -0.003536 0.000000 0.000000 0.000000
# 3 -0.002119 -0.003536 0.006527 0.000000 0.000000 0.000000
# 4 0.000000 0.000000 0.000000 0.022150 0.000000 0.000000
# 5 0.000000 0.000000 0.000000 0.000000 0.051782 0.000000
# 6 0.000000 0.000000 0.000000 0.000000 0.000000 0.059347
#
#
# Mechanical properties :
#
#
# Convention : Reuss Voigt Hill
#
# Bulk Modulus (GPa) = 50.33306 63.38962 56.86134
# Shear Modulus (GPa) = 26.63322 33.37930 30.00626
#
# Velocity S-wave (km/s) = 3.31203 3.70784 3.51551
# Velocity P-wave (km/s) = 5.94617 6.66628 6.31650
#
# Compressibility (1/GPa) = 0.01986766
#
# Stress axis : x y z
#
# Youngs Moduli (GPa) = 77.02419 69.72980 153.21396
#
# Poissons Ratio (x) = 0.09324 0.32462
# Poissons Ratio (y) = 0.10300 0.54171
# Poissons Ratio (z) = 0.16320 0.24654
#
# Static dielectric constant tensor:
#      x y z
#    x 2.018650 0.000000 0.000000 
#    y 0.000000 1.990420 0.000000 
#    z 0.000000 0.000000 2.009090 
# 
# From -- ./inp_files/16685.got.cif
#   From: 2010.05.17/outbox.cif.g08.bks.cpg/sg53_9_cif.got.tgz:16685.got - 2010.06.03 12:45:16.
