data_PCOD9418307
_publ_section_title
;
Structure prediction by ZEFSAII (Michael W. Deem and Ramdas Pophale) SiO2 
 PCOD9418307
Probable space group: P M N A
;
_chemical_formula_sum "Si O2"
_cell_formula_units_Z 52
_cell_length_a 22.106172
_cell_length_b 21.702563
_cell_length_c 5.326177
_cell_angle_alpha 90.000000
_cell_angle_beta 90.000000
_cell_angle_gamma 90.000000
_cell_volume 2555.289823
_symmetry_space_group_name_H-M "P M N A"
_symmetry_group_IT_number 53
_symmetry_cell_setting 'orthorhombic'
loop_
_space_group_symop_operation_xyz
x,y,z
1/2-x,-y,1/2+z
x,-y,-z
1/2-x,y,1/2-z
-x,-y,-z
1/2+x,y,1/2-z
-x,y,z
1/2+x,-y,1/2+z
loop_
_atom_site_type_symbol
_atom_site_label
_atom_site_fract_x
_atom_site_fract_y
_atom_site_fract_z
Si Si1 0.073678 0.963337 0.751608
Si Si2 0.180538 0.435969 0.940454
Si Si3 0.572875 0.248595 0.641414
Si Si4 0.859462 0.347035 0.564196
Si Si5 0.427103 0.824918 0.853667
Si Si6 0.568094 0.441854 0.194780
Si Si7 0.250000 0.335429 0.250000
O O1 0.095326 0.893132 0.717791
O O2 0.000000 0.961374 0.765597
O O3 0.089531 0.000000 0.500000
O O4 0.094095 0.000000 0.000000
O O5 0.117702 0.443507 0.088462
O O6 0.214771 0.379209 0.060324
O O7 0.213143 0.500000 0.000000
O O8 0.168974 0.412073 0.660915
O O9 0.500000 0.260349 0.647128
O O10 0.613100 0.307270 0.711369
O O11 0.589354 0.221509 0.370357
O O12 0.586911 0.200251 0.868423
O O13 0.917631 0.374213 0.420588
O O14 0.806814 0.310077 0.414786
O O15 0.500000 0.828661 0.848151
O O16 0.500000 0.443552 0.292119
O O17 0.573389 0.500000 0.000000
#
# Coordination Sequence:
#
# PCOD9418307 Si02
#       7
#     8   8   8   8   8   8   4
#     4   9  15  24  43  70 104 146 192 233 263 301
#     4  11  23  38  58  80 101 131 172 224 289 345
#     4  10  21  35  55  77 110 152 191 231 272 335
#     4  11  23  40  55  79 100 139 184 227 287 336
#     4   9  18  32  48  75 110 150 195 231 267 315
#     4  10  21  36  53  79 109 134 169 219 276 337
#     4  10  26  38  60  76 100 126 176 234 288 352
#
# _framework density 20.349941000000001
#
# number of rings (size 3 to 8) (size 9 to 14) (size 15 to 20)
#    0.000    2.000    1.538    1.846    6.462    5.231 
#    0.000    0.000    0.000    0.000    0.000    0.000 
#    0.000    0.000    0.000    4.154    2.462    2.000 
#
# Total GULP energy -289788.121581 kJ/mol
# GULP energy per Si atom -5572.848492 kJ/mol
# Density = 2.030362 g / cm^3
# Si number density = 20.349941 Si / 1000 Ang^3
#
#
#
# Elastic Constant Matrix: (Units=GPa)
#
#
# Indices 1 2 3 4 5 6 
#
# 1 82.2040 13.4502 21.5268 0.0000 0.0000 0.0000
# 2 13.4502 64.4533 2.5355 0.0000 0.0000 0.0000
# 3 21.5268 2.5355 60.6704 0.0000 0.0000 0.0000
# 4 0.0000 0.0000 0.0000 32.5973 0.0000 0.0000
# 5 0.0000 0.0000 0.0000 0.0000 27.9852 0.0000
# 6 0.0000 0.0000 0.0000 0.0000 0.0000 8.6000
#
#
#
# Elastic Compliance Matrix: (Units=1/GPa)
#
#
# Indices 1 2 3 4 5 6 
#
# 1 0.013866 -0.002705 -0.004807 0.000000 0.000000 0.000000
# 2 -0.002705 0.016068 0.000288 0.000000 0.000000 0.000000
# 3 -0.004807 0.000288 0.018176 0.000000 0.000000 0.000000
# 4 0.000000 0.000000 0.000000 0.030677 0.000000 0.000000
# 5 0.000000 0.000000 0.000000 0.000000 0.035733 0.000000
# 6 0.000000 0.000000 0.000000 0.000000 0.000000 0.116280
#
#
# Mechanical properties :
#
#
# Convention : Reuss Voigt Hill
#
# Bulk Modulus (GPa) = 29.70557 31.37250 30.53904
# Shear Modulus (GPa) = 19.49558 25.15751 22.32655
#
# Velocity S-wave (km/s) = 3.09854 3.51984 3.31589
# Velocity P-wave (km/s) = 5.23740 5.65412 5.44974
#
# Compressibility (1/GPa) = 0.03366372
#
# Stress axis : x y z
#
# Youngs Moduli (GPa) = 72.11805 62.23488 55.01754
#
# Poissons Ratio (x) = 0.16831 0.26446
# Poissons Ratio (y) = 0.19504 -0.01585
# Poissons Ratio (z) = 0.34666 -0.01793
#
# Static dielectric constant tensor:
#      x y z
#    x 1.756460 0.000000 0.000000 
#    y 0.000000 1.785230 0.000000 
#    z 0.000000 0.000000 2.000050 
# 
# From -- ./inp_files/2997.got.cif
#   From: 2010.05.17/outbox.cif.g08.bks.cpg/sg53_2_cif.got.tgz:2997.got - 2010.06.03 12:45:16.
