data_PCOD9418901
_publ_section_title
;
Structure prediction by ZEFSAII (Michael W. Deem and Ramdas Pophale) SiO2 
 PCOD9418901
Probable space group: P M N A
;
_chemical_formula_sum "Si O2"
_cell_formula_units_Z 40
_cell_length_a 14.690580
_cell_length_b 9.476599
_cell_length_c 13.504080
_cell_angle_alpha 90.000000
_cell_angle_beta 90.000000
_cell_angle_gamma 90.000000
_cell_volume 1879.993937
_symmetry_space_group_name_H-M "P M N A"
_symmetry_group_IT_number 53
_symmetry_cell_setting 'orthorhombic'
loop_
_space_group_symop_operation_xyz
x,y,z
1/2-x,-y,1/2+z
x,-y,-z
1/2-x,y,1/2-z
-x,-y,-z
1/2+x,y,1/2-z
-x,y,z
1/2+x,-y,1/2+z
loop_
_atom_site_type_symbol
_atom_site_label
_atom_site_fract_x
_atom_site_fract_y
_atom_site_fract_z
Si Si1 0.345398 0.000000 0.500000
Si Si2 0.603864 0.716590 0.607467
Si Si3 0.894536 0.799713 0.673247
Si Si4 0.702365 0.905333 0.152565
Si Si5 0.397907 0.677551 0.047572
Si Si6 0.261046 0.500000 0.500000
O O1 0.393236 0.121307 0.434188
O O2 0.280040 0.089378 0.570609
O O3 0.500000 0.665875 0.593832
O O4 0.625395 0.718639 0.724831
O O5 0.675141 0.615812 0.552053
O O6 0.888247 0.718178 0.568842
O O7 0.000000 0.845668 0.681591
O O8 0.830624 0.935419 0.669119
O O9 0.750000 0.847368 0.250000
O O10 0.618459 0.816671 0.111714
O O11 0.500000 0.622505 0.065446
O O12 0.312008 0.578531 0.071230
#
# Coordination Sequence:
#
# PCOD9418901 Si02
#       6
#     4   8   8   8   8   4
#     4  12  21  40  65  96 130 182 221 284 335 400
#     4  11  24  43  68 101 139 182 233 280 340 409
#     4  10  21  39  68  99 130 174 230 284 334 402
#     4  12  21  37  67 101 135 172 223 281 341 398
#     4  11  24  44  67  98 138 179 224 281 343 403
#     4  12  24  44  68  96 138 184 224 280 346 404
#
# _framework density 21.276664
#
# number of rings (size 3 to 8) (size 9 to 14) (size 15 to 20)
#    0.000    0.800    6.000    1.500    0.000    1.600 
#    3.600    0.000    0.000    0.000    0.000    0.000 
#    0.000    0.000    0.000    0.000    0.000    0.000 
#
# Total GULP energy -223378.376631 kJ/mol
# GULP energy per Si atom -5584.459416 kJ/mol
# Density = 2.122824 g / cm^3
# Si number density = 21.276664 Si / 1000 Ang^3
#
#
#
# Elastic Constant Matrix: (Units=GPa)
#
#
# Indices 1 2 3 4 5 6 
#
# 1 130.6064 38.0654 25.5899 0.0000 0.0000 0.0000
# 2 38.0654 61.6307 7.8048 0.0000 0.0000 0.0000
# 3 25.5899 7.8048 90.5530 0.0000 0.0000 0.0000
# 4 0.0000 0.0000 0.0000 13.7404 0.0000 0.0000
# 5 0.0000 0.0000 0.0000 0.0000 25.7055 0.0000
# 6 0.0000 0.0000 0.0000 0.0000 0.0000 28.9024
#
#
#
# Elastic Compliance Matrix: (Units=1/GPa)
#
#
# Indices 1 2 3 4 5 6 
#
# 1 0.009777 -0.005752 -0.002267 0.000000 0.000000 0.000000
# 2 -0.005752 0.019788 -0.000080 0.000000 0.000000 0.000000
# 3 -0.002267 -0.000080 0.011691 0.000000 0.000000 0.000000
# 4 0.000000 0.000000 0.000000 0.072778 0.000000 0.000000
# 5 0.000000 0.000000 0.000000 0.000000 0.038902 0.000000
# 6 0.000000 0.000000 0.000000 0.000000 0.000000 0.034599
#
#
# Mechanical properties :
#
#
# Convention : Reuss Voigt Hill
#
# Bulk Modulus (GPa) = 39.90707 47.30113 43.60410
# Shear Modulus (GPa) = 23.57526 27.75831 25.66679
#
# Velocity S-wave (km/s) = 3.33233 3.61589 3.47700
# Velocity P-wave (km/s) = 5.79680 6.30180 6.05456
#
# Compressibility (1/GPa) = 0.02505822
#
# Stress axis : x y z
#
# Youngs Moduli (GPa) = 102.27952 50.53510 85.53676
#
# Poissons Ratio (x) = 0.29066 0.19393
# Poissons Ratio (y) = 0.58827 0.00686
# Poissons Ratio (z) = 0.23189 0.00405
#
# Static dielectric constant tensor:
#      x y z
#    x 1.770430 0.000000 0.000000 
#    y 0.000000 1.821370 0.000000 
#    z 0.000000 0.000000 1.760500 
# 
# From -- ./inp_files/22479.got.cif
#   From: 2010.05.17/outbox.cif.g08.bks.cpg/sg53_12_cif.got.tgz:22479.got - 2010.06.03 12:45:16.
