data_PCOD9418726
_publ_section_title
;
Structure prediction by ZEFSAII (Michael W. Deem and Ramdas Pophale) SiO2 
 PCOD9418726
Probable space group: P M N A
;
_chemical_formula_sum "Si O2"
_cell_formula_units_Z 26
_cell_length_a 7.351366
_cell_length_b 18.412356
_cell_length_c 8.619294
_cell_angle_alpha 90.000000
_cell_angle_beta 90.000000
_cell_angle_gamma 90.000000
_cell_volume 1166.672882
_symmetry_space_group_name_H-M "P M N A"
_symmetry_group_IT_number 53
_symmetry_cell_setting 'orthorhombic'
loop_
_space_group_symop_operation_xyz
x,y,z
1/2-x,-y,1/2+z
x,-y,-z
1/2-x,y,1/2-z
-x,-y,-z
1/2+x,y,1/2-z
-x,y,z
1/2+x,-y,1/2+z
loop_
_atom_site_type_symbol
_atom_site_label
_atom_site_fract_x
_atom_site_fract_y
_atom_site_fract_z
Si Si1 0.783912 0.773174 0.068158
Si Si2 0.783863 0.379833 0.066914
Si Si3 0.500000 0.500000 0.000000
Si Si4 0.217080 0.924108 0.932664
O O1 0.750000 0.763972 0.250000
O O2 0.000000 0.775613 0.042601
O O3 0.722977 0.701772 0.976354
O O4 0.709863 0.850555 0.010621
O O5 0.750000 0.392408 0.250000
O O6 0.659806 0.437548 0.979637
O O7 0.000000 0.388019 0.035132
O O8 0.250000 0.921139 0.750000
O O9 0.000000 0.924757 0.960345
O O10 0.289358 0.000000 0.000000
#
# Coordination Sequence:
#
# PCOD9418726 Si02
#       4
#     8   8   2   8
#     4  10  23  40  62  94 129 168 215 266 320 388
#     4  11  24  46  69  98 131 174 222 271 333 400
#     4  12  26  44  72 100 130 172 214 286 328 406
#     4  10  21  38  61  93 129 169 214 262 314 377
#
# _framework density 22.285595000000001
#
# number of rings (size 3 to 8) (size 9 to 14) (size 15 to 20)
#    0.000    1.538    1.538    2.308    2.154    3.077 
#    5.538    0.000    0.000    0.000    0.000    0.000 
#    0.000    0.000    0.000    0.000    0.000    0.000 
#
# Total GULP energy -144846.293628 kJ/mol
# GULP energy per Si atom -5571.011293 kJ/mol
# Density = 2.223487 g / cm^3
# Si number density = 22.285595 Si / 1000 Ang^3
#
#
#
# Elastic Constant Matrix: (Units=GPa)
#
#
# Indices 1 2 3 4 5 6 
#
# 1 139.5425 66.3816 -1.4169 0.0000 0.0000 0.0000
# 2 66.3816 164.6543 -9.9208 0.0000 0.0000 0.0000
# 3 -1.4169 -9.9208 29.0588 0.0000 0.0000 0.0000
# 4 0.0000 0.0000 0.0000 -16.7240 0.0000 0.0000
# 5 0.0000 0.0000 0.0000 0.0000 19.6006 0.0000
# 6 0.0000 0.0000 0.0000 0.0000 0.0000 -387.6319
#
#
#
# Elastic Compliance Matrix: (Units=1/GPa)
#
#
# Indices 1 2 3 4 5 6 
#
# 1 0.008885 -0.003631 -0.000806 0.000000 0.000000 0.000000
# 2 -0.003631 0.007684 0.002446 0.000000 0.000000 0.000000
# 3 -0.000806 0.002446 0.035209 0.000000 0.000000 0.000000
# 4 0.000000 0.000000 0.000000 -0.059794 0.000000 0.000000
# 5 0.000000 0.000000 0.000000 0.000000 0.051019 0.000000
# 6 0.000000 0.000000 0.000000 0.000000 0.000000 -0.002580
#
#
# Mechanical properties :
#
#
# Convention : Reuss Voigt Hill
#
# Bulk Modulus (GPa) = 20.92157 49.26039 35.09098
# Shear Modulus (GPa) = 82.86778 -58.40361 12.23208
#
# Velocity S-wave (km/s) = 6.10452 -5.12482 2.34536
# Velocity P-wave (km/s) = 7.68734 3.58696 4.80775
#
# Compressibility (1/GPa) = 0.04779757
#
# Stress axis : x y z
#
# Youngs Moduli (GPa) = 112.54591 130.13211 28.40188
#
# Poissons Ratio (x) = 0.47248 0.02290
# Poissons Ratio (y) = 0.40863 -0.06949
# Poissons Ratio (z) = 0.09075 -0.31837
#
# Static dielectric constant tensor:
#      x y z
#    x 1.820570 0.000000 0.000000 
#    y 0.000000 1.827510 0.000000 
#    z 0.000000 0.000000 1.767220 
# 
# From -- ./inp_files/5896.got.cif
#   From: 2010.05.17/outbox.cif.g08.bks.cpg/sg53_3_cif.got.tgz:5896.got - 2010.06.03 12:45:16.
