data_PCOD9418046
_publ_section_title
;
Structure prediction by ZEFSAII (Michael W. Deem and Ramdas Pophale) SiO2 
 PCOD9418046
Probable space group: P M N A
;
_chemical_formula_sum "Si O2"
_cell_formula_units_Z 58
_cell_length_a 9.741077
_cell_length_b 17.249934
_cell_length_c 18.732204
_cell_angle_alpha 90.000000
_cell_angle_beta 90.000000
_cell_angle_gamma 90.000000
_cell_volume 3147.627223
_symmetry_space_group_name_H-M "P M N A"
_symmetry_group_IT_number 53
_symmetry_cell_setting 'orthorhombic'
loop_
_space_group_symop_operation_xyz
x,y,z
1/2-x,-y,1/2+z
x,-y,-z
1/2-x,y,1/2-z
-x,-y,-z
1/2+x,y,1/2-z
-x,y,z
1/2+x,-y,1/2+z
loop_
_atom_site_type_symbol
_atom_site_label
_atom_site_fract_x
_atom_site_fract_y
_atom_site_fract_z
Si Si1 0.844907 0.221302 0.405359
Si Si2 0.840889 0.041370 0.925373
Si Si3 0.243639 0.391250 0.438161
Si Si4 0.341173 0.507955 0.319687
Si Si5 0.841577 0.338494 0.908842
Si Si6 0.000000 0.500000 0.500000
Si Si7 0.159642 0.103594 0.180001
Si Si8 0.841293 0.809451 0.425031
O O1 0.811052 0.312133 0.403129
O O2 0.731438 0.171848 0.364708
O O3 0.841642 0.198179 0.488829
O O4 0.000000 0.206364 0.378676
O O5 0.742087 0.112736 0.908013
O O6 0.000000 0.068038 0.932877
O O7 0.834957 0.974828 0.866193
O O8 0.801844 0.000000 0.000000
O O9 0.321683 0.441984 0.379464
O O10 0.328024 0.367002 0.508970
O O11 0.118974 0.442554 0.467238
O O12 0.250000 0.494395 0.250000
O O13 0.500000 0.511841 0.298493
O O14 0.304197 0.589372 0.358072
O O15 0.739541 0.266481 0.898170
O O16 0.000000 0.316572 0.895766
O O17 0.250000 0.093345 0.250000
O O18 0.000000 0.120899 0.194821
O O19 0.000000 0.811181 0.401230
#
# Coordination Sequence:
#
# PCOD9418046 Si02
#       8
#     8   8   8   8   8   2   8   8
#     4  10  21  36  56  88 120 153 195 239 298 352
#     4  10  20  38  62  90 120 154 199 246 299 355
#     4  11  22  37  64  90 121 160 201 254 305 358
#     4  11  25  40  59  85 117 158 203 250 308 366
#     4  10  21  39  61  86 119 155 200 252 305 364
#     4  12  20  36  66  96 124 154 204 260 310 352
#     4  11  24  41  62  86 121 166 202 247 304 364
#     4  10  21  34  60  94 120 149 193 248 300 351
#
# _framework density 18.426577999999999
#
# number of rings (size 3 to 8) (size 9 to 14) (size 15 to 20)
#    0.000    1.517    3.448    1.241    1.931    6.345 
#    0.000    0.690    0.000    0.000    0.000    0.000 
#    0.000    0.000    0.000    0.000    0.000    0.000 
#
# Total GULP energy -323350.267226 kJ/mol
# GULP energy per Si atom -5575.004607 kJ/mol
# Density = 1.838464 g / cm^3
# Si number density = 18.426578 Si / 1000 Ang^3
#
#
#
# Elastic Constant Matrix: (Units=GPa)
#
#
# Indices 1 2 3 4 5 6 
#
# 1 115.9042 68.0377 18.9436 0.0000 0.0000 0.0000
# 2 68.0377 123.3594 27.0183 0.0000 0.0000 0.0000
# 3 18.9436 27.0183 21.8282 0.0000 0.0000 0.0000
# 4 0.0000 0.0000 0.0000 10.9410 0.0000 0.0000
# 5 0.0000 0.0000 0.0000 0.0000 21.4874 0.0000
# 6 0.0000 0.0000 0.0000 0.0000 0.0000 7.3908
#
#
#
# Elastic Compliance Matrix: (Units=1/GPa)
#
#
# Indices 1 2 3 4 5 6 
#
# 1 0.012928 -0.006411 -0.003284 0.000000 0.000000 0.000000
# 2 -0.006411 0.014301 -0.012137 0.000000 0.000000 0.000000
# 3 -0.003284 -0.012137 0.063686 0.000000 0.000000 0.000000
# 4 0.000000 0.000000 0.000000 0.091399 0.000000 0.000000
# 5 0.000000 0.000000 0.000000 0.000000 0.046539 0.000000
# 6 0.000000 0.000000 0.000000 0.000000 0.000000 0.135303
#
#
# Mechanical properties :
#
#
# Convention : Reuss Voigt Hill
#
# Bulk Modulus (GPa) = 21.16424 54.34346 37.75385
# Shear Modulus (GPa) = 11.80445 17.77000 14.78722
#
# Velocity S-wave (km/s) = 2.53379 3.10880 2.83591
# Velocity P-wave (km/s) = 4.48004 6.51476 5.59075
#
# Compressibility (1/GPa) = 0.04724950
#
# Stress axis : x y z
#
# Youngs Moduli (GPa) = 77.35186 69.92724 15.70215
#
# Poissons Ratio (x) = 0.44830 0.05157
# Poissons Ratio (y) = 0.49590 0.19058
# Poissons Ratio (z) = 0.25404 0.84871
#
# Static dielectric constant tensor:
#      x y z
#    x 1.628400 0.000000 0.000000 
#    y 0.000000 1.623140 0.000000 
#    z 0.000000 0.000000 1.625880 
# 
# From -- ./inp_files/26563.got.cif
#   From: 2010.05.17/outbox.cif.g08.bks.cpg/sg53_14_cif.got.tgz:26563.got - 2010.06.03 12:45:16.
