data_PCOD9418378
_publ_section_title
;
Structure prediction by ZEFSAII (Michael W. Deem and Ramdas Pophale) SiO2 
 PCOD9418378
Probable space group: P M N A
;
_chemical_formula_sum "Si O2"
_cell_formula_units_Z 56
_cell_length_a 8.925735
_cell_length_b 19.703937
_cell_length_c 16.115351
_cell_angle_alpha 90.000000
_cell_angle_beta 90.000000
_cell_angle_gamma 90.000000
_cell_volume 2834.240947
_symmetry_space_group_name_H-M "P M N A"
_symmetry_group_IT_number 53
_symmetry_cell_setting 'orthorhombic'
loop_
_space_group_symop_operation_xyz
x,y,z
1/2-x,-y,1/2+z
x,-y,-z
1/2-x,y,1/2-z
-x,-y,-z
1/2+x,y,1/2-z
-x,y,z
1/2+x,-y,1/2+z
loop_
_atom_site_type_symbol
_atom_site_label
_atom_site_fract_x
_atom_site_fract_y
_atom_site_fract_z
Si Si1 0.825642 0.205486 0.593885
Si Si2 0.178298 0.652901 0.836150
Si Si3 0.322997 0.580809 0.993795
Si Si4 0.674429 0.786653 0.901466
Si Si5 0.180779 0.653758 0.335474
Si Si6 0.321858 0.073402 0.658733
Si Si7 0.320084 0.077456 0.342009
O O1 0.818305 0.230114 0.499005
O O2 0.772306 0.267860 0.650172
O O3 0.736460 0.136451 0.606355
O O4 0.000000 0.191860 0.613271
O O5 0.250000 0.627823 0.750000
O O6 0.236882 0.729573 0.851476
O O7 0.000000 0.651773 0.830667
O O8 0.234978 0.610475 0.915431
O O9 0.500000 0.597437 0.982141
O O10 0.275146 0.613125 0.081696
O O11 0.307890 0.500000 0.000000
O O12 0.500000 0.787321 0.876028
O O13 0.746329 0.860423 0.889885
O O14 0.250000 0.627750 0.250000
O O15 0.000000 0.651916 0.330514
O O16 0.250000 0.078785 0.750000
O O17 0.500000 0.077101 0.666769
O O18 0.285342 0.998178 0.624438
O O19 0.250000 0.079816 0.250000
O O20 0.500000 0.085102 0.338683
#
# Coordination Sequence:
#
# PCOD9418378 Si02
#       7
#     8   8   8   8   8   8   8
#     4  10  21  37  58  83 116 155 202 256 307 367
#     4  12  25  42  67  96 130 170 214 262 313 375
#     4  10  22  44  70  96 132 171 208 257 312 367
#     4  11  22  39  61  86 119 157 205 259 312 372
#     4  10  21  39  62  92 126 163 207 253 307 367
#     4  10  21  36  55  79 113 153 200 253 306 369
#     4  10  21  37  55  80 113 153 200 252 310 368
#
# _framework density 19.758376999999999
#
# number of rings (size 3 to 8) (size 9 to 14) (size 15 to 20)
#    0.000    1.571    1.429    3.429    0.000    6.571 
#    0.000    4.286    0.000    0.000    0.000    0.000 
#    0.000    0.000    0.000    0.000    0.000    0.000 
#
# Total GULP energy -312956.189114 kJ/mol
# GULP energy per Si atom -5588.503377 kJ/mol
# Density = 1.971341 g / cm^3
# Si number density = 19.758377 Si / 1000 Ang^3
#
#
#
# Elastic Constant Matrix: (Units=GPa)
#
#
# Indices 1 2 3 4 5 6 
#
# 1 100.9449 48.9475 53.9039 0.0000 0.0000 0.0000
# 2 48.9475 84.8436 51.5934 0.0000 0.0000 0.0000
# 3 53.9039 51.5934 119.4431 0.0000 0.0000 0.0000
# 4 0.0000 0.0000 0.0000 13.3259 0.0000 0.0000
# 5 0.0000 0.0000 0.0000 0.0000 34.1634 0.0000
# 6 0.0000 0.0000 0.0000 0.0000 0.0000 36.1171
#
#
#
# Elastic Compliance Matrix: (Units=1/GPa)
#
#
# Indices 1 2 3 4 5 6 
#
# 1 0.015131 -0.006207 -0.004147 0.000000 0.000000 0.000000
# 2 -0.006207 0.018532 -0.005203 0.000000 0.000000 0.000000
# 3 -0.004147 -0.005203 0.012491 0.000000 0.000000 0.000000
# 4 0.000000 0.000000 0.000000 0.075042 0.000000 0.000000
# 5 0.000000 0.000000 0.000000 0.000000 0.029271 0.000000
# 6 0.000000 0.000000 0.000000 0.000000 0.000000 0.027688
#
#
# Mechanical properties :
#
#
# Convention : Reuss Voigt Hill
#
# Bulk Modulus (GPa) = 66.49795 68.23570 67.36683
# Shear Modulus (GPa) = 23.33360 26.77372 25.05366
#
# Velocity S-wave (km/s) = 3.44022 3.68510 3.56476
# Velocity P-wave (km/s) = 7.03625 7.26063 7.14932
#
# Compressibility (1/GPa) = 0.01503806
#
# Stress axis : x y z
#
# Youngs Moduli (GPa) = 66.09012 53.96169 80.05493
#
# Poissons Ratio (x) = 0.33496 0.33201
# Poissons Ratio (y) = 0.41024 0.41656
# Poissons Ratio (z) = 0.27409 0.28079
#
# Static dielectric constant tensor:
#      x y z
#    x 1.662750 0.000000 0.000000 
#    y 0.000000 1.695920 0.000000 
#    z 0.000000 0.000000 1.696820 
# 
# From -- ./inp_files/20450.got.cif
#   From: 2010.05.17/outbox.cif.g08.bks.cpg/sg53_11_cif.got.tgz:20450.got - 2010.06.03 12:45:16.
