data_PCOD9418771
_publ_section_title
;
Structure prediction by ZEFSAII (Michael W. Deem and Ramdas Pophale) SiO2 
 PCOD9418771
Probable space group: P M N A
;
_chemical_formula_sum "Si O2"
_cell_formula_units_Z 48
_cell_length_a 17.364486
_cell_length_b 12.809744
_cell_length_c 10.575335
_cell_angle_alpha 90.000000
_cell_angle_beta 90.000000
_cell_angle_gamma 90.000000
_cell_volume 2352.320626
_symmetry_space_group_name_H-M "P M N A"
_symmetry_group_IT_number 53
_symmetry_cell_setting 'orthorhombic'
loop_
_space_group_symop_operation_xyz
x,y,z
1/2-x,-y,1/2+z
x,-y,-z
1/2-x,y,1/2-z
-x,-y,-z
1/2+x,y,1/2-z
-x,y,z
1/2+x,-y,1/2+z
loop_
_atom_site_type_symbol
_atom_site_label
_atom_site_fract_x
_atom_site_fract_y
_atom_site_fract_z
Si Si1 0.659665 0.767200 0.772009
Si Si2 0.411101 0.795008 0.259657
Si Si3 0.590919 0.576217 0.886899
Si Si4 0.409022 0.013345 0.150089
Si Si5 0.837205 0.583490 0.210880
Si Si6 0.088433 0.688817 0.988386
O O1 0.750000 0.761350 0.750000
O O2 0.634170 0.685761 0.880076
O O3 0.634040 0.883748 0.804644
O O4 0.617237 0.726990 0.645680
O O5 0.500000 0.782905 0.215866
O O6 0.363986 0.691841 0.221404
O O7 0.411571 0.785728 0.411985
O O8 0.381309 0.905391 0.212704
O O9 0.500000 0.594789 0.897335
O O10 0.610443 0.510189 0.761090
O O11 0.615720 0.500000 0.000000
O O12 0.500000 0.025132 0.180626
O O13 0.401891 0.000000 0.000000
O O14 0.750000 0.561052 0.250000
O O15 0.856178 0.608909 0.064406
O O16 0.000000 0.650349 0.983279
#
# Coordination Sequence:
#
# PCOD9418771 Si02
#       6
#     8   8   8   8   8   8
#     4  12  27  43  62  99 133 165 222 283 340 386
#     4   8  18  37  63  92 121 168 220 258 316 392
#     4  11  25  42  66  92 130 177 220 269 323 403
#     4  10  22  41  67  93 130 177 220 268 320 397
#     4  10  21  38  65  96 130 171 212 268 331 386
#     4   9  20  41  67  91 125 168 217 267 318 398
#
# _framework density 20.405381999999999
#
# number of rings (size 3 to 8) (size 9 to 14) (size 15 to 20)
#    1.000    1.000    0.000    3.000    4.667    2.000 
#    3.000    4.167    0.000    0.000    0.000    0.000 
#    0.000    0.000    0.000    0.000    0.000    0.000 
#
# Total GULP energy -267866.015595 kJ/mol
# GULP energy per Si atom -5580.541992 kJ/mol
# Density = 2.035894 g / cm^3
# Si number density = 20.405382 Si / 1000 Ang^3
#
#
#
# Elastic Constant Matrix: (Units=GPa)
#
#
# Indices 1 2 3 4 5 6 
#
# 1 71.7961 21.1845 9.1143 0.0000 0.0000 0.0000
# 2 21.1845 132.6381 12.4848 0.0000 0.0000 0.0000
# 3 9.1143 12.4848 37.9465 0.0000 0.0000 0.0000
# 4 0.0000 0.0000 0.0000 32.3463 0.0000 0.0000
# 5 0.0000 0.0000 0.0000 0.0000 3.4836 0.0000
# 6 0.0000 0.0000 0.0000 0.0000 0.0000 -73.3913
#
#
#
# Elastic Compliance Matrix: (Units=1/GPa)
#
#
# Indices 1 2 3 4 5 6 
#
# 1 0.014918 -0.002111 -0.002889 0.000000 0.000000 0.000000
# 2 -0.002111 0.008079 -0.002151 0.000000 0.000000 0.000000
# 3 -0.002889 -0.002151 0.027754 0.000000 0.000000 0.000000
# 4 0.000000 0.000000 0.000000 0.030915 0.000000 0.000000
# 5 0.000000 0.000000 0.000000 0.000000 0.287062 0.000000
# 6 0.000000 0.000000 0.000000 0.000000 0.000000 -0.013626
#
#
# Mechanical properties :
#
#
# Convention : Reuss Voigt Hill
#
# Bulk Modulus (GPa) = 27.43464 36.43867 31.93665
# Shear Modulus (GPa) = 13.10430 5.79418 9.44924
#
# Velocity S-wave (km/s) = 2.53691 1.68692 2.15425
# Velocity P-wave (km/s) = 4.69630 4.65730 4.67684
#
# Compressibility (1/GPa) = 0.03645027
#
# Stress axis : x y z
#
# Youngs Moduli (GPa) = 67.03383 123.77923 36.03029
#
# Poissons Ratio (x) = 0.26126 0.10408
# Poissons Ratio (y) = 0.14149 0.07750
# Poissons Ratio (z) = 0.19364 0.26626
#
# Static dielectric constant tensor:
#      x y z
#    x 1.711240 0.000000 0.000000 
#    y 0.000000 1.705710 0.000000 
#    z 0.000000 0.000000 1.768500 
# 
# From -- ./inp_files/15960.got.cif
#   From: 2010.05.17/outbox.cif.g08.bks.cpg/sg53_8_cif.got.tgz:15960.got - 2010.06.03 12:45:16.
