data_PCOD9418894
_publ_section_title
;
Structure prediction by ZEFSAII (Michael W. Deem and Ramdas Pophale) SiO2 
 PCOD9418894
Probable space group: P M N A
;
_chemical_formula_sum "Si O2"
_cell_formula_units_Z 28
_cell_length_a 25.909748
_cell_length_b 5.847791
_cell_length_c 8.439158
_cell_angle_alpha 90.000000
_cell_angle_beta 90.000000
_cell_angle_gamma 90.000000
_cell_volume 1278.657262
_symmetry_space_group_name_H-M "P M N A"
_symmetry_group_IT_number 53
_symmetry_cell_setting 'orthorhombic'
loop_
_space_group_symop_operation_xyz
x,y,z
1/2-x,-y,1/2+z
x,-y,-z
1/2-x,y,1/2-z
-x,-y,-z
1/2+x,y,1/2-z
-x,y,z
1/2+x,-y,1/2+z
loop_
_atom_site_type_symbol
_atom_site_label
_atom_site_fract_x
_atom_site_fract_y
_atom_site_fract_z
Si Si1 0.112520 0.000000 0.000000
Si Si2 0.057769 0.620463 0.173864
Si Si3 0.346467 0.662649 0.747273
Si Si4 0.250000 0.328949 0.750000
Si Si5 0.700928 0.000000 0.000000
O O1 0.077673 0.125832 0.868125
O O2 0.145849 0.811343 0.910904
O O3 0.101221 0.483254 0.269715
O O4 0.000000 0.618074 0.240260
O O5 0.055686 0.500000 0.000000
O O6 0.299328 0.489461 0.726030
O O7 0.333066 0.837423 0.887486
O O8 0.236159 0.165114 0.604903
#
# Coordination Sequence:
#
# PCOD9418894 Si02
#       5
#     4   8   8   4   4
#     4  10  21  39  67  98 129 168 211 261 318 372
#     4   9  19  37  63  96 131 168 213 261 310 370
#     4  11  25  42  65  97 130 167 211 261 315 378
#     4  12  28  46  66  92 126 166 212 264 318 382
#     4  12  28  45  64  92 126 168 212 261 322 382
#
# _framework density 21.897970999999998
#
# number of rings (size 3 to 8) (size 9 to 14) (size 15 to 20)
#    0.000    1.429    0.000    3.857    0.000   22.857 
#    0.000    0.714    0.000    8.571    0.000    0.000 
#    0.000    0.000    0.000    0.000    0.000    0.000 
#
# Total GULP energy -156791.732571 kJ/mol
# GULP energy per Si atom -5599.704735 kJ/mol
# Density = 2.184813 g / cm^3
# Si number density = 21.897971 Si / 1000 Ang^3
#
#
#
# Elastic Constant Matrix: (Units=GPa)
#
#
# Indices 1 2 3 4 5 6 
#
# 1 222.2169 114.2756 73.7540 0.0000 0.0000 0.0000
# 2 114.2756 158.2594 48.6884 0.0000 0.0000 0.0000
# 3 73.7540 48.6884 62.1398 0.0000 0.0000 0.0000
# 4 0.0000 0.0000 0.0000 37.6977 0.0000 0.0000
# 5 0.0000 0.0000 0.0000 0.0000 25.9048 0.0000
# 6 0.0000 0.0000 0.0000 0.0000 0.0000 15.8286
#
#
#
# Elastic Compliance Matrix: (Units=1/GPa)
#
#
# Indices 1 2 3 4 5 6 
#
# 1 0.009250 -0.004350 -0.007570 0.000000 0.000000 0.000000
# 2 -0.004350 0.010371 -0.002963 0.000000 0.000000 0.000000
# 3 -0.007570 -0.002963 0.027399 0.000000 0.000000 0.000000
# 4 0.000000 0.000000 0.000000 0.026527 0.000000 0.000000
# 5 0.000000 0.000000 0.000000 0.000000 0.038603 0.000000
# 6 0.000000 0.000000 0.000000 0.000000 0.000000 0.063177
#
#
# Mechanical properties :
#
#
# Convention : Reuss Voigt Hill
#
# Bulk Modulus (GPa) = 57.95804 101.78356 79.87080
# Shear Modulus (GPa) = 23.71410 29.61277 26.66343
#
# Velocity S-wave (km/s) = 3.29437 3.68136 3.49323
# Velocity P-wave (km/s) = 6.40275 8.04062 7.26797
#
# Compressibility (1/GPa) = 0.01725386
#
# Stress axis : x y z
#
# Youngs Moduli (GPa) = 108.11256 96.41856 36.49704
#
# Poissons Ratio (x) = 0.41942 0.27628
# Poissons Ratio (y) = 0.47029 0.10815
# Poissons Ratio (z) = 0.81842 0.28572
#
# Static dielectric constant tensor:
#      x y z
#    x 1.812240 0.000000 0.000000 
#    y 0.000000 1.823320 0.000000 
#    z 0.000000 0.000000 1.817920 
# 
# From -- ./inp_files/12117.got.cif
#   From: 2010.05.17/outbox.cif.g08.bks.cpg/sg53_7_cif.got.tgz:12117.got - 2010.06.03 12:45:16.
