data_PCOD9418241
_publ_section_title
;
Structure prediction by ZEFSAII (Michael W. Deem and Ramdas Pophale) SiO2 
 PCOD9418241
Probable space group: P M N A
;
_chemical_formula_sum "Si O2"
_cell_formula_units_Z 48
_cell_length_a 14.127493
_cell_length_b 12.397178
_cell_length_c 11.750199
_cell_angle_alpha 90.000000
_cell_angle_beta 90.000000
_cell_angle_gamma 90.000000
_cell_volume 2057.942137
_symmetry_space_group_name_H-M "P M N A"
_symmetry_group_IT_number 53
_symmetry_cell_setting 'orthorhombic'
loop_
_space_group_symop_operation_xyz
x,y,z
1/2-x,-y,1/2+z
x,-y,-z
1/2-x,y,1/2-z
-x,-y,-z
1/2+x,y,1/2-z
-x,y,z
1/2+x,-y,1/2+z
loop_
_atom_site_type_symbol
_atom_site_label
_atom_site_fract_x
_atom_site_fract_y
_atom_site_fract_z
Si Si1 0.884417 0.334464 0.443752
Si Si2 0.393614 0.092140 0.077985
Si Si3 0.889797 0.163980 0.007510
Si Si4 0.845426 0.004961 0.810863
Si Si5 0.615711 0.396080 0.571229
Si Si6 0.884378 0.451306 0.675988
O O1 0.852946 0.212543 0.421622
O O2 0.857719 0.375905 0.569631
O O3 0.853770 0.426695 0.354669
O O4 0.000000 0.335598 0.438342
O O5 0.500000 0.106396 0.029822
O O6 0.399964 0.044191 0.203905
O O7 0.346593 0.000000 0.000000
O O8 0.855091 0.284532 0.986771
O O9 0.000000 0.165963 0.045025
O O10 0.887004 0.100134 0.887438
O O11 0.835123 0.093970 0.100871
O O12 0.750000 0.042726 0.750000
O O13 0.645427 0.500000 0.500000
O O14 0.500000 0.393594 0.571546
O O15 0.646830 0.409766 0.701385
O O16 0.000000 0.451916 0.678265
#
# Coordination Sequence:
#
# PCOD9418241 Si02
#       6
#     8   8   8   8   8   8
#     4   8  15  27  45  73 111 148 180 230 295 351
#     4  10  21  33  54  85 113 145 192 248 303 359
#     4  10  22  42  66  92 124 163 207 260 314 367
#     4  11  24  40  61  83 117 161 205 248 306 368
#     4   9  18  30  54  89 119 150 199 258 309 363
#     4   8  14  26  44  72 111 148 181 226 292 353
#
# _framework density 23.324272000000001
#
# number of rings (size 3 to 8) (size 9 to 14) (size 15 to 20)
#    0.000    2.667    0.000    3.000    7.000    0.000 
#    0.000    0.000    0.000    1.000    4.333    0.000 
#    0.000    0.000    0.000    0.000    0.000    0.167 
#
# Total GULP energy -268257.706328 kJ/mol
# GULP energy per Si atom -5588.702215 kJ/mol
# Density = 2.327118 g / cm^3
# Si number density = 23.324272 Si / 1000 Ang^3
#
#
#
# Elastic Constant Matrix: (Units=GPa)
#
#
# Indices 1 2 3 4 5 6 
#
# 1 56.5272 -6.2805 -5.0348 0.0000 0.0000 0.0000
# 2 -6.2805 145.6028 32.0444 0.0000 0.0000 0.0000
# 3 -5.0348 32.0444 101.4013 0.0000 0.0000 0.0000
# 4 0.0000 0.0000 0.0000 19.5332 0.0000 0.0000
# 5 0.0000 0.0000 0.0000 0.0000 -6.6985 0.0000
# 6 0.0000 0.0000 0.0000 0.0000 0.0000 1346.7794
#
#
#
# Elastic Compliance Matrix: (Units=1/GPa)
#
#
# Indices 1 2 3 4 5 6 
#
# 1 0.017821 0.000617 0.000690 0.000000 0.000000 0.000000
# 2 0.000617 0.007403 -0.002309 0.000000 0.000000 0.000000
# 3 0.000690 -0.002309 0.010626 0.000000 0.000000 0.000000
# 4 0.000000 0.000000 0.000000 0.051195 0.000000 0.000000
# 5 0.000000 0.000000 0.000000 0.000000 -0.149287 0.000000
# 6 0.000000 0.000000 0.000000 0.000000 0.000000 0.000743
#
#
# Mechanical properties :
#
#
# Convention : Reuss Voigt Hill
#
# Bulk Modulus (GPa) = 29.54648 38.33216 33.93932
# Shear Modulus (GPa) = -103.70206 290.77628 93.53711
#
# Velocity S-wave (km/s) = -6.67514 11.17754 6.33956
# Velocity P-wave (km/s) = 6.83483 13.52972 8.25647
#
# Compressibility (1/GPa) = 0.03384498
#
# Stress axis : x y z
#
# Youngs Moduli (GPa) = 56.11485 135.08546 94.11178
#
# Poissons Ratio (x) = -0.08333 -0.06493
# Poissons Ratio (y) = -0.03461 0.21728
# Poissons Ratio (z) = -0.03871 0.31188
#
# Static dielectric constant tensor:
#      x y z
#    x 1.993620 0.000000 0.000000 
#    y 0.000000 1.833870 0.000000 
#    z 0.000000 0.000000 1.806600 
# 
# From -- ./inp_files/16914.got.cif
#   From: 2010.05.17/outbox.cif.g08.bks.cpg/sg53_9_cif.got.tgz:16914.got - 2010.06.03 12:45:16.
