data_PCOD9418482
_publ_section_title
;
Structure prediction by ZEFSAII (Michael W. Deem and Ramdas Pophale) SiO2 
 PCOD9418482
Probable space group: P M N A
;
_chemical_formula_sum "Si O2"
_cell_formula_units_Z 64
_cell_length_a 8.179306
_cell_length_b 15.576100
_cell_length_c 23.243816
_cell_angle_alpha 90.000000
_cell_angle_beta 90.000000
_cell_angle_gamma 90.000000
_cell_volume 2961.301398
_symmetry_space_group_name_H-M "P M N A"
_symmetry_group_IT_number 53
_symmetry_cell_setting 'orthorhombic'
loop_
_space_group_symop_operation_xyz
x,y,z
1/2-x,-y,1/2+z
x,-y,-z
1/2-x,y,1/2-z
-x,-y,-z
1/2+x,y,1/2-z
-x,y,z
1/2+x,-y,1/2+z
loop_
_atom_site_type_symbol
_atom_site_label
_atom_site_fract_x
_atom_site_fract_y
_atom_site_fract_z
Si Si1 0.695307 0.968222 0.313881
Si Si2 0.195727 0.790072 0.363515
Si Si3 0.305652 0.549213 0.815717
Si Si4 0.309746 0.110855 0.399678
Si Si5 0.695379 0.742354 0.816468
Si Si6 0.804310 0.780902 0.496565
Si Si7 0.314590 0.595773 0.001722
Si Si8 0.814565 0.384652 0.878022
O O1 0.750000 0.995258 0.250000
O O2 0.500000 0.973905 0.314871
O O3 0.760929 0.029188 0.365210
O O4 0.748711 0.871641 0.327446
O O5 0.250359 0.799059 0.430955
O O6 0.272948 0.700511 0.342321
O O7 0.000000 0.784756 0.361904
O O8 0.250000 0.549123 0.750000
O O9 0.500000 0.534049 0.820138
O O10 0.271525 0.645252 0.837555
O O11 0.209837 0.473775 0.846345
O O12 0.500000 0.094895 0.410575
O O13 0.286042 0.188814 0.355065
O O14 0.235043 0.143386 0.459393
O O15 0.750000 0.748828 0.750000
O O16 0.500000 0.756252 0.820006
O O17 0.741495 0.686999 0.519313
O O18 0.000000 0.771038 0.494864
O O19 0.500000 0.586742 0.978095
O O20 0.312807 0.614489 0.069698
O O21 0.237276 0.500000 0.000000
O O22 0.000000 0.377972 0.899916
#
# Coordination Sequence:
#
# PCOD9418482 Si02
#       8
#     8   8   8   8   8   8   8   8
#     4  11  25  44  66  94 123 157 200 251 309 367
#     4  10  22  43  67  90 120 159 202 252 306 366
#     4  10  21  37  56  81 114 154 200 248 299 357
#     4  11  24  39  60  90 126 162 200 250 304 364
#     4  10  21  37  58  82 115 157 201 251 305 361
#     4   9  20  38  60  89 122 162 207 249 302 361
#     4   9  19  36  57  82 117 160 206 250 294 348
#     4  11  22  36  57  86 119 154 194 244 298 355
#
# _framework density 21.612120999999998
#
# number of rings (size 3 to 8) (size 9 to 14) (size 15 to 20)
#    0.000    1.875    0.000    4.125    1.750    8.250 
#    0.000    5.000    0.000    0.000    0.000    0.000 
#    0.000    0.000    0.000    0.000    0.000    0.000 
#
# Total GULP energy -357239.379433 kJ/mol
# GULP energy per Si atom -5581.865304 kJ/mol
# Density = 2.156293 g / cm^3
# Si number density = 21.612121 Si / 1000 Ang^3
#
#
#
# Elastic Constant Matrix: (Units=GPa)
#
#
# Indices 1 2 3 4 5 6 
#
# 1 46.1998 2.7215 -3.7226 0.0000 0.0000 0.0000
# 2 2.7215 52.5669 -16.1078 0.0000 0.0000 0.0000
# 3 -3.7226 -16.1078 24.5412 0.0000 0.0000 0.0000
# 4 0.0000 0.0000 0.0000 54.1160 0.0000 0.0000
# 5 0.0000 0.0000 0.0000 0.0000 22.3707 0.0000
# 6 0.0000 0.0000 0.0000 0.0000 0.0000 58.2023
#
#
#
# Elastic Compliance Matrix: (Units=1/GPa)
#
#
# Indices 1 2 3 4 5 6 
#
# 1 0.021914 -0.000145 0.003229 0.000000 0.000000 0.000000
# 2 -0.000145 0.023814 0.015608 0.000000 0.000000 0.000000
# 3 0.003229 0.015608 0.051482 0.000000 0.000000 0.000000
# 4 0.000000 0.000000 0.000000 0.018479 0.000000 0.000000
# 5 0.000000 0.000000 0.000000 0.000000 0.044701 0.000000
# 6 0.000000 0.000000 0.000000 0.000000 0.000000 0.017181
#
#
# Mechanical properties :
#
#
# Convention : Reuss Voigt Hill
#
# Bulk Modulus (GPa) = 7.42980 9.89892 8.66436
# Shear Modulus (GPa) = 27.01945 36.29891 31.65918
#
# Velocity S-wave (km/s) = 3.53965 4.10269 3.83153
# Velocity P-wave (km/s) = 4.48896 5.19933 4.85715
#
# Compressibility (1/GPa) = 0.13459304
#
# Stress axis : x y z
#
# Youngs Moduli (GPa) = 45.63332 41.99281 19.42425
#
# Poissons Ratio (x) = 0.00610 -0.06272
# Poissons Ratio (y) = 0.00662 -0.30318
# Poissons Ratio (z) = -0.14734 -0.65543
#
# Static dielectric constant tensor:
#      x y z
#    x 1.798020 0.000000 0.000000 
#    y 0.000000 1.852030 0.000000 
#    z 0.000000 0.000000 1.765940 
# 
# From -- ./inp_files/34204.got.cif
#   From: 2010.05.17/outbox.cif.g08.bks.cpg/sg53_18_cif.got.tgz:34204.got - 2010.06.03 12:45:16.
