data_PCOD9418151
_publ_section_title
;
Structure prediction by ZEFSAII (Michael W. Deem and Ramdas Pophale) SiO2 
 PCOD9418151
Probable space group: P M N A
;
_chemical_formula_sum "Si O2"
_cell_formula_units_Z 64
_cell_length_a 9.074857
_cell_length_b 14.593168
_cell_length_c 23.798801
_cell_angle_alpha 90.000000
_cell_angle_beta 90.000000
_cell_angle_gamma 90.000000
_cell_volume 3151.696939
_symmetry_space_group_name_H-M "P M N A"
_symmetry_group_IT_number 53
_symmetry_cell_setting 'orthorhombic'
loop_
_space_group_symop_operation_xyz
x,y,z
1/2-x,-y,1/2+z
x,-y,-z
1/2-x,y,1/2-z
-x,-y,-z
1/2+x,y,1/2-z
-x,y,z
1/2+x,-y,1/2+z
loop_
_atom_site_type_symbol
_atom_site_label
_atom_site_fract_x
_atom_site_fract_y
_atom_site_fract_z
Si Si1 0.172976 0.468542 0.310242
Si Si2 0.829252 0.059176 0.662954
Si Si3 0.171284 0.604550 0.103492
Si Si4 0.170649 0.719446 0.625304
Si Si5 0.174534 0.130255 0.192517
Si Si6 0.329223 0.243665 0.697783
Si Si7 0.327858 0.090041 0.970437
Si Si8 0.176285 0.703775 0.496019
O O1 0.250000 0.480229 0.250000
O O2 0.245743 0.529184 0.359284
O O3 0.186370 0.363877 0.331399
O O4 0.000000 0.491290 0.305316
O O5 0.756966 0.149691 0.688258
O O6 0.824203 0.072092 0.595816
O O7 0.000000 0.049573 0.680091
O O8 0.739069 0.970096 0.680444
O O9 0.179447 0.695571 0.142202
O O10 0.000000 0.579807 0.096273
O O11 0.245582 0.631748 0.044789
O O12 0.274846 0.802079 0.643220
O O13 0.199587 0.686153 0.561926
O O14 0.000000 0.751849 0.626679
O O15 0.250000 0.163928 0.250000
O O16 0.500000 0.127993 0.301512
O O17 0.250000 0.292806 0.750000
O O18 0.500000 0.227513 0.710845
O O19 0.500000 0.094235 0.989035
O O20 0.269350 0.191679 0.983882
O O21 0.260674 0.000000 0.000000
O O22 0.000000 0.700855 0.484530
#
# Coordination Sequence:
#
# PCOD9418151 Si02
#       8
#     8   8   8   8   8   8   8   8
#     4  11  24  43  68  97 127 162 209 262 320 382
#     4  11  21  36  59  87 121 160 206 256 309 369
#     4  11  24  41  63  92 129 168 208 258 312 372
#     4  10  23  43  68  96 126 164 210 263 318 379
#     4  12  25  41  62  89 125 167 211 263 319 378
#     4  11  23  38  57  84 120 158 202 251 304 365
#     4   9  17  31  56  87 118 159 208 255 301 357
#     4  10  20  39  65  93 128 168 213 259 310 375
#
# _framework density 20.306519999999999
#
# number of rings (size 3 to 8) (size 9 to 14) (size 15 to 20)
#    0.000    1.375    1.250    4.500    0.000    7.500 
#    0.000    2.500    0.000    1.875    0.000    0.000 
#    0.000    0.000    0.000    0.000    0.000    0.000 
#
# Total GULP energy -357826.274520 kJ/mol
# GULP energy per Si atom -5591.035539 kJ/mol
# Density = 2.026030 g / cm^3
# Si number density = 20.306520 Si / 1000 Ang^3
#
#
#
# Elastic Constant Matrix: (Units=GPa)
#
#
# Indices 1 2 3 4 5 6 
#
# 1 126.9118 38.3267 39.3494 0.0000 0.0000 0.0000
# 2 38.3267 48.8589 8.6694 0.0000 0.0000 0.0000
# 3 39.3494 8.6694 68.6807 0.0000 0.0000 0.0000
# 4 0.0000 0.0000 0.0000 33.3489 0.0000 0.0000
# 5 0.0000 0.0000 0.0000 0.0000 31.1132 0.0000
# 6 0.0000 0.0000 0.0000 0.0000 0.0000 27.6993
#
#
#
# Elastic Compliance Matrix: (Units=1/GPa)
#
#
# Indices 1 2 3 4 5 6 
#
# 1 0.012335 -0.008615 -0.005980 0.000000 0.000000 0.000000
# 2 -0.008615 0.026953 0.001534 0.000000 0.000000 0.000000
# 3 -0.005980 0.001534 0.017793 0.000000 0.000000 0.000000
# 4 0.000000 0.000000 0.000000 0.029986 0.000000 0.000000
# 5 0.000000 0.000000 0.000000 0.000000 0.032141 0.000000
# 6 0.000000 0.000000 0.000000 0.000000 0.000000 0.036102
#
#
# Mechanical properties :
#
#
# Convention : Reuss Voigt Hill
#
# Bulk Modulus (GPa) = 32.30153 46.34915 39.32534
# Shear Modulus (GPa) = 26.07540 28.97268 27.52404
#
# Velocity S-wave (km/s) = 3.58731 3.78136 3.68561
# Velocity P-wave (km/s) = 5.75325 6.47605 6.12532
#
# Compressibility (1/GPa) = 0.03095829
#
# Stress axis : x y z
#
# Youngs Moduli (GPa) = 81.06824 37.10155 56.20330
#
# Poissons Ratio (x) = 0.31964 0.33608
# Poissons Ratio (y) = 0.69842 -0.08620
# Poissons Ratio (z) = 0.48477 -0.05690
#
# Static dielectric constant tensor:
#      x y z
#    x 1.693700 0.000000 0.000000 
#    y 0.000000 1.718910 0.000000 
#    z 0.000000 0.000000 1.730370 
# 
# From -- ./inp_files/34188.got.cif
#   From: 2010.05.17/outbox.cif.g08.bks.cpg/sg53_18_cif.got.tgz:34188.got - 2010.06.03 12:45:16.
