data_PCOD9418904
_publ_section_title
;
Structure prediction by ZEFSAII (Michael W. Deem and Ramdas Pophale) SiO2 
 PCOD9418904
Probable space group: P M N A
;
_chemical_formula_sum "Si O2"
_cell_formula_units_Z 56
_cell_length_a 14.303466
_cell_length_b 13.824831
_cell_length_c 15.164295
_cell_angle_alpha 90.000000
_cell_angle_beta 90.000000
_cell_angle_gamma 90.000000
_cell_volume 2998.633189
_symmetry_space_group_name_H-M "P M N A"
_symmetry_group_IT_number 53
_symmetry_cell_setting 'orthorhombic'
loop_
_space_group_symop_operation_xyz
x,y,z
1/2-x,-y,1/2+z
x,-y,-z
1/2-x,y,1/2-z
-x,-y,-z
1/2+x,y,1/2-z
-x,y,z
1/2+x,-y,1/2+z
loop_
_atom_site_type_symbol
_atom_site_label
_atom_site_fract_x
_atom_site_fract_y
_atom_site_fract_z
Si Si1 0.607671 0.097642 0.098338
Si Si2 0.212611 0.391118 0.467873
Si Si3 0.724684 0.916250 0.152202
Si Si4 0.110236 0.292261 0.097677
Si Si5 0.605902 0.887226 0.474615
Si Si6 0.611857 0.293337 0.195355
Si Si7 0.893096 0.768991 0.425105
O O1 0.500000 0.064955 0.112787
O O2 0.631653 0.182834 0.166731
O O3 0.677254 0.008975 0.106587
O O4 0.610377 0.152649 0.005071
O O5 0.200876 0.500000 0.500000
O O6 0.320614 0.361993 0.455051
O O7 0.163001 0.363306 0.374408
O O8 0.165748 0.320855 0.539952
O O9 0.750000 0.946424 0.250000
O O10 0.813732 0.878349 0.097814
O O11 0.652264 0.827221 0.154571
O O12 0.133920 0.301662 0.201375
O O13 0.000000 0.313584 0.087955
O O14 0.125418 0.184507 0.057022
O O15 0.500000 0.864170 0.443757
O O16 0.606488 0.000000 0.500000
O O17 0.500000 0.306833 0.183875
O O18 0.000000 0.741628 0.410514
#
# Coordination Sequence:
#
# PCOD9418904 Si02
#       7
#     8   8   8   8   8   8   8
#     4   9  19  35  58  86 119 153 195 244 289 350
#     4  11  22  38  64  91 118 149 194 253 314 368
#     4  12  24  34  54  84 119 162 202 238 286 351
#     4  10  21  40  64  88 124 161 200 249 296 359
#     4  10  22  38  57  84 120 162 203 242 290 349
#     4   9  20  37  61  96 122 152 198 250 309 355
#     4  10  21  40  60  82 115 153 195 241 301 360
#
# _framework density 18.675174999999999
#
# number of rings (size 3 to 8) (size 9 to 14) (size 15 to 20)
#    0.000    1.857    1.429    3.429    4.000    3.714 
#    0.000    1.429    0.000    0.000    0.000    0.000 
#    0.000    0.000    0.000    0.000    0.000    0.000 
#
# Total GULP energy -312614.529146 kJ/mol
# GULP energy per Si atom -5582.402306 kJ/mol
# Density = 1.863267 g / cm^3
# Si number density = 18.675175 Si / 1000 Ang^3
#
#
#
# Elastic Constant Matrix: (Units=GPa)
#
#
# Indices 1 2 3 4 5 6 
#
# 1 82.9748 49.3583 26.6816 0.0000 0.0000 0.0000
# 2 49.3583 112.3977 36.9774 0.0000 0.0000 0.0000
# 3 26.6816 36.9774 33.3873 0.0000 0.0000 0.0000
# 4 0.0000 0.0000 0.0000 8.7933 0.0000 0.0000
# 5 0.0000 0.0000 0.0000 0.0000 14.9027 0.0000
# 6 0.0000 0.0000 0.0000 0.0000 0.0000 3.7254
#
#
#
# Elastic Compliance Matrix: (Units=1/GPa)
#
#
# Indices 1 2 3 4 5 6 
#
# 1 0.017806 -0.004937 -0.008762 0.000000 0.000000 0.000000
# 2 -0.004937 0.015366 -0.013073 0.000000 0.000000 0.000000
# 3 -0.008762 -0.013073 0.051432 0.000000 0.000000 0.000000
# 4 0.000000 0.000000 0.000000 0.113723 0.000000 0.000000
# 5 0.000000 0.000000 0.000000 0.000000 0.067102 0.000000
# 6 0.000000 0.000000 0.000000 0.000000 0.000000 0.268429
#
#
# Mechanical properties :
#
#
# Convention : Reuss Voigt Hill
#
# Bulk Modulus (GPa) = 32.19500 50.53272 41.36386
# Shear Modulus (GPa) = 8.36463 13.20045 10.78254
#
# Velocity S-wave (km/s) = 2.11866 2.66154 2.40547
# Velocity P-wave (km/s) = 4.82306 6.04670 5.46921
#
# Compressibility (1/GPa) = 0.03106072
#
# Stress axis : x y z
#
# Youngs Moduli (GPa) = 56.16048 65.08024 19.44298
#
# Poissons Ratio (x) = 0.32128 0.17037
# Poissons Ratio (y) = 0.27725 0.25417
# Poissons Ratio (z) = 0.49209 0.85078
#
# Static dielectric constant tensor:
#      x y z
#    x 1.694710 0.000000 0.000000 
#    y 0.000000 1.609970 0.000000 
#    z 0.000000 0.000000 1.682290 
# 
# From -- ./inp_files/22848.got.cif
#   From: 2010.05.17/outbox.cif.g08.bks.cpg/sg53_12_cif.got.tgz:22848.got - 2010.06.03 12:45:16.
