data_PCOD9418608
_publ_section_title
;
Structure prediction by ZEFSAII (Michael W. Deem and Ramdas Pophale) SiO2 
 PCOD9418608
Probable space group: P M N A
;
_chemical_formula_sum "Si O2"
_cell_formula_units_Z 36
_cell_length_a 8.645258
_cell_length_b 22.672531
_cell_length_c 9.183057
_cell_angle_alpha 90.000000
_cell_angle_beta 90.000000
_cell_angle_gamma 90.000000
_cell_volume 1799.969901
_symmetry_space_group_name_H-M "P M N A"
_symmetry_group_IT_number 53
_symmetry_cell_setting 'orthorhombic'
loop_
_space_group_symop_operation_xyz
x,y,z
1/2-x,-y,1/2+z
x,-y,-z
1/2-x,y,1/2-z
-x,-y,-z
1/2+x,y,1/2-z
-x,y,z
1/2+x,-y,1/2+z
loop_
_atom_site_type_symbol
_atom_site_label
_atom_site_fract_x
_atom_site_fract_y
_atom_site_fract_z
Si Si1 0.825266 0.918437 0.494145
Si Si2 0.814523 0.198267 0.914606
Si Si3 0.750000 0.997834 0.250000
Si Si4 0.314717 0.441891 0.088578
Si Si5 0.685036 0.332168 0.587216
O O1 0.765189 0.852356 0.509867
O O2 0.833648 0.955441 0.643034
O O3 0.000000 0.919099 0.430492
O O4 0.710444 0.951082 0.379226
O O5 0.750000 0.190919 0.750000
O O6 0.776303 0.265214 0.960651
O O7 0.000000 0.191670 0.914149
O O8 0.250000 0.445867 0.250000
O O9 0.500000 0.440648 0.091157
O O10 0.264697 0.500000 0.000000
O O11 0.254124 0.382770 0.012774
O O12 0.750000 0.339476 0.750000
O O13 0.500000 0.337197 0.591017
#
# Coordination Sequence:
#
# PCOD9418608 Si02
#       5
#     8   8   4   8   8
#     4  11  23  40  61  89 119 155 201 250 304 365
#     4  10  21  37  61  89 120 158 202 249 301 362
#     4  10  22  38  60  86 118 152 198 246 306 364
#     4  11  24  41  64  95 129 167 207 252 304 356
#     4  10  21  39  63  92 124 163 208 254 305 362
#
# _framework density 20.000336000000001
#
# number of rings (size 3 to 8) (size 9 to 14) (size 15 to 20)
#    0.000    1.556    1.111    4.000    0.000    8.889 
#    2.000    5.556    0.000    0.000    0.000    0.000 
#    0.000    0.000    0.000    0.000    0.000    0.000 
#
# Total GULP energy -200626.283679 kJ/mol
# GULP energy per Si atom -5572.952324 kJ/mol
# Density = 1.995481 g / cm^3
# Si number density = 20.000336 Si / 1000 Ang^3
#
#
#
# Elastic Constant Matrix: (Units=GPa)
#
#
# Indices 1 2 3 4 5 6 
#
# 1 60.2494 65.3771 39.5011 0.0000 0.0000 0.0000
# 2 65.3771 198.3779 80.2176 0.0000 0.0000 0.0000
# 3 39.5011 80.2176 99.2144 0.0000 0.0000 0.0000
# 4 0.0000 0.0000 0.0000 37.7274 0.0000 0.0000
# 5 0.0000 0.0000 0.0000 0.0000 24.5738 0.0000
# 6 0.0000 0.0000 0.0000 0.0000 0.0000 217.2093
#
#
#
# Elastic Compliance Matrix: (Units=1/GPa)
#
#
# Indices 1 2 3 4 5 6 
#
# 1 0.027664 -0.006928 -0.005412 0.000000 0.000000 0.000000
# 2 -0.006928 0.009225 -0.004700 0.000000 0.000000 0.000000
# 3 -0.005412 -0.004700 0.016034 0.000000 0.000000 0.000000
# 4 0.000000 0.000000 0.000000 0.026506 0.000000 0.000000
# 5 0.000000 0.000000 0.000000 0.000000 0.040694 0.000000
# 6 0.000000 0.000000 0.000000 0.000000 0.000000 0.004604
#
#
# Mechanical properties :
#
#
# Convention : Reuss Voigt Hill
#
# Bulk Modulus (GPa) = 53.07427 80.89258 66.98343
# Shear Modulus (GPa) = 30.28678 67.41852 48.85265
#
# Velocity S-wave (km/s) = 3.89564 5.81222 4.94762
# Velocity P-wave (km/s) = 6.84317 9.25072 8.13649
#
# Compressibility (1/GPa) = 0.01884152
#
# Stress axis : x y z
#
# Youngs Moduli (GPa) = 36.14780 108.40466 62.36698
#
# Poissons Ratio (x) = 0.75107 0.33756
# Poissons Ratio (y) = 0.25044 0.29312
# Poissons Ratio (z) = 0.19565 0.50950
#
# Static dielectric constant tensor:
#      x y z
#    x 1.711340 0.000000 0.000000 
#    y 0.000000 1.713230 0.000000 
#    z 0.000000 0.000000 1.673720 
# 
# From -- ./inp_files/6154.got.cif
#   From: 2010.05.17/outbox.cif.g08.bks.cpg/sg53_4_cif.got.tgz:6154.got - 2010.06.03 12:45:16.
