data_PCOD9418606
_publ_section_title
;
Structure prediction by ZEFSAII (Michael W. Deem and Ramdas Pophale) SiO2 
 PCOD9418606
Probable space group: P M N A
;
_chemical_formula_sum "Si O2"
_cell_formula_units_Z 64
_cell_length_a 18.369807
_cell_length_b 5.383319
_cell_length_c 31.557823
_cell_angle_alpha 90.000000
_cell_angle_beta 90.000000
_cell_angle_gamma 90.000000
_cell_volume 3120.769875
_symmetry_space_group_name_H-M "P M N A"
_symmetry_group_IT_number 53
_symmetry_cell_setting 'orthorhombic'
loop_
_space_group_symop_operation_xyz
x,y,z
1/2-x,-y,1/2+z
x,-y,-z
1/2-x,y,1/2-z
-x,-y,-z
1/2+x,y,1/2-z
-x,y,z
1/2+x,-y,1/2+z
loop_
_atom_site_type_symbol
_atom_site_label
_atom_site_fract_x
_atom_site_fract_y
_atom_site_fract_z
Si Si1 0.584438 0.435630 0.943679
Si Si2 0.414960 0.168033 0.781348
Si Si3 0.671636 0.078635 0.044152
Si Si4 0.795229 0.793493 0.709134
Si Si5 0.583880 0.509687 0.294043
Si Si6 0.263331 0.030636 0.624137
Si Si7 0.352193 0.593878 0.141783
Si Si8 0.085641 0.976189 0.847123
O O1 0.500000 0.430841 0.954731
O O2 0.618271 0.157838 0.947257
O O3 0.595700 0.505790 0.894202
O O4 0.627116 0.667798 0.964387
O O5 0.500000 0.120734 0.773408
O O6 0.362246 0.943945 0.770889
O O7 0.389859 0.397144 0.751721
O O8 0.399591 0.212673 0.830818
O O9 0.722211 0.112861 0.085842
O O10 0.710507 0.000000 0.000000
O O11 0.750000 0.710000 0.750000
O O12 0.752221 0.963367 0.674076
O O13 0.824866 0.594137 0.676619
O O14 0.500000 0.446142 0.286356
O O15 0.588319 0.765877 0.320806
O O16 0.608815 0.271857 0.320758
O O17 0.221295 0.293074 0.621637
O O18 0.349848 0.012696 0.618837
O O19 0.000000 0.944463 0.859992
#
# Coordination Sequence:
#
# PCOD9418606 Si02
#       8
#     8   8   8   8   8   8   8   8
#     4  11  23  42  66  94 130 166 208 263 316 375
#     4  10  22  37  54  80 115 160 211 261 309 364
#     4  11  24  43  66  96 128 167 212 258 320 382
#     4  11  23  38  58  84 117 163 212 257 309 375
#     4   9  20  35  53  84 116 151 202 256 304 354
#     4  10  23  41  60  86 126 162 205 258 316 377
#     4  10  23  39  56  87 120 166 210 255 317 380
#     4  10  21  37  61  87 116 156 201 255 311 364
#
# _framework density 20.507760999999999
#
# number of rings (size 3 to 8) (size 9 to 14) (size 15 to 20)
#    0.000    1.750    1.250    1.875    5.250    4.500 
#    0.000    0.000    0.000    0.375    0.000    0.000 
#    0.000    6.250    0.000    0.000    0.000    0.875 
#
# Total GULP energy -356488.718309 kJ/mol
# GULP energy per Si atom -5570.136224 kJ/mol
# Density = 2.046108 g / cm^3
# Si number density = 20.507761 Si / 1000 Ang^3
#
#
#
# Elastic Constant Matrix: (Units=GPa)
#
#
# Indices 1 2 3 4 5 6 
#
# 1 126.0715 40.1710 35.4188 0.0000 0.0000 0.0000
# 2 40.1710 91.9342 14.5412 0.0000 0.0000 0.0000
# 3 35.4188 14.5412 83.3256 0.0000 0.0000 0.0000
# 4 0.0000 0.0000 0.0000 29.2484 0.0000 0.0000
# 5 0.0000 0.0000 0.0000 0.0000 7.9919 0.0000
# 6 0.0000 0.0000 0.0000 0.0000 0.0000 20.8994
#
#
#
# Elastic Compliance Matrix: (Units=1/GPa)
#
#
# Indices 1 2 3 4 5 6 
#
# 1 0.010194 -0.003876 -0.003657 0.000000 0.000000 0.000000
# 2 -0.003876 0.012660 -0.000562 0.000000 0.000000 0.000000
# 3 -0.003657 -0.000562 0.013654 0.000000 0.000000 0.000000
# 4 0.000000 0.000000 0.000000 0.034190 0.000000 0.000000
# 5 0.000000 0.000000 0.000000 0.000000 0.125127 0.000000
# 6 0.000000 0.000000 0.000000 0.000000 0.000000 0.047848
#
#
# Mechanical properties :
#
#
# Convention : Reuss Voigt Hill
#
# Bulk Modulus (GPa) = 49.21619 53.51039 51.36329
# Shear Modulus (GPa) = 18.75220 25.70795 22.23007
#
# Velocity S-wave (km/s) = 3.02718 3.54442 3.29596
# Velocity P-wave (km/s) = 6.02240 6.54981 6.29163
#
# Compressibility (1/GPa) = 0.02031852
#
# Stress axis : x y z
#
# Youngs Moduli (GPa) = 98.09263 78.98979 73.24105
#
# Poissons Ratio (x) = 0.30617 0.26783
# Poissons Ratio (y) = 0.38022 0.04114
# Poissons Ratio (z) = 0.35871 0.04437
#
# Static dielectric constant tensor:
#      x y z
#    x 1.794550 0.000000 0.000000 
#    y 0.000000 1.873430 0.000000 
#    z 0.000000 0.000000 1.833430 
# 
# From -- ./inp_files/39029.got.cif
#   From: 2010.05.17/outbox.cif.g08.bks.cpg/sg53_20_cif.got.tgz:39029.got - 2010.06.03 12:45:16.
