data_PCOD9418033
_publ_section_title
;
Structure prediction by ZEFSAII (Michael W. Deem and Ramdas Pophale) SiO2 
 PCOD9418033
Probable space group: P M N A
;
_chemical_formula_sum "Si O2"
_cell_formula_units_Z 40
_cell_length_a 10.654238
_cell_length_b 8.465312
_cell_length_c 21.939333
_cell_angle_alpha 90.000000
_cell_angle_beta 90.000000
_cell_angle_gamma 90.000000
_cell_volume 1978.740229
_symmetry_space_group_name_H-M "P M N A"
_symmetry_group_IT_number 53
_symmetry_cell_setting 'orthorhombic'
loop_
_space_group_symop_operation_xyz
x,y,z
1/2-x,-y,1/2+z
x,-y,-z
1/2-x,y,1/2-z
-x,-y,-z
1/2+x,y,1/2-z
-x,y,z
1/2+x,-y,1/2+z
loop_
_atom_site_type_symbol
_atom_site_label
_atom_site_fract_x
_atom_site_fract_y
_atom_site_fract_z
Si Si1 0.750000 0.606708 0.750000
Si Si2 0.360980 0.162042 0.619321
Si Si3 0.356411 0.741696 0.922520
Si Si4 0.146183 0.418458 0.633265
Si Si5 0.735976 0.000000 0.500000
Si Si6 0.363752 0.842812 0.666855
O O1 0.689901 0.501838 0.803566
O O2 0.853388 0.728105 0.775923
O O3 0.500000 0.236911 0.620269
O O4 0.246181 0.281286 0.622510
O O5 0.344862 0.060747 0.557138
O O6 0.355587 0.031616 0.673351
O O7 0.500000 0.776573 0.905572
O O8 0.344951 0.551780 0.920112
O O9 0.255706 0.796497 0.872897
O O10 0.319610 0.848952 0.980071
O O11 0.000000 0.369167 0.636940
O O12 0.500000 0.812633 0.637156
#
# Coordination Sequence:
#
# PCOD9418033 Si02
#       6
#     4   8   8   8   4   8
#     4  10  20  38  62  84 110 150 188 232 286 338
#     4  10  22  39  59  85 115 148 191 238 283 337
#     4   9  19  35  57  85 114 147 188 232 280 335
#     4  10  22  38  57  86 120 150 187 235 286 343
#     4  10  20  38  62  84 110 152 196 240 284 334
#     4   9  19  36  58  82 109 145 189 232 275 330
#
# _framework density 20.214881999999999
#
# number of rings (size 3 to 8) (size 9 to 14) (size 15 to 20)
#    0.000    2.400    0.000    1.200    0.000   11.200 
#    0.000    5.000    0.000    0.000    0.000    0.000 
#    0.000    0.000    0.000    0.000    0.000    0.000 
#
# Total GULP energy -222682.001726 kJ/mol
# GULP energy per Si atom -5567.050043 kJ/mol
# Density = 2.016887 g / cm^3
# Si number density = 20.214882 Si / 1000 Ang^3
#
#
#
# Elastic Constant Matrix: (Units=GPa)
#
#
# Indices 1 2 3 4 5 6 
#
# 1 177.1421 71.2572 23.6228 0.0000 0.0000 0.0000
# 2 71.2572 98.4804 34.8450 0.0000 0.0000 0.0000
# 3 23.6228 34.8450 57.9686 0.0000 0.0000 0.0000
# 4 0.0000 0.0000 0.0000 34.7547 0.0000 0.0000
# 5 0.0000 0.0000 0.0000 0.0000 29.2324 0.0000
# 6 0.0000 0.0000 0.0000 0.0000 0.0000 34.9554
#
#
#
# Elastic Compliance Matrix: (Units=1/GPa)
#
#
# Indices 1 2 3 4 5 6 
#
# 1 0.007966 -0.005862 0.000278 0.000000 0.000000 0.000000
# 2 -0.005862 0.017212 -0.007957 0.000000 0.000000 0.000000
# 3 0.000278 -0.007957 0.021921 0.000000 0.000000 0.000000
# 4 0.000000 0.000000 0.000000 0.028773 0.000000 0.000000
# 5 0.000000 0.000000 0.000000 0.000000 0.034209 0.000000
# 6 0.000000 0.000000 0.000000 0.000000 0.000000 0.028608
#
#
# Mechanical properties :
#
#
# Convention : Reuss Voigt Hill
#
# Bulk Modulus (GPa) = 49.96282 65.89348 57.92815
# Shear Modulus (GPa) = 28.99509 33.37960 31.18735
#
# Velocity S-wave (km/s) = 3.79138 4.06795 3.93210
# Velocity P-wave (km/s) = 6.62839 7.39808 7.02379
#
# Compressibility (1/GPa) = 0.02001488
#
# Stress axis : x y z
#
# Youngs Moduli (GPa) = 125.52734 58.10068 45.61940
#
# Poissons Ratio (x) = 0.34061 -0.01266
# Poissons Ratio (y) = 0.73589 0.36299
# Poissons Ratio (z) = -0.03484 0.46230
#
# Static dielectric constant tensor:
#      x y z
#    x 1.691700 0.000000 0.000000 
#    y 0.000000 1.756120 0.000000 
#    z 0.000000 0.000000 1.782060 
# 
# From -- ./inp_files/36091.got.cif
#   From: 2010.05.17/outbox.cif.g08.bks.cpg/sg53_19_cif.got.tgz:36091.got - 2010.06.03 12:45:16.
