data_PCOD9418743
_publ_section_title
;
Structure prediction by ZEFSAII (Michael W. Deem and Ramdas Pophale) SiO2 
 PCOD9418743
Probable space group: P M N A
;
_chemical_formula_sum "Si O2"
_cell_formula_units_Z 40
_cell_length_a 13.486916
_cell_length_b 6.308853
_cell_length_c 22.064688
_cell_angle_alpha 90.000000
_cell_angle_beta 90.000000
_cell_angle_gamma 90.000000
_cell_volume 1877.417456
_symmetry_space_group_name_H-M "P M N A"
_symmetry_group_IT_number 53
_symmetry_cell_setting 'orthorhombic'
loop_
_space_group_symop_operation_xyz
x,y,z
1/2-x,-y,1/2+z
x,-y,-z
1/2-x,y,1/2-z
-x,-y,-z
1/2+x,y,1/2-z
-x,y,z
1/2+x,-y,1/2+z
loop_
_atom_site_type_symbol
_atom_site_label
_atom_site_fract_x
_atom_site_fract_y
_atom_site_fract_z
Si Si1 0.885995 0.477880 0.780982
Si Si2 0.230911 0.184266 0.148503
Si Si3 0.300866 0.563224 0.064650
Si Si4 0.884867 0.824854 0.328653
Si Si5 0.113125 0.805829 0.096907
O O1 0.824991 0.681695 0.800578
O O2 0.854261 0.347912 0.721816
O O3 0.883238 0.319474 0.838714
O O4 0.000000 0.540777 0.770871
O O5 0.279954 0.352337 0.103133
O O6 0.313685 0.026114 0.174003
O O7 0.151913 0.040290 0.111978
O O8 0.367116 0.716308 0.106164
O O9 0.195452 0.686584 0.056693
O O10 0.343039 0.500000 0.000000
O O11 0.000000 0.877293 0.318920
O O12 0.000000 0.801346 0.074616
#
# Coordination Sequence:
#
# PCOD9418743 Si02
#       5
#     8   8   8   8   8
#     4   9  19  37  60  89 121 148 183 237 300 364
#     4  10  21  38  63  86 115 157 196 239 298 356
#     4  10  23  40  57  83 120 161 207 254 297 343
#     4  10  23  40  60  89 120 155 202 247 294 355
#     4   9  19  35  58  89 119 150 193 243 300 366
#
# _framework density 21.305865000000001
#
# number of rings (size 3 to 8) (size 9 to 14) (size 15 to 20)
#    0.000    2.400    0.000    0.600    0.000   16.000 
#    0.000    6.000    0.000    6.000    0.000    0.000 
#    0.000    0.000    0.000    0.000    0.000    0.000 
#
# Total GULP energy -223747.729498 kJ/mol
# GULP energy per Si atom -5593.693237 kJ/mol
# Density = 2.125737 g / cm^3
# Si number density = 21.305865 Si / 1000 Ang^3
#
#
#
# Elastic Constant Matrix: (Units=GPa)
#
#
# Indices 1 2 3 4 5 6 
#
# 1 81.5754 46.3383 13.1002 0.0000 0.0000 0.0000
# 2 46.3383 134.1318 25.8903 0.0000 0.0000 0.0000
# 3 13.1002 25.8903 59.4032 0.0000 0.0000 0.0000
# 4 0.0000 0.0000 0.0000 12.3727 0.0000 0.0000
# 5 0.0000 0.0000 0.0000 0.0000 16.5137 0.0000
# 6 0.0000 0.0000 0.0000 0.0000 0.0000 19.3957
#
#
#
# Elastic Compliance Matrix: (Units=1/GPa)
#
#
# Indices 1 2 3 4 5 6 
#
# 1 0.015326 -0.005069 -0.001171 0.000000 0.000000 0.000000
# 2 -0.005069 0.009816 -0.003161 0.000000 0.000000 0.000000
# 3 -0.001171 -0.003161 0.018470 0.000000 0.000000 0.000000
# 4 0.000000 0.000000 0.000000 0.080823 0.000000 0.000000
# 5 0.000000 0.000000 0.000000 0.000000 0.060556 0.000000
# 6 0.000000 0.000000 0.000000 0.000000 0.000000 0.051558
#
#
# Mechanical properties :
#
#
# Convention : Reuss Voigt Hill
#
# Bulk Modulus (GPa) = 40.30277 49.52979 44.91628
# Shear Modulus (GPa) = 18.96674 22.30851 20.63762
#
# Velocity S-wave (km/s) = 2.98688 3.23934 3.11567
# Velocity P-wave (km/s) = 5.55451 6.10644 5.83700
#
# Compressibility (1/GPa) = 0.02481219
#
# Stress axis : x y z
#
# Youngs Moduli (GPa) = 65.24945 101.86957 54.14242
#
# Poissons Ratio (x) = 0.51634 0.06338
# Poissons Ratio (y) = 0.33072 0.17112
# Poissons Ratio (z) = 0.07639 0.32197
#
# Static dielectric constant tensor:
#      x y z
#    x 1.784780 0.000000 0.000000 
#    y 0.000000 1.744310 0.000000 
#    z 0.000000 0.000000 1.752430 
# 
# From -- ./inp_files/35137.got.cif
#   From: 2010.05.17/outbox.cif.g08.bks.cpg/sg53_18_cif.got.tgz:35137.got - 2010.06.03 12:45:16.
