data_PCOD9418607
_publ_section_title
;
Structure prediction by ZEFSAII (Michael W. Deem and Ramdas Pophale) SiO2 
 PCOD9418607
Probable space group: P M N A
;
_chemical_formula_sum "Si O2"
_cell_formula_units_Z 44
_cell_length_a 17.195233
_cell_length_b 14.177441
_cell_length_c 9.421442
_cell_angle_alpha 90.000000
_cell_angle_beta 90.000000
_cell_angle_gamma 90.000000
_cell_volume 2296.800598
_symmetry_space_group_name_H-M "P M N A"
_symmetry_group_IT_number 53
_symmetry_cell_setting 'orthorhombic'
loop_
_space_group_symop_operation_xyz
x,y,z
1/2-x,-y,1/2+z
x,-y,-z
1/2-x,y,1/2-z
-x,-y,-z
1/2+x,y,1/2-z
-x,y,z
1/2+x,-y,1/2+z
loop_
_atom_site_type_symbol
_atom_site_label
_atom_site_fract_x
_atom_site_fract_y
_atom_site_fract_z
Si Si1 0.632772 0.100311 0.429005
Si Si2 0.132755 0.389729 0.498775
Si Si3 0.775966 0.227618 0.414414
Si Si4 0.407766 0.910799 0.898650
Si Si5 0.000000 0.618166 0.269618
Si Si6 0.500000 0.395452 0.235129
Si Si7 0.500000 0.749413 0.505169
O O1 0.715151 0.148509 0.463092
O O2 0.621532 0.077883 0.262425
O O3 0.572227 0.179963 0.476572
O O4 0.621259 0.000000 0.500000
O O5 0.152270 0.500000 0.500000
O O6 0.210656 0.327801 0.487708
O O7 0.076301 0.376517 0.361429
O O8 0.076481 0.368558 0.632154
O O9 0.750000 0.243249 0.250000
O O10 0.859857 0.180629 0.442664
O O11 0.500000 0.895057 0.898294
O O12 0.391632 0.000000 0.000000
O O13 0.000000 0.506955 0.226774
O O14 0.000000 0.690709 0.140092
O O15 0.500000 0.326090 0.367652
#
# Coordination Sequence:
#
# PCOD9418607 Si02
#       7
#     8   8   8   8   4   4   4
#     4  11  24  41  57  83 125 163 198 249 307 355
#     4   9  19  38  62  90 121 155 202 257 306 358
#     4  10  21  38  62  89 117 159 196 245 304 364
#     4  10  21  37  61  89 113 151 207 250 289 357
#     4   9  21  36  60  95 123 155 202 257 307 354
#     4   9  17  36  64  88 121 155 200 259 301 363
#     4  12  22  38  61  87 120 168 213 244 306 373
#
# _framework density 19.157083
#
# number of rings (size 3 to 8) (size 9 to 14) (size 15 to 20)
#    0.000    2.000    0.909    4.364    2.545    1.455 
#    0.000    8.182    0.000    0.000    0.000    0.000 
#    0.000    0.000    0.000    0.000    0.000    0.000 
#
# Total GULP energy -245365.469733 kJ/mol
# GULP energy per Si atom -5576.487948 kJ/mol
# Density = 1.911348 g / cm^3
# Si number density = 19.157083 Si / 1000 Ang^3
#
#
#
# Elastic Constant Matrix: (Units=GPa)
#
#
# Indices 1 2 3 4 5 6 
#
# 1 38.2114 47.4656 19.9805 0.0000 0.0000 0.0000
# 2 47.4656 140.7642 80.7894 0.0000 0.0000 0.0000
# 3 19.9805 80.7894 89.1884 0.0000 0.0000 0.0000
# 4 0.0000 0.0000 0.0000 59.7432 0.0000 0.0000
# 5 0.0000 0.0000 0.0000 0.0000 11.2271 0.0000
# 6 0.0000 0.0000 0.0000 0.0000 0.0000 42.4588
#
#
#
# Elastic Compliance Matrix: (Units=1/GPa)
#
#
# Indices 1 2 3 4 5 6 
#
# 1 0.047677 -0.020717 0.008085 0.000000 0.000000 0.000000
# 2 -0.020717 0.023799 -0.016916 0.000000 0.000000 0.000000
# 3 0.008085 -0.016916 0.024724 0.000000 0.000000 0.000000
# 4 0.000000 0.000000 0.000000 0.016738 0.000000 0.000000
# 5 0.000000 0.000000 0.000000 0.000000 0.089070 0.000000
# 6 0.000000 0.000000 0.000000 0.000000 0.000000 0.023552
#
#
# Mechanical properties :
#
#
# Convention : Reuss Voigt Hill
#
# Bulk Modulus (GPa) = 26.95171 62.73724 44.84447
# Shear Modulus (GPa) = 16.83362 30.68105 23.75733
#
# Velocity S-wave (km/s) = 2.96753 4.00628 3.52537
# Velocity P-wave (km/s) = 5.08340 7.36344 6.32698
#
# Compressibility (1/GPa) = 0.03710339
#
# Stress axis : x y z
#
# Youngs Moduli (GPa) = 20.97456 42.01902 40.44598
#
# Poissons Ratio (x) = 0.87050 -0.32701
# Poissons Ratio (y) = 0.43453 0.68420
# Poissons Ratio (z) = -0.16958 0.71081
#
# Static dielectric constant tensor:
#      x y z
#    x 1.750370 0.000000 0.000000 
#    y 0.000000 1.735870 0.000000 
#    z 0.000000 0.000000 1.677690 
# 
# From -- ./inp_files/9874.got.cif
#   From: 2010.05.17/outbox.cif.g08.bks.cpg/sg53_5_cif.got.tgz:9874.got - 2010.06.03 12:45:16.
