data_PCOD9418250
_publ_section_title
;
Structure prediction by ZEFSAII (Michael W. Deem and Ramdas Pophale) SiO2 
 PCOD9418250
Probable space group: P M N A
;
_chemical_formula_sum "Si O2"
_cell_formula_units_Z 48
_cell_length_a 31.489131
_cell_length_b 5.242002
_cell_length_c 14.022766
_cell_angle_alpha 90.000000
_cell_angle_beta 90.000000
_cell_angle_gamma 90.000000
_cell_volume 2314.683122
_symmetry_space_group_name_H-M "P M N A"
_symmetry_group_IT_number 53
_symmetry_cell_setting 'orthorhombic'
loop_
_space_group_symop_operation_xyz
x,y,z
1/2-x,-y,1/2+z
x,-y,-z
1/2-x,y,1/2-z
-x,-y,-z
1/2+x,y,1/2-z
-x,y,z
1/2+x,-y,1/2+z
loop_
_atom_site_type_symbol
_atom_site_label
_atom_site_fract_x
_atom_site_fract_y
_atom_site_fract_z
Si Si1 0.360407 0.051466 0.786084
Si Si2 0.657134 0.555172 0.666789
Si Si3 0.453346 0.084589 0.725233
Si Si4 0.748405 0.706389 0.606357
Si Si5 0.063986 0.586342 0.896137
Si Si6 0.284122 0.789688 0.107335
O O1 0.346521 0.270619 0.709942
O O2 0.411522 0.057933 0.791062
O O3 0.332389 0.122454 0.878130
O O4 0.347816 0.773620 0.747576
O O5 0.700260 0.613860 0.610805
O O6 0.615174 0.594581 0.603555
O O7 0.500000 0.062118 0.770522
O O8 0.449367 0.360986 0.675824
O O9 0.450053 0.860095 0.645302
O O10 0.767925 0.746285 0.500476
O O11 0.775669 0.483265 0.654727
O O12 0.755126 0.985445 0.648482
O O13 0.048923 0.500000 0.000000
#
# Coordination Sequence:
#
# PCOD9418250 Si02
#       6
#     8   8   8   8   8   8
#     4  10  21  37  54  77 105 138 173 223 261 312
#     4  10  21  35  52  75 109 140 180 212 257 300
#     4  10  21  37  54  77 102 133 176 218 267 318
#     4  10  21  35  52  77 103 145 175 216 251 313
#     4  10  21  34  52  77 106 140 171 219 257 305
#     4  10  21  35  52  77 104 137 181 213 264 299
#
# _framework density 20.737179000000001
#
# number of rings (size 3 to 8) (size 9 to 14) (size 15 to 20)
#    0.000    2.000    0.000    3.000    2.333    6.000 
#    6.000    0.000    0.000    0.000    0.000    4.667 
#    0.000    0.000    0.000    0.000    0.000    0.000 
#
# Total GULP energy -267752.413829 kJ/mol
# GULP energy per Si atom -5578.175288 kJ/mol
# Density = 2.068998 g / cm^3
# Si number density = 20.737179 Si / 1000 Ang^3
#
#
#
# Elastic Constant Matrix: (Units=GPa)
#
#
# Indices 1 2 3 4 5 6 
#
# 1 200.0711 21.1387 39.0469 0.0000 0.0000 0.0000
# 2 21.1387 143.7613 -2.1317 0.0000 0.0000 0.0000
# 3 39.0469 -2.1317 55.9508 0.0000 0.0000 0.0000
# 4 0.0000 0.0000 0.0000 17.9183 0.0000 0.0000
# 5 0.0000 0.0000 0.0000 0.0000 -10.5297 0.0000
# 6 0.0000 0.0000 0.0000 0.0000 0.0000 -57.3551
#
#
#
# Elastic Compliance Matrix: (Units=1/GPa)
#
#
# Indices 1 2 3 4 5 6 
#
# 1 0.005908 -0.000930 -0.004159 0.000000 0.000000 0.000000
# 2 -0.000930 0.007106 0.000920 0.000000 0.000000 0.000000
# 3 -0.004159 0.000920 0.020810 0.000000 0.000000 0.000000
# 4 0.000000 0.000000 0.000000 0.055809 0.000000 0.000000
# 5 0.000000 0.000000 0.000000 0.000000 -0.094970 0.000000
# 6 0.000000 0.000000 0.000000 0.000000 0.000000 -0.017435
#
#
# Mechanical properties :
#
#
# Convention : Reuss Voigt Hill
#
# Bulk Modulus (GPa) = 39.23603 57.32121 48.27862
# Shear Modulus (GPa) = -842.02896 12.78866 -414.62015
#
# Velocity S-wave (km/s) = -20.17249 2.48604 -14.15537
# Velocity P-wave (km/s) = 22.88255 5.99519 15.61520
#
# Compressibility (1/GPa) = 0.02548678
#
# Stress axis : x y z
#
# Youngs Moduli (GPa) = 169.25790 140.71771 48.05351
#
# Poissons Ratio (x) = 0.13092 0.19984
# Poissons Ratio (y) = 0.15748 -0.04421
# Poissons Ratio (z) = 0.70388 -0.12947
#
# Static dielectric constant tensor:
#      x y z
#    x 1.779580 0.000000 0.000000 
#    y 0.000000 1.832230 0.000000 
#    z 0.000000 0.000000 1.556890 
# 
# From -- ./inp_files/29659.got.cif
#   From: 2010.05.17/outbox.cif.g08.bks.cpg/sg53_15_cif.got.tgz:29659.got - 2010.06.03 12:45:16.
