data_PCOD9418950
_publ_section_title
;
Structure prediction by ZEFSAII (Michael W. Deem and Ramdas Pophale) SiO2 
 PCOD9418950
Probable space group: P M N A
;
_chemical_formula_sum "Si O2"
_cell_formula_units_Z 48
_cell_length_a 17.581088
_cell_length_b 15.094238
_cell_length_c 8.414113
_cell_angle_alpha 90.000000
_cell_angle_beta 90.000000
_cell_angle_gamma 90.000000
_cell_volume 2232.879474
_symmetry_space_group_name_H-M "P M N A"
_symmetry_group_IT_number 53
_symmetry_cell_setting 'orthorhombic'
loop_
_space_group_symop_operation_xyz
x,y,z
1/2-x,-y,1/2+z
x,-y,-z
1/2-x,y,1/2-z
-x,-y,-z
1/2+x,y,1/2-z
-x,y,z
1/2+x,-y,1/2+z
loop_
_atom_site_type_symbol
_atom_site_label
_atom_site_fract_x
_atom_site_fract_y
_atom_site_fract_z
Si Si1 0.908908 0.464079 0.167186
Si Si2 0.090420 0.134705 0.174843
Si Si3 0.409156 0.632343 0.130969
Si Si4 0.665523 0.968357 0.181234
Si Si5 0.335428 0.298454 0.185000
Si Si6 0.910125 0.194250 0.821766
O O1 0.889871 0.535051 0.304308
O O2 0.880373 0.366705 0.202804
O O3 0.000000 0.462056 0.159261
O O4 0.878995 0.500000 0.000000
O O5 0.114709 0.035128 0.213390
O O6 0.130810 0.200590 0.297409
O O7 0.000000 0.143702 0.187324
O O8 0.114329 0.167636 0.999401
O O9 0.500000 0.633477 0.083386
O O10 0.400729 0.703575 0.273411
O O11 0.354902 0.664345 0.989538
O O12 0.750000 0.973393 0.250000
O O13 0.634153 0.869593 0.202276
O O14 0.663211 0.000000 0.000000
O O15 0.250000 0.298277 0.250000
O O16 0.000000 0.174988 0.809502
#
# Coordination Sequence:
#
# PCOD9418950 Si02
#       6
#     8   8   8   8   8   8
#     4  10  21  40  65  91 121 161 208 255 304 361
#     4  11  23  42  66  90 121 161 207 255 302 359
#     4  10  21  40  66  92 121 161 208 253 300 361
#     4  12  25  41  62  91 127 163 200 247 306 367
#     4  12  25  39  58  90 127 163 204 253 309 363
#     4  10  22  41  65  92 120 157 205 255 305 359
#
# _framework density 21.496905999999999
#
# number of rings (size 3 to 8) (size 9 to 14) (size 15 to 20)
#    0.000    1.167    0.000    6.500    0.000   10.667 
#    0.000    2.500    0.000    0.000    0.000    0.000 
#    0.000    0.000    0.000    0.000    0.000    0.000 
#
# Total GULP energy -268582.216730 kJ/mol
# GULP energy per Si atom -5595.462849 kJ/mol
# Density = 2.144798 g / cm^3
# Si number density = 21.496906 Si / 1000 Ang^3
#
#
#
# Elastic Constant Matrix: (Units=GPa)
#
#
# Indices 1 2 3 4 5 6 
#
# 1 37.8934 3.4902 23.3769 0.0000 0.0000 0.0000
# 2 3.4902 64.8328 -13.5724 0.0000 0.0000 0.0000
# 3 23.3769 -13.5724 69.2081 0.0000 0.0000 0.0000
# 4 0.0000 0.0000 0.0000 24.8182 0.0000 0.0000
# 5 0.0000 0.0000 0.0000 0.0000 -8.3622 0.0000
# 6 0.0000 0.0000 0.0000 0.0000 0.0000 -35.5395
#
#
#
# Elastic Compliance Matrix: (Units=1/GPa)
#
#
# Indices 1 2 3 4 5 6 
#
# 1 0.034544 -0.004487 -0.012548 0.000000 0.000000 0.000000
# 2 -0.004487 0.016667 0.004784 0.000000 0.000000 0.000000
# 3 -0.012548 0.004784 0.019626 0.000000 0.000000 0.000000
# 4 0.000000 0.000000 0.000000 0.040293 0.000000 0.000000
# 5 0.000000 0.000000 0.000000 0.000000 -0.119585 0.000000
# 6 0.000000 0.000000 0.000000 0.000000 0.000000 -0.028138
#
#
# Mechanical properties :
#
#
# Convention : Reuss Voigt Hill
#
# Bulk Modulus (GPa) = 21.58137 22.05820 21.81978
# Shear Modulus (GPa) = 1490.82057 6.75926 748.78991
#
# Velocity S-wave (km/s) = 26.36305 1.77514 18.68370
# Velocity P-wave (km/s) = 30.60623 3.80590 21.80856
#
# Compressibility (1/GPa) = 0.04633626
#
# Stress axis : x y z
#
# Youngs Moduli (GPa) = 28.94851 59.99763 50.95332
#
# Poissons Ratio (x) = 0.26918 0.63936
# Poissons Ratio (y) = 0.12988 -0.24376
# Poissons Ratio (z) = 0.36325 -0.28703
#
# Static dielectric constant tensor:
#      x y z
#    x 1.737530 0.000000 0.000000 
#    y 0.000000 1.721460 0.000000 
#    z 0.000000 0.000000 1.809040 
# 
# From -- ./inp_files/9954.got.cif
#   From: 2010.05.17/outbox.cif.g08.bks.cpg/sg53_5_cif.got.tgz:9954.got - 2010.06.03 12:45:16.
