data_PCOD9418438
_publ_section_title
;
Structure prediction by ZEFSAII (Michael W. Deem and Ramdas Pophale) SiO2 
 PCOD9418438
Probable space group: P M N A
;
_chemical_formula_sum "Si O2"
_cell_formula_units_Z 28
_cell_length_a 13.867907
_cell_length_b 9.040852
_cell_length_c 9.778587
_cell_angle_alpha 90.000000
_cell_angle_beta 90.000000
_cell_angle_gamma 90.000000
_cell_volume 1226.016696
_symmetry_space_group_name_H-M "P M N A"
_symmetry_group_IT_number 53
_symmetry_cell_setting 'orthorhombic'
loop_
_space_group_symop_operation_xyz
x,y,z
1/2-x,-y,1/2+z
x,-y,-z
1/2-x,y,1/2-z
-x,-y,-z
1/2+x,y,1/2-z
-x,y,z
1/2+x,-y,1/2+z
loop_
_atom_site_type_symbol
_atom_site_label
_atom_site_fract_x
_atom_site_fract_y
_atom_site_fract_z
Si Si1 0.611988 0.250011 0.231606
Si Si2 0.799383 0.730020 0.431604
Si Si3 0.609247 0.419110 0.677671
Si Si4 0.250000 0.001593 0.250000
O O1 0.500000 0.217902 0.212706
O O2 0.620576 0.404764 0.310194
O O3 0.665513 0.111050 0.298716
O O4 0.662089 0.270775 0.084105
O O5 0.872508 0.644158 0.330464
O O6 0.695624 0.652596 0.408449
O O7 0.788118 0.893517 0.368113
O O8 0.500000 0.384365 0.632489
#
# Coordination Sequence:
#
# PCOD9418438 Si02
#       4
#     8   8   8   4
#     4  11  22  39  64  89 116 156 201 242 290 350
#     4  10  21  36  60  88 122 156 195 244 294 349
#     4   9  19  36  59  86 115 150 195 247 297 345
#     4  10  22  36  54  88 124 154 192 244 290 338
#
# _framework density 22.838187999999999
#
# number of rings (size 3 to 8) (size 9 to 14) (size 15 to 20)
#    0.000    2.286    0.000    4.286    0.000    9.143 
#    0.000    1.429    0.000   30.857    0.000    0.000 
#    0.000    0.000    0.000    0.000    0.000    0.000 
#
# Total GULP energy -156782.955359 kJ/mol
# GULP energy per Si atom -5599.391263 kJ/mol
# Density = 2.278621 g / cm^3
# Si number density = 22.838188 Si / 1000 Ang^3
#
#
#
# Elastic Constant Matrix: (Units=GPa)
#
#
# Indices 1 2 3 4 5 6 
#
# 1 171.5849 64.3086 -0.9180 0.0000 0.0000 0.0000
# 2 64.3086 135.3630 -9.1877 0.0000 0.0000 0.0000
# 3 -0.9180 -9.1877 34.1229 0.0000 0.0000 0.0000
# 4 0.0000 0.0000 0.0000 18.5632 0.0000 0.0000
# 5 0.0000 0.0000 0.0000 0.0000 20.3362 0.0000
# 6 0.0000 0.0000 0.0000 0.0000 0.0000 -22.1227
#
#
#
# Elastic Compliance Matrix: (Units=1/GPa)
#
#
# Indices 1 2 3 4 5 6 
#
# 1 0.007108 -0.003427 -0.000731 0.000000 0.000000 0.000000
# 2 -0.003427 0.009177 0.002379 0.000000 0.000000 0.000000
# 3 -0.000731 0.002379 0.029927 0.000000 0.000000 0.000000
# 4 0.000000 0.000000 0.000000 0.053870 0.000000 0.000000
# 5 0.000000 0.000000 0.000000 0.000000 0.049173 0.000000
# 6 0.000000 0.000000 0.000000 0.000000 0.000000 -0.045202
#
#
# Mechanical properties :
#
#
# Convention : Reuss Voigt Hill
#
# Bulk Modulus (GPa) = 23.44489 49.94184 36.69336
# Shear Modulus (GPa) = 41.04095 22.47987 31.76041
#
# Velocity S-wave (km/s) = 4.24374 3.14078 3.73322
# Velocity P-wave (km/s) = 5.85665 5.92181 5.88932
#
# Compressibility (1/GPa) = 0.04265322
#
# Stress axis : x y z
#
# Youngs Moduli (GPa) = 140.67837 108.96835 33.41505
#
# Poissons Ratio (x) = 0.37340 0.02444
# Poissons Ratio (y) = 0.48207 -0.07949
# Poissons Ratio (z) = 0.10290 -0.25921
#
# Static dielectric constant tensor:
#      x y z
#    x 1.831900 0.000000 0.000000 
#    y 0.000000 1.843620 0.000000 
#    z 0.000000 0.000000 1.891440 
# 
# From -- ./inp_files/15285.got.cif
#   From: 2010.05.17/outbox.cif.g08.bks.cpg/sg53_8_cif.got.tgz:15285.got - 2010.06.03 12:45:16.
