data_PCOD9418792
_publ_section_title
;
Structure prediction by ZEFSAII (Michael W. Deem and Ramdas Pophale) SiO2 
 PCOD9418792
Probable space group: P M N A
;
_chemical_formula_sum "Si O2"
_cell_formula_units_Z 48
_cell_length_a 8.716463
_cell_length_b 10.127566
_cell_length_c 29.576320
_cell_angle_alpha 90.000000
_cell_angle_beta 90.000000
_cell_angle_gamma 90.000000
_cell_volume 2610.895619
_symmetry_space_group_name_H-M "P M N A"
_symmetry_group_IT_number 53
_symmetry_cell_setting 'orthorhombic'
loop_
_space_group_symop_operation_xyz
x,y,z
1/2-x,-y,1/2+z
x,-y,-z
1/2-x,y,1/2-z
-x,-y,-z
1/2+x,y,1/2-z
-x,y,z
1/2+x,-y,1/2+z
loop_
_atom_site_type_symbol
_atom_site_label
_atom_site_fract_x
_atom_site_fract_y
_atom_site_fract_z
Si Si1 0.683782 0.013268 0.800469
Si Si2 0.315350 0.134827 0.523060
Si Si3 0.177276 0.373688 0.467369
Si Si4 0.815436 0.728112 0.799785
Si Si5 0.684531 0.517130 0.624728
Si Si6 0.686259 0.789965 0.375332
O O1 0.750000 0.037702 0.750000
O O2 0.500000 0.011029 0.798372
O O3 0.742197 0.121752 0.835869
O O4 0.746358 0.868857 0.814859
O O5 0.500000 0.131035 0.524138
O O6 0.264321 0.255687 0.491969
O O7 0.265634 0.157948 0.574941
O O8 0.259349 0.000000 0.500000
O O9 0.185785 0.500000 0.500000
O O10 0.248329 0.416598 0.419979
O O11 0.000000 0.336866 0.461308
O O12 0.750000 0.703011 0.750000
O O13 0.773345 0.608787 0.832942
O O14 0.000000 0.739764 0.798122
O O15 0.500000 0.517218 0.621051
O O16 0.731948 0.364090 0.628733
O O17 0.500000 0.797545 0.372425
#
# Coordination Sequence:
#
# PCOD9418792 Si02
#       6
#     8   8   8   8   8   8
#     4  11  23  40  62  87 118 155 193 237 292 347
#     4  10  22  39  61  87 116 157 202 242 289 348
#     4  11  23  38  58  86 121 156 194 241 293 343
#     4  10  21  39  62  88 116 148 191 238 288 348
#     4  10  22  39  62  87 115 156 198 237 289 352
#     4  10  21  39  60  86 120 154 197 245 290 346
#
# _framework density 18.384494
#
# number of rings (size 3 to 8) (size 9 to 14) (size 15 to 20)
#    0.000    1.667    1.667    3.500    2.333    4.333 
#    0.000    1.667    0.000    0.000    0.000    0.000 
#    0.000    0.000    0.000    0.000    0.000    0.000 
#
# Total GULP energy -268143.165642 kJ/mol
# GULP energy per Si atom -5586.315951 kJ/mol
# Density = 1.834265 g / cm^3
# Si number density = 18.384494 Si / 1000 Ang^3
#
#
#
# Elastic Constant Matrix: (Units=GPa)
#
#
# Indices 1 2 3 4 5 6 
#
# 1 38.8646 42.7489 43.7746 0.0000 0.0000 0.0000
# 2 42.7489 136.1190 100.9998 0.0000 0.0000 0.0000
# 3 43.7746 100.9998 129.5346 0.0000 0.0000 0.0000
# 4 0.0000 0.0000 0.0000 38.5921 0.0000 0.0000
# 5 0.0000 0.0000 0.0000 0.0000 11.9992 0.0000
# 6 0.0000 0.0000 0.0000 0.0000 0.0000 22.3180
#
#
#
# Elastic Compliance Matrix: (Units=1/GPa)
#
#
# Indices 1 2 3 4 5 6 
#
# 1 0.043904 -0.006595 -0.009695 0.000000 0.000000 0.000000
# 2 -0.006595 0.018422 -0.012135 0.000000 0.000000 0.000000
# 3 -0.009695 -0.012135 0.020458 0.000000 0.000000 0.000000
# 4 0.000000 0.000000 0.000000 0.025912 0.000000 0.000000
# 5 0.000000 0.000000 0.000000 0.000000 0.083339 0.000000
# 6 0.000000 0.000000 0.000000 0.000000 0.000000 0.044807
#
#
# Mechanical properties :
#
#
# Convention : Reuss Voigt Hill
#
# Bulk Modulus (GPa) = 38.55870 75.50720 57.03295
# Shear Modulus (GPa) = 16.53792 22.38153 19.45972
#
# Velocity S-wave (km/s) = 3.00252 3.49293 3.25697
# Velocity P-wave (km/s) = 5.74797 7.57811 6.72558
#
# Compressibility (1/GPa) = 0.02593448
#
# Stress axis : x y z
#
# Youngs Moduli (GPa) = 22.77706 54.28325 48.88041
#
# Poissons Ratio (x) = 0.35799 0.47388
# Poissons Ratio (y) = 0.15021 0.59317
# Poissons Ratio (z) = 0.22082 0.65874
#
# Static dielectric constant tensor:
#      x y z
#    x 1.624340 0.000000 0.000000 
#    y 0.000000 1.628790 0.000000 
#    z 0.000000 0.000000 1.599940 
# 
# From -- ./inp_files/37712.got.cif
#   From: 2010.05.17/outbox.cif.g08.bks.cpg/sg53_19_cif.got.tgz:37712.got - 2010.06.03 12:45:16.
