data_PCOD9418073
_publ_section_title
;
Structure prediction by ZEFSAII (Michael W. Deem and Ramdas Pophale) SiO2 
 PCOD9418073
Probable space group: P M N A
;
_chemical_formula_sum "Si O2"
_cell_formula_units_Z 48
_cell_length_a 8.636429
_cell_length_b 15.173148
_cell_length_c 18.769751
_cell_angle_alpha 90.000000
_cell_angle_beta 90.000000
_cell_angle_gamma 90.000000
_cell_volume 2459.622246
_symmetry_space_group_name_H-M "P M N A"
_symmetry_group_IT_number 53
_symmetry_cell_setting 'orthorhombic'
loop_
_space_group_symop_operation_xyz
x,y,z
1/2-x,-y,1/2+z
x,-y,-z
1/2-x,y,1/2-z
-x,-y,-z
1/2+x,y,1/2-z
-x,y,z
1/2+x,-y,1/2+z
loop_
_atom_site_type_symbol
_atom_site_label
_atom_site_fract_x
_atom_site_fract_y
_atom_site_fract_z
Si Si1 0.314990 0.623733 0.429122
Si Si2 0.183513 0.769486 0.326234
Si Si3 0.316490 0.474688 0.172857
Si Si4 0.812557 0.680122 0.912664
Si Si5 0.312477 0.122369 0.441131
Si Si6 0.187297 0.066768 0.897254
O O1 0.500000 0.614936 0.426867
O O2 0.263794 0.710725 0.386688
O O3 0.241910 0.542246 0.387363
O O4 0.269644 0.635836 0.511438
O O5 0.250000 0.741972 0.250000
O O6 0.229995 0.870314 0.341505
O O7 0.000000 0.757347 0.328323
O O8 0.250000 0.499394 0.250000
O O9 0.500000 0.477231 0.175989
O O10 0.257758 0.378350 0.149671
O O11 0.759791 0.781957 0.915428
O O12 0.000000 0.678529 0.907649
O O13 0.500000 0.123914 0.439849
O O14 0.272318 0.103235 0.523599
O O15 0.265952 0.035889 0.396770
O O16 0.000000 0.072949 0.889426
#
# Coordination Sequence:
#
# PCOD9418073 Si02
#       6
#     8   8   8   8   8   8
#     4  11  22  40  65  90 118 153 195 242 296 360
#     4  12  24  37  55  83 121 160 200 247 300 355
#     4  12  26  43  61  85 119 157 198 245 297 353
#     4  10  20  38  64  93 120 154 196 240 292 352
#     4   8  15  31  60  89 115 149 191 235 284 344
#     4   9  16  33  58  85 115 152 194 235 285 345
#
# _framework density 19.515193
#
# number of rings (size 3 to 8) (size 9 to 14) (size 15 to 20)
#    0.000    1.667    1.667    5.500    0.000    3.333 
#    0.000    3.333    0.000    0.000    0.000    0.000 
#    0.000    0.000    0.000    0.000    0.000    0.000 
#
# Total GULP energy -268192.951250 kJ/mol
# GULP energy per Si atom -5587.353151 kJ/mol
# Density = 1.947078 g / cm^3
# Si number density = 19.515193 Si / 1000 Ang^3
#
#
#
# Elastic Constant Matrix: (Units=GPa)
#
#
# Indices 1 2 3 4 5 6 
#
# 1 37.1660 13.0977 8.1548 0.0000 0.0000 0.0000
# 2 13.0977 115.6338 7.7775 0.0000 0.0000 0.0000
# 3 8.1548 7.7775 36.1451 0.0000 0.0000 0.0000
# 4 0.0000 0.0000 0.0000 10.6214 0.0000 0.0000
# 5 0.0000 0.0000 0.0000 0.0000 19.5165 0.0000
# 6 0.0000 0.0000 0.0000 0.0000 0.0000 21.6562
#
#
#
# Elastic Compliance Matrix: (Units=1/GPa)
#
#
# Indices 1 2 3 4 5 6 
#
# 1 0.029242 -0.002911 -0.005971 0.000000 0.000000 0.000000
# 2 -0.002911 0.009065 -0.001294 0.000000 0.000000 0.000000
# 3 -0.005971 -0.001294 0.029292 0.000000 0.000000 0.000000
# 4 0.000000 0.000000 0.000000 0.094150 0.000000 0.000000
# 5 0.000000 0.000000 0.000000 0.000000 0.051239 0.000000
# 6 0.000000 0.000000 0.000000 0.000000 0.000000 0.046176
#
#
# Mechanical properties :
#
#
# Convention : Reuss Voigt Hill
#
# Bulk Modulus (GPa) = 21.16510 27.44500 24.30505
# Shear Modulus (GPa) = 16.93402 21.01980 18.97691
#
# Velocity S-wave (km/s) = 2.94893 3.28548 3.12174
# Velocity P-wave (km/s) = 4.73961 5.33727 5.04729
#
# Compressibility (1/GPa) = 0.04724760
#
# Stress axis : x y z
#
# Youngs Moduli (GPa) = 34.19719 110.31812 34.13928
#
# Poissons Ratio (x) = 0.32109 0.20385
# Poissons Ratio (y) = 0.09954 0.04417
# Poissons Ratio (z) = 0.20419 0.14273
#
# Static dielectric constant tensor:
#      x y z
#    x 1.649670 0.000000 0.000000 
#    y 0.000000 1.722590 0.000000 
#    z 0.000000 0.000000 1.648680 
# 
# From -- ./inp_files/26253.got.cif
#   From: 2010.05.17/outbox.cif.g08.bks.cpg/sg53_14_cif.got.tgz:26253.got - 2010.06.03 12:45:16.
