data_PCOD9418297
_publ_section_title
;
Structure prediction by ZEFSAII (Michael W. Deem and Ramdas Pophale) SiO2 
 PCOD9418297
Probable space group: P M N A
;
_chemical_formula_sum "Si O2"
_cell_formula_units_Z 40
_cell_length_a 18.076950
_cell_length_b 9.827844
_cell_length_c 11.359923
_cell_angle_alpha 90.000000
_cell_angle_beta 90.000000
_cell_angle_gamma 90.000000
_cell_volume 2018.174891
_symmetry_space_group_name_H-M "P M N A"
_symmetry_group_IT_number 53
_symmetry_cell_setting 'orthorhombic'
loop_
_space_group_symop_operation_xyz
x,y,z
1/2-x,-y,1/2+z
x,-y,-z
1/2-x,y,1/2-z
-x,-y,-z
1/2+x,y,1/2-z
-x,y,z
1/2+x,-y,1/2+z
loop_
_atom_site_type_symbol
_atom_site_label
_atom_site_fract_x
_atom_site_fract_y
_atom_site_fract_z
Si Si1 0.586125 0.215021 0.712736
Si Si2 0.913385 0.097141 0.248814
Si Si3 0.416235 0.484869 0.859017
Si Si4 0.194308 0.280111 0.355848
Si Si5 0.680297 0.159377 0.485375
O O1 0.500000 0.222773 0.675509
O O2 0.597628 0.335196 0.806411
O O3 0.637033 0.216954 0.597603
O O4 0.597787 0.063789 0.762530
O O5 0.872106 0.172992 0.353757
O O6 0.876015 0.148737 0.126417
O O7 0.000000 0.125795 0.245669
O O8 0.500000 0.525238 0.817525
O O9 0.347247 0.580249 0.827027
O O10 0.418377 0.500000 0.000000
O O11 0.250000 0.246344 0.250000
O O12 0.248666 0.255323 0.464335
O O13 0.703303 0.000000 0.500000
#
# Coordination Sequence:
#
# PCOD9418297 Si02
#       5
#     8   8   8   8   8
#     4   9  18  35  60  85 108 142 191 243 290 337
#     4   9  17  33  58  85 112 144 184 231 284 343
#     4  10  22  39  55  74 105 145 188 232 278 333
#     4  10  21  35  52  78 112 146 178 221 281 343
#     4   9  18  33  56  86 115 143 185 239 293 344
#
# _framework density 19.819887999999999
#
# number of rings (size 3 to 8) (size 9 to 14) (size 15 to 20)
#    0.000    2.600    0.000    1.200    0.000    5.600 
#    0.000    8.000    0.000   16.800    0.000    0.000 
#    0.000    0.000    0.000    0.000    0.000    1.400 
#
# Total GULP energy -222755.872885 kJ/mol
# GULP energy per Si atom -5568.896822 kJ/mol
# Density = 1.977478 g / cm^3
# Si number density = 19.819888 Si / 1000 Ang^3
#
#
#
# Elastic Constant Matrix: (Units=GPa)
#
#
# Indices 1 2 3 4 5 6 
#
# 1 81.5764 63.0840 15.6516 0.0000 0.0000 0.0000
# 2 63.0840 96.1398 38.9287 0.0000 0.0000 0.0000
# 3 15.6516 38.9287 44.0085 0.0000 0.0000 0.0000
# 4 0.0000 0.0000 0.0000 25.5434 0.0000 0.0000
# 5 0.0000 0.0000 0.0000 0.0000 28.0514 0.0000
# 6 0.0000 0.0000 0.0000 0.0000 0.0000 49.7820
#
#
#
# Elastic Compliance Matrix: (Units=1/GPa)
#
#
# Indices 1 2 3 4 5 6 
#
# 1 0.027235 -0.021733 0.009538 0.000000 0.000000 0.000000
# 2 -0.021733 0.033549 -0.021947 0.000000 0.000000 0.000000
# 3 0.009538 -0.021947 0.038744 0.000000 0.000000 0.000000
# 4 0.000000 0.000000 0.000000 0.039149 0.000000 0.000000
# 5 0.000000 0.000000 0.000000 0.000000 0.035649 0.000000
# 6 0.000000 0.000000 0.000000 0.000000 0.000000 0.020088
#
#
# Mechanical properties :
#
#
# Convention : Reuss Voigt Hill
#
# Bulk Modulus (GPa) = 32.00559 50.78371 41.39465
# Shear Modulus (GPa) = 18.30762 27.61272 22.96017
#
# Velocity S-wave (km/s) = 3.04254 3.73659 3.40728
# Velocity P-wave (km/s) = 5.34097 6.65540 6.03408
#
# Compressibility (1/GPa) = 0.03124454
#
# Stress axis : x y z
#
# Youngs Moduli (GPa) = 36.71809 29.80759 25.81030
#
# Poissons Ratio (x) = 0.64780 -0.24618
# Poissons Ratio (y) = 0.79798 0.56646
# Poissons Ratio (z) = -0.35022 0.65418
#
# Static dielectric constant tensor:
#      x y z
#    x 1.707980 0.000000 0.000000 
#    y 0.000000 1.706250 0.000000 
#    z 0.000000 0.000000 1.727040 
# 
# From -- ./inp_files/16652.got.cif
#   From: 2010.05.17/outbox.cif.g08.bks.cpg/sg53_9_cif.got.tgz:16652.got - 2010.06.03 12:45:16.
