data_PCOD9418345
_publ_section_title
;
Structure prediction by ZEFSAII (Michael W. Deem and Ramdas Pophale) SiO2 
 PCOD9418345
Probable space group: P M N A
;
_chemical_formula_sum "Si O2"
_cell_formula_units_Z 40
_cell_length_a 8.528540
_cell_length_b 27.539860
_cell_length_c 9.338994
_cell_angle_alpha 90.000000
_cell_angle_beta 90.000000
_cell_angle_gamma 90.000000
_cell_volume 2193.494326
_symmetry_space_group_name_H-M "P M N A"
_symmetry_group_IT_number 53
_symmetry_cell_setting 'orthorhombic'
loop_
_space_group_symop_operation_xyz
x,y,z
1/2-x,-y,1/2+z
x,-y,-z
1/2-x,y,1/2-z
-x,-y,-z
1/2+x,y,1/2-z
-x,y,z
1/2+x,-y,1/2+z
loop_
_atom_site_type_symbol
_atom_site_label
_atom_site_fract_x
_atom_site_fract_y
_atom_site_fract_z
Si Si1 0.812568 0.252232 0.586550
Si Si2 0.312537 0.847443 0.413682
Si Si3 0.810459 0.953505 0.088097
Si Si4 0.189611 0.452624 0.410991
Si Si5 0.310557 0.358833 0.912453
O O1 0.750000 0.252690 0.750000
O O2 0.749885 0.202428 0.518252
O O3 0.764616 0.305311 0.529116
O O4 0.000000 0.249563 0.589393
O O5 0.250000 0.848061 0.250000
O O6 0.500000 0.844811 0.410151
O O7 0.264814 0.900315 0.473496
O O8 0.750000 0.956614 0.250000
O O9 0.000000 0.954579 0.090880
O O10 0.753930 0.000000 0.000000
O O11 0.240302 0.500000 0.500000
O O12 0.250000 0.454796 0.250000
O O13 0.243303 0.403584 0.490835
O O14 0.000000 0.452307 0.408847
O O15 0.250000 0.363999 0.750000
O O16 0.500000 0.359837 0.906926
#
# Coordination Sequence:
#
# PCOD9418345 Si02
#       5
#     8   8   8   8   8
#     4   9  15  24  40  63  91 118 147 185 226 268
#     4   9  15  24  40  62  88 116 148 186 227 270
#     4   9  18  31  46  66  92 120 152 192 234 277
#     4  10  21  36  53  74  99 126 159 197 234 275
#     4   9  18  31  48  72  99 125 154 190 231 276
#
# _framework density 18.235745000000001
#
# number of rings (size 3 to 8) (size 9 to 14) (size 15 to 20)
#    0.000    2.800    0.000    3.000    0.000    3.200 
#    0.000    0.000    0.000    1.200    0.000    8.400 
#    0.000    0.000    0.000    0.000    0.000    0.000 
#
# Total GULP energy -222725.148144 kJ/mol
# GULP energy per Si atom -5568.128704 kJ/mol
# Density = 1.819424 g / cm^3
# Si number density = 18.235745 Si / 1000 Ang^3
#
#
#
# Elastic Constant Matrix: (Units=GPa)
#
#
# Indices 1 2 3 4 5 6 
#
# 1 19.8339 37.7466 7.3854 0.0000 0.0000 0.0000
# 2 37.7466 248.3491 71.2880 0.0000 0.0000 0.0000
# 3 7.3854 71.2880 56.4781 0.0000 0.0000 0.0000
# 4 0.0000 0.0000 0.0000 24.9140 0.0000 0.0000
# 5 0.0000 0.0000 0.0000 0.0000 14.9151 0.0000
# 6 0.0000 0.0000 0.0000 0.0000 0.0000 24.7563
#
#
#
# Elastic Compliance Matrix: (Units=1/GPa)
#
#
# Indices 1 2 3 4 5 6 
#
# 1 0.072641 -0.013038 0.006958 0.000000 0.000000 0.000000
# 2 -0.013038 0.008655 -0.009219 0.000000 0.000000 0.000000
# 3 0.006958 -0.009219 0.028433 0.000000 0.000000 0.000000
# 4 0.000000 0.000000 0.000000 0.040138 0.000000 0.000000
# 5 0.000000 0.000000 0.000000 0.000000 0.067046 0.000000
# 6 0.000000 0.000000 0.000000 0.000000 0.000000 0.040394
#
#
# Mechanical properties :
#
#
# Convention : Reuss Voigt Hill
#
# Bulk Modulus (GPa) = 12.63744 61.94456 37.29100
# Shear Modulus (GPa) = 15.90932 26.79981 21.35456
#
# Velocity S-wave (km/s) = 2.95689 3.83773 3.42574
# Velocity P-wave (km/s) = 4.31308 7.32667 6.01177
#
# Compressibility (1/GPa) = 0.07912994
#
# Stress axis : x y z
#
# Youngs Moduli (GPa) = 13.76634 115.54628 35.17086
#
# Poissons Ratio (x) = 1.50649 -0.24472
# Poissons Ratio (y) = 0.17948 0.32424
# Poissons Ratio (z) = -0.09579 1.06523
#
# Static dielectric constant tensor:
#      x y z
#    x 1.621370 0.000000 0.000000 
#    y 0.000000 1.722360 0.000000 
#    z 0.000000 0.000000 1.580110 
# 
# From -- ./inp_files/6432.got.cif
#   From: 2010.05.17/outbox.cif.g08.bks.cpg/sg53_4_cif.got.tgz:6432.got - 2010.06.03 12:45:16.
