data_PCOD9418435
_publ_section_title
;
Structure prediction by ZEFSAII (Michael W. Deem and Ramdas Pophale) SiO2 
 PCOD9418435
Probable space group: P M N A
;
_chemical_formula_sum "Si O2"
_cell_formula_units_Z 56
_cell_length_a 19.752817
_cell_length_b 8.902975
_cell_length_c 16.164564
_cell_angle_alpha 90.000000
_cell_angle_beta 90.000000
_cell_angle_gamma 90.000000
_cell_volume 2842.681408
_symmetry_space_group_name_H-M "P M N A"
_symmetry_group_IT_number 53
_symmetry_cell_setting 'orthorhombic'
loop_
_space_group_symop_operation_xyz
x,y,z
1/2-x,-y,1/2+z
x,-y,-z
1/2-x,y,1/2-z
-x,-y,-z
1/2+x,y,1/2-z
-x,y,z
1/2+x,-y,1/2+z
loop_
_atom_site_type_symbol
_atom_site_label
_atom_site_fract_x
_atom_site_fract_y
_atom_site_fract_z
Si Si1 0.657965 0.834295 0.522012
Si Si2 0.754421 0.428183 0.413121
Si Si3 0.574068 0.144546 0.318697
Si Si4 0.920240 0.827249 0.278981
Si Si5 0.683836 0.061790 0.903793
Si Si6 0.685331 0.279185 0.644426
Si Si7 0.818634 0.244847 0.300026
O O1 0.710710 0.720745 0.565215
O O2 0.600452 0.865589 0.588398
O O3 0.639122 0.755398 0.436198
O O4 0.684888 0.000000 0.500000
O O5 0.771403 0.500000 0.500000
O O6 0.713304 0.552615 0.362445
O O7 0.820711 0.375614 0.366332
O O8 0.500000 0.207299 0.318408
O O9 0.622262 0.246602 0.264711
O O10 0.575753 0.984094 0.272691
O O11 0.884279 0.856375 0.368352
O O12 0.861605 0.743044 0.224589
O O13 0.000000 0.775046 0.283735
O O14 0.748833 0.168233 0.875141
O O15 0.687355 0.913557 0.846793
O O16 0.678238 0.000000 0.000000
O O17 0.750000 0.266599 0.250000
#
# Coordination Sequence:
#
# PCOD9418435 Si02
#       7
#     8   8   8   8   8   8   8
#     4  11  19  35  61  91 121 154 197 250 307 368
#     4  10  22  36  58  93 124 158 205 257 314 368
#     4  10  21  36  59  91 122 159 208 255 310 370
#     4  10  22  39  58  88 125 167 210 258 320 379
#     4  11  22  36  63  92 120 161 213 272 318 368
#     4  11  21  37  61  90 126 159 207 257 317 379
#     4  11  20  37  62  87 118 158 207 263 306 363
#
# _framework density 19.699708999999999
#
# number of rings (size 3 to 8) (size 9 to 14) (size 15 to 20)
#    0.000    1.429    2.857    5.143    0.000    2.286 
#    0.000    0.714    0.000    3.000    0.000    0.000 
#    0.000    0.000    0.000    0.000    0.000    0.000 
#
# Total GULP energy -311854.646906 kJ/mol
# GULP energy per Si atom -5568.832980 kJ/mol
# Density = 1.965487 g / cm^3
# Si number density = 19.699709 Si / 1000 Ang^3
#
#
#
# Elastic Constant Matrix: (Units=GPa)
#
#
# Indices 1 2 3 4 5 6 
#
# 1 113.0977 40.4879 67.1832 0.0000 0.0000 0.0000
# 2 40.4879 85.7011 30.2922 0.0000 0.0000 0.0000
# 3 67.1832 30.2922 103.3159 0.0000 0.0000 0.0000
# 4 0.0000 0.0000 0.0000 109.3780 0.0000 0.0000
# 5 0.0000 0.0000 0.0000 0.0000 16.4179 0.0000
# 6 0.0000 0.0000 0.0000 0.0000 0.0000 -3.5162
#
#
#
# Elastic Compliance Matrix: (Units=1/GPa)
#
#
# Indices 1 2 3 4 5 6 
#
# 1 0.015678 -0.004243 -0.008951 0.000000 0.000000 0.000000
# 2 -0.004243 0.014166 -0.001394 0.000000 0.000000 0.000000
# 3 -0.008951 -0.001394 0.015908 0.000000 0.000000 0.000000
# 4 0.000000 0.000000 0.000000 0.009143 0.000000 0.000000
# 5 0.000000 0.000000 0.000000 0.000000 0.060909 0.000000
# 6 0.000000 0.000000 0.000000 0.000000 0.000000 -0.284399
#
#
# Mechanical properties :
#
#
# Convention : Reuss Voigt Hill
#
# Bulk Modulus (GPa) = 60.32895 64.22680 62.27787
# Shear Modulus (GPa) = -37.34316 35.39938 -0.97189
#
# Velocity S-wave (km/s) = -4.35859 4.24364 -0.70315
# Velocity P-wave (km/s) = 2.31538 7.52895 5.56983
#
# Compressibility (1/GPa) = 0.01657579
#
# Stress axis : x y z
#
# Youngs Moduli (GPa) = 63.78408 70.59247 62.86013
#
# Poissons Ratio (x) = 0.29952 0.56265
# Poissons Ratio (y) = 0.27063 0.08765
# Poissons Ratio (z) = 0.57092 0.09843
#
# Static dielectric constant tensor:
#      x y z
#    x 1.724250 0.000000 0.000000 
#    y 0.000000 1.728110 0.000000 
#    z 0.000000 0.000000 1.785400 
# 
# From -- ./inp_files/24313.got.cif
#   From: 2010.05.17/outbox.cif.g08.bks.cpg/sg53_13_cif.got.tgz:24313.got - 2010.06.03 12:45:16.
