data_PCOD9418474
_publ_section_title
;
Structure prediction by ZEFSAII (Michael W. Deem and Ramdas Pophale) SiO2 
 PCOD9418474
Probable space group: P M N A
;
_chemical_formula_sum "Si O2"
_cell_formula_units_Z 48
_cell_length_a 8.781583
_cell_length_b 18.438003
_cell_length_c 14.548296
_cell_angle_alpha 90.000000
_cell_angle_beta 90.000000
_cell_angle_gamma 90.000000
_cell_volume 2355.585218
_symmetry_space_group_name_H-M "P M N A"
_symmetry_group_IT_number 53
_symmetry_cell_setting 'orthorhombic'
loop_
_space_group_symop_operation_xyz
x,y,z
1/2-x,-y,1/2+z
x,-y,-z
1/2-x,y,1/2-z
-x,-y,-z
1/2+x,y,1/2-z
-x,y,z
1/2+x,-y,1/2+z
loop_
_atom_site_type_symbol
_atom_site_label
_atom_site_fract_x
_atom_site_fract_y
_atom_site_fract_z
Si Si1 0.682161 0.456096 0.351285
Si Si2 0.817262 0.828634 0.959106
Si Si3 0.173764 0.019963 0.108391
Si Si4 0.320953 0.125779 0.845108
Si Si5 0.180797 0.677235 0.538499
Si Si6 0.180790 0.611999 0.348307
O O1 0.750000 0.443135 0.250000
O O2 0.500000 0.457486 0.349541
O O3 0.742741 0.392168 0.415007
O O4 0.744578 0.535500 0.377892
O O5 0.774991 0.896534 0.893592
O O6 0.751721 0.752115 0.927363
O O7 0.000000 0.827468 0.963311
O O8 0.754227 0.843571 0.061866
O O9 0.000000 0.012649 0.144367
O O10 0.283825 0.960485 0.151216
O O11 0.165882 0.000000 0.000000
O O12 0.250000 0.154336 0.750000
O O13 0.500000 0.139197 0.847173
O O14 0.207058 0.669245 0.428966
O O15 0.000000 0.675482 0.554494
O O16 0.250000 0.632460 0.250000
O O17 0.000000 0.600821 0.338120
#
# Coordination Sequence:
#
# PCOD9418474 Si02
#       6
#     8   8   8   8   8   8
#     4  11  22  38  61  85 111 146 190 240 289 340
#     4  10  21  37  56  79 110 145 181 223 275 333
#     4   8  16  33  54  75 101 133 170 213 259 311
#     4  11  21  34  55  81 109 142 181 225 272 325
#     4  11  23  38  57  84 118 154 192 234 285 343
#     4  10  21  37  58  84 115 150 189 236 284 336
#
# _framework density 20.377102000000001
#
# number of rings (size 3 to 8) (size 9 to 14) (size 15 to 20)
#    0.000    1.833    0.000    7.000    0.000    9.000 
#    0.000    2.500    0.000    4.000    0.000    0.000 
#    0.000    0.000    0.000    0.000    0.000    0.000 
#
# Total GULP energy -268211.156772 kJ/mol
# GULP energy per Si atom -5587.732433 kJ/mol
# Density = 2.033072 g / cm^3
# Si number density = 20.377102 Si / 1000 Ang^3
#
#
#
# Elastic Constant Matrix: (Units=GPa)
#
#
# Indices 1 2 3 4 5 6 
#
# 1 89.5801 22.9203 6.9142 0.0000 0.0000 0.0000
# 2 22.9203 63.6723 4.8609 0.0000 0.0000 0.0000
# 3 6.9142 4.8609 17.4925 0.0000 0.0000 0.0000
# 4 0.0000 0.0000 0.0000 1.0537 0.0000 0.0000
# 5 0.0000 0.0000 0.0000 0.0000 24.2249 0.0000
# 6 0.0000 0.0000 0.0000 0.0000 0.0000 45.6520
#
#
#
# Elastic Compliance Matrix: (Units=1/GPa)
#
#
# Indices 1 2 3 4 5 6 
#
# 1 0.012536 -0.004224 -0.003781 0.000000 0.000000 0.000000
# 2 -0.004224 0.017469 -0.003185 0.000000 0.000000 0.000000
# 3 -0.003781 -0.003185 0.059547 0.000000 0.000000 0.000000
# 4 0.000000 0.000000 0.000000 0.949070 0.000000 0.000000
# 5 0.000000 0.000000 0.000000 0.000000 0.041280 0.000000
# 6 0.000000 0.000000 0.000000 0.000000 0.000000 0.021905
#
#
# Mechanical properties :
#
#
# Convention : Reuss Voigt Hill
#
# Bulk Modulus (GPa) = 14.88713 26.68173 20.78443
# Shear Modulus (GPa) = 4.36081 23.25609 13.80845
#
# Velocity S-wave (km/s) = 1.46448 3.38196 2.60599
# Velocity P-wave (km/s) = 3.19081 5.32659 4.39055
#
# Compressibility (1/GPa) = 0.06717210
#
# Stress axis : x y z
#
# Youngs Moduli (GPa) = 79.77169 57.24423 16.79342
#
# Poissons Ratio (x) = 0.24179 0.06350
# Poissons Ratio (y) = 0.33694 0.05348
# Poissons Ratio (z) = 0.30164 0.18231
#
# Static dielectric constant tensor:
#      x y z
#    x 1.675340 0.000000 0.000000 
#    y 0.000000 1.745830 0.000000 
#    z 0.000000 0.000000 1.714780 
# 
# From -- ./inp_files/20257.got.cif
#   From: 2010.05.17/outbox.cif.g08.bks.cpg/sg53_11_cif.got.tgz:20257.got - 2010.06.03 12:45:16.
