data_PCOD9418286
_publ_section_title
;
Structure prediction by ZEFSAII (Michael W. Deem and Ramdas Pophale) SiO2 
 PCOD9418286
Probable space group: P M N A
;
_chemical_formula_sum "Si O2"
_cell_formula_units_Z 48
_cell_length_a 7.556113
_cell_length_b 32.593059
_cell_length_c 9.160923
_cell_angle_alpha 90.000000
_cell_angle_beta 90.000000
_cell_angle_gamma 90.000000
_cell_volume 2256.123139
_symmetry_space_group_name_H-M "P M N A"
_symmetry_group_IT_number 53
_symmetry_cell_setting 'orthorhombic'
loop_
_space_group_symop_operation_xyz
x,y,z
1/2-x,-y,1/2+z
x,-y,-z
1/2-x,y,1/2-z
-x,-y,-z
1/2+x,y,1/2-z
-x,y,z
1/2+x,-y,1/2+z
loop_
_atom_site_type_symbol
_atom_site_label
_atom_site_fract_x
_atom_site_fract_y
_atom_site_fract_z
Si Si1 0.212492 0.287848 0.079039
Si Si2 0.212495 0.123536 0.078316
Si Si3 0.212288 0.540506 0.078577
Si Si4 0.287543 0.205795 0.578523
Si Si5 0.212504 0.958814 0.078239
Si Si6 0.212527 0.369372 0.922148
O O1 0.250000 0.284841 0.250000
O O2 0.000000 0.288402 0.060255
O O3 0.280534 0.247747 0.994152
O O4 0.281444 0.330421 0.011201
O O5 0.250000 0.122891 0.250000
O O6 0.000000 0.123631 0.060680
O O7 0.280533 0.165107 0.002807
O O8 0.280469 0.082537 0.998864
O O9 0.250000 0.537282 0.250000
O O10 0.279693 0.585515 0.031013
O O11 0.000000 0.540945 0.057686
O O12 0.283350 0.500000 0.000000
O O13 0.250000 0.204373 0.750000
O O14 0.500000 0.206013 0.560548
O O15 0.250000 0.958998 0.250000
O O16 0.000000 0.958787 0.060751
O O17 0.280452 0.000000 0.000000
O O18 0.250000 0.364218 0.750000
O O19 0.000000 0.370246 0.938634
#
# Coordination Sequence:
#
# PCOD9418286 Si02
#       6
#     8   8   8   8   8   8
#     4  10  21  35  51  74 102 130 163 203 246 293
#     4  10  21  36  54  78 106 135 170 210 251 298
#     4   9  18  32  49  70  97 127 160 200 243 288
#     4  10  21  36  54  77 103 132 168 207 247 295
#     4  10  21  36  54  78 106 136 173 213 253 301
#     4   9  18  33  51  71  96 127 163 201 242 290
#
# _framework density 21.275431999999999
#
# number of rings (size 3 to 8) (size 9 to 14) (size 15 to 20)
#    0.000    2.333    0.000    2.000    0.000    4.000 
#    0.000    0.000    0.000    0.000    0.000    0.000 
#    0.000    0.000    0.000    0.000    0.000    0.000 
#
# Total GULP energy -268120.158064 kJ/mol
# GULP energy per Si atom -5585.836626 kJ/mol
# Density = 2.122701 g / cm^3
# Si number density = 21.275432 Si / 1000 Ang^3
#
#
#
# Elastic Constant Matrix: (Units=GPa)
#
#
# Indices 1 2 3 4 5 6 
#
# 1 52.2360 16.2660 -12.2572 0.0000 0.0000 0.0000
# 2 16.2660 282.2124 143.4829 0.0000 0.0000 0.0000
# 3 -12.2572 143.4829 162.7412 0.0000 0.0000 0.0000
# 4 0.0000 0.0000 0.0000 53.3696 0.0000 0.0000
# 5 0.0000 0.0000 0.0000 0.0000 31.2081 0.0000
# 6 0.0000 0.0000 0.0000 0.0000 0.0000 -9.9311
#
#
#
# Elastic Compliance Matrix: (Units=1/GPa)
#
#
# Indices 1 2 3 4 5 6 
#
# 1 0.021457 -0.003731 0.004905 0.000000 0.000000 0.000000
# 2 -0.003731 0.007071 -0.006515 0.000000 0.000000 0.000000
# 3 0.004905 -0.006515 0.012258 0.000000 0.000000 0.000000
# 4 0.000000 0.000000 0.000000 0.018737 0.000000 0.000000
# 5 0.000000 0.000000 0.000000 0.000000 0.032043 0.000000
# 6 0.000000 0.000000 0.000000 0.000000 0.000000 -0.100694
#
#
# Mechanical properties :
#
#
# Convention : Reuss Voigt Hill
#
# Bulk Modulus (GPa) = 33.21743 88.01921 60.61832
# Shear Modulus (GPa) = 431.48570 38.24253 234.86411
#
# Velocity S-wave (km/s) = 14.25657 4.24429 10.51817
# Velocity P-wave (km/s) = 16.93064 8.09196 13.26888
#
# Compressibility (1/GPa) = 0.03010468
#
# Stress axis : x y z
#
# Youngs Moduli (GPa) = 46.60579 141.42529 81.57743
#
# Poissons Ratio (x) = 0.52760 -0.40015
# Poissons Ratio (y) = 0.17387 0.53149
# Poissons Ratio (z) = -0.22861 0.92140
#
# Static dielectric constant tensor:
#      x y z
#    x 1.775530 0.000000 0.000000 
#    y 0.000000 1.798180 0.000000 
#    z 0.000000 0.000000 1.681770 
# 
# From -- ./inp_files/6665.got.cif
#   From: 2010.05.17/outbox.cif.g08.bks.cpg/sg53_4_cif.got.tgz:6665.got - 2010.06.03 12:45:16.
