data_PCOD9418551
_publ_section_title
;
Structure prediction by ZEFSAII (Michael W. Deem and Ramdas Pophale) SiO2 
 PCOD9418551
Probable space group: P M N A
;
_chemical_formula_sum "Si O2"
_cell_formula_units_Z 64
_cell_length_a 8.668325
_cell_length_b 24.311190
_cell_length_c 15.850137
_cell_angle_alpha 90.000000
_cell_angle_beta 90.000000
_cell_angle_gamma 90.000000
_cell_volume 3340.215014
_symmetry_space_group_name_H-M "P M N A"
_symmetry_group_IT_number 53
_symmetry_cell_setting 'orthorhombic'
loop_
_space_group_symop_operation_xyz
x,y,z
1/2-x,-y,1/2+z
x,-y,-z
1/2-x,y,1/2-z
-x,-y,-z
1/2+x,y,1/2-z
-x,y,z
1/2+x,-y,1/2+z
loop_
_atom_site_type_symbol
_atom_site_label
_atom_site_fract_x
_atom_site_fract_y
_atom_site_fract_z
Si Si1 0.315774 0.064759 0.001453
Si Si2 0.185369 0.636722 0.340238
Si Si3 0.684529 0.871333 0.340694
Si Si4 0.814120 0.365239 0.340274
Si Si5 0.685596 0.755399 0.903215
Si Si6 0.816271 0.869656 0.839526
Si Si7 0.811856 0.563093 0.499625
Si Si8 0.185200 0.750969 0.093018
O O1 0.500000 0.072145 0.005661
O O2 0.253197 0.093387 0.917067
O O3 0.241537 0.093532 0.082818
O O4 0.281010 0.000000 0.000000
O O5 0.250000 0.618941 0.250000
O O6 0.234302 0.596195 0.415875
O O7 0.247544 0.697439 0.361642
O O8 0.000000 0.638340 0.337860
O O9 0.750000 0.887897 0.250000
O O10 0.500000 0.876380 0.341177
O O11 0.724184 0.807409 0.358873
O O12 0.750000 0.382353 0.250000
O O13 0.768807 0.302294 0.360545
O O14 0.761644 0.403819 0.417229
O O15 0.000000 0.366917 0.338141
O O16 0.500000 0.759381 0.902984
O O17 0.755871 0.807934 0.856857
O O18 0.744976 0.754565 0.999257
O O19 0.750000 0.889049 0.750000
O O20 0.000000 0.869455 0.837026
O O21 0.760069 0.500000 0.500000
O O22 0.000000 0.562977 0.500367
O O23 0.000000 0.746775 0.087733
#
# Coordination Sequence:
#
# PCOD9418551 Si02
#       8
#     8   8   8   8   8   8   8   8
#     4  11  25  45  68  93 123 163 210 260 311 362
#     4  11  22  38  60  88 120 158 201 249 304 363
#     4  11  24  41  64  94 126 163 204 250 306 367
#     4  10  21  37  58  88 117 155 197 240 300 357
#     4  11  21  37  62  91 125 161 200 248 306 370
#     4  12  25  42  65  95 128 166 208 252 308 367
#     4   9  19  38  60  81 113 158 204 249 303 364
#     4  11  22  37  61  93 125 160 200 246 304 366
#
# _framework density 19.160443999999998
#
# number of rings (size 3 to 8) (size 9 to 14) (size 15 to 20)
#    0.000    1.250    2.500    3.750    0.000    6.500 
#    0.000    0.000    0.000    2.625    0.000    0.000 
#    0.000    0.000    0.000    0.000    0.000    0.000 
#
# Total GULP energy -357938.990396 kJ/mol
# GULP energy per Si atom -5592.796725 kJ/mol
# Density = 1.911683 g / cm^3
# Si number density = 19.160444 Si / 1000 Ang^3
#
#
#
# Elastic Constant Matrix: (Units=GPa)
#
#
# Indices 1 2 3 4 5 6 
#
# 1 60.3964 60.4590 54.2080 0.0000 0.0000 0.0000
# 2 60.4590 138.4238 86.0374 0.0000 0.0000 0.0000
# 3 54.2080 86.0374 201.9034 0.0000 0.0000 0.0000
# 4 0.0000 0.0000 0.0000 -4.2237 0.0000 0.0000
# 5 0.0000 0.0000 0.0000 0.0000 38.5633 0.0000
# 6 0.0000 0.0000 0.0000 0.0000 0.0000 -11.7004
#
#
#
# Elastic Compliance Matrix: (Units=1/GPa)
#
#
# Indices 1 2 3 4 5 6 
#
# 1 0.031127 -0.011428 -0.003487 0.000000 0.000000 0.000000
# 2 -0.011428 0.014022 -0.002907 0.000000 0.000000 0.000000
# 3 -0.003487 -0.002907 0.007128 0.000000 0.000000 0.000000
# 4 0.000000 0.000000 0.000000 -0.236758 0.000000 0.000000
# 5 0.000000 0.000000 0.000000 0.000000 0.025931 0.000000
# 6 0.000000 0.000000 0.000000 0.000000 0.000000 -0.085467
#
#
# Mechanical properties :
#
#
# Convention : Reuss Voigt Hill
#
# Bulk Modulus (GPa) = 60.12240 89.12584 74.62412
# Shear Modulus (GPa) = -24.65142 17.86246 -3.39448
#
# Velocity S-wave (km/s) = -3.59078 3.05660 -1.33246
# Velocity P-wave (km/s) = 3.77557 7.68594 6.05510
#
# Compressibility (1/GPa) = 0.01663274
#
# Stress axis : x y z
#
# Youngs Moduli (GPa) = 32.12676 71.31468 140.29062
#
# Poissons Ratio (x) = 0.81495 0.48925
# Poissons Ratio (y) = 0.36713 0.40786
# Poissons Ratio (z) = 0.11204 0.20733
#
# Static dielectric constant tensor:
#      x y z
#    x 1.645440 0.000000 0.000000 
#    y 0.000000 1.651330 0.000000 
#    z 0.000000 0.000000 1.639530 
# 
# From -- ./inp_files/20869.got.cif
#   From: 2010.05.17/outbox.cif.g08.bks.cpg/sg53_11_cif.got.tgz:20869.got - 2010.06.03 12:45:16.
