data_PCOD9418694
_publ_section_title
;
Structure prediction by ZEFSAII (Michael W. Deem and Ramdas Pophale) SiO2 
 PCOD9418694
Probable space group: P M N A
;
_chemical_formula_sum "Si O2"
_cell_formula_units_Z 64
_cell_length_a 8.780758
_cell_length_b 20.237263
_cell_length_c 19.034316
_cell_angle_alpha 90.000000
_cell_angle_beta 90.000000
_cell_angle_gamma 90.000000
_cell_volume 3382.369573
_symmetry_space_group_name_H-M "P M N A"
_symmetry_group_IT_number 53
_symmetry_cell_setting 'orthorhombic'
loop_
_space_group_symop_operation_xyz
x,y,z
1/2-x,-y,1/2+z
x,-y,-z
1/2-x,y,1/2-z
-x,-y,-z
1/2+x,y,1/2-z
-x,y,z
1/2+x,-y,1/2+z
loop_
_atom_site_type_symbol
_atom_site_label
_atom_site_fract_x
_atom_site_fract_y
_atom_site_fract_z
Si Si1 0.683554 0.157177 0.412180
Si Si2 0.683088 0.888091 0.172118
Si Si3 0.317083 0.715979 0.673642
Si Si4 0.183434 0.015040 0.419939
Si Si5 0.682690 0.590346 0.577425
Si Si6 0.682831 0.784444 0.435412
Si Si7 0.181497 0.638034 0.434703
Si Si8 0.318103 0.525889 0.172356
O O1 0.500000 0.153754 0.409920
O O2 0.734257 0.213891 0.358088
O O3 0.726813 0.181454 0.490489
O O4 0.751031 0.085502 0.397664
O O5 0.750000 0.888041 0.250000
O O6 0.500000 0.885395 0.174489
O O7 0.728758 0.954958 0.130635
O O8 0.745455 0.826780 0.127188
O O9 0.250000 0.703274 0.750000
O O10 0.500000 0.717330 0.678653
O O11 0.278378 0.657574 0.619630
O O12 0.000000 0.018685 0.420059
O O13 0.233522 0.000000 0.500000
O O14 0.500000 0.585859 0.571140
O O15 0.756117 0.596669 0.500899
O O16 0.745933 0.529917 0.622632
O O17 0.500000 0.785207 0.430780
O O18 0.740445 0.709404 0.434651
O O19 0.213413 0.596228 0.364498
O O20 0.000000 0.645760 0.441536
O O21 0.250000 0.521795 0.250000
O O22 0.500000 0.516470 0.175028
#
# Coordination Sequence:
#
# PCOD9418694 Si02
#       8
#     8   8   8   8   8   8   8   8
#     4  10  21  38  60  87 121 157 200 249 300 364
#     4  11  24  42  63  91 127 163 207 257 312 372
#     4  10  22  39  57  87 123 157 198 242 295 359
#     4  10  21  38  61  89 119 155 202 251 299 360
#     4  11  22  40  65  92 125 163 207 256 309 369
#     4  11  22  40  65  92 123 161 207 257 311 370
#     4  11  24  41  64  93 126 162 209 261 310 371
#     4  11  25  43  62  90 125 163 207 255 311 373
#
# _framework density 18.921647
#
# number of rings (size 3 to 8) (size 9 to 14) (size 15 to 20)
#    0.000    1.375    2.500    2.625    0.000    8.750 
#    0.000    3.750    0.000    0.000    0.000    0.000 
#    0.000    0.000    0.000    0.000    0.000    0.000 
#
# Total GULP energy -357845.264855 kJ/mol
# GULP energy per Si atom -5591.332263 kJ/mol
# Density = 1.887858 g / cm^3
# Si number density = 18.921647 Si / 1000 Ang^3
#
#
#
# Elastic Constant Matrix: (Units=GPa)
#
#
# Indices 1 2 3 4 5 6 
#
# 1 39.8855 33.8329 34.2903 0.0000 0.0000 0.0000
# 2 33.8329 97.8635 39.5538 0.0000 0.0000 0.0000
# 3 34.2903 39.5538 96.7807 0.0000 0.0000 0.0000
# 4 0.0000 0.0000 0.0000 28.9670 0.0000 0.0000
# 5 0.0000 0.0000 0.0000 0.0000 27.5569 0.0000
# 6 0.0000 0.0000 0.0000 0.0000 0.0000 34.9484
#
#
#
# Elastic Compliance Matrix: (Units=1/GPa)
#
#
# Indices 1 2 3 4 5 6 
#
# 1 0.043614 -0.010580 -0.011129 0.000000 0.000000 0.000000
# 2 -0.010580 0.014807 -0.002303 0.000000 0.000000 0.000000
# 3 -0.011129 -0.002303 0.015217 0.000000 0.000000 0.000000
# 4 0.000000 0.000000 0.000000 0.034522 0.000000 0.000000
# 5 0.000000 0.000000 0.000000 0.000000 0.036289 0.000000
# 6 0.000000 0.000000 0.000000 0.000000 0.000000 0.028614
#
#
# Mechanical properties :
#
#
# Convention : Reuss Voigt Hill
#
# Bulk Modulus (GPa) = 39.04094 49.98707 44.51400
# Shear Modulus (GPa) = 21.77482 26.75131 24.26306
#
# Velocity S-wave (km/s) = 3.39601 3.76412 3.58479
# Velocity P-wave (km/s) = 6.00457 6.73549 6.38050
#
# Compressibility (1/GPa) = 0.02561414
#
# Stress axis : x y z
#
# Youngs Moduli (GPa) = 22.92847 67.53683 65.71665
#
# Poissons Ratio (x) = 0.71454 0.73135
# Poissons Ratio (y) = 0.24258 0.15133
# Poissons Ratio (z) = 0.25517 0.15553
#
# Static dielectric constant tensor:
#      x y z
#    x 1.635410 0.000000 0.000000 
#    y 0.000000 1.636400 0.000000 
#    z 0.000000 0.000000 1.630230 
# 
# From -- ./inp_files/27018.got.cif
#   From: 2010.05.17/outbox.cif.g08.bks.cpg/sg53_14_cif.got.tgz:27018.got - 2010.06.03 12:45:16.
