data_PCOD9418823
_publ_section_title
;
Structure prediction by ZEFSAII (Michael W. Deem and Ramdas Pophale) SiO2 
 PCOD9418823
Probable space group: P M N A
;
_chemical_formula_sum "Si O2"
_cell_formula_units_Z 40
_cell_length_a 15.393127
_cell_length_b 7.711893
_cell_length_c 16.030767
_cell_angle_alpha 90.000000
_cell_angle_beta 90.000000
_cell_angle_gamma 90.000000
_cell_volume 1903.014729
_symmetry_space_group_name_H-M "P M N A"
_symmetry_group_IT_number 53
_symmetry_cell_setting 'orthorhombic'
loop_
_space_group_symop_operation_xyz
x,y,z
1/2-x,-y,1/2+z
x,-y,-z
1/2-x,y,1/2-z
-x,-y,-z
1/2+x,y,1/2-z
-x,y,z
1/2+x,-y,1/2+z
loop_
_atom_site_type_symbol
_atom_site_label
_atom_site_fract_x
_atom_site_fract_y
_atom_site_fract_z
Si Si1 0.718741 0.500000 0.500000
Si Si2 0.500000 0.747639 0.995525
Si Si3 0.188742 0.545705 0.674954
Si Si4 0.844435 0.000000 0.500000
Si Si5 0.400333 0.177572 0.446816
Si Si6 0.000000 0.540938 0.352465
Si Si7 0.752975 0.066553 0.161782
O O1 0.777717 0.514562 0.416586
O O2 0.657639 0.669099 0.512704
O O3 0.500000 0.717003 0.094974
O O4 0.410530 0.846516 0.979998
O O5 0.500000 0.594455 0.929317
O O6 0.250000 0.484342 0.750000
O O7 0.090582 0.487897 0.692734
O O8 0.198725 0.754848 0.672774
O O9 0.786016 0.970489 0.418526
O O10 0.500000 0.233027 0.435192
O O11 0.349787 0.127271 0.362392
O O12 0.400780 0.000000 0.500000
O O13 0.750000 0.971398 0.250000
#
# Coordination Sequence:
#
# PCOD9418823 Si02
#       7
#     4   4   8   4   8   4   8
#     4  10  21  41  64  88 126 162 206 258 312 370
#     4  10  22  34  64  90 120 156 203 245 325 365
#     4  10  22  40  63  93 122 165 208 255 315 375
#     4  11  20  40  59  90 124 162 195 258 308 377
#     4  10  21  39  63  88 120 166 208 252 307 369
#     4  11  20  38  62  91 122 159 202 264 301 381
#     4  10  21  39  62  89 122 164 205 254 313 370
#
# _framework density 21.019279000000001
#
# number of rings (size 3 to 8) (size 9 to 14) (size 15 to 20)
#    0.000    1.800    3.000    1.500    2.800    0.000 
#   21.600    4.000    0.000    0.000    0.000    0.000 
#    0.000    0.000    0.000    0.000    0.000    0.000 
#
# Total GULP energy -223235.954277 kJ/mol
# GULP energy per Si atom -5580.898857 kJ/mol
# Density = 2.097144 g / cm^3
# Si number density = 21.019279 Si / 1000 Ang^3
#
#
#
# Elastic Constant Matrix: (Units=GPa)
#
#
# Indices 1 2 3 4 5 6 
#
# 1 177.1045 14.0915 62.3970 0.0000 0.0000 0.0000
# 2 14.0915 37.3549 7.8679 0.0000 0.0000 0.0000
# 3 62.3970 7.8679 146.9929 0.0000 0.0000 0.0000
# 4 0.0000 0.0000 0.0000 17.2896 0.0000 0.0000
# 5 0.0000 0.0000 0.0000 0.0000 26.9929 0.0000
# 6 0.0000 0.0000 0.0000 0.0000 0.0000 15.7031
#
#
#
# Elastic Compliance Matrix: (Units=1/GPa)
#
#
# Indices 1 2 3 4 5 6 
#
# 1 0.006780 -0.001974 -0.002772 0.000000 0.000000 0.000000
# 2 -0.001974 0.027650 -0.000642 0.000000 0.000000 0.000000
# 3 -0.002772 -0.000642 0.008014 0.000000 0.000000 0.000000
# 4 0.000000 0.000000 0.000000 0.057838 0.000000 0.000000
# 5 0.000000 0.000000 0.000000 0.000000 0.037047 0.000000
# 6 0.000000 0.000000 0.000000 0.000000 0.000000 0.063682
#
#
# Mechanical properties :
#
#
# Convention : Reuss Voigt Hill
#
# Bulk Modulus (GPa) = 31.57782 58.90725 45.24254
# Shear Modulus (GPa) = 22.48767 30.47018 26.47892
#
# Velocity S-wave (km/s) = 3.27442 3.81153 3.55314
# Velocity P-wave (km/s) = 5.41771 6.88887 6.19710
#
# Compressibility (1/GPa) = 0.03166780
#
# Stress axis : x y z
#
# Youngs Moduli (GPa) = 147.48766 36.16628 124.77669
#
# Poissons Ratio (x) = 0.07138 0.34594
# Poissons Ratio (y) = 0.29111 0.08012
# Poissons Ratio (z) = 0.40891 0.02322
#
# Static dielectric constant tensor:
#      x y z
#    x 1.760470 0.000000 0.000000 
#    y 0.000000 1.822100 0.000000 
#    z 0.000000 0.000000 1.802530 
# 
# From -- ./inp_files/22519.got.cif
#   From: 2010.05.17/outbox.cif.g08.bks.cpg/sg53_12_cif.got.tgz:22519.got - 2010.06.03 12:45:16.
