data_PCOD9418060
_publ_section_title
;
Structure prediction by ZEFSAII (Michael W. Deem and Ramdas Pophale) SiO2 
 PCOD9418060
Probable space group: P M N A
;
_chemical_formula_sum "Si O2"
_cell_formula_units_Z 40
_cell_length_a 15.507001
_cell_length_b 14.491694
_cell_length_c 8.459645
_cell_angle_alpha 90.000000
_cell_angle_beta 90.000000
_cell_angle_gamma 90.000000
_cell_volume 1901.074378
_symmetry_space_group_name_H-M "P M N A"
_symmetry_group_IT_number 53
_symmetry_cell_setting 'orthorhombic'
loop_
_space_group_symop_operation_xyz
x,y,z
1/2-x,-y,1/2+z
x,-y,-z
1/2-x,y,1/2-z
-x,-y,-z
1/2+x,y,1/2-z
-x,y,z
1/2+x,-y,1/2+z
loop_
_atom_site_type_symbol
_atom_site_label
_atom_site_fract_x
_atom_site_fract_y
_atom_site_fract_z
Si Si1 0.000000 0.693716 0.344656
Si Si2 0.000000 0.506712 0.805150
Si Si3 0.167007 0.721871 0.143069
Si Si4 0.500000 0.990984 0.694138
Si Si5 0.349094 0.646706 0.685971
Si Si6 0.000000 0.777373 0.697269
Si Si7 0.329900 0.926652 0.362887
O O1 0.914896 0.725575 0.255033
O O2 0.000000 0.738690 0.517690
O O3 0.000000 0.584036 0.304492
O O4 0.088404 0.562191 0.765529
O O5 0.000000 0.500000 0.000000
O O6 0.250000 0.704889 0.250000
O O7 0.170071 0.823842 0.068321
O O8 0.158145 0.648957 0.003873
O O9 0.500000 0.886688 0.760428
O O10 0.500000 0.000000 0.500000
O O11 0.414522 0.046564 0.736662
O O12 0.250000 0.648334 0.750000
O O13 0.411726 0.732950 0.731735
O O14 0.250000 0.931787 0.250000
O O15 0.320936 0.000000 0.500000
#
# Coordination Sequence:
#
# PCOD9418060 Si02
#       7
#     4   4   8   4   8   4   8
#     4  12  24  45  65  93 136 170 225 288 357 430
#     4  11  23  47  69  95 135 180 220 291 360 427
#     4  11  23  40  65  95 132 177 222 282 352 418
#     4  10  20  38  63  91 127 179 223 271 343 411
#     4  11  23  43  68  99 130 176 231 282 359 433
#     4  11  25  41  68 101 133 179 227 292 347 423
#     4  10  22  38  60  89 124 169 216 273 327 403
#
# _framework density 21.040734
#
# number of rings (size 3 to 8) (size 9 to 14) (size 15 to 20)
#    0.000    1.200    2.000    4.800    0.000    8.800 
#    3.600    1.500    0.000    0.000    0.000    0.000 
#    0.000    0.000    0.000    0.000    0.000    0.000 
#
# Total GULP energy -223128.995860 kJ/mol
# GULP energy per Si atom -5578.224897 kJ/mol
# Density = 2.099284 g / cm^3
# Si number density = 21.040734 Si / 1000 Ang^3
#
#
#
# Elastic Constant Matrix: (Units=GPa)
#
#
# Indices 1 2 3 4 5 6 
#
# 1 175.2818 24.4088 41.4091 0.0000 0.0000 0.0000
# 2 24.4088 79.3614 21.0926 0.0000 0.0000 0.0000
# 3 41.4091 21.0926 100.3849 0.0000 0.0000 0.0000
# 4 0.0000 0.0000 0.0000 31.7687 0.0000 0.0000
# 5 0.0000 0.0000 0.0000 0.0000 -3.8125 0.0000
# 6 0.0000 0.0000 0.0000 0.0000 0.0000 21.0384
#
#
#
# Elastic Compliance Matrix: (Units=1/GPa)
#
#
# Indices 1 2 3 4 5 6 
#
# 1 0.006455 -0.001353 -0.002379 0.000000 0.000000 0.000000
# 2 -0.001353 0.013630 -0.002306 0.000000 0.000000 0.000000
# 3 -0.002379 -0.002306 0.011427 0.000000 0.000000 0.000000
# 4 0.000000 0.000000 0.000000 0.031478 0.000000 0.000000
# 5 0.000000 0.000000 0.000000 0.000000 -0.262295 0.000000
# 6 0.000000 0.000000 0.000000 0.000000 0.000000 0.047532
#
#
# Mechanical properties :
#
#
# Convention : Reuss Voigt Hill
#
# Bulk Modulus (GPa) = 51.44705 58.76101 55.10403
# Shear Modulus (GPa) = -37.53228 27.67342 -4.92943
#
# Velocity S-wave (km/s) = -4.22808 3.63055 -1.53228
# Velocity P-wave (km/s) = 0.81776 6.74999 4.80786
#
# Compressibility (1/GPa) = 0.01943746
#
# Stress axis : x y z
#
# Youngs Moduli (GPa) = 154.90738 73.36983 87.51011
#
# Poissons Ratio (x) = 0.09929 0.20815
# Poissons Ratio (y) = 0.20964 0.20176
# Poissons Ratio (z) = 0.36845 0.16916
#
# Static dielectric constant tensor:
#      x y z
#    x 1.790380 0.000000 0.000000 
#    y 0.000000 1.698240 0.000000 
#    z 0.000000 0.000000 1.639610 
# 
# From -- ./inp_files/8496.got.cif
#   From: 2010.05.17/outbox.cif.g08.bks.cpg/sg53_5_cif.got.tgz:8496.got - 2010.06.03 12:45:16.
