data_PCOD9418000
_publ_section_title
;
Structure prediction by ZEFSAII (Michael W. Deem and Ramdas Pophale) SiO2 
 PCOD9418000
Probable space group: P M N A
;
_chemical_formula_sum "Si O2"
_cell_formula_units_Z 28
_cell_length_a 34.670132
_cell_length_b 7.898051
_cell_length_c 5.032704
_cell_angle_alpha 90.000000
_cell_angle_beta 90.000000
_cell_angle_gamma 90.000000
_cell_volume 1378.087574
_symmetry_space_group_name_H-M "P M N A"
_symmetry_group_IT_number 53
_symmetry_cell_setting 'orthorhombic'
loop_
_space_group_symop_operation_xyz
x,y,z
1/2-x,-y,1/2+z
x,-y,-z
1/2-x,y,1/2-z
-x,-y,-z
1/2+x,y,1/2-z
-x,y,z
1/2+x,-y,1/2+z
loop_
_atom_site_type_symbol
_atom_site_label
_atom_site_fract_x
_atom_site_fract_y
_atom_site_fract_z
Si Si1 0.083245 0.312210 0.375794
Si Si2 0.625717 0.811503 0.376706
Si Si3 0.208255 0.125312 0.750601
Si Si4 0.500000 0.374409 0.248582
O O1 0.083444 0.500000 0.500000
O O2 0.098853 0.198908 0.617404
O O3 0.039887 0.272662 0.275236
O O4 0.110111 0.301382 0.117597
O O5 0.669300 0.768781 0.285933
O O6 0.625893 0.000000 0.500000
O O7 0.250000 0.215533 0.750000
O O8 0.203417 0.000000 0.500000
O O9 0.210740 0.000000 0.000000
O O10 0.500000 0.500000 0.500000
O O11 0.500000 0.500000 0.000000
#
# Coordination Sequence:
#
# PCOD9418000 Si02
#       4
#     8   8   8   4
#     4  11  22  38  59  82 110 149 190 226 273 334
#     4  11  21  36  57  87 117 142 181 234 283 323
#     4   9  17  31  53  81 111 146 186 224 265 324
#     4  10  20  38  59  80 105 146 197 228 257 330
#
# _framework density 20.318012
#
# number of rings (size 3 to 8) (size 9 to 14) (size 15 to 20)
#    0.000    1.714    0.000    8.571    0.000    0.000 
#    0.000    4.286    0.000    3.429    0.000    4.000 
#    0.000    0.000    0.000    0.000    0.000    0.000 
#
# Total GULP energy -156189.886192 kJ/mol
# GULP energy per Si atom -5578.210221 kJ/mol
# Density = 2.027177 g / cm^3
# Si number density = 20.318012 Si / 1000 Ang^3
#
#
#
# Elastic Constant Matrix: (Units=GPa)
#
#
# Indices 1 2 3 4 5 6 
#
# 1 217.8740 32.5263 70.7071 0.0000 0.0000 0.0000
# 2 32.5263 28.0673 9.7232 0.0000 0.0000 0.0000
# 3 70.7071 9.7232 165.5462 0.0000 0.0000 0.0000
# 4 0.0000 0.0000 0.0000 38.0815 0.0000 0.0000
# 5 0.0000 0.0000 0.0000 0.0000 34.8031 0.0000
# 6 0.0000 0.0000 0.0000 0.0000 0.0000 34.8262
#
#
#
# Elastic Compliance Matrix: (Units=1/GPa)
#
#
# Indices 1 2 3 4 5 6 
#
# 1 0.006313 -0.006515 -0.002314 0.000000 0.000000 0.000000
# 2 -0.006515 0.043091 0.000252 0.000000 0.000000 0.000000
# 3 -0.002314 0.000252 0.007014 0.000000 0.000000 0.000000
# 4 0.000000 0.000000 0.000000 0.026259 0.000000 0.000000
# 5 0.000000 0.000000 0.000000 0.000000 0.028733 0.000000
# 6 0.000000 0.000000 0.000000 0.000000 0.000000 0.028714
#
#
# Mechanical properties :
#
#
# Convention : Reuss Voigt Hill
#
# Bulk Modulus (GPa) = 25.46824 70.82228 48.14526
# Shear Modulus (GPa) = 29.34838 41.44424 35.39631
#
# Velocity S-wave (km/s) = 3.80472 4.52129 4.17839
# Velocity P-wave (km/s) = 5.64475 7.88598 6.85754
#
# Compressibility (1/GPa) = 0.03926460
#
# Stress axis : x y z
#
# Youngs Moduli (GPa) = 158.39561 23.20665 142.56964
#
# Poissons Ratio (x) = 0.15118 0.32989
# Poissons Ratio (y) = 1.03190 -0.03587
# Poissons Ratio (z) = 0.36651 -0.00584
#
# Static dielectric constant tensor:
#      x y z
#    x 1.831300 0.000000 0.000000 
#    y 0.000000 1.732460 0.000000 
#    z 0.000000 0.000000 1.694520 
# 
# From -- ./inp_files/4886.got.cif
#   From: 2010.05.17/outbox.cif.g08.bks.cpg/sg53_3_cif.got.tgz:4886.got - 2010.06.03 12:45:16.
