data_PCOD9418130
_publ_section_title
;
Structure prediction by ZEFSAII (Michael W. Deem and Ramdas Pophale) SiO2 
 PCOD9418130
Probable space group: P M N A
;
_chemical_formula_sum "Si O2"
_cell_formula_units_Z 48
_cell_length_a 28.461633
_cell_length_b 9.086661
_cell_length_c 9.594569
_cell_angle_alpha 90.000000
_cell_angle_beta 90.000000
_cell_angle_gamma 90.000000
_cell_volume 2481.359050
_symmetry_space_group_name_H-M "P M N A"
_symmetry_group_IT_number 53
_symmetry_cell_setting 'orthorhombic'
loop_
_space_group_symop_operation_xyz
x,y,z
1/2-x,-y,1/2+z
x,-y,-z
1/2-x,y,1/2-z
-x,-y,-z
1/2+x,y,1/2-z
-x,y,z
1/2+x,-y,1/2+z
loop_
_atom_site_type_symbol
_atom_site_label
_atom_site_fract_x
_atom_site_fract_y
_atom_site_fract_z
Si Si1 0.893993 0.133713 0.249589
Si Si2 0.763600 0.356993 0.588099
Si Si3 0.846112 0.830472 0.313040
Si Si4 0.000000 0.150156 0.583868
Si Si5 0.818928 0.833791 0.997480
Si Si6 0.000000 0.034853 0.162951
Si Si7 0.911294 0.332907 0.499395
O O1 0.859136 0.164302 0.120243
O O2 0.891292 0.269099 0.355828
O O3 0.949028 0.108638 0.204224
O O4 0.872401 0.988349 0.328196
O O5 0.781807 0.500000 0.500000
O O6 0.750000 0.398626 0.750000
O O7 0.796680 0.211910 0.614091
O O8 0.720259 0.292724 0.496727
O O9 0.876371 0.700071 0.375899
O O10 0.841957 0.815240 0.148390
O O11 0.044463 0.236290 0.534652
O O12 0.000000 0.000000 0.500000
O O13 0.000000 0.113814 0.746215
O O14 0.797932 0.000000 0.000000
O O15 0.000000 0.000000 0.000000
O O16 0.924359 0.500000 0.500000
#
# Coordination Sequence:
#
# PCOD9418130 Si02
#       7
#     8   8   8   4   8   4   8
#     4  11  22  40  65  95 125 165 214 265 316 377
#     4  10  22  40  61  87 125 166 206 258 324 381
#     4  10  20  39  61  88 119 160 213 257 310 374
#     4  12  21  42  65  89 125 167 207 258 311 367
#     4   9  21  39  62  89 120 157 211 265 309 372
#     4  12  22  38  72  98 122 162 216 268 318 372
#     4  12  24  38  59  91 127 164 204 253 310 376
#
# _framework density 19.344238000000001
#
# number of rings (size 3 to 8) (size 9 to 14) (size 15 to 20)
#    0.000    1.333    3.333    2.750    0.000    5.333 
#    0.000    4.167    0.000    1.000    0.000    0.000 
#    0.000    0.000    0.000    0.000    0.000    0.000 
#
# Total GULP energy -267318.904728 kJ/mol
# GULP energy per Si atom -5569.143849 kJ/mol
# Density = 1.930021 g / cm^3
# Si number density = 19.344238 Si / 1000 Ang^3
#
#
#
# Elastic Constant Matrix: (Units=GPa)
#
#
# Indices 1 2 3 4 5 6 
#
# 1 78.4666 33.9174 32.6184 0.0000 0.0000 0.0000
# 2 33.9174 109.9803 57.5840 0.0000 0.0000 0.0000
# 3 32.6184 57.5840 96.8314 0.0000 0.0000 0.0000
# 4 0.0000 0.0000 0.0000 13.3329 0.0000 0.0000
# 5 0.0000 0.0000 0.0000 0.0000 14.6758 0.0000
# 6 0.0000 0.0000 0.0000 0.0000 0.0000 17.3277
#
#
#
# Elastic Compliance Matrix: (Units=1/GPa)
#
#
# Indices 1 2 3 4 5 6 
#
# 1 0.015457 -0.002963 -0.003445 0.000000 0.000000 0.000000
# 2 -0.002963 0.013772 -0.007192 0.000000 0.000000 0.000000
# 3 -0.003445 -0.007192 0.015764 0.000000 0.000000 0.000000
# 4 0.000000 0.000000 0.000000 0.075002 0.000000 0.000000
# 5 0.000000 0.000000 0.000000 0.000000 0.068140 0.000000
# 6 0.000000 0.000000 0.000000 0.000000 0.000000 0.057711
#
#
# Mechanical properties :
#
#
# Convention : Reuss Voigt Hill
#
# Bulk Modulus (GPa) = 56.19849 59.27977 57.73913
# Shear Modulus (GPa) = 17.92263 19.81117 18.86690
#
# Velocity S-wave (km/s) = 3.04716 3.20369 3.12641
# Velocity P-wave (km/s) = 6.44167 6.66303 6.55329
#
# Compressibility (1/GPa) = 0.01779407
#
# Stress axis : x y z
#
# Youngs Moduli (GPa) = 64.69510 72.61180 63.43441
#
# Poissons Ratio (x) = 0.21518 0.21851
# Poissons Ratio (y) = 0.19172 0.45620
# Poissons Ratio (z) = 0.22285 0.52220
#
# Static dielectric constant tensor:
#      x y z
#    x 0.193220 0.000000 0.000000 
#    y 0.000000 1.362060 0.000000 
#    z 0.000000 0.000000 1.687890 
# 
# From -- ./inp_files/13097.got.cif
#   From: 2010.05.17/outbox.cif.g08.bks.cpg/sg53_7_cif.got.tgz:13097.got - 2010.06.03 12:45:16.
