data_PCOD9418449
_publ_section_title
;
Structure prediction by ZEFSAII (Michael W. Deem and Ramdas Pophale) SiO2 
 PCOD9418449
Probable space group: P M N A
;
_chemical_formula_sum "Si O2"
_cell_formula_units_Z 40
_cell_length_a 14.993354
_cell_length_b 7.919137
_cell_length_c 16.721719
_cell_angle_alpha 90.000000
_cell_angle_beta 90.000000
_cell_angle_gamma 90.000000
_cell_volume 1985.443681
_symmetry_space_group_name_H-M "P M N A"
_symmetry_group_IT_number 53
_symmetry_cell_setting 'orthorhombic'
loop_
_space_group_symop_operation_xyz
x,y,z
1/2-x,-y,1/2+z
x,-y,-z
1/2-x,y,1/2-z
-x,-y,-z
1/2+x,y,1/2-z
-x,y,z
1/2+x,-y,1/2+z
loop_
_atom_site_type_symbol
_atom_site_label
_atom_site_fract_x
_atom_site_fract_y
_atom_site_fract_z
Si Si1 0.500000 0.014917 0.797149
Si Si2 0.762416 0.000000 0.000000
Si Si3 0.702823 0.505627 0.834656
Si Si4 0.500000 0.602988 0.178054
Si Si5 0.661182 0.662210 0.452617
Si Si6 0.804035 0.096624 0.329939
Si Si7 0.500000 0.748592 0.341870
O O1 0.590755 0.918893 0.813818
O O2 0.500000 0.196464 0.843187
O O3 0.500000 0.075706 0.705302
O O4 0.713887 0.001575 0.913250
O O5 0.816067 0.174509 0.004400
O O6 0.750000 0.453025 0.750000
O O7 0.596500 0.472702 0.843166
O O8 0.753266 0.406313 0.904499
O O9 0.718512 0.706135 0.841045
O O10 0.500000 0.605030 0.274281
O O11 0.626128 0.500000 0.500000
O O12 0.587836 0.726506 0.391800
O O13 0.750000 0.035663 0.250000
#
# Coordination Sequence:
#
# PCOD9418449 Si02
#       7
#     4   4   8   4   8   8   4
#     4  10  21  41  64  99 129 180 229 289 342 417
#     4  12  26  42  72 100 144 192 228 290 358 408
#     4  11  21  42  68  96 136 178 237 290 344 415
#     4  10  21  36  66  98 117 184 224 289 339 409
#     4  12  24  45  65 104 141 184 231 288 353 423
#     4  11  24  42  67 101 137 182 239 289 348 425
#     4  10  23  41  71  99 138 190 230 288 357 417
#
# _framework density 20.146629999999998
#
# number of rings (size 3 to 8) (size 9 to 14) (size 15 to 20)
#    0.600    0.400    4.000    3.300    0.000    2.400 
#    0.000    2.500    0.000    0.000    0.000    0.000 
#    0.000    0.000    0.000    0.000    0.000    0.000 
#
# Total GULP energy -223011.069312 kJ/mol
# GULP energy per Si atom -5575.276733 kJ/mol
# Density = 2.010078 g / cm^3
# Si number density = 20.146630 Si / 1000 Ang^3
#
#
#
# Elastic Constant Matrix: (Units=GPa)
#
#
# Indices 1 2 3 4 5 6 
#
# 1 99.5133 2.4532 27.9245 0.0000 0.0000 0.0000
# 2 2.4532 85.5496 18.0189 0.0000 0.0000 0.0000
# 3 27.9245 18.0189 73.1838 0.0000 0.0000 0.0000
# 4 0.0000 0.0000 0.0000 27.1026 0.0000 0.0000
# 5 0.0000 0.0000 0.0000 0.0000 38.1397 0.0000
# 6 0.0000 0.0000 0.0000 0.0000 0.0000 18.4368
#
#
#
# Elastic Compliance Matrix: (Units=1/GPa)
#
#
# Indices 1 2 3 4 5 6 
#
# 1 0.011284 0.000615 -0.004457 0.000000 0.000000 0.000000
# 2 0.000615 0.012362 -0.003278 0.000000 0.000000 0.000000
# 3 -0.004457 -0.003278 0.016172 0.000000 0.000000 0.000000
# 4 0.000000 0.000000 0.000000 0.036897 0.000000 0.000000
# 5 0.000000 0.000000 0.000000 0.000000 0.026219 0.000000
# 6 0.000000 0.000000 0.000000 0.000000 0.000000 0.054239
#
#
# Mechanical properties :
#
#
# Convention : Reuss Voigt Hill
#
# Bulk Modulus (GPa) = 39.09655 39.44885 39.27270
# Shear Modulus (GPa) = 27.78687 30.72583 29.25635
#
# Velocity S-wave (km/s) = 3.71783 3.90950 3.81487
# Velocity P-wave (km/s) = 6.15449 6.32474 6.24020
#
# Compressibility (1/GPa) = 0.02557770
#
# Stress axis : x y z
#
# Youngs Moduli (GPa) = 88.61715 80.89305 61.83464
#
# Poissons Ratio (x) = -0.04977 0.27561
# Poissons Ratio (y) = -0.05452 0.20272
# Poissons Ratio (z) = 0.39499 0.26520
#
# Static dielectric constant tensor:
#      x y z
#    x 1.661610 0.000000 0.000000 
#    y 0.000000 1.732420 0.000000 
#    z 0.000000 0.000000 1.765410 
# 
# From -- ./inp_files/22531.got.cif
#   From: 2010.05.17/outbox.cif.g08.bks.cpg/sg53_12_cif.got.tgz:22531.got - 2010.06.03 12:45:16.
