data_PCOD9418488
_publ_section_title
;
Structure prediction by ZEFSAII (Michael W. Deem and Ramdas Pophale) SiO2 
 PCOD9418488
Probable space group: P M N A
;
_chemical_formula_sum "Si O2"
_cell_formula_units_Z 40
_cell_length_a 8.684700
_cell_length_b 13.906615
_cell_length_c 18.605173
_cell_angle_alpha 90.000000
_cell_angle_beta 90.000000
_cell_angle_gamma 90.000000
_cell_volume 2247.035663
_symmetry_space_group_name_H-M "P M N A"
_symmetry_group_IT_number 53
_symmetry_cell_setting 'orthorhombic'
loop_
_space_group_symop_operation_xyz
x,y,z
1/2-x,-y,1/2+z
x,-y,-z
1/2-x,y,1/2-z
-x,-y,-z
1/2+x,y,1/2-z
-x,y,z
1/2+x,-y,1/2+z
loop_
_atom_site_type_symbol
_atom_site_label
_atom_site_fract_x
_atom_site_fract_y
_atom_site_fract_z
Si Si1 0.815673 0.081902 0.171533
Si Si2 0.684594 0.796558 0.532983
Si Si3 0.184268 0.116376 0.609561
Si Si4 0.816318 0.311759 0.826252
Si Si5 0.684267 0.604623 0.031443
O O1 0.750000 0.104276 0.250000
O O2 0.779012 0.161667 0.111262
O O3 0.000000 0.072346 0.175594
O O4 0.745930 0.981732 0.143249
O O5 0.500000 0.793991 0.523887
O O6 0.753671 0.865683 0.471133
O O7 0.752653 0.691266 0.517809
O O8 0.247602 0.206762 0.654885
O O9 0.000000 0.117674 0.609524
O O10 0.750000 0.343453 0.750000
O O11 0.760820 0.379273 0.891045
O O12 0.000000 0.306082 0.824507
O O13 0.500000 0.615137 0.038148
O O14 0.719031 0.500000 0.000000
#
# Coordination Sequence:
#
# PCOD9418488 Si02
#       5
#     8   8   8   8   8
#     4  11  23  37  53  77 110 146 184 222 263 313
#     4  10  21  37  57  80 107 141 181 224 268 319
#     4  11  21  34  55  81 110 144 181 220 266 319
#     4  11  21  35  56  82 113 143 177 223 272 320
#     4  10  21  38  60  84 109 139 178 223 271 325
#
# _framework density 17.801231000000001
#
# number of rings (size 3 to 8) (size 9 to 14) (size 15 to 20)
#    0.000    1.400    0.000    9.000    0.000    7.200 
#    0.000    1.000    0.000    2.400    0.000    0.000 
#    0.000    0.000    0.000    0.000    0.000    0.000 
#
# Total GULP energy -223618.113906 kJ/mol
# GULP energy per Si atom -5590.452848 kJ/mol
# Density = 1.776071 g / cm^3
# Si number density = 17.801231 Si / 1000 Ang^3
#
#
#
# Elastic Constant Matrix: (Units=GPa)
#
#
# Indices 1 2 3 4 5 6 
#
# 1 125.1175 58.7193 83.0001 0.0000 0.0000 0.0000
# 2 58.7193 88.3828 87.7266 0.0000 0.0000 0.0000
# 3 83.0001 87.7266 167.9864 0.0000 0.0000 0.0000
# 4 0.0000 0.0000 0.0000 11.6941 0.0000 0.0000
# 5 0.0000 0.0000 0.0000 0.0000 47.5302 0.0000
# 6 0.0000 0.0000 0.0000 0.0000 0.0000 57.5286
#
#
#
# Elastic Compliance Matrix: (Units=1/GPa)
#
#
# Indices 1 2 3 4 5 6 
#
# 1 0.012730 -0.004598 -0.003889 0.000000 0.000000 0.000000
# 2 -0.004598 0.025151 -0.010863 0.000000 0.000000 0.000000
# 3 -0.003889 -0.010863 0.013547 0.000000 0.000000 0.000000
# 4 0.000000 0.000000 0.000000 0.085514 0.000000 0.000000
# 5 0.000000 0.000000 0.000000 0.000000 0.021039 0.000000
# 6 0.000000 0.000000 0.000000 0.000000 0.000000 0.017383
#
#
# Mechanical properties :
#
#
# Convention : Reuss Voigt Hill
#
# Bulk Modulus (GPa) = 78.55625 93.37541 85.96583
# Shear Modulus (GPa) = 22.90368 33.48662 28.19515
#
# Velocity S-wave (km/s) = 3.59086 4.34192 3.98413
# Velocity P-wave (km/s) = 7.83695 8.81503 8.34034
#
# Compressibility (1/GPa) = 0.01272973
#
# Stress axis : x y z
#
# Youngs Moduli (GPa) = 78.55536 39.75945 73.81619
#
# Poissons Ratio (x) = 0.18280 0.28705
# Poissons Ratio (y) = 0.36116 0.80187
# Poissons Ratio (z) = 0.30548 0.43191
#
# Static dielectric constant tensor:
#      x y z
#    x 1.594310 0.000000 0.000000 
#    y 0.000000 1.578490 0.000000 
#    z 0.000000 0.000000 1.609630 
# 
# From -- ./inp_files/25988.got.cif
#   From: 2010.05.17/outbox.cif.g08.bks.cpg/sg53_13_cif.got.tgz:25988.got - 2010.06.03 12:45:16.
