data_PCOD9418853
_publ_section_title
;
Structure prediction by ZEFSAII (Michael W. Deem and Ramdas Pophale) SiO2 
 PCOD9418853
Probable space group: P M N A
;
_chemical_formula_sum "Si O2"
_cell_formula_units_Z 64
_cell_length_a 8.643298
_cell_length_b 21.914217
_cell_length_c 17.820660
_cell_angle_alpha 90.000000
_cell_angle_beta 90.000000
_cell_angle_gamma 90.000000
_cell_volume 3375.430955
_symmetry_space_group_name_H-M "P M N A"
_symmetry_group_IT_number 53
_symmetry_cell_setting 'orthorhombic'
loop_
_space_group_symop_operation_xyz
x,y,z
1/2-x,-y,1/2+z
x,-y,-z
1/2-x,y,1/2-z
-x,-y,-z
1/2+x,y,1/2-z
-x,y,z
1/2+x,-y,1/2+z
loop_
_atom_site_type_symbol
_atom_site_label
_atom_site_fract_x
_atom_site_fract_y
_atom_site_fract_z
Si Si1 0.814931 0.069550 0.018082
Si Si2 0.183072 0.626068 0.604029
Si Si3 0.814989 0.276712 0.833504
Si Si4 0.314709 0.392994 0.560972
Si Si5 0.316358 0.757270 0.608424
Si Si6 0.815927 0.190298 0.545269
Si Si7 0.185222 0.503193 0.829815
Si Si8 0.183722 0.878527 0.670777
O O1 0.760970 0.086022 0.101819
O O2 0.000000 0.076639 0.012232
O O3 0.735293 0.120262 0.965503
O O4 0.773699 0.000000 0.000000
O O5 0.226894 0.614020 0.517087
O O6 0.265141 0.689017 0.626717
O O7 0.243823 0.568651 0.650793
O O8 0.000000 0.632529 0.612156
O O9 0.750000 0.283113 0.750000
O O10 0.780926 0.336783 0.883367
O O11 0.739260 0.220211 0.877564
O O12 0.000000 0.269483 0.831126
O O13 0.500000 0.392685 0.545338
O O14 0.275954 0.455129 0.604675
O O15 0.500000 0.764529 0.615309
O O16 0.266061 0.772810 0.522788
O O17 0.230970 0.807969 0.657957
O O18 0.000000 0.195645 0.536391
O O19 0.250000 0.481378 0.750000
O O20 0.000000 0.507409 0.825950
O O21 0.250000 0.899451 0.750000
O O22 0.000000 0.884552 0.667643
#
# Coordination Sequence:
#
# PCOD9418853 Si02
#       8
#     8   8   8   8   8   8   8   8
#     4  10  21  39  64  92 123 163 206 246 292 347
#     4  12  24  38  60  88 116 152 198 244 296 357
#     4  11  22  37  59  87 120 156 196 245 300 354
#     4  10  22  40  62  85 114 154 195 244 299 356
#     4  11  21  37  60  86 117 153 194 241 295 351
#     4  11  21  36  59  88 120 155 195 240 290 348
#     4  11  24  42  60  82 114 152 196 244 302 359
#     4  11  22  38  61  91 126 161 201 247 298 352
#
# _framework density 18.960543999999999
#
# number of rings (size 3 to 8) (size 9 to 14) (size 15 to 20)
#    0.000    1.125    1.250    7.875    0.000    4.500 
#    0.000    3.125    0.000    3.000    0.000    0.000 
#    0.000    0.000    0.000    0.000    0.000    0.000 
#
# Total GULP energy -358021.448229 kJ/mol
# GULP energy per Si atom -5594.085129 kJ/mol
# Density = 1.891739 g / cm^3
# Si number density = 18.960544 Si / 1000 Ang^3
#
#
#
# Elastic Constant Matrix: (Units=GPa)
#
#
# Indices 1 2 3 4 5 6 
#
# 1 36.4412 2.2086 -9.2846 0.0000 0.0000 0.0000
# 2 2.2086 86.4322 -6.7702 0.0000 0.0000 0.0000
# 3 -9.2846 -6.7702 36.9857 0.0000 0.0000 0.0000
# 4 0.0000 0.0000 0.0000 12.2982 0.0000 0.0000
# 5 0.0000 0.0000 0.0000 0.0000 22.4928 0.0000
# 6 0.0000 0.0000 0.0000 0.0000 0.0000 17.0286
#
#
#
# Elastic Compliance Matrix: (Units=1/GPa)
#
#
# Indices 1 2 3 4 5 6 
#
# 1 0.029319 -0.000175 0.007328 0.000000 0.000000 0.000000
# 2 -0.000175 0.011739 0.002105 0.000000 0.000000 0.000000
# 3 0.007328 0.002105 0.029262 0.000000 0.000000 0.000000
# 4 0.000000 0.000000 0.000000 0.081313 0.000000 0.000000
# 5 0.000000 0.000000 0.000000 0.000000 0.044459 0.000000
# 6 0.000000 0.000000 0.000000 0.000000 0.000000 0.058725
#
#
# Mechanical properties :
#
#
# Convention : Reuss Voigt Hill
#
# Bulk Modulus (GPa) = 11.25672 14.68519 12.97096
# Shear Modulus (GPa) = 18.80312 21.94427 20.37370
#
# Velocity S-wave (km/s) = 3.15254 3.40570 3.28156
# Velocity P-wave (km/s) = 4.38191 4.81944 4.60587
#
# Compressibility (1/GPa) = 0.08883581
#
# Stress axis : x y z
#
# Youngs Moduli (GPa) = 34.10744 85.18534 34.17360
#
# Poissons Ratio (x) = 0.01492 -0.25042
# Poissons Ratio (y) = 0.00598 -0.07193
# Poissons Ratio (z) = -0.24994 -0.17930
#
# Static dielectric constant tensor:
#      x y z
#    x 1.630760 0.000000 0.000000 
#    y 0.000000 1.650850 0.000000 
#    z 0.000000 0.000000 1.648860 
# 
# From -- ./inp_files/26960.got.cif
#   From: 2010.05.17/outbox.cif.g08.bks.cpg/sg53_14_cif.got.tgz:26960.got - 2010.06.03 12:45:16.
