data_PCOD9418761
_publ_section_title
;
Structure prediction by ZEFSAII (Michael W. Deem and Ramdas Pophale) SiO2 
 PCOD9418761
Probable space group: P M N A
;
_chemical_formula_sum "Si O2"
_cell_formula_units_Z 34
_cell_length_a 7.804812
_cell_length_b 22.894833
_cell_length_c 9.439179
_cell_angle_alpha 90.000000
_cell_angle_beta 90.000000
_cell_angle_gamma 90.000000
_cell_volume 1686.685643
_symmetry_space_group_name_H-M "P M N A"
_symmetry_group_IT_number 53
_symmetry_cell_setting 'orthorhombic'
loop_
_space_group_symop_operation_xyz
x,y,z
1/2-x,-y,1/2+z
x,-y,-z
1/2-x,y,1/2-z
-x,-y,-z
1/2+x,y,1/2-z
-x,y,z
1/2+x,-y,1/2+z
loop_
_atom_site_type_symbol
_atom_site_label
_atom_site_fract_x
_atom_site_fract_y
_atom_site_fract_z
Si Si1 0.800848 0.089012 0.084259
Si Si2 0.797211 0.445091 0.086493
Si Si3 0.202476 0.332275 0.589183
Si Si4 0.206145 0.799141 0.413994
Si Si5 0.500000 0.000000 0.000000
O O1 0.750000 0.089214 0.250000
O O2 0.000000 0.068637 0.070796
O O3 0.787480 0.153162 0.016463
O O4 0.654209 0.050100 0.009771
O O5 0.750000 0.447840 0.250000
O O6 0.000000 0.449521 0.077920
O O7 0.721029 0.500000 0.000000
O O8 0.751447 0.383461 0.016439
O O9 0.250000 0.348492 0.750000
O O10 0.271030 0.267067 0.558674
O O11 0.000000 0.326567 0.584670
O O12 0.250000 0.812575 0.250000
O O13 0.000000 0.801221 0.430631
#
# Coordination Sequence:
#
# PCOD9418761 Si02
#       5
#     8   8   8   8   2
#     4  12  25  47  71  97 133 174 217 269 329 386
#     4  11  24  40  60  88 124 165 213 263 321 380
#     4  10  21  38  64  92 128 167 211 262 317 377
#     4  10  21  41  65  98 131 168 214 266 321 382
#     4  12  26  48  68 100 136 168 220 270 320 402
#
# _framework density 20.157878
#
# number of rings (size 3 to 8) (size 9 to 14) (size 15 to 20)
#    0.000    1.176    2.353    3.176    0.000    8.471 
#    4.235    0.000    0.000    0.000    0.000    0.000 
#    0.000    0.000    0.000    0.000    0.000    0.000 
#
# Total GULP energy -189379.117137 kJ/mol
# GULP energy per Si atom -5569.974033 kJ/mol
# Density = 2.011200 g / cm^3
# Si number density = 20.157878 Si / 1000 Ang^3
#
#
#
# Elastic Constant Matrix: (Units=GPa)
#
#
# Indices 1 2 3 4 5 6 
#
# 1 137.1494 36.7297 23.0933 0.0000 0.0000 0.0000
# 2 36.7297 115.4149 61.8563 0.0000 0.0000 0.0000
# 3 23.0933 61.8563 54.7392 0.0000 0.0000 0.0000
# 4 0.0000 0.0000 0.0000 -89.7615 0.0000 0.0000
# 5 0.0000 0.0000 0.0000 0.0000 30.7137 0.0000
# 6 0.0000 0.0000 0.0000 0.0000 0.0000 57.6904
#
#
#
# Elastic Compliance Matrix: (Units=1/GPa)
#
#
# Indices 1 2 3 4 5 6 
#
# 1 0.008005 -0.001870 -0.001264 0.000000 0.000000 0.000000
# 2 -0.001870 0.022407 -0.024532 0.000000 0.000000 0.000000
# 3 -0.001264 -0.024532 0.046523 0.000000 0.000000 0.000000
# 4 0.000000 0.000000 0.000000 -0.011141 0.000000 0.000000
# 5 0.000000 0.000000 0.000000 0.000000 0.032559 0.000000
# 6 0.000000 0.000000 0.000000 0.000000 0.000000 0.017334
#
#
# Mechanical properties :
#
#
# Convention : Reuss Voigt Hill
#
# Bulk Modulus (GPa) = 46.28805 61.18466 53.73636
# Shear Modulus (GPa) = 28.05530 12.10346 20.07938
#
# Velocity S-wave (km/s) = 3.73470 2.45303 3.15954
# Velocity P-wave (km/s) = 6.45058 6.20014 6.32660
#
# Compressibility (1/GPa) = 0.02160385
#
# Stress axis : x y z
#
# Youngs Moduli (GPa) = 124.92246 44.62848 21.49484
#
# Poissons Ratio (x) = 0.08346 0.02716
# Poissons Ratio (y) = 0.23363 0.52730
# Poissons Ratio (z) = 0.15788 1.09481
#
# Static dielectric constant tensor:
#      x y z
#    x 1.723280 0.000000 0.000000 
#    y 0.000000 1.772130 0.000000 
#    z 0.000000 0.000000 1.683480 
# 
# From -- ./inp_files/6128.got.cif
#   From: 2010.05.17/outbox.cif.g08.bks.cpg/sg53_4_cif.got.tgz:6128.got - 2010.06.03 12:45:16.
