data_PCOD9418296
_publ_section_title
;
Structure prediction by ZEFSAII (Michael W. Deem and Ramdas Pophale) SiO2 
 PCOD9418296
Probable space group: P M N A
;
_chemical_formula_sum "Si O2"
_cell_formula_units_Z 48
_cell_length_a 10.165424
_cell_length_b 29.826163
_cell_length_c 8.798881
_cell_angle_alpha 90.000000
_cell_angle_beta 90.000000
_cell_angle_gamma 90.000000
_cell_volume 2667.781944
_symmetry_space_group_name_H-M "P M N A"
_symmetry_group_IT_number 53
_symmetry_cell_setting 'orthorhombic'
loop_
_space_group_symop_operation_xyz
x,y,z
1/2-x,-y,1/2+z
x,-y,-z
1/2-x,y,1/2-z
-x,-y,-z
1/2+x,y,1/2-z
-x,y,z
1/2+x,-y,1/2+z
loop_
_atom_site_type_symbol
_atom_site_label
_atom_site_fract_x
_atom_site_fract_y
_atom_site_fract_z
Si Si1 0.500000 0.951000 0.070464
Si Si2 0.842203 0.811068 0.398051
Si Si3 0.500000 0.051191 0.563466
Si Si4 0.348012 0.727089 0.889013
Si Si5 0.848585 0.542027 0.387213
Si Si6 0.245444 0.101410 0.432255
Si Si7 0.653578 0.376413 0.109567
O O1 0.500000 0.950878 0.253316
O O2 0.373587 0.926320 0.004240
O O3 0.500000 0.000000 0.000000
O O4 0.750000 0.813708 0.250000
O O5 0.829870 0.762608 0.476845
O O6 0.784363 0.848089 0.513656
O O7 0.000000 0.819337 0.369635
O O8 0.375246 0.078969 0.502552
O O9 0.500000 0.000000 0.500000
O O10 0.250000 0.736338 0.750000
O O11 0.500000 0.731146 0.836916
O O12 0.327708 0.675431 0.938248
O O13 0.835903 0.500000 0.500000
O O14 0.750000 0.536740 0.250000
O O15 0.821041 0.587755 0.478517
O O16 0.000000 0.543446 0.334320
O O17 0.250000 0.098511 0.250000
O O18 0.750000 0.384972 0.250000
O O19 0.500000 0.381616 0.155065
#
# Coordination Sequence:
#
# PCOD9418296 Si02
#       7
#     4   8   4   8   8   8   8
#     4  12  24  44  66  92 128 158 198 242 289 348
#     4  11  24  41  61  88 121 156 195 244 296 350
#     4  12  26  44  68  96 124 162 198 242 293 346
#     4   9  19  37  59  85 117 152 195 241 292 350
#     4  10  21  35  52  78 111 148 192 242 295 352
#     4  12  25  43  65  92 122 159 200 243 293 349
#     4   9  18  34  56  81 112 150 191 241 292 348
#
# _framework density 17.992476
#
# number of rings (size 3 to 8) (size 9 to 14) (size 15 to 20)
#    0.000    1.500    0.833    4.500    1.167    2.333 
#    0.000    0.000    0.000    0.000    0.000    0.000 
#    0.000    0.000    0.000    0.000    0.000    0.000 
#
# Total GULP energy -268047.453500 kJ/mol
# GULP energy per Si atom -5584.321948 kJ/mol
# Density = 1.795152 g / cm^3
# Si number density = 17.992476 Si / 1000 Ang^3
#
#
#
# Elastic Constant Matrix: (Units=GPa)
#
#
# Indices 1 2 3 4 5 6 
#
# 1 133.2905 60.2392 85.3674 0.0000 0.0000 0.0000
# 2 60.2392 86.3844 59.5145 0.0000 0.0000 0.0000
# 3 85.3674 59.5145 154.0504 0.0000 0.0000 0.0000
# 4 0.0000 0.0000 0.0000 23.4510 0.0000 0.0000
# 5 0.0000 0.0000 0.0000 0.0000 34.7770 0.0000
# 6 0.0000 0.0000 0.0000 0.0000 0.0000 34.5243
#
#
#
# Elastic Compliance Matrix: (Units=1/GPa)
#
#
# Indices 1 2 3 4 5 6 
#
# 1 0.013466 -0.005790 -0.005225 0.000000 0.000000 0.000000
# 2 -0.005790 0.018265 -0.003847 0.000000 0.000000 0.000000
# 3 -0.005225 -0.003847 0.010873 0.000000 0.000000 0.000000
# 4 0.000000 0.000000 0.000000 0.042642 0.000000 0.000000
# 5 0.000000 0.000000 0.000000 0.000000 0.028755 0.000000
# 6 0.000000 0.000000 0.000000 0.000000 0.000000 0.028965
#
#
# Mechanical properties :
#
#
# Convention : Reuss Voigt Hill
#
# Bulk Modulus (GPa) = 77.65251 87.10752 82.38001
# Shear Modulus (GPa) = 28.25110 29.79073 29.02092
#
# Velocity S-wave (km/s) = 3.96683 4.07348 4.02051
# Velocity P-wave (km/s) = 8.01455 8.40493 8.21206
#
# Compressibility (1/GPa) = 0.01287788
#
# Stress axis : x y z
#
# Youngs Moduli (GPa) = 74.26229 54.75023 91.96848
#
# Poissons Ratio (x) = 0.31703 0.48054
# Poissons Ratio (y) = 0.43001 0.35385
# Poissons Ratio (z) = 0.38803 0.21065
#
# Static dielectric constant tensor:
#      x y z
#    x 1.548020 0.000000 0.000000 
#    y 0.000000 1.639130 0.000000 
#    z 0.000000 0.000000 1.569990 
# 
# From -- ./inp_files/6851.got.cif
#   From: 2010.05.17/outbox.cif.g08.bks.cpg/sg53_4_cif.got.tgz:6851.got - 2010.06.03 12:45:16.
