data_PCOD9418542
_publ_section_title
;
Structure prediction by ZEFSAII (Michael W. Deem and Ramdas Pophale) SiO2 
 PCOD9418542
Probable space group: P M N A
;
_chemical_formula_sum "Si O2"
_cell_formula_units_Z 48
_cell_length_a 26.408181
_cell_length_b 9.926060
_cell_length_c 8.414781
_cell_angle_alpha 90.000000
_cell_angle_beta 90.000000
_cell_angle_gamma 90.000000
_cell_volume 2205.759720
_symmetry_space_group_name_H-M "P M N A"
_symmetry_group_IT_number 53
_symmetry_cell_setting 'orthorhombic'
loop_
_space_group_symop_operation_xyz
x,y,z
1/2-x,-y,1/2+z
x,-y,-z
1/2-x,y,1/2-z
-x,-y,-z
1/2+x,y,1/2-z
-x,y,z
1/2+x,-y,1/2+z
loop_
_atom_site_type_symbol
_atom_site_label
_atom_site_fract_x
_atom_site_fract_y
_atom_site_fract_z
Si Si1 0.060636 0.807526 0.863969
Si Si2 0.405049 0.939821 0.174597
Si Si3 0.298879 0.085149 0.655267
Si Si4 0.442445 0.425272 0.151005
Si Si5 0.297321 0.605515 0.358183
Si Si6 0.910059 0.671952 0.191438
O O1 0.071476 0.958385 0.805034
O O2 0.080361 0.709523 0.723231
O O3 0.000000 0.791635 0.883732
O O4 0.086242 0.749568 0.023236
O O5 0.346620 0.921533 0.226807
O O6 0.426736 0.788658 0.186747
O O7 0.411167 0.000000 0.000000
O O8 0.250000 0.034344 0.750000
O O9 0.287319 0.237919 0.599211
O O10 0.310457 0.000000 0.500000
O O11 0.500000 0.391037 0.105634
O O12 0.442582 0.538193 0.288976
O O13 0.418349 0.500000 0.000000
O O14 0.301594 0.500000 0.500000
O O15 0.250000 0.563380 0.250000
O O16 0.352975 0.618373 0.280876
#
# Coordination Sequence:
#
# PCOD9418542 Si02
#       6
#     8   8   8   8   8   8
#     4  11  23  39  62  90 121 163 210 257 314 375
#     4  11  23  39  59  86 121 159 202 258 318 373
#     4  10  21  39  62  88 119 157 203 251 304 369
#     4  10  21  37  58  86 118 153 196 245 299 361
#     4  10  22  39  58  85 117 150 192 240 293 355
#     4  11  22  39  61  85 118 157 202 252 303 369
#
# _framework density 21.761209999999998
#
# number of rings (size 3 to 8) (size 9 to 14) (size 15 to 20)
#    0.000    1.500    0.000    6.000    0.000    5.000 
#    0.000    6.667    0.000    0.000    0.000    0.000 
#    0.000    0.000    0.000    0.000    0.000    0.000 
#
# Total GULP energy -267983.030293 kJ/mol
# GULP energy per Si atom -5582.979798 kJ/mol
# Density = 2.171168 g / cm^3
# Si number density = 21.761210 Si / 1000 Ang^3
#
#
#
# Elastic Constant Matrix: (Units=GPa)
#
#
# Indices 1 2 3 4 5 6 
#
# 1 71.8057 -0.4960 3.4419 0.0000 0.0000 0.0000
# 2 -0.4960 86.8298 15.9519 0.0000 0.0000 0.0000
# 3 3.4419 15.9519 75.4611 0.0000 0.0000 0.0000
# 4 0.0000 0.0000 0.0000 41.2486 0.0000 0.0000
# 5 0.0000 0.0000 0.0000 0.0000 23.8052 0.0000
# 6 0.0000 0.0000 0.0000 0.0000 0.0000 24.4302
#
#
#
# Elastic Compliance Matrix: (Units=1/GPa)
#
#
# Indices 1 2 3 4 5 6 
#
# 1 0.013960 0.000205 -0.000680 0.000000 0.000000 0.000000
# 2 0.000205 0.011985 -0.002543 0.000000 0.000000 0.000000
# 3 -0.000680 -0.002543 0.013820 0.000000 0.000000 0.000000
# 4 0.000000 0.000000 0.000000 0.024243 0.000000 0.000000
# 5 0.000000 0.000000 0.000000 0.000000 0.042008 0.000000
# 6 0.000000 0.000000 0.000000 0.000000 0.000000 0.040933
#
#
# Mechanical properties :
#
#
# Convention : Reuss Voigt Hill
#
# Bulk Modulus (GPa) = 29.64759 30.21023 29.92891
# Shear Modulus (GPa) = 30.44521 32.24339 31.34430
#
# Velocity S-wave (km/s) = 3.74446 3.85345 3.79934
# Velocity P-wave (km/s) = 5.68755 5.80616 5.74716
#
# Compressibility (1/GPa) = 0.03372955
#
# Stress axis : x y z
#
# Youngs Moduli (GPa) = 71.63076 83.43679 72.35662
#
# Poissons Ratio (x) = -0.01708 0.04920
# Poissons Ratio (y) = -0.01466 0.18400
# Poissons Ratio (z) = 0.04871 0.21217
#
# Static dielectric constant tensor:
#      x y z
#    x 1.811550 0.000000 0.000000 
#    y 0.000000 1.789860 0.000000 
#    z 0.000000 0.000000 1.834410 
# 
# From -- ./inp_files/12994.got.cif
#   From: 2010.05.17/outbox.cif.g08.bks.cpg/sg53_7_cif.got.tgz:12994.got - 2010.06.03 12:45:16.
