data_PCOD9418666
_publ_section_title
;
Structure prediction by ZEFSAII (Michael W. Deem and Ramdas Pophale) SiO2 
 PCOD9418666
Probable space group: P M N A
;
_chemical_formula_sum "Si O2"
_cell_formula_units_Z 48
_cell_length_a 9.274214
_cell_length_b 16.717690
_cell_length_c 16.009195
_cell_angle_alpha 90.000000
_cell_angle_beta 90.000000
_cell_angle_gamma 90.000000
_cell_volume 2482.120579
_symmetry_space_group_name_H-M "P M N A"
_symmetry_group_IT_number 53
_symmetry_cell_setting 'orthorhombic'
loop_
_space_group_symop_operation_xyz
x,y,z
1/2-x,-y,1/2+z
x,-y,-z
1/2-x,y,1/2-z
-x,-y,-z
1/2+x,y,1/2-z
-x,y,z
1/2+x,-y,1/2+z
loop_
_atom_site_type_symbol
_atom_site_label
_atom_site_fract_x
_atom_site_fract_y
_atom_site_fract_z
Si Si1 0.170838 0.686638 0.163806
Si Si2 0.169446 0.595460 0.995162
Si Si3 0.670168 0.999622 0.666996
Si Si4 0.669560 0.664061 0.833966
Si Si5 0.831497 0.842229 0.606569
Si Si6 0.331670 0.843584 0.436884
O O1 0.250000 0.668443 0.250000
O O2 0.216491 0.634436 0.083227
O O3 0.193237 0.778755 0.135718
O O4 0.000000 0.674030 0.175267
O O5 0.000000 0.617218 0.983534
O O6 0.180141 0.500000 0.000000
O O7 0.259067 0.627260 0.916744
O O8 0.750000 0.028473 0.750000
O O9 0.500000 0.990373 0.681752
O O10 0.739561 0.915383 0.642286
O O11 0.689617 0.066780 0.596296
O O12 0.750000 0.637152 0.750000
O O13 0.500000 0.645054 0.830206
O O14 0.684357 0.760159 0.842736
O O15 0.771821 0.826448 0.513872
O O16 0.000000 0.863979 0.605063
O O17 0.500000 0.835197 0.462979
#
# Coordination Sequence:
#
# PCOD9418666 Si02
#       6
#     8   8   8   8   8   8
#     4  10  21  38  62  90 123 161 201 249 302 362
#     4  10  22  42  67  94 125 161 202 251 310 370
#     4  11  23  37  55  82 117 157 204 251 303 360
#     4  11  24  41  64  93 124 164 208 254 307 366
#     4  11  23  38  59  87 118 158 206 253 305 358
#     4  10  21  38  59  84 116 159 203 250 306 360
#
# _framework density 19.338303
#
# number of rings (size 3 to 8) (size 9 to 14) (size 15 to 20)
#    0.000    1.500    1.667    3.000    0.000    9.000 
#    0.000    1.667    0.000    0.000    0.000    0.000 
#    0.000    0.000    0.000    0.000    0.000    0.000 
#
# Total GULP energy -268290.871508 kJ/mol
# GULP energy per Si atom -5589.393156 kJ/mol
# Density = 1.929429 g / cm^3
# Si number density = 19.338303 Si / 1000 Ang^3
#
#
#
# Elastic Constant Matrix: (Units=GPa)
#
#
# Indices 1 2 3 4 5 6 
#
# 1 97.9941 37.3251 78.5317 0.0000 0.0000 0.0000
# 2 37.3251 61.4427 23.9809 0.0000 0.0000 0.0000
# 3 78.5317 23.9809 137.2985 0.0000 0.0000 0.0000
# 4 0.0000 0.0000 0.0000 9.1885 0.0000 0.0000
# 5 0.0000 0.0000 0.0000 0.0000 39.6388 0.0000
# 6 0.0000 0.0000 0.0000 0.0000 0.0000 23.6951
#
#
#
# Elastic Compliance Matrix: (Units=1/GPa)
#
#
# Indices 1 2 3 4 5 6 
#
# 1 0.023073 -0.009514 -0.011535 0.000000 0.000000 0.000000
# 2 -0.009514 0.021389 0.001706 0.000000 0.000000 0.000000
# 3 -0.011535 0.001706 0.013583 0.000000 0.000000 0.000000
# 4 0.000000 0.000000 0.000000 0.108831 0.000000 0.000000
# 5 0.000000 0.000000 0.000000 0.000000 0.025228 0.000000
# 6 0.000000 0.000000 0.000000 0.000000 0.000000 0.042203
#
#
# Mechanical properties :
#
#
# Convention : Reuss Voigt Hill
#
# Bulk Modulus (GPa) = 51.65724 64.04563 57.85144
# Shear Modulus (GPa) = 17.89245 24.96433 21.42839
#
# Velocity S-wave (km/s) = 3.04507 3.59684 3.33240
# Velocity P-wave (km/s) = 6.25569 7.10212 6.69230
#
# Compressibility (1/GPa) = 0.01935837
#
# Stress axis : x y z
#
# Youngs Moduli (GPa) = 43.34080 46.75284 73.61894
#
# Poissons Ratio (x) = 0.44481 0.84923
# Poissons Ratio (y) = 0.41235 -0.12559
# Poissons Ratio (z) = 0.49996 -0.07976
#
# Static dielectric constant tensor:
#      x y z
#    x 1.649830 0.000000 0.000000 
#    y 0.000000 1.676590 0.000000 
#    z 0.000000 0.000000 1.665420 
# 
# From -- ./inp_files/20151.got.cif
#   From: 2010.05.17/outbox.cif.g08.bks.cpg/sg53_11_cif.got.tgz:20151.got - 2010.06.03 12:45:16.
