data_PCOD9418724
_publ_section_title
;
Structure prediction by ZEFSAII (Michael W. Deem and Ramdas Pophale) SiO2 
 PCOD9418724
Probable space group: P M N A
;
_chemical_formula_sum "Si O2"
_cell_formula_units_Z 64
_cell_length_a 17.077930
_cell_length_b 9.219435
_cell_length_c 19.360258
_cell_angle_alpha 90.000000
_cell_angle_beta 90.000000
_cell_angle_gamma 90.000000
_cell_volume 3048.250659
_symmetry_space_group_name_H-M "P M N A"
_symmetry_group_IT_number 53
_symmetry_cell_setting 'orthorhombic'
loop_
_space_group_symop_operation_xyz
x,y,z
1/2-x,-y,1/2+z
x,-y,-z
1/2-x,y,1/2-z
-x,-y,-z
1/2+x,y,1/2-z
-x,y,z
1/2+x,-y,1/2+z
loop_
_atom_site_type_symbol
_atom_site_label
_atom_site_fract_x
_atom_site_fract_y
_atom_site_fract_z
Si Si1 0.730633 0.288734 0.051206
Si Si2 0.172332 0.599059 0.216405
Si Si3 0.911508 0.118943 0.791960
Si Si4 0.914200 0.858891 0.579870
Si Si5 0.726525 0.602543 0.089362
Si Si6 0.810603 0.859502 0.815556
Si Si7 0.590136 0.328148 0.221618
Si Si8 0.088174 0.821600 0.368051
O O1 0.657345 0.188498 0.034200
O O2 0.693326 0.444704 0.070611
O O3 0.775999 0.213606 0.115101
O O4 0.768472 0.323513 0.977028
O O5 0.250000 0.671969 0.250000
O O6 0.104965 0.711429 0.199012
O O7 0.207488 0.554265 0.143572
O O8 0.144364 0.469722 0.266297
O O9 0.903277 0.111524 0.709055
O O10 0.000000 0.078177 0.811493
O O11 0.844008 0.021241 0.826021
O O12 0.901793 0.771802 0.653050
O O13 0.000000 0.816600 0.554171
O O14 0.911439 0.030570 0.588917
O O15 0.657699 0.708675 0.116438
O O16 0.750000 0.855540 0.750000
O O17 0.884740 0.771400 0.786050
O O18 0.500000 0.373444 0.224736
O O19 0.000000 0.755750 0.372187
#
# Coordination Sequence:
#
# PCOD9418724 Si02
#       8
#     8   8   8   8   8   8   8   8
#     4  11  24  42  61  89 125 169 212 259 310 376
#     4  12  22  38  62  92 124 163 208 257 312 365
#     4  11  23  38  61  95 128 156 199 257 321 377
#     4  10  21  38  61  92 126 163 207 252 311 385
#     4  11  25  41  60  89 128 167 210 259 316 373
#     4  12  21  38  66  92 120 159 208 260 307 367
#     4  11  21  36  62  92 124 158 203 261 313 362
#     4  10  21  39  61  92 130 164 201 252 316 384
#
# _framework density 20.995647999999999
#
# number of rings (size 3 to 8) (size 9 to 14) (size 15 to 20)
#    0.000    1.000    5.000    2.250    1.750    1.500 
#    0.000    2.500    0.000    4.500    0.000    0.000 
#    0.000    0.000    0.000    0.000    0.000    0.000 
#
# Total GULP energy -356805.473387 kJ/mol
# GULP energy per Si atom -5575.085522 kJ/mol
# Density = 2.094786 g / cm^3
# Si number density = 20.995648 Si / 1000 Ang^3
#
#
#
# Elastic Constant Matrix: (Units=GPa)
#
#
# Indices 1 2 3 4 5 6 
#
# 1 70.4296 28.9183 32.7376 0.0000 0.0000 0.0000
# 2 28.9183 86.4060 20.3109 0.0000 0.0000 0.0000
# 3 32.7376 20.3109 74.1001 0.0000 0.0000 0.0000
# 4 0.0000 0.0000 0.0000 29.5083 0.0000 0.0000
# 5 0.0000 0.0000 0.0000 0.0000 8.7851 0.0000
# 6 0.0000 0.0000 0.0000 0.0000 0.0000 36.8219
#
#
#
# Elastic Compliance Matrix: (Units=1/GPa)
#
#
# Indices 1 2 3 4 5 6 
#
# 1 0.019591 -0.004833 -0.007330 0.000000 0.000000 0.000000
# 2 -0.004833 0.013563 -0.001582 0.000000 0.000000 0.000000
# 3 -0.007330 -0.001582 0.017167 0.000000 0.000000 0.000000
# 4 0.000000 0.000000 0.000000 0.033889 0.000000 0.000000
# 5 0.000000 0.000000 0.000000 0.000000 0.113829 0.000000
# 6 0.000000 0.000000 0.000000 0.000000 0.000000 0.027158
#
#
# Mechanical properties :
#
#
# Convention : Reuss Voigt Hill
#
# Bulk Modulus (GPa) = 43.80387 43.87436 43.83912
# Shear Modulus (GPa) = 19.20878 24.95433 22.08155
#
# Velocity S-wave (km/s) = 3.02800 3.45127 3.24654
# Velocity P-wave (km/s) = 5.75618 6.06827 5.91429
#
# Compressibility (1/GPa) = 0.02282903
#
# Stress axis : x y z
#
# Youngs Moduli (GPa) = 51.04513 73.73090 58.24969
#
# Poissons Ratio (x) = 0.35638 0.42699
# Poissons Ratio (y) = 0.24672 0.09216
# Poissons Ratio (z) = 0.37418 0.11665
#
# Static dielectric constant tensor:
#      x y z
#    x 1.771190 0.000000 0.000000 
#    y 0.000000 1.815080 0.000000 
#    z 0.000000 0.000000 1.902170 
# 
# From -- ./inp_files/32861.got.cif
#   From: 2010.05.17/outbox.cif.g08.bks.cpg/sg53_17_cif.got.tgz:32861.got - 2010.06.03 12:45:16.
