data_PCOD9418038
_publ_section_title
;
Structure prediction by ZEFSAII (Michael W. Deem and Ramdas Pophale) SiO2 
 PCOD9418038
Probable space group: P M N A
;
_chemical_formula_sum "Si O2"
_cell_formula_units_Z 32
_cell_length_a 18.766652
_cell_length_b 5.202699
_cell_length_c 13.092482
_cell_angle_alpha 90.000000
_cell_angle_beta 90.000000
_cell_angle_gamma 90.000000
_cell_volume 1278.313828
_symmetry_space_group_name_H-M "P M N A"
_symmetry_group_IT_number 53
_symmetry_cell_setting 'orthorhombic'
loop_
_space_group_symop_operation_xyz
x,y,z
1/2-x,-y,1/2+z
x,-y,-z
1/2-x,y,1/2-z
-x,-y,-z
1/2+x,y,1/2-z
-x,y,z
1/2+x,-y,1/2+z
loop_
_atom_site_type_symbol
_atom_site_label
_atom_site_fract_x
_atom_site_fract_y
_atom_site_fract_z
Si Si1 0.351513 0.580352 0.890027
Si Si2 0.139855 0.752133 0.071392
Si Si3 0.500000 0.217510 0.154821
Si Si4 0.000000 0.713846 0.209645
Si Si5 0.707402 0.079052 0.879030
O O1 0.428614 0.708445 0.905730
O O2 0.347927 0.296922 0.842546
O O3 0.308292 0.800008 0.831667
O O4 0.320222 0.500000 0.000000
O O5 0.213991 0.805307 0.130941
O O6 0.070228 0.737563 0.140615
O O7 0.146438 0.500000 0.000000
O O8 0.131622 0.000000 0.000000
O O9 0.500000 0.427397 0.244921
O O10 0.500000 0.934816 0.202832
O O11 0.698381 0.000000 0.000000
#
# Coordination Sequence:
#
# PCOD9418038 Si02
#       5
#     8   8   4   4   8
#     4  10  20  38  62  87 116 156 201 245 293 349
#     4  11  21  40  66  90 115 152 197 249 302 356
#     4  12  25  41  56  84 127 166 199 242 292 353
#     4  12  26  41  57  88 125 160 199 242 293 359
#     4   9  18  34  61  91 113 141 197 256 296 342
#
# _framework density 25.032976999999999
#
# number of rings (size 3 to 8) (size 9 to 14) (size 15 to 20)
#    0.000    1.500    0.000    7.875    0.000    0.000 
#    0.000   12.500    0.000    0.000    0.000    0.000 
#    0.000    0.000    0.000    0.000    0.000    0.000 
#
# Total GULP energy -178888.550231 kJ/mol
# GULP energy per Si atom -5590.267195 kJ/mol
# Density = 2.497600 g / cm^3
# Si number density = 25.032977 Si / 1000 Ang^3
#
#
#
# Elastic Constant Matrix: (Units=GPa)
#
#
# Indices 1 2 3 4 5 6 
#
# 1 162.3837 53.3505 17.0770 0.0000 0.0000 0.0000
# 2 53.3505 206.1367 21.6012 0.0000 0.0000 0.0000
# 3 17.0770 21.6012 34.1273 0.0000 0.0000 0.0000
# 4 0.0000 0.0000 0.0000 29.9393 0.0000 0.0000
# 5 0.0000 0.0000 0.0000 0.0000 35.3612 0.0000
# 6 0.0000 0.0000 0.0000 0.0000 0.0000 -92.8800
#
#
#
# Elastic Compliance Matrix: (Units=1/GPa)
#
#
# Indices 1 2 3 4 5 6 
#
# 1 0.006924 -0.001530 -0.002496 0.000000 0.000000 0.000000
# 2 -0.001530 0.005534 -0.002737 0.000000 0.000000 0.000000
# 3 -0.002496 -0.002737 0.032283 0.000000 0.000000 0.000000
# 4 0.000000 0.000000 0.000000 0.033401 0.000000 0.000000
# 5 0.000000 0.000000 0.000000 0.000000 0.028280 0.000000
# 6 0.000000 0.000000 0.000000 0.000000 0.000000 -0.010767
#
#
# Mechanical properties :
#
#
# Convention : Reuss Voigt Hill
#
# Bulk Modulus (GPa) = 32.03635 65.18945 48.61290
# Shear Modulus (GPa) = 41.81085 15.19202 28.50144
#
# Velocity S-wave (km/s) = 4.09128 2.46617 3.37791
# Velocity P-wave (km/s) = 5.92820 5.84870 5.88858
#
# Compressibility (1/GPa) = 0.03121454
#
# Stress axis : x y z
#
# Youngs Moduli (GPa) = 144.43532 180.69989 30.97564
#
# Poissons Ratio (x) = 0.27653 0.07731
# Poissons Ratio (y) = 0.22104 0.08478
# Poissons Ratio (z) = 0.36048 0.49459
#
# Static dielectric constant tensor:
#      x y z
#    x 2.022060 0.000000 0.000000 
#    y 0.000000 2.054800 0.000000 
#    z 0.000000 0.000000 2.056170 
# 
# From -- ./inp_files/23268.got.cif
#   From: 2010.05.17/outbox.cif.g08.bks.cpg/sg53_12_cif.got.tgz:23268.got - 2010.06.03 12:45:16.
