data_PCOD9418258
_publ_section_title
;
Structure prediction by ZEFSAII (Michael W. Deem and Ramdas Pophale) SiO2 
 PCOD9418258
Probable space group: P M N A
;
_chemical_formula_sum "Si O2"
_cell_formula_units_Z 48
_cell_length_a 14.639541
_cell_length_b 16.759106
_cell_length_c 8.093819
_cell_angle_alpha 90.000000
_cell_angle_beta 90.000000
_cell_angle_gamma 90.000000
_cell_volume 1985.783036
_symmetry_space_group_name_H-M "P M N A"
_symmetry_group_IT_number 53
_symmetry_cell_setting 'orthorhombic'
loop_
_space_group_symop_operation_xyz
x,y,z
1/2-x,-y,1/2+z
x,-y,-z
1/2-x,y,1/2-z
-x,-y,-z
1/2+x,y,1/2-z
-x,y,z
1/2+x,-y,1/2+z
loop_
_atom_site_type_symbol
_atom_site_label
_atom_site_fract_x
_atom_site_fract_y
_atom_site_fract_z
Si Si1 0.152960 0.359530 0.591851
Si Si2 0.394144 0.189388 0.808985
Si Si3 0.642917 0.308017 0.262894
Si Si4 0.137543 0.412852 0.934319
Si Si5 0.106676 0.968861 0.184340
Si Si6 0.604982 0.870429 0.819052
O O1 0.160362 0.270239 0.666288
O O2 0.107354 0.344437 0.412040
O O3 0.105805 0.404136 0.744960
O O4 0.251926 0.399944 0.570443
O O5 0.500000 0.210880 0.767577
O O6 0.355419 0.120749 0.691031
O O7 0.393467 0.147231 0.987544
O O8 0.750000 0.326589 0.250000
O O9 0.605960 0.348003 0.429499
O O10 0.636883 0.211869 0.264616
O O11 0.116388 0.500000 0.000000
O O12 0.000000 0.957431 0.237193
O O13 0.147049 0.042576 0.287558
O O14 0.108265 0.000000 0.000000
O O15 0.500000 0.878210 0.762660
#
# Coordination Sequence:
#
# PCOD9418258 Si02
#       6
#     8   8   8   8   8   8
#     4   9  20  33  53  80 103 129 170 218 258 314
#     4   9  17  32  52  75 105 141 173 211 263 311
#     4   9  19  34  53  76 108 137 172 218 270 315
#     4  10  21  34  56  80  96 131 177 221 266 317
#     4   9  17  27  46  75 104 139 180 216 246 296
#     4   9  17  31  52  76 103 140 183 218 257 310
#
# _framework density 24.171824000000001
#
# number of rings (size 3 to 8) (size 9 to 14) (size 15 to 20)
#    0.000    2.833    0.000    0.500    9.333    2.000 
#    0.000    0.000    3.667    2.500    0.000    0.000 
#    0.000    0.000    0.000    0.000    0.000    0.000 
#
# Total GULP energy -267763.842933 kJ/mol
# GULP energy per Si atom -5578.413394 kJ/mol
# Density = 2.411681 g / cm^3
# Si number density = 24.171824 Si / 1000 Ang^3
#
#
#
# Elastic Constant Matrix: (Units=GPa)
#
#
# Indices 1 2 3 4 5 6 
#
# 1 74.1457 -11.5903 1.6074 0.0000 0.0000 0.0000
# 2 -11.5903 82.3623 32.1347 0.0000 0.0000 0.0000
# 3 1.6074 32.1347 89.5854 0.0000 0.0000 0.0000
# 4 0.0000 0.0000 0.0000 51.1495 0.0000 0.0000
# 5 0.0000 0.0000 0.0000 0.0000 -2.1090 0.0000
# 6 0.0000 0.0000 0.0000 0.0000 0.0000 53.3217
#
#
#
# Elastic Compliance Matrix: (Units=1/GPa)
#
#
# Indices 1 2 3 4 5 6 
#
# 1 0.013884 0.002385 -0.001105 0.000000 0.000000 0.000000
# 2 0.002385 0.014527 -0.005254 0.000000 0.000000 0.000000
# 3 -0.001105 -0.005254 0.013067 0.000000 0.000000 0.000000
# 4 0.000000 0.000000 0.000000 0.019551 0.000000 0.000000
# 5 0.000000 0.000000 0.000000 0.000000 -0.474167 0.000000
# 6 0.000000 0.000000 0.000000 0.000000 0.000000 0.018754
#
#
# Mechanical properties :
#
#
# Convention : Reuss Voigt Hill
#
# Bulk Modulus (GPa) = 29.82362 32.26633 31.04498
# Shear Modulus (GPa) = -13.32403 35.40190 11.03893
#
# Velocity S-wave (km/s) = -2.35036 3.83115 2.13934
# Velocity P-wave (km/s) = 2.23593 5.74004 4.35588
#
# Compressibility (1/GPa) = 0.03353047
#
# Stress axis : x y z
#
# Youngs Moduli (GPa) = 72.02709 68.83817 76.52952
#
# Poissons Ratio (x) = -0.16416 0.08453
# Poissons Ratio (y) = -0.17176 0.40206
# Poissons Ratio (z) = 0.07955 0.36165
#
# Static dielectric constant tensor:
#      x y z
#    x 1.995000 0.000000 0.000000 
#    y 0.000000 1.943600 0.000000 
#    z 0.000000 0.000000 1.965580 
# 
# From -- ./inp_files/10932.got.cif
#   From: 2010.05.17/outbox.cif.g08.bks.cpg/sg53_6_cif.got.tgz:10932.got - 2010.06.03 12:45:16.
