data_PCOD9418100
_publ_section_title
;
Structure prediction by ZEFSAII (Michael W. Deem and Ramdas Pophale) SiO2 
 PCOD9418100
Probable space group: P M N A
;
_chemical_formula_sum "Si O2"
_cell_formula_units_Z 40
_cell_length_a 15.382904
_cell_length_b 14.949319
_cell_length_c 7.836237
_cell_angle_alpha 90.000000
_cell_angle_beta 90.000000
_cell_angle_gamma 90.000000
_cell_volume 1802.051928
_symmetry_space_group_name_H-M "P M N A"
_symmetry_group_IT_number 53
_symmetry_cell_setting 'orthorhombic'
loop_
_space_group_symop_operation_xyz
x,y,z
1/2-x,-y,1/2+z
x,-y,-z
1/2-x,y,1/2-z
-x,-y,-z
1/2+x,y,1/2-z
-x,y,z
1/2+x,-y,1/2+z
loop_
_atom_site_type_symbol
_atom_site_label
_atom_site_fract_x
_atom_site_fract_y
_atom_site_fract_z
Si Si1 0.894875 0.909524 0.785934
Si Si2 0.900432 0.597197 0.973000
Si Si3 0.605337 0.280133 0.169202
Si Si4 0.604668 0.895214 0.308131
Si Si5 0.652874 0.300127 0.794597
O O1 0.862176 0.822276 0.687917
O O2 0.000000 0.912743 0.766020
O O3 0.863831 0.008885 0.737723
O O4 0.879318 0.895245 0.988020
O O5 0.861412 0.660695 0.827105
O O6 0.000000 0.580580 0.916076
O O7 0.858751 0.500000 0.000000
O O8 0.902394 0.651109 0.149552
O O9 0.500000 0.274723 0.180596
O O10 0.628791 0.321214 0.987779
O O11 0.500000 0.890404 0.284647
O O12 0.643038 0.806572 0.227449
O O13 0.750000 0.326855 0.750000
#
# Coordination Sequence:
#
# PCOD9418100 Si02
#       5
#     8   8   8   8   8
#     4   8  15  30  59  90 113 152 205 258 301 339
#     4  10  22  44  70  92 115 150 205 268 310 346
#     4  10  20  38  67  94 117 155 209 257 300 356
#     4   9  16  33  59  85 119 158 204 252 296 348
#     4  12  25  39  56  90 129 166 196 238 308 379
#
# _framework density 22.196918
#
# number of rings (size 3 to 8) (size 9 to 14) (size 15 to 20)
#    0.000    2.200    2.000    3.000    0.000    2.400 
#    3.600   10.000    0.000    0.000    0.000    0.000 
#    0.000    0.000    0.000    0.000    0.000    0.000 
#
# Total GULP energy -223402.700826 kJ/mol
# GULP energy per Si atom -5585.067521 kJ/mol
# Density = 2.214640 g / cm^3
# Si number density = 22.196918 Si / 1000 Ang^3
#
#
#
# Elastic Constant Matrix: (Units=GPa)
#
#
# Indices 1 2 3 4 5 6 
#
# 1 28.8129 -2.9504 -9.5771 0.0000 0.0000 0.0000
# 2 -2.9504 132.1790 60.3936 0.0000 0.0000 0.0000
# 3 -9.5771 60.3936 108.2818 0.0000 0.0000 0.0000
# 4 0.0000 0.0000 0.0000 -4.1686 0.0000 0.0000
# 5 0.0000 0.0000 0.0000 0.0000 -40.0845 0.0000
# 6 0.0000 0.0000 0.0000 0.0000 0.0000 41.2734
#
#
#
# Elastic Compliance Matrix: (Units=1/GPa)
#
#
# Indices 1 2 3 4 5 6 
#
# 1 0.035832 -0.000870 0.003654 0.000000 0.000000 0.000000
# 2 -0.000870 0.010174 -0.005751 0.000000 0.000000 0.000000
# 3 0.003654 -0.005751 0.012766 0.000000 0.000000 0.000000
# 4 0.000000 0.000000 0.000000 -0.239891 0.000000 0.000000
# 5 0.000000 0.000000 0.000000 0.000000 -0.024947 0.000000
# 6 0.000000 0.000000 0.000000 0.000000 0.000000 0.024229
#
#
# Mechanical properties :
#
#
# Convention : Reuss Voigt Hill
#
# Bulk Modulus (GPa) = 18.92554 40.55621 29.74088
# Shear Modulus (GPa) = -31.58741 14.16458 -8.71142
#
# Velocity S-wave (km/s) = -3.77643 2.52887 -1.98321
# Velocity P-wave (km/s) = 3.23582 5.18051 2.86069
#
# Compressibility (1/GPa) = 0.05283864
#
# Stress axis : x y z
#
# Youngs Moduli (GPa) = 27.90779 98.29031 78.33187
#
# Poissons Ratio (x) = 0.08550 -0.28626
# Poissons Ratio (y) = 0.02428 0.45052
# Poissons Ratio (z) = -0.10199 0.56531
#
# Static dielectric constant tensor:
#      x y z
#    x 1.917930 0.000000 0.000000 
#    y 0.000000 1.842280 0.000000 
#    z 0.000000 0.000000 1.797620 
# 
# From -- ./inp_files/8415.got.cif
#   From: 2010.05.17/outbox.cif.g08.bks.cpg/sg53_5_cif.got.tgz:8415.got - 2010.06.03 12:45:16.
