data_PCOD9418645
_publ_section_title
;
Structure prediction by ZEFSAII (Michael W. Deem and Ramdas Pophale) SiO2 
 PCOD9418645
Probable space group: P M N A
;
_chemical_formula_sum "Si O2"
_cell_formula_units_Z 48
_cell_length_a 8.723654
_cell_length_b 31.766761
_cell_length_c 9.613610
_cell_angle_alpha 90.000000
_cell_angle_beta 90.000000
_cell_angle_gamma 90.000000
_cell_volume 2664.145058
_symmetry_space_group_name_H-M "P M N A"
_symmetry_group_IT_number 53
_symmetry_cell_setting 'orthorhombic'
loop_
_space_group_symop_operation_xyz
x,y,z
1/2-x,-y,1/2+z
x,-y,-z
1/2-x,y,1/2-z
-x,-y,-z
1/2+x,y,1/2-z
-x,y,z
1/2+x,-y,1/2+z
loop_
_atom_site_type_symbol
_atom_site_label
_atom_site_fract_x
_atom_site_fract_y
_atom_site_fract_z
Si Si1 0.182718 0.782408 0.094202
Si Si2 0.683787 0.459981 0.595158
Si Si3 0.315141 0.038620 0.905424
Si Si4 0.683910 0.868621 0.093058
Si Si5 0.683476 0.710020 0.903148
Si Si6 0.683314 0.387763 0.096290
O O1 0.250000 0.779582 0.250000
O O2 0.244001 0.826475 0.029834
O O3 0.000000 0.783473 0.100543
O O4 0.241550 0.742717 0.008178
O O5 0.727670 0.500000 0.500000
O O6 0.750000 0.463791 0.750000
O O7 0.500000 0.458304 0.602771
O O8 0.746088 0.418809 0.516874
O O9 0.250000 0.035140 0.750000
O O10 0.500000 0.036959 0.896496
O O11 0.276436 0.085126 0.965256
O O12 0.261547 0.000000 0.000000
O O13 0.750000 0.869894 0.250000
O O14 0.500000 0.864266 0.096987
O O15 0.750000 0.717934 0.750000
O O16 0.500000 0.715003 0.902981
O O17 0.718311 0.661131 0.936880
O O18 0.750000 0.396947 0.250000
O O19 0.500000 0.392740 0.100663
#
# Coordination Sequence:
#
# PCOD9418645 Si02
#       6
#     8   8   8   8   8   8
#     4  11  21  34  54  79 106 138 178 222 266 315
#     4  11  24  40  60  86 116 150 187 228 273 321
#     4   9  18  32  50  73 100 131 168 211 259 311
#     4   9  16  29  49  71  99 133 170 214 261 311
#     4  10  21  38  58  82 111 144 180 219 269 323
#     4  10  21  38  61  85 112 146 183 224 269 321
#
# _framework density 18.017035
#
# number of rings (size 3 to 8) (size 9 to 14) (size 15 to 20)
#    0.000    2.000    0.000    5.000    0.000    6.333 
#    0.000    0.833    0.000    2.000    0.000    0.000 
#    0.000    0.000    0.000    0.000    0.000    0.000 
#
# Total GULP energy -267887.490077 kJ/mol
# GULP energy per Si atom -5580.989377 kJ/mol
# Density = 1.797603 g / cm^3
# Si number density = 18.017035 Si / 1000 Ang^3
#
#
#
# Elastic Constant Matrix: (Units=GPa)
#
#
# Indices 1 2 3 4 5 6 
#
# 1 85.6764 71.5836 47.7461 0.0000 0.0000 0.0000
# 2 71.5836 159.7224 99.6791 0.0000 0.0000 0.0000
# 3 47.7461 99.6791 100.0483 0.0000 0.0000 0.0000
# 4 0.0000 0.0000 0.0000 44.0364 0.0000 0.0000
# 5 0.0000 0.0000 0.0000 0.0000 30.2357 0.0000
# 6 0.0000 0.0000 0.0000 0.0000 0.0000 30.5222
#
#
#
# Elastic Compliance Matrix: (Units=1/GPa)
#
#
# Indices 1 2 3 4 5 6 
#
# 1 0.018746 -0.007452 -0.001522 0.000000 0.000000 0.000000
# 2 -0.007452 0.019515 -0.015887 0.000000 0.000000 0.000000
# 3 -0.001522 -0.015887 0.026550 0.000000 0.000000 0.000000
# 4 0.000000 0.000000 0.000000 0.022709 0.000000 0.000000
# 5 0.000000 0.000000 0.000000 0.000000 0.033074 0.000000
# 6 0.000000 0.000000 0.000000 0.000000 0.000000 0.032763
#
#
# Mechanical properties :
#
#
# Convention : Reuss Voigt Hill
#
# Bulk Modulus (GPa) = 66.27031 87.05162 76.66096
# Shear Modulus (GPa) = 24.02604 29.38807 26.70706
#
# Velocity S-wave (km/s) = 3.65570 4.04310 3.85427
# Velocity P-wave (km/s) = 7.39464 8.37954 7.90245
#
# Compressibility (1/GPa) = 0.01508971
#
# Stress axis : x y z
#
# Youngs Moduli (GPa) = 53.34495 51.24203 37.66480
#
# Poissons Ratio (x) = 0.38183 0.05733
# Poissons Ratio (y) = 0.39750 0.59838
# Poissons Ratio (z) = 0.08119 0.81409
#
# Static dielectric constant tensor:
#      x y z
#    x 1.601560 0.000000 0.000000 
#    y 0.000000 1.652090 0.000000 
#    z 0.000000 0.000000 1.562620 
# 
# From -- ./inp_files/6694.got.cif
#   From: 2010.05.17/outbox.cif.g08.bks.cpg/sg53_4_cif.got.tgz:6694.got - 2010.06.03 12:45:16.
