data_PCOD9418485
_publ_section_title
;
Structure prediction by ZEFSAII (Michael W. Deem and Ramdas Pophale) SiO2 
 PCOD9418485
Probable space group: P M N A
;
_chemical_formula_sum "Si O2"
_cell_formula_units_Z 40
_cell_length_a 16.558264
_cell_length_b 22.000001
_cell_length_c 4.956658
_cell_angle_alpha 90.000000
_cell_angle_beta 90.000000
_cell_angle_gamma 90.000000
_cell_volume 1805.620420
_symmetry_space_group_name_H-M "P M N A"
_symmetry_group_IT_number 53
_symmetry_cell_setting 'orthorhombic'
loop_
_space_group_symop_operation_xyz
x,y,z
1/2-x,-y,1/2+z
x,-y,-z
1/2-x,y,1/2-z
-x,-y,-z
1/2+x,y,1/2-z
-x,y,z
1/2+x,-y,1/2+z
loop_
_atom_site_type_symbol
_atom_site_label
_atom_site_fract_x
_atom_site_fract_y
_atom_site_fract_z
Si Si1 0.592673 0.674776 0.325969
Si Si2 0.338089 0.128616 0.880642
Si Si3 0.093385 0.756129 0.693068
Si Si4 0.347298 0.538848 0.254134
Si Si5 0.593691 0.934258 0.624402
O O1 0.500000 0.666630 0.417771
O O2 0.592594 0.704036 0.032089
O O3 0.630874 0.608848 0.297006
O O4 0.627924 0.724404 0.537146
O O5 0.250000 0.130319 0.750000
O O6 0.360024 0.188995 0.049428
O O7 0.393730 0.113733 0.620570
O O8 0.352135 0.078727 0.114100
O O9 0.000000 0.776103 0.742129
O O10 0.379070 0.500000 0.500000
O O11 0.250000 0.536816 0.250000
O O12 0.376472 0.500000 0.000000
O O13 0.500000 0.932937 0.711101
O O14 0.611764 0.000000 0.500000
#
# Coordination Sequence:
#
# PCOD9418485 Si02
#       5
#     8   8   8   8   8
#     4  10  21  37  60  88 116 156 208 257 305 362
#     4  12  25  42  66 100 135 170 218 275 336 393
#     4  10  21  39  62  89 125 165 206 254 311 377
#     4  10  21  37  56  82 118 158 198 247 313 379
#     4  11  24  44  70  97 130 176 224 268 326 402
#
# _framework density 22.153047999999998
#
# number of rings (size 3 to 8) (size 9 to 14) (size 15 to 20)
#    0.000    1.400    0.000    5.400    0.000    6.400 
#    0.000    2.000    0.000    0.000    0.000    0.000 
#    0.000    0.000    0.000    0.000    0.000    0.000 
#
# Total GULP energy -223533.482321 kJ/mol
# GULP energy per Si atom -5588.337058 kJ/mol
# Density = 2.210263 g / cm^3
# Si number density = 22.153048 Si / 1000 Ang^3
#
#
#
# Elastic Constant Matrix: (Units=GPa)
#
#
# Indices 1 2 3 4 5 6 
#
# 1 53.1485 26.9176 20.7675 0.0000 0.0000 0.0000
# 2 26.9176 99.1888 22.1861 0.0000 0.0000 0.0000
# 3 20.7675 22.1861 127.1377 0.0000 0.0000 0.0000
# 4 0.0000 0.0000 0.0000 40.5153 0.0000 0.0000
# 5 0.0000 0.0000 0.0000 0.0000 -4.4613 0.0000
# 6 0.0000 0.0000 0.0000 0.0000 0.0000 35.5584
#
#
#
# Elastic Compliance Matrix: (Units=1/GPa)
#
#
# Indices 1 2 3 4 5 6 
#
# 1 0.022694 -0.005546 -0.002739 0.000000 0.000000 0.000000
# 2 -0.005546 0.011847 -0.001161 0.000000 0.000000 0.000000
# 3 -0.002739 -0.001161 0.008516 0.000000 0.000000 0.000000
# 4 0.000000 0.000000 0.000000 0.024682 0.000000 0.000000
# 5 0.000000 0.000000 0.000000 0.000000 -0.224149 0.000000
# 6 0.000000 0.000000 0.000000 0.000000 0.000000 0.028123
#
#
# Mechanical properties :
#
#
# Convention : Reuss Voigt Hill
#
# Bulk Modulus (GPa) = 41.38505 46.57971 43.98238
# Shear Modulus (GPa) = -49.33907 28.29608 -10.52150
#
# Velocity S-wave (km/s) = -4.72443 3.57781 -2.18169
# Velocity P-wave (km/s) = 3.32240 6.17573 3.68112
#
# Compressibility (1/GPa) = 0.02416332
#
# Stress axis : x y z
#
# Youngs Moduli (GPa) = 44.06373 84.41222 117.43167
#
# Poissons Ratio (x) = 0.46816 0.32167
# Poissons Ratio (y) = 0.24438 0.13638
# Poissons Ratio (z) = 0.12070 0.09803
#
# Static dielectric constant tensor:
#      x y z
#    x 1.828830 0.000000 0.000000 
#    y 0.000000 1.812370 0.000000 
#    z 0.000000 0.000000 1.793250 
# 
# From -- ./inp_files/2186.got.cif
#   From: 2010.05.17/outbox.cif.g08.bks.cpg/sg53_2_cif.got.tgz:2186.got - 2010.06.03 12:45:16.
