data_PCOD9418856
_publ_section_title
;
Structure prediction by ZEFSAII (Michael W. Deem and Ramdas Pophale) SiO2 
 PCOD9418856
Probable space group: P M N A
;
_chemical_formula_sum "Si O2"
_cell_formula_units_Z 28
_cell_length_a 21.386046
_cell_length_b 13.022408
_cell_length_c 4.985544
_cell_angle_alpha 90.000000
_cell_angle_beta 90.000000
_cell_angle_gamma 90.000000
_cell_volume 1388.463118
_symmetry_space_group_name_H-M "P M N A"
_symmetry_group_IT_number 53
_symmetry_cell_setting 'orthorhombic'
loop_
_space_group_symop_operation_xyz
x,y,z
1/2-x,-y,1/2+z
x,-y,-z
1/2-x,y,1/2-z
-x,-y,-z
1/2+x,y,1/2-z
-x,y,z
1/2+x,-y,1/2+z
loop_
_atom_site_type_symbol
_atom_site_label
_atom_site_fract_x
_atom_site_fract_y
_atom_site_fract_z
Si Si1 0.928418 0.928902 0.258959
Si Si2 0.500000 0.424277 0.751309
Si Si3 0.123159 0.707102 0.148875
Si Si4 0.181718 0.389950 0.378605
O O1 0.891664 0.827070 0.174779
O O2 0.000000 0.899014 0.336754
O O3 0.902954 0.000000 0.500000
O O4 0.931535 0.000000 0.000000
O O5 0.500000 0.500000 0.500000
O O6 0.438942 0.352982 0.743398
O O7 0.500000 0.500000 0.000000
O O8 0.177315 0.681754 0.362034
O O9 0.140561 0.660980 0.857864
O O10 0.161030 0.500000 0.500000
O O11 0.250000 0.403889 0.250000
#
# Coordination Sequence:
#
# PCOD9418856 Si02
#       4
#     8   4   8   8
#     4  10  21  39  64  92 125 162 208 256 313 387
#     4  12  24  36  56  92 130 158 188 248 325 378
#     4  12  23  41  64  93 127 163 207 263 318 375
#     4  12  25  42  65  89 125 172 221 255 299 375
#
# _framework density 20.166181999999999
#
# number of rings (size 3 to 8) (size 9 to 14) (size 15 to 20)
#    0.000    0.571    1.429    9.429    0.000    0.000 
#    0.000    0.000    0.000   17.143    0.000    0.000 
#    0.000    0.000    0.000    0.000    0.000    0.000 
#
# Total GULP energy -156485.481127 kJ/mol
# GULP energy per Si atom -5588.767183 kJ/mol
# Density = 2.012028 g / cm^3
# Si number density = 20.166182 Si / 1000 Ang^3
#
#
#
# Elastic Constant Matrix: (Units=GPa)
#
#
# Indices 1 2 3 4 5 6 
#
# 1 61.9061 45.7279 28.7119 0.0000 0.0000 0.0000
# 2 45.7279 180.8515 72.6668 0.0000 0.0000 0.0000
# 3 28.7119 72.6668 156.9322 0.0000 0.0000 0.0000
# 4 0.0000 0.0000 0.0000 31.7125 0.0000 0.0000
# 5 0.0000 0.0000 0.0000 0.0000 60.2465 0.0000
# 6 0.0000 0.0000 0.0000 0.0000 0.0000 32.7460
#
#
#
# Elastic Compliance Matrix: (Units=1/GPa)
#
#
# Indices 1 2 3 4 5 6 
#
# 1 0.020199 -0.004450 -0.001635 0.000000 0.000000 0.000000
# 2 -0.004450 0.007774 -0.002785 0.000000 0.000000 0.000000
# 3 -0.001635 -0.002785 0.007961 0.000000 0.000000 0.000000
# 4 0.000000 0.000000 0.000000 0.031533 0.000000 0.000000
# 5 0.000000 0.000000 0.000000 0.000000 0.016598 0.000000
# 6 0.000000 0.000000 0.000000 0.000000 0.000000 0.030538
#
#
# Mechanical properties :
#
#
# Convention : Reuss Voigt Hill
#
# Bulk Modulus (GPa) = 54.96711 77.10032 66.03371
# Shear Modulus (GPa) = 36.12468 41.77987 38.95228
#
# Velocity S-wave (km/s) = 4.23703 4.55662 4.39972
# Velocity P-wave (km/s) = 7.15910 8.12399 7.65676
#
# Compressibility (1/GPa) = 0.01819270
#
# Stress axis : x y z
#
# Youngs Moduli (GPa) = 49.50714 128.63618 125.61140
#
# Poissons Ratio (x) = 0.57248 0.20535
# Poissons Ratio (y) = 0.22033 0.34988
# Poissons Ratio (z) = 0.08094 0.35831
#
# Static dielectric constant tensor:
#      x y z
#    x 1.782860 0.000000 0.000000 
#    y 0.000000 1.647560 0.000000 
#    z 0.000000 0.000000 1.700930 
# 
# From -- ./inp_files/2549.got.cif
#   From: 2010.05.17/outbox.cif.g08.bks.cpg/sg53_2_cif.got.tgz:2549.got - 2010.06.03 12:45:16.
