data_PCOD9418211
_publ_section_title
;
Structure prediction by ZEFSAII (Michael W. Deem and Ramdas Pophale) SiO2 
 PCOD9418211
Probable space group: P M N A
;
_chemical_formula_sum "Si O2"
_cell_formula_units_Z 48
_cell_length_a 14.723351
_cell_length_b 18.671906
_cell_length_c 7.468624
_cell_angle_alpha 90.000000
_cell_angle_beta 90.000000
_cell_angle_gamma 90.000000
_cell_volume 2053.222023
_symmetry_space_group_name_H-M "P M N A"
_symmetry_group_IT_number 53
_symmetry_cell_setting 'orthorhombic'
loop_
_space_group_symop_operation_xyz
x,y,z
1/2-x,-y,1/2+z
x,-y,-z
1/2-x,y,1/2-z
-x,-y,-z
1/2+x,y,1/2-z
-x,y,z
1/2+x,-y,1/2+z
loop_
_atom_site_type_symbol
_atom_site_label
_atom_site_fract_x
_atom_site_fract_y
_atom_site_fract_z
Si Si1 0.858131 0.573283 0.783978
Si Si2 0.245128 0.192301 0.532100
Si Si3 0.398413 0.078343 0.956541
Si Si4 0.357186 0.587851 0.296823
Si Si5 0.098618 0.307168 0.493432
Si Si6 0.103108 0.082472 0.971500
O O1 0.750000 0.572656 0.750000
O O2 0.889791 0.492076 0.745838
O O3 0.900205 0.631450 0.655067
O O4 0.872599 0.592686 0.991362
O O5 0.250000 0.197413 0.750000
O O6 0.169923 0.135544 0.471567
O O7 0.194339 0.264781 0.472698
O O8 0.337478 0.151900 0.472061
O O9 0.500000 0.083730 0.028244
O O10 0.401050 0.088084 0.743528
O O11 0.363622 0.000000 0.000000
O O12 0.250000 0.589313 0.250000
O O13 0.398089 0.652323 0.183950
O O14 0.000000 0.267695 0.484042
O O15 0.000000 0.085159 0.042836
O O16 0.137354 0.000000 0.000000
#
# Coordination Sequence:
#
# PCOD9418211 Si02
#       6
#     8   8   8   8   8   8
#     4  10  21  39  69  98 129 165 231 290 335 395
#     4  10  21  37  59  84 126 174 216 261 333 404
#     4   9  17  32  57  85 115 155 207 263 316 385
#     4  10  20  40  69  99 125 173 224 286 345 392
#     4  12  25  40  63  96 138 184 227 271 332 407
#     4   9  18  35  62  92 120 156 211 275 334 393
#
# _framework density 23.377890000000001
#
# number of rings (size 3 to 8) (size 9 to 14) (size 15 to 20)
#    0.000    2.000    1.667    2.000    0.000    2.667 
#    0.000    3.333    0.000    2.000    0.000    0.000 
#    0.000    0.000    0.000    0.000    0.000    0.000 
#
# Total GULP energy -267958.001628 kJ/mol
# GULP energy per Si atom -5582.458367 kJ/mol
# Density = 2.332468 g / cm^3
# Si number density = 23.377890 Si / 1000 Ang^3
#
#
#
# Elastic Constant Matrix: (Units=GPa)
#
#
# Indices 1 2 3 4 5 6 
#
# 1 114.7704 43.4643 4.2838 0.0000 0.0000 0.0000
# 2 43.4643 102.5043 15.2191 0.0000 0.0000 0.0000
# 3 4.2838 15.2191 64.0243 0.0000 0.0000 0.0000
# 4 0.0000 0.0000 0.0000 18.1616 0.0000 0.0000
# 5 0.0000 0.0000 0.0000 0.0000 8.2891 0.0000
# 6 0.0000 0.0000 0.0000 0.0000 0.0000 -187.6153
#
#
#
# Elastic Compliance Matrix: (Units=1/GPa)
#
#
# Indices 1 2 3 4 5 6 
#
# 1 0.010388 -0.004459 0.000365 0.000000 0.000000 0.000000
# 2 -0.004459 0.012027 -0.002560 0.000000 0.000000 0.000000
# 3 0.000365 -0.002560 0.016203 0.000000 0.000000 0.000000
# 4 0.000000 0.000000 0.000000 0.055061 0.000000 0.000000
# 5 0.000000 0.000000 0.000000 0.000000 0.120641 0.000000
# 6 0.000000 0.000000 0.000000 0.000000 0.000000 -0.005330
#
#
# Mechanical properties :
#
#
# Convention : Reuss Voigt Hill
#
# Bulk Modulus (GPa) = 39.51191 45.24814 42.38002
# Shear Modulus (GPa) = 21.66988 -17.67747 1.99621
#
# Velocity S-wave (km/s) = 3.04787 -2.75282 0.92506
# Velocity P-wave (km/s) = 5.41517 3.04845 4.39415
#
# Compressibility (1/GPa) = 0.02530883
#
# Stress axis : x y z
#
# Youngs Moduli (GPa) = 96.26429 83.14932 61.71581
#
# Poissons Ratio (x) = 0.37076 -0.02252
# Poissons Ratio (y) = 0.42924 0.15802
# Poissons Ratio (z) = -0.03512 0.21290
#
# Static dielectric constant tensor:
#      x y z
#    x 1.902800 0.000000 0.000000 
#    y 0.000000 1.800000 0.000000 
#    z 0.000000 0.000000 1.858690 
# 
# From -- ./inp_files/8669.got.cif
#   From: 2010.05.17/outbox.cif.g08.bks.cpg/sg53_5_cif.got.tgz:8669.got - 2010.06.03 12:45:16.
