data_PCOD9418705
_publ_section_title
;
Structure prediction by ZEFSAII (Michael W. Deem and Ramdas Pophale) SiO2 
 PCOD9418705
Probable space group: P M N A
;
_chemical_formula_sum "Si O2"
_cell_formula_units_Z 48
_cell_length_a 8.779370
_cell_length_b 30.871055
_cell_length_c 9.337353
_cell_angle_alpha 90.000000
_cell_angle_beta 90.000000
_cell_angle_gamma 90.000000
_cell_volume 2530.687976
_symmetry_space_group_name_H-M "P M N A"
_symmetry_group_IT_number 53
_symmetry_cell_setting 'orthorhombic'
loop_
_space_group_symop_operation_xyz
x,y,z
1/2-x,-y,1/2+z
x,-y,-z
1/2-x,y,1/2-z
-x,-y,-z
1/2+x,y,1/2-z
-x,y,z
1/2+x,-y,1/2+z
loop_
_atom_site_type_symbol
_atom_site_label
_atom_site_fract_x
_atom_site_fract_y
_atom_site_fract_z
Si Si1 0.681969 0.121692 0.591936
Si Si2 0.316348 0.458089 0.408674
Si Si3 0.681675 0.701326 0.906261
Si Si4 0.182105 0.802862 0.593190
Si Si5 0.182717 0.374046 0.907459
Si Si6 0.681432 0.956534 0.908148
O O1 0.750000 0.115843 0.750000
O O2 0.500000 0.121382 0.598063
O O3 0.741872 0.166279 0.523121
O O4 0.741342 0.083330 0.490084
O O5 0.267720 0.500000 0.500000
O O6 0.250000 0.459091 0.250000
O O7 0.500000 0.458814 0.399491
O O8 0.271706 0.414429 0.492080
O O9 0.750000 0.691087 0.750000
O O10 0.500000 0.695387 0.902967
O O11 0.713072 0.752075 0.935201
O O12 0.755158 0.669785 0.021803
O O13 0.250000 0.813170 0.750000
O O14 0.000000 0.809320 0.595160
O O15 0.250000 0.379972 0.750000
O O16 0.000000 0.372724 0.900264
O O17 0.750000 0.961166 0.750000
O O18 0.500000 0.949146 0.898622
O O19 0.707380 0.000000 0.000000
#
# Coordination Sequence:
#
# PCOD9418705 Si02
#       6
#     8   8   8   8   8   8
#     4  12  25  41  62  88 121 158 198 245 295 349
#     4  10  22  39  59  85 115 149 190 235 286 343
#     4  10  21  38  61  87 117 153 194 241 291 347
#     4  10  21  39  62  88 118 154 196 241 292 348
#     4  11  23  38  58  84 116 153 194 240 290 346
#     4  11  24  42  65  92 123 159 199 243 292 347
#
# _framework density 18.967175000000001
#
# number of rings (size 3 to 8) (size 9 to 14) (size 15 to 20)
#    0.000    1.333    0.000    5.500    0.000    8.333 
#    0.000    0.000    0.000    0.000    0.000    0.000 
#    0.000    0.000    0.000    0.000    0.000    0.000 
#
# Total GULP energy -268531.171890 kJ/mol
# GULP energy per Si atom -5594.399414 kJ/mol
# Density = 1.892401 g / cm^3
# Si number density = 18.967175 Si / 1000 Ang^3
#
#
#
# Elastic Constant Matrix: (Units=GPa)
#
#
# Indices 1 2 3 4 5 6 
#
# 1 97.8783 66.3685 77.0234 0.0000 0.0000 0.0000
# 2 66.3685 93.0954 87.5560 0.0000 0.0000 0.0000
# 3 77.0234 87.5560 188.3720 0.0000 0.0000 0.0000
# 4 0.0000 0.0000 0.0000 32.3458 0.0000 0.0000
# 5 0.0000 0.0000 0.0000 0.0000 41.8365 0.0000
# 6 0.0000 0.0000 0.0000 0.0000 0.0000 36.8001
#
#
#
# Elastic Compliance Matrix: (Units=1/GPa)
#
#
# Indices 1 2 3 4 5 6 
#
# 1 0.020596 -0.012015 -0.002837 0.000000 0.000000 0.000000
# 2 -0.012015 0.026094 -0.007215 0.000000 0.000000 0.000000
# 3 -0.002837 -0.007215 0.009822 0.000000 0.000000 0.000000
# 4 0.000000 0.000000 0.000000 0.030916 0.000000 0.000000
# 5 0.000000 0.000000 0.000000 0.000000 0.023903 0.000000
# 6 0.000000 0.000000 0.000000 0.000000 0.000000 0.027174
#
#
# Mechanical properties :
#
#
# Convention : Reuss Voigt Hill
#
# Bulk Modulus (GPa) = 80.79430 93.47129 87.13280
# Shear Modulus (GPa) = 26.77150 32.08969 29.43059
#
# Velocity S-wave (km/s) = 3.76102 4.11768 3.94338
# Velocity P-wave (km/s) = 7.84537 8.48496 8.17142
#
# Compressibility (1/GPa) = 0.01237711
#
# Stress axis : x y z
#
# Youngs Moduli (GPa) = 48.55205 38.32358 101.80782
#
# Poissons Ratio (x) = 0.46047 0.28882
# Poissons Ratio (y) = 0.58336 0.73459
# Poissons Ratio (z) = 0.13774 0.27652
#
# Static dielectric constant tensor:
#      x y z
#    x 1.633950 0.000000 0.000000 
#    y 0.000000 1.647730 0.000000 
#    z 0.000000 0.000000 1.610770 
# 
# From -- ./inp_files/6656.got.cif
#   From: 2010.05.17/outbox.cif.g08.bks.cpg/sg53_4_cif.got.tgz:6656.got - 2010.06.03 12:45:16.
