data_PCOD9418601
_publ_section_title
;
Structure prediction by ZEFSAII (Michael W. Deem and Ramdas Pophale) SiO2 
 PCOD9418601
Probable space group: P M N A
;
_chemical_formula_sum "Si O2"
_cell_formula_units_Z 64
_cell_length_a 23.955697
_cell_length_b 8.891251
_cell_length_c 14.250221
_cell_angle_alpha 90.000000
_cell_angle_beta 90.000000
_cell_angle_gamma 90.000000
_cell_volume 3035.241710
_symmetry_space_group_name_H-M "P M N A"
_symmetry_group_IT_number 53
_symmetry_cell_setting 'orthorhombic'
loop_
_space_group_symop_operation_xyz
x,y,z
1/2-x,-y,1/2+z
x,-y,-z
1/2-x,y,1/2-z
-x,-y,-z
1/2+x,y,1/2-z
-x,y,z
1/2+x,-y,1/2+z
loop_
_atom_site_type_symbol
_atom_site_label
_atom_site_fract_x
_atom_site_fract_y
_atom_site_fract_z
Si Si1 0.690085 0.957727 0.720466
Si Si2 0.334017 0.342122 0.384403
Si Si3 0.631698 0.982452 0.902165
Si Si4 0.881195 0.323321 0.646246
Si Si5 0.564810 0.297778 0.052352
Si Si6 0.565035 0.446144 0.255909
Si Si7 0.765236 0.421160 0.596559
Si Si8 0.312412 0.844612 0.443606
O O1 0.750000 0.018698 0.750000
O O2 0.693675 0.803832 0.662878
O O3 0.662636 0.904850 0.817123
O O4 0.663456 0.087255 0.653933
O O5 0.391047 0.386488 0.332159
O O6 0.287990 0.474920 0.376708
O O7 0.344759 0.276925 0.490280
O O8 0.620772 0.144121 0.858175
O O9 0.580731 0.876839 0.932311
O O10 0.664649 0.000000 0.000000
O O11 0.902863 0.353544 0.539872
O O12 0.921119 0.382686 0.727773
O O13 0.820288 0.399708 0.659003
O O14 0.500000 0.317773 0.031899
O O15 0.576224 0.370665 0.153665
O O16 0.500000 0.422900 0.280126
O O17 0.784142 0.500000 0.500000
O O18 0.742440 0.253153 0.578771
O O19 0.302498 0.000000 0.500000
#
# Coordination Sequence:
#
# PCOD9418601 Si02
#       8
#     8   8   8   8   8   8   8   8
#     4  11  22  37  61  91 125 168 211 260 323 390
#     4  10  23  40  63  90 127 169 215 267 320 386
#     4  10  23  39  59  90 129 168 210 261 318 392
#     4  11  23  35  59  92 132 165 211 262 330 390
#     4  10  21  40  63  87 123 172 223 270 318 380
#     4  11  23  40  62  88 123 168 223 271 321 383
#     4  10  21  37  60  91 127 164 201 259 323 397
#     4   9  21  41  64  91 128 165 210 257 320 383
#
# _framework density 21.085636999999998
#
# number of rings (size 3 to 8) (size 9 to 14) (size 15 to 20)
#    0.000    1.750    1.250    2.250    3.500   12.750 
#    0.000    0.000    0.000    7.500    0.000    0.000 
#    0.000    0.000    0.000    0.000    0.000    0.000 
#
# Total GULP energy -356632.491367 kJ/mol
# GULP energy per Si atom -5572.382678 kJ/mol
# Density = 2.103764 g / cm^3
# Si number density = 21.085637 Si / 1000 Ang^3
#
#
#
# Elastic Constant Matrix: (Units=GPa)
#
#
# Indices 1 2 3 4 5 6 
#
# 1 102.5544 28.5653 41.4732 0.0000 0.0000 0.0000
# 2 28.5653 94.9398 27.3580 0.0000 0.0000 0.0000
# 3 41.4732 27.3580 95.6049 0.0000 0.0000 0.0000
# 4 0.0000 0.0000 0.0000 25.2987 0.0000 0.0000
# 5 0.0000 0.0000 0.0000 0.0000 -4.5226 0.0000
# 6 0.0000 0.0000 0.0000 0.0000 0.0000 17.1184
#
#
#
# Elastic Compliance Matrix: (Units=1/GPa)
#
#
# Indices 1 2 3 4 5 6 
#
# 1 0.012291 -0.002356 -0.004657 0.000000 0.000000 0.000000
# 2 -0.002356 0.011931 -0.002392 0.000000 0.000000 0.000000
# 3 -0.004657 -0.002392 0.013165 0.000000 0.000000 0.000000
# 4 0.000000 0.000000 0.000000 0.039528 0.000000 0.000000
# 5 0.000000 0.000000 0.000000 0.000000 -0.221112 0.000000
# 6 0.000000 0.000000 0.000000 0.000000 0.000000 0.058417
#
#
# Mechanical properties :
#
#
# Convention : Reuss Voigt Hill
#
# Bulk Modulus (GPa) = 53.83493 54.21025 54.02259
# Shear Modulus (GPa) = -82.26620 20.62573 -30.82024
#
# Velocity S-wave (km/s) = -6.25300 3.13099 -3.82733
# Velocity P-wave (km/s) = 5.15231 6.23187 2.47890
#
# Compressibility (1/GPa) = 0.01857530
#
# Stress axis : x y z
#
# Youngs Moduli (GPa) = 81.36288 83.81409 75.96084
#
# Poissons Ratio (x) = 0.19746 0.35379
# Poissons Ratio (y) = 0.19168 0.18172
# Poissons Ratio (z) = 0.37895 0.20050
#
# Static dielectric constant tensor:
#      x y z
#    x 1.733800 0.000000 0.000000 
#    y 0.000000 1.843470 0.000000 
#    z 0.000000 0.000000 1.843180 
# 
# From -- ./inp_files/24732.got.cif
#   From: 2010.05.17/outbox.cif.g08.bks.cpg/sg53_13_cif.got.tgz:24732.got - 2010.06.03 12:45:16.
