data_PCOD9418358
_publ_section_title
;
Structure prediction by ZEFSAII (Michael W. Deem and Ramdas Pophale) SiO2 
 PCOD9418358
Probable space group: P M N A
;
_chemical_formula_sum "Si O2"
_cell_formula_units_Z 64
_cell_length_a 8.564996
_cell_length_b 15.510487
_cell_length_c 25.442891
_cell_angle_alpha 90.000000
_cell_angle_beta 90.000000
_cell_angle_gamma 90.000000
_cell_volume 3380.018333
_symmetry_space_group_name_H-M "P M N A"
_symmetry_group_IT_number 53
_symmetry_cell_setting 'orthorhombic'
loop_
_space_group_symop_operation_xyz
x,y,z
1/2-x,-y,1/2+z
x,-y,-z
1/2-x,y,1/2-z
-x,-y,-z
1/2+x,y,1/2-z
-x,y,z
1/2+x,-y,1/2+z
loop_
_atom_site_type_symbol
_atom_site_label
_atom_site_fract_x
_atom_site_fract_y
_atom_site_fract_z
Si Si1 0.677047 0.062487 0.048857
Si Si2 0.314775 0.775834 0.114998
Si Si3 0.688323 0.566639 0.692378
Si Si4 0.809487 0.284406 0.113624
Si Si5 0.314687 0.960864 0.354488
Si Si6 0.812827 0.368601 0.807840
Si Si7 0.315882 0.233544 0.497063
Si Si8 0.311430 0.864927 0.694074
O O1 0.500000 0.087689 0.065975
O O2 0.779230 0.140962 0.028138
O O3 0.769529 0.009071 0.091971
O O4 0.657964 0.000000 0.000000
O O5 0.500000 0.776417 0.115894
O O6 0.257917 0.866103 0.140802
O O7 0.249913 0.697322 0.149288
O O8 0.261408 0.764948 0.054330
O O9 0.750000 0.590510 0.750000
O O10 0.500000 0.568984 0.693897
O O11 0.740415 0.634371 0.648526
O O12 0.736094 0.467786 0.681504
O O13 0.759590 0.291379 0.052594
O O14 0.761093 0.197832 0.145945
O O15 0.000000 0.281887 0.112391
O O16 0.500000 0.950456 0.349055
O O17 0.260697 0.035102 0.313608
O O18 0.750000 0.345636 0.750000
O O19 0.000000 0.365462 0.807210
O O20 0.500000 0.246800 0.504790
O O21 0.250000 0.832422 0.750000
O O22 0.500000 0.863790 0.694224
#
# Coordination Sequence:
#
# PCOD9418358 Si02
#       8
#     8   8   8   8   8   8   8   8
#     4  11  21  33  52  80 111 144 190 241 284 330
#     4  12  25  40  58  85 117 150 192 245 291 341
#     4   9  18  35  62  90 117 145 187 237 284 341
#     4   9  18  35  57  85 117 150 189 233 280 340
#     4  11  22  37  56  78 108 150 195 237 282 341
#     4  10  21  40  65  91 114 147 187 234 290 343
#     4  11  21  36  58  82 115 156 195 235 283 341
#     4  10  21  36  53  79 113 150 190 232 283 338
#
# _framework density 18.934809000000001
#
# number of rings (size 3 to 8) (size 9 to 14) (size 15 to 20)
#    0.000    1.625    2.500    3.000    0.000    2.500 
#    0.000    3.125    0.000    3.750    0.000    0.000 
#    0.000    0.000    0.000    0.000    0.000    0.000 
#
# Total GULP energy -356949.099241 kJ/mol
# GULP energy per Si atom -5577.329676 kJ/mol
# Density = 1.889171 g / cm^3
# Si number density = 18.934809 Si / 1000 Ang^3
#
#
#
# Elastic Constant Matrix: (Units=GPa)
#
#
# Indices 1 2 3 4 5 6 
#
# 1 40.1262 21.5792 17.9589 0.0000 0.0000 0.0000
# 2 21.5792 89.9204 51.4211 0.0000 0.0000 0.0000
# 3 17.9589 51.4211 79.2998 0.0000 0.0000 0.0000
# 4 0.0000 0.0000 0.0000 36.0400 0.0000 0.0000
# 5 0.0000 0.0000 0.0000 0.0000 33.8207 0.0000
# 6 0.0000 0.0000 0.0000 0.0000 0.0000 15.2282
#
#
#
# Elastic Compliance Matrix: (Units=1/GPa)
#
#
# Indices 1 2 3 4 5 6 
#
# 1 0.029142 -0.005117 -0.003282 0.000000 0.000000 0.000000
# 2 -0.005117 0.018573 -0.010885 0.000000 0.000000 0.000000
# 3 -0.003282 -0.010885 0.020412 0.000000 0.000000 0.000000
# 4 0.000000 0.000000 0.000000 0.027747 0.000000 0.000000
# 5 0.000000 0.000000 0.000000 0.000000 0.029568 0.000000
# 6 0.000000 0.000000 0.000000 0.000000 0.000000 0.065667
#
#
# Mechanical properties :
#
#
# Convention : Reuss Voigt Hill
#
# Bulk Modulus (GPa) = 33.82943 43.47389 38.65166
# Shear Modulus (GPa) = 20.87424 24.91029 22.89226
#
# Velocity S-wave (km/s) = 3.32388 3.63103 3.48085
# Velocity P-wave (km/s) = 5.71279 6.37093 6.05082
#
# Compressibility (1/GPa) = 0.02956006
#
# Stress axis : x y z
#
# Youngs Moduli (GPa) = 34.31487 53.84019 48.99118
#
# Poissons Ratio (x) = 0.27549 0.16078
# Poissons Ratio (y) = 0.17558 0.53327
# Poissons Ratio (z) = 0.11261 0.58605
#
# Static dielectric constant tensor:
#      x y z
#    x 1.659450 0.000000 0.000000 
#    y 0.000000 1.671460 0.000000 
#    z 0.000000 0.000000 1.671300 
# 
# From -- ./inp_files/34321.got.cif
#   From: 2010.05.17/outbox.cif.g08.bks.cpg/sg53_18_cif.got.tgz:34321.got - 2010.06.03 12:45:16.
