data_PCOD9418735
_publ_section_title
;
Structure prediction by ZEFSAII (Michael W. Deem and Ramdas Pophale) SiO2 
 PCOD9418735
Probable space group: P M N A
;
_chemical_formula_sum "Si O2"
_cell_formula_units_Z 24
_cell_length_a 16.094174
_cell_length_b 13.439627
_cell_length_c 4.965226
_cell_angle_alpha 90.000000
_cell_angle_beta 90.000000
_cell_angle_gamma 90.000000
_cell_volume 1073.976872
_symmetry_space_group_name_H-M "P M N A"
_symmetry_group_IT_number 53
_symmetry_cell_setting 'orthorhombic'
loop_
_space_group_symop_operation_xyz
x,y,z
1/2-x,-y,1/2+z
x,-y,-z
1/2-x,y,1/2-z
-x,-y,-z
1/2+x,y,1/2-z
-x,y,z
1/2+x,-y,1/2+z
loop_
_atom_site_type_symbol
_atom_site_label
_atom_site_fract_x
_atom_site_fract_y
_atom_site_fract_z
Si Si1 0.404776 0.930978 0.258570
Si Si2 0.657734 0.284933 0.850816
Si Si3 0.405546 0.601770 0.627261
O O1 0.500000 0.902490 0.338463
O O2 0.355790 0.833352 0.163551
O O3 0.369888 0.000000 0.500000
O O4 0.409788 0.000000 0.000000
O O5 0.750000 0.308092 0.750000
O O6 0.595347 0.326144 0.627078
O O7 0.640372 0.341552 0.130448
O O8 0.368998 0.500000 0.500000
O O9 0.500000 0.580154 0.717478
#
# Coordination Sequence:
#
# PCOD9418735 Si02
#       3
#     8   8   8
#     4  10  21  38  62  91 126 172 221 266 317 387
#     4  12  25  41  65  99 136 170 212 274 341 396
#     4  11  24  44  69  94 126 173 225 272 323 394
#
# _framework density 22.346848000000001
#
# number of rings (size 3 to 8) (size 9 to 14) (size 15 to 20)
#    0.000    1.000    0.000    7.000    0.000    9.333 
#    0.000    0.000    0.000    0.000    0.000    0.000 
#    0.000    0.000    0.000    0.000    0.000    0.000 
#
# Total GULP energy -134071.947587 kJ/mol
# GULP energy per Si atom -5586.331149 kJ/mol
# Density = 2.229599 g / cm^3
# Si number density = 22.346848 Si / 1000 Ang^3
#
#
#
# Elastic Constant Matrix: (Units=GPa)
#
#
# Indices 1 2 3 4 5 6 
#
# 1 66.4737 35.6020 19.1734 0.0000 0.0000 0.0000
# 2 35.6020 169.1391 81.3385 0.0000 0.0000 0.0000
# 3 19.1734 81.3385 162.0827 0.0000 0.0000 0.0000
# 4 0.0000 0.0000 0.0000 21.4737 0.0000 0.0000
# 5 0.0000 0.0000 0.0000 0.0000 -7.6730 0.0000
# 6 0.0000 0.0000 0.0000 0.0000 0.0000-1515.5083
#
#
#
# Elastic Compliance Matrix: (Units=1/GPa)
#
#
# Indices 1 2 3 4 5 6 
#
# 1 0.016965 -0.003435 -0.000283 0.000000 0.000000 0.000000
# 2 -0.003435 0.008488 -0.003853 0.000000 0.000000 0.000000
# 3 -0.000283 -0.003853 0.008137 0.000000 0.000000 0.000000
# 4 0.000000 0.000000 0.000000 0.046569 0.000000 0.000000
# 5 0.000000 0.000000 0.000000 0.000000 -0.130327 0.000000
# 6 0.000000 0.000000 0.000000 0.000000 0.000000 -0.000660
#
#
# Mechanical properties :
#
#
# Convention : Reuss Voigt Hill
#
# Bulk Modulus (GPa) = 54.20804 74.43593 64.32199
# Shear Modulus (GPa) = -169.28039 -282.90274 -226.09157
#
# Velocity S-wave (km/s) = -8.71297 -11.26371 -10.06943
# Velocity P-wave (km/s) = 8.76988 11.65246 10.31239
#
# Compressibility (1/GPa) = 0.01844745
#
# Stress axis : x y z
#
# Youngs Moduli (GPa) = 58.94563 117.80811 122.89578
#
# Poissons Ratio (x) = 0.40464 0.03480
# Poissons Ratio (y) = 0.20246 0.47357
# Poissons Ratio (z) = 0.01669 0.45397
#
# Static dielectric constant tensor:
#      x y z
#    x 1.873910 0.000000 0.000000 
#    y 0.000000 1.787680 0.000000 
#    z 0.000000 0.000000 1.784780 
# 
# From -- ./inp_files/1101.got.cif
#   From: 2010.05.17/outbox.cif.g08.bks.cpg/sg53_1_cif.got.tgz:1101.got - 2010.06.03 12:45:16.
