data_PCOD9418597
_publ_section_title
;
Structure prediction by ZEFSAII (Michael W. Deem and Ramdas Pophale) SiO2 
 PCOD9418597
Probable space group: P M N A
;
_chemical_formula_sum "Si O2"
_cell_formula_units_Z 44
_cell_length_a 13.618187
_cell_length_b 18.708374
_cell_length_c 7.704783
_cell_angle_alpha 90.000000
_cell_angle_beta 90.000000
_cell_angle_gamma 90.000000
_cell_volume 1962.979429
_symmetry_space_group_name_H-M "P M N A"
_symmetry_group_IT_number 53
_symmetry_cell_setting 'orthorhombic'
loop_
_space_group_symop_operation_xyz
x,y,z
1/2-x,-y,1/2+z
x,-y,-z
1/2-x,y,1/2-z
-x,-y,-z
1/2+x,y,1/2-z
-x,y,z
1/2+x,-y,1/2+z
loop_
_atom_site_type_symbol
_atom_site_label
_atom_site_fract_x
_atom_site_fract_y
_atom_site_fract_z
Si Si1 0.194985 0.915696 0.515093
Si Si2 0.380884 0.419559 0.484658
Si Si3 0.382092 0.312595 0.181070
Si Si4 0.750000 0.182718 0.750000
Si Si5 0.889076 0.844417 0.832679
Si Si6 0.117161 0.692748 0.275696
O O1 0.175233 0.871728 0.343230
O O2 0.300964 0.879530 0.558990
O O3 0.117894 0.893176 0.659769
O O4 0.203300 0.000000 0.500000
O O5 0.341912 0.500000 0.500000
O O6 0.500000 0.423582 0.472057
O O7 0.349287 0.373784 0.316025
O O8 0.360308 0.376409 0.660890
O O9 0.500000 0.318915 0.172576
O O10 0.362936 0.235273 0.266995
O O11 0.351042 0.313432 0.978480
O O12 0.828689 0.241413 0.817928
O O13 0.000000 0.845127 0.902665
O O14 0.000000 0.703705 0.273000
#
# Coordination Sequence:
#
# PCOD9418597 Si02
#       6
#     8   8   8   4   8   8
#     4  11  24  40  60  91 124 156 201 256 313 374
#     4   9  18  33  57  89 123 159 201 253 308 359
#     4   9  17  34  59  86 117 157 204 250 300 363
#     4  12  22  38  64  88 122 158 200 258 308 362
#     4  10  21  41  63  85 119 162 206 250 304 367
#     4  10  21  37  60  90 120 160 214 253 297 369
#
# _framework density 22.414905000000001
#
# number of rings (size 3 to 8) (size 9 to 14) (size 15 to 20)
#    0.000    2.000    1.818    2.182    0.000    3.636 
#    0.000    5.455    4.000    0.000    0.000    0.000 
#    0.000    0.000    0.000    0.000    0.000    0.000 
#
# Total GULP energy -245380.847000 kJ/mol
# GULP energy per Si atom -5576.837432 kJ/mol
# Density = 2.236389 g / cm^3
# Si number density = 22.414905 Si / 1000 Ang^3
#
#
#
# Elastic Constant Matrix: (Units=GPa)
#
#
# Indices 1 2 3 4 5 6 
#
# 1 98.8085 20.6594 8.4093 0.0000 0.0000 0.0000
# 2 20.6594 223.0754 65.2062 0.0000 0.0000 0.0000
# 3 8.4093 65.2062 94.8185 0.0000 0.0000 0.0000
# 4 0.0000 0.0000 0.0000 34.1320 0.0000 0.0000
# 5 0.0000 0.0000 0.0000 0.0000 12.5023 0.0000
# 6 0.0000 0.0000 0.0000 0.0000 0.0000 870.5340
#
#
#
# Elastic Compliance Matrix: (Units=1/GPa)
#
#
# Indices 1 2 3 4 5 6 
#
# 1 0.010328 -0.000862 -0.000323 0.000000 0.000000 0.000000
# 2 -0.000862 0.005683 -0.003831 0.000000 0.000000 0.000000
# 3 -0.000323 -0.003831 0.013210 0.000000 0.000000 0.000000
# 4 0.000000 0.000000 0.000000 0.029298 0.000000 0.000000
# 5 0.000000 0.000000 0.000000 0.000000 0.079986 0.000000
# 6 0.000000 0.000000 0.000000 0.000000 0.000000 0.001149
#
#
# Mechanical properties :
#
#
# Convention : Reuss Voigt Hill
#
# Bulk Modulus (GPa) = 52.11703 67.25025 59.68364
# Shear Modulus (GPa) = 32.03437 204.92882 118.48159
#
# Velocity S-wave (km/s) = 3.78452 9.57203 7.27827
# Velocity P-wave (km/s) = 6.51140 12.33826 9.86486
#
# Compressibility (1/GPa) = 0.01918759
#
# Stress axis : x y z
#
# Youngs Moduli (GPa) = 96.82107 175.97659 75.70033
#
# Poissons Ratio (x) = 0.15170 0.02446
# Poissons Ratio (y) = 0.08347 0.29004
# Poissons Ratio (z) = 0.03129 0.67424
#
# Static dielectric constant tensor:
#      x y z
#    x 2.100740 0.000000 0.000000 
#    y 0.000000 1.766430 0.000000 
#    z 0.000000 0.000000 1.919200 
# 
# From -- ./inp_files/8558.got.cif
#   From: 2010.05.17/outbox.cif.g08.bks.cpg/sg53_5_cif.got.tgz:8558.got - 2010.06.03 12:45:16.
