data_PCOD9418412
_publ_section_title
;
Structure prediction by ZEFSAII (Michael W. Deem and Ramdas Pophale) SiO2 
 PCOD9418412
Probable space group: P M N A
;
_chemical_formula_sum "Si O2"
_cell_formula_units_Z 56
_cell_length_a 16.209804
_cell_length_b 22.428114
_cell_length_c 7.834545
_cell_angle_alpha 90.000000
_cell_angle_beta 90.000000
_cell_angle_gamma 90.000000
_cell_volume 2848.290609
_symmetry_space_group_name_H-M "P M N A"
_symmetry_group_IT_number 53
_symmetry_cell_setting 'orthorhombic'
loop_
_space_group_symop_operation_xyz
x,y,z
1/2-x,-y,1/2+z
x,-y,-z
1/2-x,y,1/2-z
-x,-y,-z
1/2+x,y,1/2-z
-x,y,z
1/2+x,-y,1/2+z
loop_
_atom_site_type_symbol
_atom_site_label
_atom_site_fract_x
_atom_site_fract_y
_atom_site_fract_z
Si Si1 0.597770 0.358839 0.008449
Si Si2 0.903660 0.435802 0.818051
Si Si3 0.159280 0.565682 0.812154
Si Si4 0.743604 0.854508 0.934387
Si Si5 0.831309 0.752933 0.328693
Si Si6 0.408904 0.071079 0.986865
Si Si7 0.407248 0.857789 0.369020
O O1 0.500000 0.363899 0.023252
O O2 0.623964 0.402154 0.852542
O O3 0.621359 0.293004 0.947187
O O4 0.634459 0.380894 0.186954
O O5 0.896254 0.506684 0.788393
O O6 0.000000 0.420786 0.851160
O O7 0.851149 0.419950 0.987214
O O8 0.250000 0.547734 0.750000
O O9 0.750000 0.826019 0.750000
O O10 0.708562 0.806129 0.063331
O O11 0.672955 0.904569 0.922611
O O12 0.832352 0.874182 0.005582
O O13 0.750000 0.721899 0.250000
O O14 0.888695 0.789858 0.196792
O O15 0.500000 0.091377 0.052078
O O16 0.403838 0.097769 0.794381
O O17 0.408035 0.000000 0.000000
O O18 0.500000 0.860982 0.439908
#
# Coordination Sequence:
#
# PCOD9418412 Si02
#       7
#     8   8   8   8   8   8   8
#     4  11  23  39  62  85 111 151 194 233 290 354
#     4  10  23  42  60  82 118 151 184 233 290 350
#     4  11  24  36  61  87 117 146 187 235 287 346
#     4  10  21  36  56  84 118 154 195 239 291 343
#     4   9  20  37  59  80 113 148 190 241 289 337
#     4   9  18  34  58  86 116 153 197 241 286 337
#     4   9  18  37  60  82 113 156 197 236 291 344
#
# _framework density 19.660916
#
# number of rings (size 3 to 8) (size 9 to 14) (size 15 to 20)
#    0.000    2.143    0.000    3.857    6.000    4.000 
#    2.571    0.000    0.000    3.000    0.000    0.000 
#    0.000    0.000    0.000    0.000    0.000    0.000 
#
# Total GULP energy -312182.220738 kJ/mol
# GULP energy per Si atom -5574.682513 kJ/mol
# Density = 1.961617 g / cm^3
# Si number density = 19.660916 Si / 1000 Ang^3
#
#
#
# Elastic Constant Matrix: (Units=GPa)
#
#
# Indices 1 2 3 4 5 6 
#
# 1 97.1797 7.5621 24.5214 0.0000 0.0000 0.0000
# 2 7.5621 46.9496 -0.7399 0.0000 0.0000 0.0000
# 3 24.5214 -0.7399 45.6532 0.0000 0.0000 0.0000
# 4 0.0000 0.0000 0.0000 -7.3650 0.0000 0.0000
# 5 0.0000 0.0000 0.0000 0.0000 1.3500 0.0000
# 6 0.0000 0.0000 0.0000 0.0000 0.0000 -31.2334
#
#
#
# Elastic Compliance Matrix: (Units=1/GPa)
#
#
# Indices 1 2 3 4 5 6 
#
# 1 0.012098 -0.002052 -0.006531 0.000000 0.000000 0.000000
# 2 -0.002052 0.021653 0.001453 0.000000 0.000000 0.000000
# 3 -0.006531 0.001453 0.025436 0.000000 0.000000 0.000000
# 4 0.000000 0.000000 0.000000 -0.135777 0.000000 0.000000
# 5 0.000000 0.000000 0.000000 0.000000 0.740732 0.000000
# 6 0.000000 0.000000 0.000000 0.000000 0.000000 -0.032017
#
#
# Mechanical properties :
#
#
# Convention : Reuss Voigt Hill
#
# Bulk Modulus (GPa) = 22.25852 28.05220 25.15536
# Shear Modulus (GPa) = 7.56017 3.11291 5.33654
#
# Velocity S-wave (km/s) = 1.96307 1.25966 1.64930
# Velocity P-wave (km/s) = 4.06004 4.05150 4.05577
#
# Compressibility (1/GPa) = 0.04492661
#
# Stress axis : x y z
#
# Youngs Moduli (GPa) = 82.65884 46.18350 39.31442
#
# Poissons Ratio (x) = 0.09475 0.25678
# Poissons Ratio (y) = 0.16958 -0.05712
# Poissons Ratio (z) = 0.53987 -0.06710
#
# Static dielectric constant tensor:
#      x y z
#    x 1.741910 0.000000 0.000000 
#    y 0.000000 1.665660 0.000000 
#    z 0.000000 0.000000 1.577160 
# 
# From -- ./inp_files/8826.got.cif
#   From: 2010.05.17/outbox.cif.g08.bks.cpg/sg53_5_cif.got.tgz:8826.got - 2010.06.03 12:45:16.
