data_PCOD9418172
_publ_section_title
;
Structure prediction by ZEFSAII (Michael W. Deem and Ramdas Pophale) SiO2 
 PCOD9418172
Probable space group: P M N A
;
_chemical_formula_sum "Si O2"
_cell_formula_units_Z 22
_cell_length_a 13.448243
_cell_length_b 13.724659
_cell_length_c 5.015842
_cell_angle_alpha 90.000000
_cell_angle_beta 90.000000
_cell_angle_gamma 90.000000
_cell_volume 925.786745
_symmetry_space_group_name_H-M "P M N A"
_symmetry_group_IT_number 53
_symmetry_cell_setting 'orthorhombic'
loop_
_space_group_symop_operation_xyz
x,y,z
1/2-x,-y,1/2+z
x,-y,-z
1/2-x,y,1/2-z
-x,-y,-z
1/2+x,y,1/2-z
-x,y,z
1/2+x,-y,1/2+z
loop_
_atom_site_type_symbol
_atom_site_label
_atom_site_fract_x
_atom_site_fract_y
_atom_site_fract_z
Si Si1 0.000000 0.000000 0.000000
Si Si2 0.341600 0.898414 0.877877
Si Si3 0.000000 0.228146 0.667580
Si Si4 0.821599 0.500000 0.000000
Si Si5 0.000000 0.642385 0.835104
O O1 0.084123 0.064584 0.154150
O O2 0.250000 0.841472 0.750000
O O3 0.405142 0.838016 0.091672
O O4 0.303768 0.000000 0.000000
O O5 0.000000 0.266368 0.965144
O O6 0.000000 0.319900 0.467129
O O7 0.750000 0.472972 0.750000
O O8 0.899493 0.417480 0.100283
#
# Coordination Sequence:
#
# PCOD9418172 Si02
#       5
#     2   8   4   4   4
#     4  10  20  40  60  84 120 170 234 276 338 382
#     4  11  24  40  66  92 131 190 237 287 337 401
#     4  11  26  41  69 100 147 177 225 293 347 403
#     4  11  24  47  80 102 136 181 224 273 348 432
#     4  11  26  47  69 108 141 175 223 285 348 419
#
# _framework density 23.763569
#
# number of rings (size 3 to 8) (size 9 to 14) (size 15 to 20)
#    0.000    1.091    1.818    4.364   10.182    7.273 
#    0.000    0.000    0.000    0.000    0.000    0.000 
#    0.000    0.000    0.000    0.000    0.000    0.000 
#
# Total GULP energy -122647.788128 kJ/mol
# GULP energy per Si atom -5574.899460 kJ/mol
# Density = 2.370948 g / cm^3
# Si number density = 23.763569 Si / 1000 Ang^3
#
#
#
# Elastic Constant Matrix: (Units=GPa)
#
#
# Indices 1 2 3 4 5 6 
#
# 1 153.8084 4.6884 14.1870 0.0000 0.0000 0.0000
# 2 4.6884 61.0132 -3.8352 0.0000 0.0000 0.0000
# 3 14.1870 -3.8352 67.5121 0.0000 0.0000 0.0000
# 4 0.0000 0.0000 0.0000 46.8302 0.0000 0.0000
# 5 0.0000 0.0000 0.0000 0.0000 11.6152 0.0000
# 6 0.0000 0.0000 0.0000 0.0000 0.0000 9.5590
#
#
#
# Elastic Compliance Matrix: (Units=1/GPa)
#
#
# Indices 1 2 3 4 5 6 
#
# 1 0.006652 -0.000601 -0.001432 0.000000 0.000000 0.000000
# 2 -0.000601 0.016503 0.001064 0.000000 0.000000 0.000000
# 3 -0.001432 0.001064 0.015174 0.000000 0.000000 0.000000
# 4 0.000000 0.000000 0.000000 0.021354 0.000000 0.000000
# 5 0.000000 0.000000 0.000000 0.000000 0.086094 0.000000
# 6 0.000000 0.000000 0.000000 0.000000 0.000000 0.104613
#
#
# Mechanical properties :
#
#
# Convention : Reuss Voigt Hill
#
# Bulk Modulus (GPa) = 27.48023 34.71267 31.09645
# Shear Modulus (GPa) = 18.90658 31.42045 25.16352
#
# Velocity S-wave (km/s) = 2.82372 3.64017 3.25762
# Velocity P-wave (km/s) = 4.71384 5.68392 5.22146
#
# Compressibility (1/GPa) = 0.03638980
#
# Stress axis : x y z
#
# Youngs Moduli (GPa) = 150.33061 60.59518 65.90430
#
# Poissons Ratio (x) = 0.03643 0.09438
# Poissons Ratio (y) = 0.09037 -0.07011
# Poissons Ratio (z) = 0.21527 -0.06446
#
# Static dielectric constant tensor:
#      x y z
#    x 1.861760 0.000000 0.000000 
#    y 0.000000 1.949380 0.000000 
#    z 0.000000 0.000000 1.961260 
# 
# From -- ./inp_files/466.got.cif
#   From: 2010.05.17/outbox.cif.g08.bks.cpg/sg53_1_cif.got.tgz:466.got - 2010.06.03 12:45:16.
