data_PCOD9418492
_publ_section_title
;
Structure prediction by ZEFSAII (Michael W. Deem and Ramdas Pophale) SiO2 
 PCOD9418492
Probable space group: P M N A
;
_chemical_formula_sum "Si O2"
_cell_formula_units_Z 48
_cell_length_a 15.434549
_cell_length_b 16.652227
_cell_length_c 9.049395
_cell_angle_alpha 90.000000
_cell_angle_beta 90.000000
_cell_angle_gamma 90.000000
_cell_volume 2325.872006
_symmetry_space_group_name_H-M "P M N A"
_symmetry_group_IT_number 53
_symmetry_cell_setting 'orthorhombic'
loop_
_space_group_symop_operation_xyz
x,y,z
1/2-x,-y,1/2+z
x,-y,-z
1/2-x,y,1/2-z
-x,-y,-z
1/2+x,y,1/2-z
-x,y,z
1/2+x,-y,1/2+z
loop_
_atom_site_type_symbol
_atom_site_label
_atom_site_fract_x
_atom_site_fract_y
_atom_site_fract_z
Si Si1 0.100904 0.912323 0.644679
Si Si2 0.398647 0.407603 0.354287
Si Si3 0.654204 0.581336 0.317333
Si Si4 0.346220 0.918021 0.188459
Si Si5 0.848926 0.744044 0.309571
Si Si6 0.604505 0.737882 0.851904
O O1 0.152408 0.915825 0.490370
O O2 0.121992 0.826426 0.716954
O O3 0.000000 0.909501 0.600744
O O4 0.113805 0.995720 0.729969
O O5 0.500000 0.394424 0.391580
O O6 0.345526 0.408845 0.505987
O O7 0.390775 0.496328 0.284983
O O8 0.368431 0.336446 0.248336
O O9 0.750000 0.575837 0.250000
O O10 0.611339 0.662519 0.254990
O O11 0.250000 0.919041 0.250000
O O12 0.387163 0.831765 0.231894
O O13 0.750000 0.745496 0.250000
O O14 0.853495 0.736313 0.486390
O O15 0.500000 0.731286 0.871390
#
# Coordination Sequence:
#
# PCOD9418492 Si02
#       6
#     8   8   8   8   8   8
#     4   9  17  33  54  77 104 140 181 222 266 320
#     4  10  22  41  60  81 110 147 185 227 275 326
#     4  10  21  37  57  82 111 145 181 222 274 329
#     4   9  16  29  49  76 107 139 176 220 268 319
#     4   9  19  34  52  79 113 144 179 223 273 325
#     4   9  19  35  58  83 108 142 187 228 270 323
#
# _framework density 20.637422000000001
#
# number of rings (size 3 to 8) (size 9 to 14) (size 15 to 20)
#    0.000    2.667    0.000    2.000    0.000    8.000 
#    0.000   15.833    0.000    0.000    0.000   12.833 
#    0.000    0.000    0.000    0.000    0.000    0.000 
#
# Total GULP energy -267352.519039 kJ/mol
# GULP energy per Si atom -5569.844147 kJ/mol
# Density = 2.059045 g / cm^3
# Si number density = 20.637422 Si / 1000 Ang^3
#
#
#
# Elastic Constant Matrix: (Units=GPa)
#
#
# Indices 1 2 3 4 5 6 
#
# 1 61.0531 17.1021 33.7043 0.0000 0.0000 0.0000
# 2 17.1021 252.1146 69.2480 0.0000 0.0000 0.0000
# 3 33.7043 69.2480 54.0224 0.0000 0.0000 0.0000
# 4 0.0000 0.0000 0.0000 10.7492 0.0000 0.0000
# 5 0.0000 0.0000 0.0000 0.0000 29.9565 0.0000
# 6 0.0000 0.0000 0.0000 0.0000 0.0000 26.7955
#
#
#
# Elastic Compliance Matrix: (Units=1/GPa)
#
#
# Indices 1 2 3 4 5 6 
#
# 1 0.027891 0.004457 -0.023113 0.000000 0.000000 0.000000
# 2 0.004457 0.006834 -0.011540 0.000000 0.000000 0.000000
# 3 -0.023113 -0.011540 0.047724 0.000000 0.000000 0.000000
# 4 0.000000 0.000000 0.000000 0.093030 0.000000 0.000000
# 5 0.000000 0.000000 0.000000 0.000000 0.033382 0.000000
# 6 0.000000 0.000000 0.000000 0.000000 0.000000 0.037320
#
#
# Mechanical properties :
#
#
# Convention : Reuss Voigt Hill
#
# Bulk Modulus (GPa) = 45.34298 67.47765 56.41031
# Shear Modulus (GPa) = 15.92731 29.97596 22.95163
#
# Velocity S-wave (km/s) = 2.78109 3.81531 3.33849
# Velocity P-wave (km/s) = 5.68608 7.22333 6.50031
#
# Compressibility (1/GPa) = 0.02205413
#
# Stress axis : x y z
#
# Youngs Moduli (GPa) = 35.85438 146.32848 20.95371
#
# Poissons Ratio (x) = -0.65213 0.48431
# Poissons Ratio (y) = -0.15979 0.24182
# Poissons Ratio (z) = 0.82872 1.68870
#
# Static dielectric constant tensor:
#      x y z
#    x 1.803040 0.000000 0.000000 
#    y 0.000000 1.849810 0.000000 
#    z 0.000000 0.000000 1.695840 
# 
# From -- ./inp_files/8644.got.cif
#   From: 2010.05.17/outbox.cif.g08.bks.cpg/sg53_5_cif.got.tgz:8644.got - 2010.06.03 12:45:16.
