data_PCOD9418588
_publ_section_title
;
Structure prediction by ZEFSAII (Michael W. Deem and Ramdas Pophale) SiO2 
 PCOD9418588
Probable space group: P M N A
;
_chemical_formula_sum "Si O2"
_cell_formula_units_Z 56
_cell_length_a 20.138549
_cell_length_b 14.927482
_cell_length_c 8.678423
_cell_angle_alpha 90.000000
_cell_angle_beta 90.000000
_cell_angle_gamma 90.000000
_cell_volume 2608.888670
_symmetry_space_group_name_H-M "P M N A"
_symmetry_group_IT_number 53
_symmetry_cell_setting 'orthorhombic'
loop_
_space_group_symop_operation_xyz
x,y,z
1/2-x,-y,1/2+z
x,-y,-z
1/2-x,y,1/2-z
-x,-y,-z
1/2+x,y,1/2-z
-x,y,z
1/2+x,-y,1/2+z
loop_
_atom_site_type_symbol
_atom_site_label
_atom_site_fract_x
_atom_site_fract_y
_atom_site_fract_z
Si Si1 0.186568 0.243665 0.585338
Si Si2 0.778342 0.900833 0.929902
Si Si3 0.074451 0.811240 0.944736
Si Si4 0.631974 0.654851 0.364574
Si Si5 0.574954 0.290019 0.125645
Si Si6 0.745600 0.410053 0.429241
Si Si7 0.574335 0.514012 0.817452
O O1 0.229403 0.158076 0.538604
O O2 0.178055 0.280935 0.757652
O O3 0.113026 0.242082 0.512849
O O4 0.217941 0.322475 0.484797
O O5 0.750000 0.895233 0.750000
O O6 0.855103 0.865622 0.949723
O O7 0.776164 0.000000 0.000000
O O8 0.073992 0.774718 0.770992
O O9 0.000000 0.852020 0.973846
O O10 0.082002 0.724550 0.056430
O O11 0.673506 0.605639 0.497408
O O12 0.607031 0.572990 0.259093
O O13 0.500000 0.310186 0.074159
O O14 0.602875 0.385210 0.188442
O O15 0.775191 0.500000 0.500000
O O16 0.750000 0.420317 0.250000
O O17 0.500000 0.518568 0.749488
O O18 0.570676 0.500000 0.000000
#
# Coordination Sequence:
#
# PCOD9418588 Si02
#       7
#     8   8   8   8   8   8   8
#     4  12  24  44  70 102 139 181 239 296 362 429
#     4  12  28  50  82 109 138 179 228 301 369 447
#     4  11  25  46  70 102 143 191 238 288 354 427
#     4  12  25  38  67  99 142 190 247 300 344 418
#     4  10  22  41  68  98 142 196 237 282 349 418
#     4  12  27  41  61  95 140 188 244 302 360 415
#     4  10  21  37  60 100 147 195 242 289 346 411
#
# _framework density 21.465078999999999
#
# number of rings (size 3 to 8) (size 9 to 14) (size 15 to 20)
#    0.000    0.714    4.286    3.000    8.000    0.857 
#    0.000    2.143    0.000    0.857    0.000    0.000 
#    0.000    0.000    0.000    0.000    0.000    0.000 
#
# Total GULP energy -312664.961167 kJ/mol
# GULP energy per Si atom -5583.302878 kJ/mol
# Density = 2.141622 g / cm^3
# Si number density = 21.465079 Si / 1000 Ang^3
#
#
#
# Elastic Constant Matrix: (Units=GPa)
#
#
# Indices 1 2 3 4 5 6 
#
# 1 134.0447 59.9388 34.2389 0.0000 0.0000 0.0000
# 2 59.9388 128.2627 28.9685 0.0000 0.0000 0.0000
# 3 34.2389 28.9685 114.0883 0.0000 0.0000 0.0000
# 4 0.0000 0.0000 0.0000 30.9692 0.0000 0.0000
# 5 0.0000 0.0000 0.0000 0.0000 12.2156 0.0000
# 6 0.0000 0.0000 0.0000 0.0000 0.0000 72.7549
#
#
#
# Elastic Compliance Matrix: (Units=1/GPa)
#
#
# Indices 1 2 3 4 5 6 
#
# 1 0.009799 -0.004153 -0.001886 0.000000 0.000000 0.000000
# 2 -0.004153 0.010031 -0.001301 0.000000 0.000000 0.000000
# 3 -0.001886 -0.001301 0.009661 0.000000 0.000000 0.000000
# 4 0.000000 0.000000 0.000000 0.032290 0.000000 0.000000
# 5 0.000000 0.000000 0.000000 0.000000 0.081862 0.000000
# 6 0.000000 0.000000 0.000000 0.000000 0.000000 0.013745
#
#
# Mechanical properties :
#
#
# Convention : Reuss Voigt Hill
#
# Bulk Modulus (GPa) = 67.51502 69.18756 68.35129
# Shear Modulus (GPa) = 28.24755 40.07124 34.15940
#
# Velocity S-wave (km/s) = 3.63158 4.32535 3.99356
# Velocity P-wave (km/s) = 7.00758 7.56620 7.29224
#
# Compressibility (1/GPa) = 0.01481152
#
# Stress axis : x y z
#
# Youngs Moduli (GPa) = 102.04968 99.68984 103.50401
#
# Poissons Ratio (x) = 0.41404 0.19523
# Poissons Ratio (y) = 0.42384 0.13462
# Poissons Ratio (z) = 0.19249 0.12966
#
# Static dielectric constant tensor:
#      x y z
#    x 1.936480 0.000000 0.000000 
#    y 0.000000 1.734950 0.000000 
#    z 0.000000 0.000000 1.763940 
# 
# From -- ./inp_files/11070.got.cif
#   From: 2010.05.17/outbox.cif.g08.bks.cpg/sg53_6_cif.got.tgz:11070.got - 2010.06.03 12:45:16.
