data_PCOD9418672
_publ_section_title
;
Structure prediction by ZEFSAII (Michael W. Deem and Ramdas Pophale) SiO2 
 PCOD9418672
Probable space group: P M N A
;
_chemical_formula_sum "Si O2"
_cell_formula_units_Z 48
_cell_length_a 21.692535
_cell_length_b 5.118918
_cell_length_c 20.413899
_cell_angle_alpha 90.000000
_cell_angle_beta 90.000000
_cell_angle_gamma 90.000000
_cell_volume 2266.806458
_symmetry_space_group_name_H-M "P M N A"
_symmetry_group_IT_number 53
_symmetry_cell_setting 'orthorhombic'
loop_
_space_group_symop_operation_xyz
x,y,z
1/2-x,-y,1/2+z
x,-y,-z
1/2-x,y,1/2-z
-x,-y,-z
1/2+x,y,1/2-z
-x,y,z
1/2+x,-y,1/2+z
loop_
_atom_site_type_symbol
_atom_site_label
_atom_site_fract_x
_atom_site_fract_y
_atom_site_fract_z
Si Si1 0.842459 0.404969 0.722300
Si Si2 0.133983 0.736314 0.542028
Si Si3 0.173053 0.115426 0.846397
Si Si4 0.068018 0.936295 0.349312
Si Si5 0.930823 0.806254 0.793643
Si Si6 0.251647 0.391677 0.377693
O O1 0.818035 0.175653 0.768989
O O2 0.882380 0.290616 0.662070
O O3 0.885609 0.570247 0.771997
O O4 0.787779 0.559580 0.688407
O O5 0.105078 0.500000 0.500000
O O6 0.199771 0.631179 0.567080
O O7 0.142486 0.000000 0.500000
O O8 0.093559 0.841670 0.602883
O O9 0.198416 0.374560 0.882480
O O10 0.103471 0.997595 0.844996
O O11 0.214742 0.881713 0.871359
O O12 0.000000 0.847248 0.370317
O O13 0.062986 0.045546 0.275643
O O14 0.000000 0.724949 0.813518
#
# Coordination Sequence:
#
# PCOD9418672 Si02
#       6
#     8   8   8   8   8   8
#     4  11  21  35  61  90 126 163 199 241 300 366
#     4  12  26  44  61  84 115 161 218 279 319 338
#     4  11  24  36  60  93 120 160 197 238 298 381
#     4  10  22  39  59  85 121 169 213 252 301 354
#     4  10  21  38  59  91 130 165 197 234 293 373
#     4  12  24  39  60  85 121 154 209 252 310 359
#
# _framework density 21.175166000000001
#
# number of rings (size 3 to 8) (size 9 to 14) (size 15 to 20)
#    0.000    1.000    3.333    4.000    4.667    1.333 
#    0.000    0.000    0.000    0.000    0.000    0.000 
#    0.000   13.333    0.000    0.000    0.000    0.000 
#
# Total GULP energy -267927.301206 kJ/mol
# GULP energy per Si atom -5581.818775 kJ/mol
# Density = 2.112697 g / cm^3
# Si number density = 21.175166 Si / 1000 Ang^3
#
#
#
# Elastic Constant Matrix: (Units=GPa)
#
#
# Indices 1 2 3 4 5 6 
#
# 1 62.1640 6.1794 -1.7595 0.0000 0.0000 0.0000
# 2 6.1794 105.6223 3.8275 0.0000 0.0000 0.0000
# 3 -1.7595 3.8275 18.8151 0.0000 0.0000 0.0000
# 4 0.0000 0.0000 0.0000 32.9183 0.0000 0.0000
# 5 0.0000 0.0000 0.0000 0.0000 -2.1465 0.0000
# 6 0.0000 0.0000 0.0000 0.0000 0.0000 23.3663
#
#
#
# Elastic Compliance Matrix: (Units=1/GPa)
#
#
# Indices 1 2 3 4 5 6 
#
# 1 0.016236 -0.001012 0.001724 0.000000 0.000000 0.000000
# 2 -0.001012 0.009601 -0.002048 0.000000 0.000000 0.000000
# 3 0.001724 -0.002048 0.053727 0.000000 0.000000 0.000000
# 4 0.000000 0.000000 0.000000 0.030378 0.000000 0.000000
# 5 0.000000 0.000000 0.000000 0.000000 -0.465880 0.000000
# 6 0.000000 0.000000 0.000000 0.000000 0.000000 0.042797
#
#
# Mechanical properties :
#
#
# Convention : Reuss Voigt Hill
#
# Bulk Modulus (GPa) = 13.00528 22.56622 17.78575
# Shear Modulus (GPa) = -17.55380 22.71790 2.58205
#
# Velocity S-wave (km/s) = -2.88233 3.27900 1.10545
# Velocity P-wave (km/s) = 2.21855 5.00159 3.16969
#
# Compressibility (1/GPa) = 0.07689186
#
# Stress axis : x y z
#
# Youngs Moduli (GPa) = 61.59180 104.15445 18.61278
#
# Poissons Ratio (x) = 0.10544 -0.03209
# Poissons Ratio (y) = 0.06235 0.03811
# Poissons Ratio (z) = -0.10620 0.21328
#
# Static dielectric constant tensor:
#      x y z
#    x 1.852710 0.000000 0.000000 
#    y 0.000000 1.823010 0.000000 
#    z 0.000000 0.000000 1.757690 
# 
# From -- ./inp_files/32967.got.cif
#   From: 2010.05.17/outbox.cif.g08.bks.cpg/sg53_17_cif.got.tgz:32967.got - 2010.06.03 12:45:16.
