data_PCOD9418389
_publ_section_title
;
Structure prediction by ZEFSAII (Michael W. Deem and Ramdas Pophale) SiO2 
 PCOD9418389
Probable space group: P M N A
;
_chemical_formula_sum "Si O2"
_cell_formula_units_Z 32
_cell_length_a 11.055962
_cell_length_b 16.110167
_cell_length_c 8.046095
_cell_angle_alpha 90.000000
_cell_angle_beta 90.000000
_cell_angle_gamma 90.000000
_cell_volume 1433.117290
_symmetry_space_group_name_H-M "P M N A"
_symmetry_group_IT_number 53
_symmetry_cell_setting 'orthorhombic'
loop_
_space_group_symop_operation_xyz
x,y,z
1/2-x,-y,1/2+z
x,-y,-z
1/2-x,y,1/2-z
-x,-y,-z
1/2+x,y,1/2-z
-x,y,z
1/2+x,-y,1/2+z
loop_
_atom_site_type_symbol
_atom_site_label
_atom_site_fract_x
_atom_site_fract_y
_atom_site_fract_z
Si Si1 0.861772 0.579257 0.878816
Si Si2 0.628612 0.844594 0.666624
Si Si3 0.133865 0.733093 0.133409
Si Si4 0.129795 0.972110 0.307474
O O1 0.750000 0.579822 0.750000
O O2 0.000000 0.576790 0.805928
O O3 0.850128 0.500000 0.000000
O O4 0.856345 0.659893 0.996680
O O5 0.750000 0.811943 0.750000
O O6 0.500000 0.813867 0.738617
O O7 0.632613 0.815891 0.478479
O O8 0.627656 0.943387 0.697745
O O9 0.250000 0.728991 0.250000
O O10 0.000000 0.724647 0.214517
O O11 0.250000 0.927189 0.250000
O O12 0.000000 0.929672 0.291009
O O13 0.139509 0.000000 0.500000
#
# Coordination Sequence:
#
# PCOD9418389 Si02
#       4
#     8   8   8   8
#     4  10  21  36  55  82 115 151 193 237 281 331
#     4   9  18  34  55  79 107 139 178 223 273 329
#     4  10  21  36  55  81 112 147 188 233 280 333
#     4   9  18  34  56  80 106 138 176 219 271 330
#
# _framework density 22.328948
#
# number of rings (size 3 to 8) (size 9 to 14) (size 15 to 20)
#    0.000    2.500    0.000    1.500    0.000    3.000 
#    0.000    5.000    0.000   27.000    0.000    0.000 
#    0.000    0.000    0.000    0.000    0.000    0.000 
#
# Total GULP energy -178602.691602 kJ/mol
# GULP energy per Si atom -5581.334113 kJ/mol
# Density = 2.227813 g / cm^3
# Si number density = 22.328948 Si / 1000 Ang^3
#
#
#
# Elastic Constant Matrix: (Units=GPa)
#
#
# Indices 1 2 3 4 5 6 
#
# 1 328.1782 13.5223 97.4692 0.0000 0.0000 0.0000
# 2 13.5223 84.6109 43.9256 0.0000 0.0000 0.0000
# 3 97.4692 43.9256 69.5118 0.0000 0.0000 0.0000
# 4 0.0000 0.0000 0.0000 31.3350 0.0000 0.0000
# 5 0.0000 0.0000 0.0000 0.0000 43.8252 0.0000
# 6 0.0000 0.0000 0.0000 0.0000 0.0000 -14.3712
#
#
#
# Elastic Compliance Matrix: (Units=1/GPa)
#
#
# Indices 1 2 3 4 5 6 
#
# 1 0.006628 0.005604 -0.012836 0.000000 0.000000 0.000000
# 2 0.005604 0.022328 -0.021968 0.000000 0.000000 0.000000
# 3 -0.012836 -0.021968 0.046266 0.000000 0.000000 0.000000
# 4 0.000000 0.000000 0.000000 0.031913 0.000000 0.000000
# 5 0.000000 0.000000 0.000000 0.000000 0.022818 0.000000
# 6 0.000000 0.000000 0.000000 0.000000 0.000000 -0.069583
#
#
# Mechanical properties :
#
#
# Convention : Reuss Voigt Hill
#
# Bulk Modulus (GPa) = 59.43897 88.01501 73.72699
# Shear Modulus (GPa) = 40.20054 33.98339 37.09196
#
# Velocity S-wave (km/s) = 4.24769 3.90544 4.08016
# Velocity P-wave (km/s) = 7.12282 7.73561 7.43553
#
# Compressibility (1/GPa) = 0.01682398
#
# Stress axis : x y z
#
# Youngs Moduli (GPa) = 150.86391 44.78760 21.61400
#
# Poissons Ratio (x) = -0.25101 0.27744
# Poissons Ratio (y) = -0.84551 0.47481
# Poissons Ratio (z) = 1.93648 0.98388
#
# Static dielectric constant tensor:
#      x y z
#    x 2.013910 0.000000 0.000000 
#    y 0.000000 1.856270 0.000000 
#    z 0.000000 0.000000 1.794840 
# 
# From -- ./inp_files/656.got.cif
#   From: 2010.05.17/outbox.cif.g08.bks.cpg/sg53_1_cif.got.tgz:656.got - 2010.06.03 12:45:16.
