data_PCOD9418126
_publ_section_title
;
Structure prediction by ZEFSAII (Michael W. Deem and Ramdas Pophale) SiO2 
 PCOD9418126
Probable space group: P M N A
;
_chemical_formula_sum "Si O2"
_cell_formula_units_Z 64
_cell_length_a 8.135797
_cell_length_b 19.939118
_cell_length_c 19.676816
_cell_angle_alpha 90.000000
_cell_angle_beta 90.000000
_cell_angle_gamma 90.000000
_cell_volume 3191.985220
_symmetry_space_group_name_H-M "P M N A"
_symmetry_group_IT_number 53
_symmetry_cell_setting 'orthorhombic'
loop_
_space_group_symop_operation_xyz
x,y,z
1/2-x,-y,1/2+z
x,-y,-z
1/2-x,y,1/2-z
-x,-y,-z
1/2+x,y,1/2-z
-x,y,z
1/2+x,-y,1/2+z
loop_
_atom_site_type_symbol
_atom_site_label
_atom_site_fract_x
_atom_site_fract_y
_atom_site_fract_z
Si Si1 0.308099 0.812766 0.040959
Si Si2 0.698982 0.927188 0.672268
Si Si3 0.300707 0.478836 0.075519
Si Si4 0.303081 0.644471 0.671485
Si Si5 0.198549 0.742567 0.322983
Si Si6 0.696024 0.786052 0.610291
Si Si7 0.689907 0.041008 0.569846
Si Si8 0.802727 0.589725 0.321769
O O1 0.500000 0.795818 0.034756
O O2 0.240803 0.778168 0.109125
O O3 0.286955 0.891501 0.054866
O O4 0.227625 0.790151 0.970384
O O5 0.750000 0.933809 0.750000
O O6 0.500000 0.926906 0.666684
O O7 0.760074 0.855718 0.642796
O O8 0.755617 0.990598 0.627390
O O9 0.500000 0.476610 0.074104
O O10 0.248444 0.411574 0.115745
O O11 0.242427 0.541085 0.120629
O O12 0.246042 0.500000 0.000000
O O13 0.250000 0.631471 0.750000
O O14 0.500000 0.645832 0.671770
O O15 0.240659 0.717827 0.645626
O O16 0.250000 0.771793 0.250000
O O17 0.258902 0.665738 0.325582
O O18 0.000000 0.743176 0.324224
O O19 0.500000 0.786042 0.620674
O O20 0.500000 0.059244 0.586382
O O21 0.686904 0.000000 0.500000
O O22 0.750000 0.560472 0.250000
O O23 0.000000 0.592522 0.325231
#
# Coordination Sequence:
#
# PCOD9418126 Si02
#       8
#     8   8   8   8   8   8   8   8
#     4  11  23  36  59  90 119 149 191 248 293 339
#     4  10  21  38  61  86 114 151 194 240 289 346
#     4  10  22  38  60  87 119 158 195 240 296 352
#     4  11  24  41  63  89 122 160 201 250 298 357
#     4   9  20  37  56  82 114 148 189 234 283 338
#     4  10  22  41  61  85 118 159 200 236 292 359
#     4  10  20  39  61  79 111 156 193 229 281 348
#     4   9  18  35  57  80 107 146 190 229 275 335
#
# _framework density 20.050218999999998
#
# number of rings (size 3 to 8) (size 9 to 14) (size 15 to 20)
#    0.000    2.000    1.250    1.500    1.750    5.500 
#    0.000    2.500    0.000    0.000    0.000    0.000 
#    0.000    0.000    0.000    0.000    0.000    0.000 
#
# Total GULP energy -357042.058881 kJ/mol
# GULP energy per Si atom -5578.782170 kJ/mol
# Density = 2.000458 g / cm^3
# Si number density = 20.050219 Si / 1000 Ang^3
#
#
#
# Elastic Constant Matrix: (Units=GPa)
#
#
# Indices 1 2 3 4 5 6 
#
# 1 9.6464 3.2964 1.0850 0.0000 0.0000 0.0000
# 2 3.2964 81.1140 66.2121 0.0000 0.0000 0.0000
# 3 1.0850 66.2121 173.3168 0.0000 0.0000 0.0000
# 4 0.0000 0.0000 0.0000 42.6195 0.0000 0.0000
# 5 0.0000 0.0000 0.0000 0.0000 27.1760 0.0000
# 6 0.0000 0.0000 0.0000 0.0000 0.0000 11.1131
#
#
#
# Elastic Compliance Matrix: (Units=1/GPa)
#
#
# Indices 1 2 3 4 5 6 
#
# 1 0.105365 -0.005440 0.001419 0.000000 0.000000 0.000000
# 2 -0.005440 0.018196 -0.006917 0.000000 0.000000 0.000000
# 3 0.001419 -0.006917 0.008404 0.000000 0.000000 0.000000
# 4 0.000000 0.000000 0.000000 0.023463 0.000000 0.000000
# 5 0.000000 0.000000 0.000000 0.000000 0.036797 0.000000
# 6 0.000000 0.000000 0.000000 0.000000 0.000000 0.089984
#
#
# Mechanical properties :
#
#
# Convention : Reuss Voigt Hill
#
# Bulk Modulus (GPa) = 9.08373 45.02936 27.05654
# Shear Modulus (GPa) = 14.67218 29.08066 21.87642
#
# Velocity S-wave (km/s) = 2.70806 3.81253 3.30674
# Velocity P-wave (km/s) = 3.78397 6.47206 5.30123
#
# Compressibility (1/GPa) = 0.11008692
#
# Stress axis : x y z
#
# Youngs Moduli (GPa) = 9.49084 54.95750 118.99786
#
# Poissons Ratio (x) = 0.29896 -0.16881
# Poissons Ratio (y) = 0.05163 0.82314
# Poissons Ratio (z) = -0.01346 0.38016
#
# Static dielectric constant tensor:
#      x y z
#    x 1.722060 0.000000 0.000000 
#    y 0.000000 1.718930 0.000000 
#    z 0.000000 0.000000 0.997520 
# 
# From -- ./inp_files/27021.got.cif
#   From: 2010.05.17/outbox.cif.g08.bks.cpg/sg53_14_cif.got.tgz:27021.got - 2010.06.03 12:45:16.
