data_PCOD9418282
_publ_section_title
;
Structure prediction by ZEFSAII (Michael W. Deem and Ramdas Pophale) SiO2 
 PCOD9418282
Probable space group: P M N A
;
_chemical_formula_sum "Si O2"
_cell_formula_units_Z 48
_cell_length_a 7.511698
_cell_length_b 11.760229
_cell_length_c 24.030633
_cell_angle_alpha 90.000000
_cell_angle_beta 90.000000
_cell_angle_gamma 90.000000
_cell_volume 2122.849025
_symmetry_space_group_name_H-M "P M N A"
_symmetry_group_IT_number 53
_symmetry_cell_setting 'orthorhombic'
loop_
_space_group_symop_operation_xyz
x,y,z
1/2-x,-y,1/2+z
x,-y,-z
1/2-x,y,1/2-z
-x,-y,-z
1/2+x,y,1/2-z
-x,y,z
1/2+x,-y,1/2+z
loop_
_atom_site_type_symbol
_atom_site_label
_atom_site_fract_x
_atom_site_fract_y
_atom_site_fract_z
Si Si1 0.786472 0.849303 0.315033
Si Si2 0.208021 0.433211 0.413315
Si Si3 0.717429 0.686581 0.093712
Si Si4 0.795336 0.939900 0.614989
Si Si5 0.218035 0.787205 0.519284
Si Si6 0.789567 0.719811 0.815115
O O1 0.750000 0.854933 0.250000
O O2 0.725384 0.736318 0.347102
O O3 0.000000 0.852673 0.319409
O O4 0.715284 0.956763 0.350168
O O5 0.282827 0.559493 0.418855
O O6 0.278958 0.329977 0.450829
O O7 0.224637 0.388679 0.350164
O O8 0.000000 0.440927 0.428387
O O9 0.500000 0.680860 0.093616
O O10 0.767573 0.774238 0.044806
O O11 0.718462 0.892114 0.557030
O O12 0.794604 0.830688 0.655951
O O13 0.000000 0.971865 0.602370
O O14 0.000000 0.789864 0.522003
O O15 0.750000 0.713737 0.750000
O O16 0.000000 0.729497 0.822881
#
# Coordination Sequence:
#
# PCOD9418282 Si02
#       6
#     8   8   8   8   8   8
#     4  10  21  35  51  73 102 137 174 209 247 295
#     4   9  17  31  51  76 105 135 167 204 251 305
#     4   9  17  30  51  78 105 134 168 206 248 298
#     4   9  18  33  53  77 102 129 165 209 257 305
#     4   8  14  27  51  80 104 127 161 208 257 300
#     4  11  21  33  51  74 100 131 170 216 261 302
#
# _framework density 22.611124
#
# number of rings (size 3 to 8) (size 9 to 14) (size 15 to 20)
#    0.000    2.667    0.000    3.500    0.000    5.333 
#    0.000    5.833    0.000   12.000    0.000    5.833 
#    0.000    0.000    0.000    0.000    0.000    0.000 
#
# Total GULP energy -267937.300765 kJ/mol
# GULP energy per Si atom -5582.027099 kJ/mol
# Density = 2.255966 g / cm^3
# Si number density = 22.611124 Si / 1000 Ang^3
#
#
#
# Elastic Constant Matrix: (Units=GPa)
#
#
# Indices 1 2 3 4 5 6 
#
# 1 67.3575 5.6702 -9.2963 0.0000 0.0000 0.0000
# 2 5.6702 45.4839 42.5122 0.0000 0.0000 0.0000
# 3 -9.2963 42.5122 84.6917 0.0000 0.0000 0.0000
# 4 0.0000 0.0000 0.0000 22.2894 0.0000 0.0000
# 5 0.0000 0.0000 0.0000 0.0000 13.5606 0.0000
# 6 0.0000 0.0000 0.0000 0.0000 0.0000 -7.9069
#
#
#
# Elastic Compliance Matrix: (Units=1/GPa)
#
#
# Indices 1 2 3 4 5 6 
#
# 1 0.016152 -0.006915 0.005244 0.000000 0.000000 0.000000
# 2 -0.006915 0.044378 -0.023035 0.000000 0.000000 0.000000
# 3 0.005244 -0.023035 0.023946 0.000000 0.000000 0.000000
# 4 0.000000 0.000000 0.000000 0.044864 0.000000 0.000000
# 5 0.000000 0.000000 0.000000 0.000000 0.073743 0.000000
# 6 0.000000 0.000000 0.000000 0.000000 0.000000 -0.126472
#
#
# Mechanical properties :
#
#
# Convention : Reuss Voigt Hill
#
# Bulk Modulus (GPa) = 28.51951 30.58948 29.55449
# Shear Modulus (GPa) = 36.30769 16.16509 26.23639
#
# Velocity S-wave (km/s) = 4.01152 2.67670 3.41006
# Velocity P-wave (km/s) = 5.83925 4.80737 5.34825
#
# Compressibility (1/GPa) = 0.03506372
#
# Stress axis : x y z
#
# Youngs Moduli (GPa) = 61.91180 22.53363 41.76058
#
# Poissons Ratio (x) = 0.15582 -0.21899
# Poissons Ratio (y) = 0.42812 0.96197
# Poissons Ratio (z) = -0.32467 0.51907
#
# Static dielectric constant tensor:
#      x y z
#    x 1.907640 0.000000 0.000000 
#    y 0.000000 1.838010 0.000000 
#    z 0.000000 0.000000 1.822890 
# 
# From -- ./inp_files/33925.got.cif
#   From: 2010.05.17/outbox.cif.g08.bks.cpg/sg53_17_cif.got.tgz:33925.got - 2010.06.03 12:45:16.
