data_PCOD9418226
_publ_section_title
;
Structure prediction by ZEFSAII (Michael W. Deem and Ramdas Pophale) SiO2 
 PCOD9418226
Probable space group: P M N A
;
_chemical_formula_sum "Si O2"
_cell_formula_units_Z 38
_cell_length_a 23.612045
_cell_length_b 6.419949
_cell_length_c 11.476020
_cell_angle_alpha 90.000000
_cell_angle_beta 90.000000
_cell_angle_gamma 90.000000
_cell_volume 1739.628351
_symmetry_space_group_name_H-M "P M N A"
_symmetry_group_IT_number 53
_symmetry_cell_setting 'orthorhombic'
loop_
_space_group_symop_operation_xyz
x,y,z
1/2-x,-y,1/2+z
x,-y,-z
1/2-x,y,1/2-z
-x,-y,-z
1/2+x,y,1/2-z
-x,y,z
1/2+x,-y,1/2+z
loop_
_atom_site_type_symbol
_atom_site_label
_atom_site_fract_x
_atom_site_fract_y
_atom_site_fract_z
Si Si1 0.797559 0.821639 0.156095
Si Si2 0.357459 0.484524 0.183692
Si Si3 0.404094 0.095979 0.320198
Si Si4 0.765004 0.500000 0.500000
Si Si5 0.934824 0.834993 0.403868
Si Si6 0.000000 0.000000 0.000000
O O1 0.750000 0.893317 0.250000
O O2 0.830905 0.636005 0.220382
O O3 0.844348 0.998822 0.137237
O O4 0.768939 0.700017 0.048581
O O5 0.390545 0.304523 0.249371
O O6 0.305252 0.416350 0.103351
O O7 0.398150 0.628861 0.106208
O O8 0.449770 0.114331 0.421719
O O9 0.430296 0.940532 0.223119
O O10 0.000000 0.789293 0.432192
O O11 0.913187 0.000000 0.500000
#
# Coordination Sequence:
#
# PCOD9418226 Si02
#       6
#     8   8   8   4   8   2
#     4   9  22  42  65  97 135 170 226 287 357 426
#     4  10  22  40  67  98 132 176 229 287 356 428
#     4  11  24  45  62  98 136 181 235 283 344 424
#     4  10  20  42  67  99 130 172 224 294 364 428
#     4  10  21  40  66  96 133 174 224 288 348 415
#     4  12  28  44  64  98 134 188 248 274 342 442
#
# _framework density 21.843747
#
# number of rings (size 3 to 8) (size 9 to 14) (size 15 to 20)
#    0.000    1.895    1.053    1.263    4.421    2.526 
#    0.000   11.053    0.000    0.000    0.000    0.000 
#    0.000    0.000    0.000    0.000    0.000    0.000 
#
# Total GULP energy -211854.255854 kJ/mol
# GULP energy per Si atom -5575.111996 kJ/mol
# Density = 2.179403 g / cm^3
# Si number density = 21.843747 Si / 1000 Ang^3
#
#
#
# Elastic Constant Matrix: (Units=GPa)
#
#
# Indices 1 2 3 4 5 6 
#
# 1 152.7121 81.9386 41.9562 0.0000 0.0000 0.0000
# 2 81.9386 94.8835 50.1571 0.0000 0.0000 0.0000
# 3 41.9562 50.1571 68.9176 0.0000 0.0000 0.0000
# 4 0.0000 0.0000 0.0000 23.0818 0.0000 0.0000
# 5 0.0000 0.0000 0.0000 0.0000 20.3103 0.0000
# 6 0.0000 0.0000 0.0000 0.0000 0.0000 -9.3416
#
#
#
# Elastic Compliance Matrix: (Units=1/GPa)
#
#
# Indices 1 2 3 4 5 6 
#
# 1 0.012209 -0.010750 0.000391 0.000000 0.000000 0.000000
# 2 -0.010750 0.026594 -0.012811 0.000000 0.000000 0.000000
# 3 0.000391 -0.012811 0.023595 0.000000 0.000000 0.000000
# 4 0.000000 0.000000 0.000000 0.043324 0.000000 0.000000
# 5 0.000000 0.000000 0.000000 0.000000 0.049236 0.000000
# 6 0.000000 0.000000 0.000000 0.000000 0.000000 -0.107048
#
#
# Mechanical properties :
#
#
# Convention : Reuss Voigt Hill
#
# Bulk Modulus (GPa) = 62.26769 73.84636 68.05703
# Shear Modulus (GPa) = 50.19929 16.30750 33.25340
#
# Velocity S-wave (km/s) = 4.79906 2.73528 3.90594
# Velocity P-wave (km/s) = 7.69908 6.62236 7.18093
#
# Compressibility (1/GPa) = 0.01605969
#
# Stress axis : x y z
#
# Youngs Moduli (GPa) = 81.90879 37.60193 42.38108
#
# Poissons Ratio (x) = 0.40421 -0.01657
# Poissons Ratio (y) = 0.88050 0.54293
# Poissons Ratio (z) = -0.03203 0.48170
#
# Static dielectric constant tensor:
#      x y z
#    x 1.872770 0.000000 0.000000 
#    y 0.000000 1.769300 0.000000 
#    z 0.000000 0.000000 1.857980 
# 
# From -- ./inp_files/18616.got.cif
#   From: 2010.05.17/outbox.cif.g08.bks.cpg/sg53_10_cif.got.tgz:18616.got - 2010.06.03 12:45:16.
