data_PCOD9418099
_publ_section_title
;
Structure prediction by ZEFSAII (Michael W. Deem and Ramdas Pophale) SiO2 
 PCOD9418099
Probable space group: P M N A
;
_chemical_formula_sum "Si O2"
_cell_formula_units_Z 24
_cell_length_a 17.576468
_cell_length_b 13.986489
_cell_length_c 3.448943
_cell_angle_alpha 90.000000
_cell_angle_beta 90.000000
_cell_angle_gamma 90.000000
_cell_volume 847.864268
_symmetry_space_group_name_H-M "P M N A"
_symmetry_group_IT_number 53
_symmetry_cell_setting 'orthorhombic'
loop_
_space_group_symop_operation_xyz
x,y,z
1/2-x,-y,1/2+z
x,-y,-z
1/2-x,y,1/2-z
-x,-y,-z
1/2+x,y,1/2-z
-x,y,z
1/2+x,-y,1/2+z
loop_
_atom_site_type_symbol
_atom_site_label
_atom_site_fract_x
_atom_site_fract_y
_atom_site_fract_z
Si Si1 0.091095 0.177932 0.749493
Si Si2 0.340716 0.698712 0.749001
Si Si3 0.183740 0.500000 0.500000
Si Si4 0.814640 0.000000 0.500000
O O1 0.103179 0.201539 0.247020
O O2 0.000000 0.175758 0.749447
O O3 0.133060 0.075576 0.718888
O O4 0.141349 0.283192 0.752698
O O5 0.250000 0.718136 0.750000
O O6 0.360787 0.583903 0.784527
O O7 0.250000 0.553510 0.250000
O O8 0.750000 0.056595 0.250000
#
# Coordination Sequence:
#
# PCOD9418099 Si02
#       4
#     8   8   4   4
#     4  12  25  42  63  97 137 173 214 277 344 399
#     4  11  22  41  67  95 128 175 228 273 323 397
#     4  10  20  38  67 100 131 172 228 284 328 382
#     4  12  25  44  71  96 126 178 234 278 327 398
#
# _framework density 28.306415000000001
#
# number of rings (size 3 to 8) (size 9 to 14) (size 15 to 20)
#    0.000    0.667    0.000   11.500    0.000    0.000 
#    0.000   10.000    0.000    0.000    0.000    0.000 
#    0.000    0.000    0.000    0.000    0.000    0.000 
#
# Total GULP energy -133809.951981 kJ/mol
# GULP energy per Si atom -5575.414666 kJ/mol
# Density = 2.824199 g / cm^3
# Si number density = 28.306415 Si / 1000 Ang^3
#
#
#
# Elastic Constant Matrix: (Units=GPa)
#
#
# Indices 1 2 3 4 5 6 
#
# 1 210.7983 164.5993 81.7230 0.0000 0.0000 0.0000
# 2 164.5993 273.9823 130.4965 0.0000 0.0000 0.0000
# 3 81.7230 130.4965 261.1048 0.0000 0.0000 0.0000
# 4 0.0000 0.0000 0.0000 110.9176 0.0000 0.0000
# 5 0.0000 0.0000 0.0000 0.0000 95.6812 0.0000
# 6 0.0000 0.0000 0.0000 0.0000 0.0000 -97.8778
#
#
#
# Elastic Compliance Matrix: (Units=1/GPa)
#
#
# Indices 1 2 3 4 5 6 
#
# 1 0.008940 -0.005300 -0.000149 0.000000 0.000000 0.000000
# 2 -0.005300 0.007932 -0.002305 0.000000 0.000000 0.000000
# 3 -0.000149 -0.002305 0.005029 0.000000 0.000000 0.000000
# 4 0.000000 0.000000 0.000000 0.009016 0.000000 0.000000
# 5 0.000000 0.000000 0.000000 0.000000 0.010451 0.000000
# 6 0.000000 0.000000 0.000000 0.000000 0.000000 -0.010217
#
#
# Mechanical properties :
#
#
# Convention : Reuss Voigt Hill
#
# Bulk Modulus (GPa) = 156.45612 166.61367 161.53490
# Shear Modulus (GPa) = 102.47875 46.34863 74.41369
#
# Velocity S-wave (km/s) = 6.02345 4.05086 5.13281
# Velocity P-wave (km/s) = 10.18667 8.99265 9.60823
#
# Compressibility (1/GPa) = 0.00639157
#
# Stress axis : x y z
#
# Youngs Moduli (GPa) = 111.85702 126.07443 198.85118
#
# Poissons Ratio (x) = 0.66815 0.02971
# Poissons Ratio (y) = 0.59281 0.45845
# Poissons Ratio (z) = 0.01671 0.29066
#
# Static dielectric constant tensor:
#      x y z
#    x 1.889810 0.000000 0.000000 
#    y 0.000000 2.053310 0.000000 
#    z 0.000000 0.000000 3.465670 
# 
# From -- ./inp_files/1069.got.cif
#   From: 2010.05.17/outbox.cif.g08.bks.cpg/sg53_1_cif.got.tgz:1069.got - 2010.06.03 12:45:16.
