data_PCOD9418232
_publ_section_title
;
Structure prediction by ZEFSAII (Michael W. Deem and Ramdas Pophale) SiO2 
 PCOD9418232
Probable space group: P M N A
;
_chemical_formula_sum "Si O2"
_cell_formula_units_Z 28
_cell_length_a 19.998933
_cell_length_b 7.899569
_cell_length_c 8.345816
_cell_angle_alpha 90.000000
_cell_angle_beta 90.000000
_cell_angle_gamma 90.000000
_cell_volume 1318.496642
_symmetry_space_group_name_H-M "P M N A"
_symmetry_group_IT_number 53
_symmetry_cell_setting 'orthorhombic'
loop_
_space_group_symop_operation_xyz
x,y,z
1/2-x,-y,1/2+z
x,-y,-z
1/2-x,y,1/2-z
-x,-y,-z
1/2+x,y,1/2-z
-x,y,z
1/2+x,-y,1/2+z
loop_
_atom_site_type_symbol
_atom_site_label
_atom_site_fract_x
_atom_site_fract_y
_atom_site_fract_z
Si Si1 0.500000 0.194172 0.450568
Si Si2 0.110268 0.357709 0.821392
Si Si3 0.500000 0.585366 0.826453
Si Si4 0.197749 0.831599 0.397061
Si Si5 0.765623 0.500000 0.000000
O O1 0.433854 0.277332 0.535213
O O2 0.500000 0.230062 0.258941
O O3 0.500000 0.000000 0.500000
O O4 0.065012 0.501156 0.749015
O O5 0.128730 0.217554 0.689749
O O6 0.180755 0.446617 0.864103
O O7 0.500000 0.500000 0.000000
O O8 0.250000 0.858673 0.250000
O O9 0.221194 0.669881 0.504643
O O10 0.194408 0.000000 0.500000
#
# Coordination Sequence:
#
# PCOD9418232 Si02
#       5
#     4   8   4   8   4
#     4  11  23  43  70  98 130 181 230 285 359 426
#     4  10  21  44  65  89 132 175 221 277 338 421
#     4  11  23  41  68  96 126 174 229 283 350 408
#     4  10  24  41  64 100 135 178 226 281 341 412
#     4  10  20  43  68  89 132 184 222 268 346 406
#
# _framework density 21.236308999999999
#
# number of rings (size 3 to 8) (size 9 to 14) (size 15 to 20)
#    0.000    1.714    2.857    0.857    2.000   10.286 
#    0.000    2.857    0.000    0.000    0.000    0.000 
#    0.000    0.000    0.000    0.000    0.000    0.000 
#
# Total GULP energy -155901.832305 kJ/mol
# GULP energy per Si atom -5567.922582 kJ/mol
# Density = 2.118797 g / cm^3
# Si number density = 21.236309 Si / 1000 Ang^3
#
#
#
# Elastic Constant Matrix: (Units=GPa)
#
#
# Indices 1 2 3 4 5 6 
#
# 1 76.7393 31.3860 24.9300 0.0000 0.0000 0.0000
# 2 31.3860 157.8280 89.1219 0.0000 0.0000 0.0000
# 3 24.9300 89.1219 106.8038 0.0000 0.0000 0.0000
# 4 0.0000 0.0000 0.0000 48.9408 0.0000 0.0000
# 5 0.0000 0.0000 0.0000 0.0000 -47.1211 0.0000
# 6 0.0000 0.0000 0.0000 0.0000 0.0000 -118.2052
#
#
#
# Elastic Compliance Matrix: (Units=1/GPa)
#
#
# Indices 1 2 3 4 5 6 
#
# 1 0.014372 -0.001822 -0.001834 0.000000 0.000000 0.000000
# 2 -0.001822 0.012213 -0.009765 0.000000 0.000000 0.000000
# 3 -0.001834 -0.009765 0.017940 0.000000 0.000000 0.000000
# 4 0.000000 0.000000 0.000000 0.020433 0.000000 0.000000
# 5 0.000000 0.000000 0.000000 0.000000 -0.021222 0.000000
# 6 0.000000 0.000000 0.000000 0.000000 0.000000 -0.008460
#
#
# Mechanical properties :
#
#
# Convention : Reuss Voigt Hill
#
# Bulk Modulus (GPa) = 56.55801 70.24966 63.40383
# Shear Modulus (GPa) = 73.51469 -10.21487 31.64991
#
# Velocity S-wave (km/s) = 5.89004 -2.19557 3.86472
# Velocity P-wave (km/s) = 8.54092 5.16956 7.05945
#
# Compressibility (1/GPa) = 0.01768096
#
# Stress axis : x y z
#
# Youngs Moduli (GPa) = 69.57818 81.88139 55.74192
#
# Poissons Ratio (x) = 0.14923 0.10223
# Poissons Ratio (y) = 0.12681 0.54435
# Poissons Ratio (z) = 0.12761 0.79961
#
# Static dielectric constant tensor:
#      x y z
#    x 1.741010 0.000000 0.000000 
#    y 0.000000 1.775890 0.000000 
#    z 0.000000 0.000000 1.917060 
# 
# From -- ./inp_files/10390.got.cif
#   From: 2010.05.17/outbox.cif.g08.bks.cpg/sg53_6_cif.got.tgz:10390.got - 2010.06.03 12:45:16.
