data_PCOD9418621
_publ_section_title
;
Structure prediction by ZEFSAII (Michael W. Deem and Ramdas Pophale) SiO2 
 PCOD9418621
Probable space group: P M N A
;
_chemical_formula_sum "Si O2"
_cell_formula_units_Z 48
_cell_length_a 16.785498
_cell_length_b 9.331134
_cell_length_c 14.738249
_cell_angle_alpha 90.000000
_cell_angle_beta 90.000000
_cell_angle_gamma 90.000000
_cell_volume 2308.418501
_symmetry_space_group_name_H-M "P M N A"
_symmetry_group_IT_number 53
_symmetry_cell_setting 'orthorhombic'
loop_
_space_group_symop_operation_xyz
x,y,z
1/2-x,-y,1/2+z
x,-y,-z
1/2-x,y,1/2-z
-x,-y,-z
1/2+x,y,1/2-z
-x,y,z
1/2+x,-y,1/2+z
loop_
_atom_site_type_symbol
_atom_site_label
_atom_site_fract_x
_atom_site_fract_y
_atom_site_fract_z
Si Si1 0.841997 0.276503 0.273119
Si Si2 0.594346 0.928565 0.900672
Si Si3 0.905760 0.587573 0.226086
Si Si4 0.686838 0.190203 0.832232
Si Si5 0.593302 0.102595 0.389232
Si Si6 0.161344 0.789151 0.070384
O O1 0.750000 0.248947 0.250000
O O2 0.867141 0.224131 0.373740
O O3 0.862222 0.439203 0.247637
O O4 0.893968 0.179692 0.205368
O O5 0.500000 0.923795 0.882420
O O6 0.643308 0.040399 0.840092
O O7 0.603461 0.000000 0.000000
O O8 0.878980 0.693563 0.306858
O O9 0.877795 0.666059 0.132830
O O10 0.000000 0.566880 0.223170
O O11 0.750000 0.191448 0.750000
O O12 0.743522 0.220758 0.917982
O O13 0.500000 0.083749 0.407891
O O14 0.631898 0.202625 0.467277
O O15 0.634363 0.946463 0.392756
#
# Coordination Sequence:
#
# PCOD9418621 Si02
#       6
#     8   8   8   8   8   8
#     4  12  25  41  63  94 125 168 212 269 328 392
#     4  11  24  41  64  92 125 164 216 269 316 375
#     4  11  22  41  64  89 131 172 214 260 319 393
#     4  10  21  38  63  90 121 164 210 255 316 378
#     4  11  22  38  63  94 128 163 209 263 324 386
#     4  10  21  37  62  96 128 164 208 261 319 385
#
# _framework density 20.793455999999999
#
# number of rings (size 3 to 8) (size 9 to 14) (size 15 to 20)
#    0.000    1.167    0.000    9.000    4.667    0.667 
#    0.000    2.500    0.000    3.000    0.000    0.000 
#    0.000    0.000    0.000    0.000    0.000    0.000 
#
# Total GULP energy -268145.784039 kJ/mol
# GULP energy per Si atom -5586.370501 kJ/mol
# Density = 2.074613 g / cm^3
# Si number density = 20.793456 Si / 1000 Ang^3
#
#
#
# Elastic Constant Matrix: (Units=GPa)
#
#
# Indices 1 2 3 4 5 6 
#
# 1 93.2692 3.0112 22.0728 0.0000 0.0000 0.0000
# 2 3.0112 78.4757 26.9803 0.0000 0.0000 0.0000
# 3 22.0728 26.9803 66.0099 0.0000 0.0000 0.0000
# 4 0.0000 0.0000 0.0000 25.1361 0.0000 0.0000
# 5 0.0000 0.0000 0.0000 0.0000 -4.6667 0.0000
# 6 0.0000 0.0000 0.0000 0.0000 0.0000 43.4095
#
#
#
# Elastic Compliance Matrix: (Units=1/GPa)
#
#
# Indices 1 2 3 4 5 6 
#
# 1 0.011716 0.001044 -0.004344 0.000000 0.000000 0.000000
# 2 0.001044 0.014919 -0.006447 0.000000 0.000000 0.000000
# 3 -0.004344 -0.006447 0.019237 0.000000 0.000000 0.000000
# 4 0.000000 0.000000 0.000000 0.039783 0.000000 0.000000
# 5 0.000000 0.000000 0.000000 0.000000 -0.214282 0.000000
# 6 0.000000 0.000000 0.000000 0.000000 0.000000 0.023036
#
#
# Mechanical properties :
#
#
# Convention : Reuss Voigt Hill
#
# Bulk Modulus (GPa) = 37.91105 37.98704 37.94904
# Shear Modulus (GPa) = -64.68089 25.15514 -19.76287
#
# Velocity S-wave (km/s) = -5.58336 3.48194 -3.08626
# Velocity P-wave (km/s) = 4.82633 5.87142 2.36434
#
# Compressibility (1/GPa) = 0.02637753
#
# Stress axis : x y z
#
# Youngs Moduli (GPa) = 85.35271 67.02739 51.98292
#
# Poissons Ratio (x) = -0.06998 0.22584
# Poissons Ratio (y) = -0.08911 0.33514
# Poissons Ratio (z) = 0.37081 0.43213
#
# Static dielectric constant tensor:
#      x y z
#    x 1.714500 0.000000 0.000000 
#    y 0.000000 1.724880 0.000000 
#    z 0.000000 0.000000 1.833610 
# 
# From -- ./inp_files/23626.got.cif
#   From: 2010.05.17/outbox.cif.g08.bks.cpg/sg53_12_cif.got.tgz:23626.got - 2010.06.03 12:45:16.
