data_PCOD9418188
_publ_section_title
;
Structure prediction by ZEFSAII (Michael W. Deem and Ramdas Pophale) SiO2 
 PCOD9418188
Probable space group: P M N A
;
_chemical_formula_sum "Si O2"
_cell_formula_units_Z 56
_cell_length_a 16.009437
_cell_length_b 14.100162
_cell_length_c 12.274655
_cell_angle_alpha 90.000000
_cell_angle_beta 90.000000
_cell_angle_gamma 90.000000
_cell_volume 2770.827289
_symmetry_space_group_name_H-M "P M N A"
_symmetry_group_IT_number 53
_symmetry_cell_setting 'orthorhombic'
loop_
_space_group_symop_operation_xyz
x,y,z
1/2-x,-y,1/2+z
x,-y,-z
1/2-x,y,1/2-z
-x,-y,-z
1/2+x,y,1/2-z
-x,y,z
1/2+x,-y,1/2+z
loop_
_atom_site_type_symbol
_atom_site_label
_atom_site_fract_x
_atom_site_fract_y
_atom_site_fract_z
Si Si1 0.656524 0.128165 0.083577
Si Si2 0.906379 0.274569 0.243602
Si Si3 0.652478 0.761716 0.279299
Si Si4 0.404998 0.933833 0.143225
Si Si5 0.314305 0.739311 0.529671
Si Si6 0.319855 0.401612 0.099149
Si Si7 0.404255 0.599123 0.115065
O O1 0.610126 0.187215 0.176254
O O2 0.743366 0.180580 0.054187
O O3 0.659130 0.021136 0.130323
O O4 0.605909 0.122031 0.970739
O O5 0.884252 0.249375 0.120733
O O6 0.841898 0.351890 0.288204
O O7 0.000000 0.310072 0.253219
O O8 0.750000 0.764792 0.250000
O O9 0.613387 0.860783 0.239628
O O10 0.650102 0.745400 0.408367
O O11 0.613245 0.677733 0.206015
O O12 0.500000 0.969998 0.150405
O O13 0.266318 0.639190 0.551523
O O14 0.338328 0.512135 0.118502
O O15 0.387086 0.365306 0.008113
O O16 0.500000 0.565948 0.123948
#
# Coordination Sequence:
#
# PCOD9418188 Si02
#       7
#     8   8   8   8   8   8   8
#     4  10  20  40  64  93 122 156 217 268 317 374
#     4  11  22  39  62  88 125 164 210 259 307 373
#     4  12  23  41  58  88 132 172 206 250 319 387
#     4  11  22  38  66  96 123 160 208 270 326 370
#     4  11  24  42  61  92 127 174 212 251 321 384
#     4  10  20  40  64  93 122 156 217 268 317 374
#     4  11  22  38  66  96 123 160 208 270 326 370
#
# _framework density 20.210570000000001
#
# number of rings (size 3 to 8) (size 9 to 14) (size 15 to 20)
#    0.000    1.143    2.857    6.429    0.000    3.429 
#    0.000    0.000    0.000    3.429    0.000    0.000 
#    0.000    0.000    0.000    0.000    0.000    0.000 
#
# Total GULP energy -312620.050416 kJ/mol
# GULP energy per Si atom -5582.500900 kJ/mol
# Density = 2.016457 g / cm^3
# Si number density = 20.210570 Si / 1000 Ang^3
#
#
#
# Elastic Constant Matrix: (Units=GPa)
#
#
# Indices 1 2 3 4 5 6 
#
# 1 49.2577 13.9046 16.6587 0.0000 0.0000 0.0000
# 2 13.9046 88.6696 27.6982 0.0000 0.0000 0.0000
# 3 16.6587 27.6982 134.7924 0.0000 0.0000 0.0000
# 4 0.0000 0.0000 0.0000 1.8982 0.0000 0.0000
# 5 0.0000 0.0000 0.0000 0.0000 28.8460 0.0000
# 6 0.0000 0.0000 0.0000 0.0000 0.0000 13.6009
#
#
#
# Elastic Compliance Matrix: (Units=1/GPa)
#
#
# Indices 1 2 3 4 5 6 
#
# 1 0.021798 -0.002753 -0.002128 0.000000 0.000000 0.000000
# 2 -0.002753 0.012399 -0.002208 0.000000 0.000000 0.000000
# 3 -0.002128 -0.002208 0.008135 0.000000 0.000000 0.000000
# 4 0.000000 0.000000 0.000000 0.526813 0.000000 0.000000
# 5 0.000000 0.000000 0.000000 0.000000 0.034667 0.000000
# 6 0.000000 0.000000 0.000000 0.000000 0.000000 0.073524
#
#
# Mechanical properties :
#
#
# Convention : Reuss Voigt Hill
#
# Bulk Modulus (GPa) = 35.51827 43.24918 39.38372
# Shear Modulus (GPa) = 7.13368 23.16623 15.14996
#
# Velocity S-wave (km/s) = 1.88078 3.38929 2.74086
# Velocity P-wave (km/s) = 4.72533 6.06318 5.43557
#
# Compressibility (1/GPa) = 0.02815453
#
# Stress axis : x y z
#
# Youngs Moduli (GPa) = 45.87489 80.65032 122.91852
#
# Poissons Ratio (x) = 0.22207 0.26160
# Poissons Ratio (y) = 0.12632 0.27135
# Poissons Ratio (z) = 0.09763 0.17804
#
# Static dielectric constant tensor:
#      x y z
#    x 1.693630 0.000000 0.000000 
#    y 0.000000 1.787340 0.000000 
#    z 0.000000 0.000000 1.720080 
# 
# From -- ./inp_files/16089.got.cif
#   From: 2010.05.17/outbox.cif.g08.bks.cpg/sg53_9_cif.got.tgz:16089.got - 2010.06.03 12:45:16.
