data_PCOD9418734
_publ_section_title
;
Structure prediction by ZEFSAII (Michael W. Deem and Ramdas Pophale) SiO2 
 PCOD9418734
Probable space group: P M N A
;
_chemical_formula_sum "Si O2"
_cell_formula_units_Z 48
_cell_length_a 9.811601
_cell_length_b 17.099145
_cell_length_c 14.275466
_cell_angle_alpha 90.000000
_cell_angle_beta 90.000000
_cell_angle_gamma 90.000000
_cell_volume 2394.994762
_symmetry_space_group_name_H-M "P M N A"
_symmetry_group_IT_number 53
_symmetry_cell_setting 'orthorhombic'
loop_
_space_group_symop_operation_xyz
x,y,z
1/2-x,-y,1/2+z
x,-y,-z
1/2-x,y,1/2-z
-x,-y,-z
1/2+x,y,1/2-z
-x,y,z
1/2+x,-y,1/2+z
loop_
_atom_site_type_symbol
_atom_site_label
_atom_site_fract_x
_atom_site_fract_y
_atom_site_fract_z
Si Si1 0.161343 0.908577 0.978263
Si Si2 0.848835 0.190375 0.838541
Si Si3 0.161009 0.806787 0.656835
Si Si4 0.281790 0.362998 0.640060
Si Si5 0.845788 0.537080 0.841674
Si Si6 0.351378 0.355953 0.045734
O O1 0.261246 0.875991 0.898358
O O2 0.000000 0.894253 0.955492
O O3 0.193481 0.861645 0.073502
O O4 0.177482 0.000000 0.000000
O O5 0.750000 0.184829 0.750000
O O6 0.855056 0.280310 0.872955
O O7 0.000000 0.165578 0.809248
O O8 0.250000 0.790709 0.750000
O O9 0.163881 0.729871 0.590476
O O10 0.000000 0.822828 0.676354
O O11 0.250000 0.363878 0.750000
O O12 0.349068 0.447155 0.624473
O O13 0.158839 0.356767 0.566543
O O14 0.750000 0.541064 0.750000
O O15 0.770521 0.591315 0.916191
O O16 0.000000 0.562972 0.822165
O O17 0.500000 0.387225 0.074504
#
# Coordination Sequence:
#
# PCOD9418734 Si02
#       6
#     8   8   8   8   8   8
#     4  10  22  42  67  96 129 165 207 257 316 376
#     4  10  21  38  62  91 125 164 204 253 306 369
#     4  11  24  43  67  95 127 168 215 261 315 376
#     4  10  22  39  61  90 123 164 208 258 310 371
#     4  11  24  40  61  91 127 167 215 262 315 374
#     4  11  24  42  65  92 125 168 215 264 316 373
#
# _framework density 20.041796999999999
#
# number of rings (size 3 to 8) (size 9 to 14) (size 15 to 20)
#    0.000    1.500    1.667    2.500    0.000   13.000 
#    0.000    1.667    0.000    0.000    0.000    0.000 
#    0.000    0.000    0.000    0.000    0.000    0.000 
#
# Total GULP energy -267804.564344 kJ/mol
# GULP energy per Si atom -5579.261757 kJ/mol
# Density = 1.999618 g / cm^3
# Si number density = 20.041797 Si / 1000 Ang^3
#
#
#
# Elastic Constant Matrix: (Units=GPa)
#
#
# Indices 1 2 3 4 5 6 
#
# 1 147.0725 34.0506 67.0359 0.0000 0.0000 0.0000
# 2 34.0506 87.3472 29.6573 0.0000 0.0000 0.0000
# 3 67.0359 29.6573 95.0104 0.0000 0.0000 0.0000
# 4 0.0000 0.0000 0.0000 27.9947 0.0000 0.0000
# 5 0.0000 0.0000 0.0000 0.0000 28.0902 0.0000
# 6 0.0000 0.0000 0.0000 0.0000 0.0000 21.5115
#
#
#
# Elastic Compliance Matrix: (Units=1/GPa)
#
#
# Indices 1 2 3 4 5 6 
#
# 1 0.010249 -0.001723 -0.006694 0.000000 0.000000 0.000000
# 2 -0.001723 0.013095 -0.002872 0.000000 0.000000 0.000000
# 3 -0.006694 -0.002872 0.016145 0.000000 0.000000 0.000000
# 4 0.000000 0.000000 0.000000 0.035721 0.000000 0.000000
# 5 0.000000 0.000000 0.000000 0.000000 0.035600 0.000000
# 6 0.000000 0.000000 0.000000 0.000000 0.000000 0.046487
#
#
# Mechanical properties :
#
#
# Convention : Reuss Voigt Hill
#
# Bulk Modulus (GPa) = 59.13019 65.65752 62.39385
# Shear Modulus (GPa) = 26.95257 28.76505 27.85881
#
# Velocity S-wave (km/s) = 3.67115 3.79258 3.73236
# Velocity P-wave (km/s) = 6.89473 7.21177 7.05503
#
# Compressibility (1/GPa) = 0.01691184
#
# Stress axis : x y z
#
# Youngs Moduli (GPa) = 97.56826 76.36302 61.94023
#
# Poissons Ratio (x) = 0.13155 0.41461
# Poissons Ratio (y) = 0.16808 0.17791
# Poissons Ratio (z) = 0.65310 0.21933
#
# Static dielectric constant tensor:
#      x y z
#    x 1.636880 0.000000 0.000000 
#    y 0.000000 1.696230 0.000000 
#    z 0.000000 0.000000 1.737570 
# 
# From -- ./inp_files/20216.got.cif
#   From: 2010.05.17/outbox.cif.g08.bks.cpg/sg53_11_cif.got.tgz:20216.got - 2010.06.03 12:45:16.
