data_PCOD9418072
_publ_section_title
;
Structure prediction by ZEFSAII (Michael W. Deem and Ramdas Pophale) SiO2 
 PCOD9418072
Probable space group: P M N A
;
_chemical_formula_sum "Si O2"
_cell_formula_units_Z 48
_cell_length_a 9.590701
_cell_length_b 17.304066
_cell_length_c 13.663937
_cell_angle_alpha 90.000000
_cell_angle_beta 90.000000
_cell_angle_gamma 90.000000
_cell_volume 2267.641339
_symmetry_space_group_name_H-M "P M N A"
_symmetry_group_IT_number 53
_symmetry_cell_setting 'orthorhombic'
loop_
_space_group_symop_operation_xyz
x,y,z
1/2-x,-y,1/2+z
x,-y,-z
1/2-x,y,1/2-z
-x,-y,-z
1/2+x,y,1/2-z
-x,y,z
1/2+x,-y,1/2+z
loop_
_atom_site_type_symbol
_atom_site_label
_atom_site_fract_x
_atom_site_fract_y
_atom_site_fract_z
Si Si1 0.500000 0.592131 0.487411
Si Si2 0.833516 0.827987 0.933860
Si Si3 0.500000 0.584514 0.054731
Si Si4 0.750000 0.561046 0.750000
Si Si5 0.335061 0.129367 0.662086
Si Si6 0.000000 0.452296 0.783572
Si Si7 0.840021 0.022391 0.386418
Si Si8 0.723820 0.338355 0.072904
O O1 0.500000 0.500000 0.500000
O O2 0.500000 0.608947 0.371103
O O3 0.628997 0.628855 0.540807
O O4 0.752627 0.899995 0.885220
O O5 0.748153 0.751192 0.907074
O O6 0.000000 0.825910 0.909446
O O7 0.825560 0.834979 0.052913
O O8 0.500000 0.574458 0.171061
O O9 0.500000 0.500000 0.000000
O O10 0.627351 0.635166 0.015700
O O11 0.864077 0.505189 0.796659
O O12 0.821109 0.615218 0.669438
O O13 0.250000 0.170872 0.750000
O O14 0.500000 0.122028 0.685176
O O15 0.254988 0.047444 0.652560
O O16 0.000000 0.029002 0.346666
O O17 0.856157 0.000000 0.500000
#
# Coordination Sequence:
#
# PCOD9418072 Si02
#       8
#     4   8   4   4   8   4   8   8
#     4  12  22  42  70  92 119 168 219 264 310 394
#     4  10  22  41  60  89 128 169 207 258 321 382
#     4  12  24  44  62  94 129 162 211 276 334 386
#     4  12  22  40  68  90 120 164 210 266 330 386
#     4  10  20  38  64  91 126 166 213 259 310 376
#     4  12  24  40  68  94 118 160 216 268 324 388
#     4   9  18  35  64  92 117 159 207 251 307 373
#     4  12  24  42  64  93 130 168 213 268 330 390
#
# _framework density 21.167368
#
# number of rings (size 3 to 8) (size 9 to 14) (size 15 to 20)
#    0.000    1.167    4.167    2.500    1.167    2.667 
#    4.500    0.000    0.000    0.000    0.000    0.000 
#    0.000    0.000    0.000    0.000    0.000    0.000 
#
# Total GULP energy -267934.562463 kJ/mol
# GULP energy per Si atom -5581.970051 kJ/mol
# Density = 2.111919 g / cm^3
# Si number density = 21.167368 Si / 1000 Ang^3
#
#
#
# Elastic Constant Matrix: (Units=GPa)
#
#
# Indices 1 2 3 4 5 6 
#
# 1 106.7882 -9.2336 -22.2108 0.0000 0.0000 0.0000
# 2 -9.2336 40.5036 -32.4072 0.0000 0.0000 0.0000
# 3 -22.2108 -32.4072 57.4511 0.0000 0.0000 0.0000
# 4 0.0000 0.0000 0.0000 14.5943 0.0000 0.0000
# 5 0.0000 0.0000 0.0000 0.0000 23.9808 0.0000
# 6 0.0000 0.0000 0.0000 0.0000 0.0000 -1.2128
#
#
#
# Elastic Compliance Matrix: (Units=1/GPa)
#
#
# Indices 1 2 3 4 5 6 
#
# 1 0.013006 0.012736 0.012212 0.000000 0.000000 0.000000
# 2 0.012736 0.057469 0.037341 0.000000 0.000000 0.000000
# 3 0.012212 0.037341 0.043191 0.000000 0.000000 0.000000
# 4 0.000000 0.000000 0.000000 0.068520 0.000000 0.000000
# 5 0.000000 0.000000 0.000000 0.000000 0.041700 0.000000
# 6 0.000000 0.000000 0.000000 0.000000 0.000000 -0.824563
#
#
# Mechanical properties :
#
#
# Convention : Reuss Voigt Hill
#
# Bulk Modulus (GPa) = 4.19738 8.55997 6.37868
# Shear Modulus (GPa) = -7.74185 25.37876 8.81845
#
# Velocity S-wave (km/s) = -1.91452 3.46635 2.04331
# Velocity P-wave (km/s) = 1.70292 4.48035 2.93032
#
# Compressibility (1/GPa) = 0.23824385
#
# Stress axis : x y z
#
# Youngs Moduli (GPa) = 76.89049 17.40054 23.15303
#
# Poissons Ratio (x) = -0.22161 -0.28274
# Poissons Ratio (y) = -0.97926 -0.86456
# Poissons Ratio (z) = -0.93899 -0.64976
#
# Static dielectric constant tensor:
#      x y z
#    x 1.812340 0.000000 0.000000 
#    y 0.000000 1.760500 0.000000 
#    z 0.000000 0.000000 1.870880 
# 
# From -- ./inp_files/20299.got.cif
#   From: 2010.05.17/outbox.cif.g08.bks.cpg/sg53_11_cif.got.tgz:20299.got - 2010.06.03 12:45:16.
