data_PCOD9418383
_publ_section_title
;
Structure prediction by ZEFSAII (Michael W. Deem and Ramdas Pophale) SiO2 
 PCOD9418383
Probable space group: P M N A
;
_chemical_formula_sum "Si O2"
_cell_formula_units_Z 52
_cell_length_a 8.311043
_cell_length_b 14.208302
_cell_length_c 22.275847
_cell_angle_alpha 90.000000
_cell_angle_beta 90.000000
_cell_angle_gamma 90.000000
_cell_volume 2630.461411
_symmetry_space_group_name_H-M "P M N A"
_symmetry_group_IT_number 53
_symmetry_cell_setting 'orthorhombic'
loop_
_space_group_symop_operation_xyz
x,y,z
1/2-x,-y,1/2+z
x,-y,-z
1/2-x,y,1/2-z
-x,-y,-z
1/2+x,y,1/2-z
-x,y,z
1/2+x,-y,1/2+z
loop_
_atom_site_type_symbol
_atom_site_label
_atom_site_fract_x
_atom_site_fract_y
_atom_site_fract_z
Si Si1 0.316638 0.443933 0.686590
Si Si2 0.258422 0.500000 0.000000
Si Si3 0.305333 0.139492 0.535788
Si Si4 0.823777 0.330881 0.587062
Si Si5 0.688734 0.608115 0.889870
Si Si6 0.695108 0.052266 0.407659
Si Si7 0.306280 0.209931 0.318772
O O1 0.250000 0.412577 0.750000
O O2 0.500000 0.475816 0.691269
O O3 0.299874 0.361433 0.638102
O O4 0.210802 0.530252 0.661904
O O5 0.331902 0.581145 0.041615
O O6 0.200785 0.430890 0.054876
O O7 0.500000 0.146771 0.537452
O O8 0.228929 0.237829 0.553144
O O9 0.259855 0.107976 0.468505
O O10 0.254182 0.055341 0.580913
O O11 0.000000 0.318662 0.614432
O O12 0.740239 0.706645 0.861257
O O13 0.000000 0.610589 0.591011
O O14 0.500000 0.050265 0.406675
O O15 0.746969 0.111453 0.349759
O O16 0.250000 0.219206 0.250000
O O17 0.500000 0.214775 0.319750
#
# Coordination Sequence:
#
# PCOD9418383 Si02
#       7
#     8   4   8   8   8   8   8
#     4  11  22  38  56  76 102 139 181 222 263 316
#     4  10  21  36  55  80 115 150 183 224 277 328
#     4   9  17  35  59  83 107 140 181 229 283 336
#     4  11  21  35  54  81 113 145 178 221 271 325
#     4  11  21  36  56  81 112 147 181 224 275 327
#     4   8  17  34  58  81 107 140 182 230 280 333
#     4  11  22  37  55  81 112 149 190 232 279 337
#
# _framework density 19.768395000000002
#
# number of rings (size 3 to 8) (size 9 to 14) (size 15 to 20)
#    0.000    1.846    0.000    7.385    0.000    0.000 
#    0.000   17.692    0.000    1.846    0.000    0.000 
#    0.000    0.000    0.000    0.000    0.000    0.000 
#
# Total GULP energy -289754.958209 kJ/mol
# GULP energy per Si atom -5572.210735 kJ/mol
# Density = 1.972340 g / cm^3
# Si number density = 19.768395 Si / 1000 Ang^3
#
#
#
# Elastic Constant Matrix: (Units=GPa)
#
#
# Indices 1 2 3 4 5 6 
#
# 1 54.8708 14.2591 17.6731 0.0000 0.0000 0.0000
# 2 14.2591 112.9602 43.6306 0.0000 0.0000 0.0000
# 3 17.6731 43.6306 105.1918 0.0000 0.0000 0.0000
# 4 0.0000 0.0000 0.0000 25.6803 0.0000 0.0000
# 5 0.0000 0.0000 0.0000 0.0000 -18.6169 0.0000
# 6 0.0000 0.0000 0.0000 0.0000 0.0000 -102.0509
#
#
#
# Elastic Compliance Matrix: (Units=1/GPa)
#
#
# Indices 1 2 3 4 5 6 
#
# 1 0.019457 -0.001421 -0.002679 0.000000 0.000000 0.000000
# 2 -0.001421 0.010645 -0.004177 0.000000 0.000000 0.000000
# 3 -0.002679 -0.004177 0.011689 0.000000 0.000000 0.000000
# 4 0.000000 0.000000 0.000000 0.038940 0.000000 0.000000
# 5 0.000000 0.000000 0.000000 0.000000 -0.053715 0.000000
# 6 0.000000 0.000000 0.000000 0.000000 0.000000 -0.009799
#
#
# Mechanical properties :
#
#
# Convention : Reuss Voigt Hill
#
# Bulk Modulus (GPa) = 39.62475 47.12759 43.37617
# Shear Modulus (GPa) = 118.52749 -5.83348 56.34701
#
# Velocity S-wave (km/s) = 7.75166 -1.71968 5.34467
# Velocity P-wave (km/s) = 10.01028 4.46638 7.75094
#
# Compressibility (1/GPa) = 0.02523675
#
# Stress axis : x y z
#
# Youngs Moduli (GPa) = 51.39553 93.93851 85.55089
#
# Poissons Ratio (x) = 0.13350 0.22923
# Poissons Ratio (y) = 0.07304 0.35731
# Poissons Ratio (z) = 0.13771 0.39234
#
# Static dielectric constant tensor:
#      x y z
#    x 1.693950 0.000000 0.000000 
#    y 0.000000 1.681060 0.000000 
#    z 0.000000 0.000000 1.700400 
# 
# From -- ./inp_files/30657.got.cif
#   From: 2010.05.17/outbox.cif.g08.bks.cpg/sg53_16_cif.got.tgz:30657.got - 2010.06.03 12:45:16.
