data_PCOD9418507
_publ_section_title
;
Structure prediction by ZEFSAII (Michael W. Deem and Ramdas Pophale) SiO2 
 PCOD9418507
Probable space group: P M N A
;
_chemical_formula_sum "Si O2"
_cell_formula_units_Z 56
_cell_length_a 8.062950
_cell_length_b 16.982335
_cell_length_c 19.534358
_cell_angle_alpha 90.000000
_cell_angle_beta 90.000000
_cell_angle_gamma 90.000000
_cell_volume 2674.795063
_symmetry_space_group_name_H-M "P M N A"
_symmetry_group_IT_number 53
_symmetry_cell_setting 'orthorhombic'
loop_
_space_group_symop_operation_xyz
x,y,z
1/2-x,-y,1/2+z
x,-y,-z
1/2-x,y,1/2-z
-x,-y,-z
1/2+x,y,1/2-z
-x,y,z
1/2+x,-y,1/2+z
loop_
_atom_site_type_symbol
_atom_site_label
_atom_site_fract_x
_atom_site_fract_y
_atom_site_fract_z
Si Si1 0.801481 0.307595 0.828915
Si Si2 0.304931 0.572836 0.956973
Si Si3 0.302180 0.145278 0.328787
Si Si4 0.200301 0.747897 0.553247
Si Si5 0.304128 0.996979 0.577522
Si Si6 0.805094 0.164163 0.578510
Si Si7 0.801261 0.485461 0.828587
O O1 0.750000 0.298130 0.750000
O O2 0.722380 0.239561 0.873927
O O3 0.750270 0.396315 0.849684
O O4 0.000000 0.302730 0.834337
O O5 0.500000 0.577305 0.974625
O O6 0.235597 0.660690 0.965190
O O7 0.283201 0.547307 0.878507
O O8 0.230289 0.500000 0.000000
O O9 0.250000 0.145352 0.250000
O O10 0.500000 0.141951 0.329623
O O11 0.248037 0.221550 0.372084
O O12 0.235134 0.069775 0.371904
O O13 0.260539 0.810178 0.496373
O O14 0.000000 0.745821 0.549185
O O15 0.500000 0.981113 0.571039
O O16 0.279954 0.085222 0.605130
O O17 0.232801 0.000000 0.500000
O O18 0.000000 0.147784 0.573491
O O19 0.750000 0.495900 0.750000
O O20 0.000000 0.491257 0.834267
#
# Coordination Sequence:
#
# PCOD9418507 Si02
#       7
#     8   8   8   8   8   8   8
#     4  10  21  37  57  83 118 155 195 244 297 354
#     4  10  21  38  60  86 120 157 197 247 299 352
#     4  11  24  42  65  90 121 159 200 250 301 356
#     4  10  22  39  60  88 120 158 200 243 295 354
#     4  10  21  40  63  87 118 157 198 242 296 352
#     4  11  22  36  61  91 120 155 196 242 293 354
#     4  10  21  37  58  83 112 152 197 243 296 354
#
# _framework density 20.936183
#
# number of rings (size 3 to 8) (size 9 to 14) (size 15 to 20)
#    0.000    1.714    1.429    2.571    0.000    6.857 
#    0.000    1.429    0.000    0.000    0.000    0.000 
#    0.000    0.000    0.000    0.000    0.000    0.000 
#
# Total GULP energy -312859.050516 kJ/mol
# GULP energy per Si atom -5586.768759 kJ/mol
# Density = 2.088853 g / cm^3
# Si number density = 20.936183 Si / 1000 Ang^3
#
#
#
# Elastic Constant Matrix: (Units=GPa)
#
#
# Indices 1 2 3 4 5 6 
#
# 1 27.7620 4.4338 -1.3669 0.0000 0.0000 0.0000
# 2 4.4338 110.7492 37.0323 0.0000 0.0000 0.0000
# 3 -1.3669 37.0323 71.4429 0.0000 0.0000 0.0000
# 4 0.0000 0.0000 0.0000 67.7063 0.0000 0.0000
# 5 0.0000 0.0000 0.0000 0.0000 21.2118 0.0000
# 6 0.0000 0.0000 0.0000 0.0000 0.0000 13.6076
#
#
#
# Elastic Compliance Matrix: (Units=1/GPa)
#
#
# Indices 1 2 3 4 5 6 
#
# 1 0.036434 -0.002046 0.001758 0.000000 0.000000 0.000000
# 2 -0.002046 0.011038 -0.005760 0.000000 0.000000 0.000000
# 3 0.001758 -0.005760 0.017017 0.000000 0.000000 0.000000
# 4 0.000000 0.000000 0.000000 0.014770 0.000000 0.000000
# 5 0.000000 0.000000 0.000000 0.000000 0.047143 0.000000
# 6 0.000000 0.000000 0.000000 0.000000 0.000000 0.073488
#
#
# Mechanical properties :
#
#
# Convention : Reuss Voigt Hill
#
# Bulk Modulus (GPa) = 19.08755 32.23916 25.66335
# Shear Modulus (GPa) = 21.79116 31.82881 26.80999
#
# Velocity S-wave (km/s) = 3.22970 3.90330 3.58237
# Velocity P-wave (km/s) = 4.80050 5.97884 5.42178
#
# Compressibility (1/GPa) = 0.05239017
#
# Stress axis : x y z
#
# Youngs Moduli (GPa) = 27.44696 90.60007 58.76562
#
# Poissons Ratio (x) = 0.18541 -0.10330
# Poissons Ratio (y) = 0.05617 0.33852
# Poissons Ratio (z) = -0.04825 0.52190
#
# Static dielectric constant tensor:
#      x y z
#    x 1.731090 0.000000 0.000000 
#    y 0.000000 1.768630 0.000000 
#    z 0.000000 0.000000 1.762040 
# 
# From -- ./inp_files/30767.got.cif
#   From: 2010.05.17/outbox.cif.g08.bks.cpg/sg53_16_cif.got.tgz:30767.got - 2010.06.03 12:45:16.
