data_PCOD9418088
_publ_section_title
;
Structure prediction by ZEFSAII (Michael W. Deem and Ramdas Pophale) SiO2 
 PCOD9418088
Probable space group: P M N A
;
_chemical_formula_sum "Si O2"
_cell_formula_units_Z 48
_cell_length_a 15.337287
_cell_length_b 15.412257
_cell_length_c 9.433283
_cell_angle_alpha 90.000000
_cell_angle_beta 90.000000
_cell_angle_gamma 90.000000
_cell_volume 2229.860273
_symmetry_space_group_name_H-M "P M N A"
_symmetry_group_IT_number 53
_symmetry_cell_setting 'orthorhombic'
loop_
_space_group_symop_operation_xyz
x,y,z
1/2-x,-y,1/2+z
x,-y,-z
1/2-x,y,1/2-z
-x,-y,-z
1/2+x,y,1/2-z
-x,y,z
1/2+x,-y,1/2+z
loop_
_atom_site_type_symbol
_atom_site_label
_atom_site_fract_x
_atom_site_fract_y
_atom_site_fract_z
Si Si1 0.600793 0.863958 0.122339
Si Si2 0.500000 0.384317 0.336250
Si Si3 0.340231 0.335661 0.835804
Si Si4 0.170962 0.340115 0.342210
Si Si5 0.901311 0.097747 0.944746
Si Si6 0.500000 0.592254 0.341393
Si Si7 0.234087 0.144186 0.399428
O O1 0.500000 0.868288 0.077354
O O2 0.629093 0.764017 0.146585
O O3 0.610000 0.905266 0.276338
O O4 0.665750 0.899562 0.004400
O O5 0.416182 0.352712 0.248226
O O6 0.500000 0.488511 0.344268
O O7 0.500000 0.362198 0.503743
O O8 0.250000 0.339059 0.750000
O O9 0.414680 0.380460 0.744540
O O10 0.333833 0.373230 0.995836
O O11 0.250000 0.379051 0.250000
O O12 0.192709 0.237746 0.361303
O O13 0.000000 0.129529 0.974557
O O14 0.825654 0.153220 0.018656
O O15 0.893465 0.000000 0.000000
O O16 0.250000 0.097979 0.250000
#
# Coordination Sequence:
#
# PCOD9418088 Si02
#       7
#     8   4   8   8   8   4   8
#     4  10  20  38  65  94 127 168 218 270 317 387
#     4  11  25  43  65  87 138 163 218 271 344 403
#     4  11  21  38  66  96 128 166 225 263 321 401
#     4  10  22  41  62  95 128 169 209 273 335 389
#     4  10  22  41  64  94 133 179 226 276 333 386
#     4  11  25  43  63  97 118 179 214 273 333 407
#     4  10  22  38  60  95 126 168 214 267 327 390
#
# _framework density 21.526012000000001
#
# number of rings (size 3 to 8) (size 9 to 14) (size 15 to 20)
#    0.000    1.667    0.833    4.000    3.500    5.333 
#    4.500    0.000    0.000    3.500    0.000    0.000 
#    0.000    0.000    0.000    0.000    0.000    0.000 
#
# Total GULP energy -268276.569091 kJ/mol
# GULP energy per Si atom -5589.095189 kJ/mol
# Density = 2.147702 g / cm^3
# Si number density = 21.526012 Si / 1000 Ang^3
#
#
#
# Elastic Constant Matrix: (Units=GPa)
#
#
# Indices 1 2 3 4 5 6 
#
# 1 215.1721 27.6366 126.8386 0.0000 0.0000 0.0000
# 2 27.6366 53.1546 26.4934 0.0000 0.0000 0.0000
# 3 126.8386 26.4934 203.9634 0.0000 0.0000 0.0000
# 4 0.0000 0.0000 0.0000 171.9252 0.0000 0.0000
# 5 0.0000 0.0000 0.0000 0.0000 -30.4284 0.0000
# 6 0.0000 0.0000 0.0000 0.0000 0.0000 308.9176
#
#
#
# Elastic Compliance Matrix: (Units=1/GPa)
#
#
# Indices 1 2 3 4 5 6 
#
# 1 0.007474 -0.001678 -0.004430 0.000000 0.000000 0.000000
# 2 -0.001678 0.020492 -0.001618 0.000000 0.000000 0.000000
# 3 -0.004430 -0.001618 0.007868 0.000000 0.000000 0.000000
# 4 0.000000 0.000000 0.000000 0.005816 0.000000 0.000000
# 5 0.000000 0.000000 0.000000 0.000000 -0.032864 0.000000
# 6 0.000000 0.000000 0.000000 0.000000 0.000000 0.003237
#
#
# Mechanical properties :
#
#
# Convention : Reuss Voigt Hill
#
# Bulk Modulus (GPa) = 49.06381 92.69192 70.87787
# Shear Modulus (GPa) = 145.89610 109.50430 127.70020
#
# Velocity S-wave (km/s) = 8.24159 7.14011 7.71054
# Velocity P-wave (km/s) = 10.64929 10.54176 10.59566
#
# Compressibility (1/GPa) = 0.02038162
#
# Stress axis : x y z
#
# Youngs Moduli (GPa) = 133.78925 48.79926 127.09682
#
# Poissons Ratio (x) = 0.08189 0.56306
# Poissons Ratio (y) = 0.22451 0.20567
# Poissons Ratio (z) = 0.59271 0.07897
#
# Static dielectric constant tensor:
#      x y z
#    x 1.766790 0.000000 0.000000 
#    y 0.000000 1.792420 0.000000 
#    z 0.000000 0.000000 1.825990 
# 
# From -- ./inp_files/8732.got.cif
#   From: 2010.05.17/outbox.cif.g08.bks.cpg/sg53_5_cif.got.tgz:8732.got - 2010.06.03 12:45:16.
