data_PCOD9418736
_publ_section_title
;
Structure prediction by ZEFSAII (Michael W. Deem and Ramdas Pophale) SiO2 
 PCOD9418736
Probable space group: P M N A
;
_chemical_formula_sum "Si O2"
_cell_formula_units_Z 56
_cell_length_a 8.682733
_cell_length_b 21.630700
_cell_length_c 15.795610
_cell_angle_alpha 90.000000
_cell_angle_beta 90.000000
_cell_angle_gamma 90.000000
_cell_volume 2966.630263
_symmetry_space_group_name_H-M "P M N A"
_symmetry_group_IT_number 53
_symmetry_cell_setting 'orthorhombic'
loop_
_space_group_symop_operation_xyz
x,y,z
1/2-x,-y,1/2+z
x,-y,-z
1/2-x,y,1/2-z
-x,-y,-z
1/2+x,y,1/2-z
-x,y,z
1/2+x,-y,1/2+z
loop_
_atom_site_type_symbol
_atom_site_label
_atom_site_fract_x
_atom_site_fract_y
_atom_site_fract_z
Si Si1 0.815709 0.853164 0.999999
Si Si2 0.312892 0.500001 0.098118
Si Si3 0.685231 0.634407 0.840330
Si Si4 0.815594 0.927727 0.658257
Si Si5 0.815594 0.072276 0.658257
Si Si6 0.185231 0.634408 0.340330
Si Si7 0.184878 0.708484 0.999999
O O1 0.750414 0.886672 0.083014
O O2 0.000000 0.858252 0.999999
O O3 0.750414 0.886674 0.916986
O O4 0.774374 0.780846 0.999998
O O5 0.500000 0.500001 0.097741
O O6 0.263712 0.436633 0.142398
O O7 0.263711 0.563369 0.142398
O O8 0.262914 0.500000 0.000000
O O9 0.750000 0.654887 0.750000
O O10 0.500000 0.636222 0.840031
O O11 0.747476 0.675323 0.917210
O O12 0.750000 0.909610 0.750000
O O13 0.000000 0.923397 0.659459
O O14 0.773792 0.000001 0.644130
O O15 0.750000 0.090392 0.750000
O O16 0.000000 0.076606 0.659459
O O17 0.250000 0.654889 0.250000
O O18 0.247476 0.675325 0.417210
O O19 0.000000 0.636224 0.340031
O O20 0.000000 0.702662 1.000000
#
# Coordination Sequence:
#
# PCOD9418736 Si02
#       7
#     8   8   8   8   8   8   8
#     4  11  24  40  60  85 118 158 199 244 291 344
#     4   9  17  34  60  89 118 148 188 239 294 351
#     4  11  22  39  63  88 118 154 193 241 296 352
#     4  10  21  38  62  92 123 154 192 239 290 346
#     4  10  21  38  62  92 123 154 192 239 290 346
#     4  11  22  39  63  88 118 154 193 241 296 352
#     4  11  25  43  59  83 117 156 203 246 289 345
#
# _framework density 18.876636000000001
#
# number of rings (size 3 to 8) (size 9 to 14) (size 15 to 20)
#    0.000    1.571    1.429    3.429    0.000    6.857 
#    0.000    2.857    0.000    0.000    0.000    0.000 
#    0.000    0.000    0.000    0.000    0.000    0.000 
#
# Total GULP energy -313060.220821 kJ/mol
# GULP energy per Si atom -5590.361086 kJ/mol
# Density = 1.883367 g / cm^3
# Si number density = 18.876636 Si / 1000 Ang^3
#
#
#
# Elastic Constant Matrix: (Units=GPa)
#
#
# Indices 1 2 3 4 5 6 
#
# 1 58.1676 59.2963 61.6132 0.0000 0.0000 0.0000
# 2 59.2963 135.4158 113.3952 0.0000 0.0000 0.0000
# 3 61.6132 113.3952 212.3594 0.0000 0.0000 0.0000
# 4 0.0000 0.0000 0.0000 18.6655 0.0000 0.0000
# 5 0.0000 0.0000 0.0000 0.0000 36.7309 0.0000
# 6 0.0000 0.0000 0.0000 0.0000 0.0000 27.2551
#
#
#
# Elastic Compliance Matrix: (Units=1/GPa)
#
#
# Indices 1 2 3 4 5 6 
#
# 1 0.032274 -0.011379 -0.003288 0.000000 0.000000 0.000000
# 2 -0.011379 0.017369 -0.005973 0.000000 0.000000 0.000000
# 3 -0.003288 -0.005973 0.008852 0.000000 0.000000 0.000000
# 4 0.000000 0.000000 0.000000 0.053575 0.000000 0.000000
# 5 0.000000 0.000000 0.000000 0.000000 0.027225 0.000000
# 6 0.000000 0.000000 0.000000 0.000000 0.000000 0.036690
#
#
# Mechanical properties :
#
#
# Convention : Reuss Voigt Hill
#
# Bulk Modulus (GPa) = 58.08697 97.17245 77.62971
# Shear Modulus (GPa) = 22.42098 27.97285 25.19692
#
# Velocity S-wave (km/s) = 3.45013 3.85369 3.65748
# Velocity P-wave (km/s) = 6.83447 8.44930 7.68442
#
# Compressibility (1/GPa) = 0.01721556
#
# Stress axis : x y z
#
# Youngs Moduli (GPa) = 30.98454 57.57230 112.96255
#
# Poissons Ratio (x) = 0.65513 0.37138
# Poissons Ratio (y) = 0.35258 0.67477
# Poissons Ratio (z) = 0.10187 0.34390
#
# Static dielectric constant tensor:
#      x y z
#    x 1.630470 0.000000 0.000000 
#    y 0.000000 1.644440 0.000000 
#    z 0.000000 0.000000 1.619130 
# 
# From -- ./inp_files/20636.got.cif
#   From: 2010.05.17/outbox.cif.g08.bks.cpg/sg53_11_cif.got.tgz:20636.got - 2010.06.03 12:45:16.
