data_PCOD9418698
_publ_section_title
;
Structure prediction by ZEFSAII (Michael W. Deem and Ramdas Pophale) SiO2 
 PCOD9418698
Probable space group: P M N A
;
_chemical_formula_sum "Si O2"
_cell_formula_units_Z 48
_cell_length_a 8.510449
_cell_length_b 17.163734
_cell_length_c 16.330001
_cell_angle_alpha 90.000000
_cell_angle_beta 90.000000
_cell_angle_gamma 90.000000
_cell_volume 2385.340929
_symmetry_space_group_name_H-M "P M N A"
_symmetry_group_IT_number 53
_symmetry_cell_setting 'orthorhombic'
loop_
_space_group_symop_operation_xyz
x,y,z
1/2-x,-y,1/2+z
x,-y,-z
1/2-x,y,1/2-z
-x,-y,-z
1/2+x,y,1/2-z
-x,y,z
1/2+x,-y,1/2+z
loop_
_atom_site_type_symbol
_atom_site_label
_atom_site_fract_x
_atom_site_fract_y
_atom_site_fract_z
Si Si1 0.186217 0.166772 0.887426
Si Si2 0.688920 0.689993 0.840125
Si Si3 0.188810 0.008285 0.160079
Si Si4 0.312251 0.844895 0.932160
Si Si5 0.808023 0.409729 0.497431
Si Si6 0.814138 0.672073 0.335699
O O1 0.272090 0.236915 0.842314
O O2 0.000000 0.174105 0.874290
O O3 0.236014 0.080546 0.859295
O O4 0.227754 0.173560 0.982913
O O5 0.750000 0.670570 0.750000
O O6 0.500000 0.685669 0.837893
O O7 0.731431 0.778380 0.866349
O O8 0.743515 0.634263 0.914621
O O9 0.250000 0.028522 0.250000
O O10 0.261694 0.070254 0.098024
O O11 0.000000 0.013138 0.156036
O O12 0.500000 0.841185 0.944561
O O13 0.762599 0.500000 0.500000
O O14 0.753154 0.367903 0.580886
O O15 0.000000 0.406033 0.497328
O O16 0.750000 0.640147 0.250000
O O17 0.000000 0.662772 0.334955
#
# Coordination Sequence:
#
# PCOD9418698 Si02
#       6
#     8   8   8   8   8   8
#     4  11  23  39  60  86 119 159 205 254 304 358
#     4  10  21  38  60  90 120 157 201 242 296 358
#     4  11  24  39  55  82 117 157 204 252 302 359
#     4  11  22  38  60  86 118 158 204 251 304 364
#     4   9  19  39  64  88 121 161 198 244 304 369
#     4  11  22  39  63  92 124 161 206 251 303 367
#
# _framework density 20.122909
#
# number of rings (size 3 to 8) (size 9 to 14) (size 15 to 20)
#    0.000    1.500    1.667    3.500    0.000    9.333 
#    0.000    0.000    0.000    3.500    0.000    0.000 
#    0.000    0.000    0.000    0.000    0.000    0.000 
#
# Total GULP energy -268290.332087 kJ/mol
# GULP energy per Si atom -5589.381918 kJ/mol
# Density = 2.007711 g / cm^3
# Si number density = 20.122909 Si / 1000 Ang^3
#
#
#
# Elastic Constant Matrix: (Units=GPa)
#
#
# Indices 1 2 3 4 5 6 
#
# 1 10.9546 2.8403 0.4771 0.0000 0.0000 0.0000
# 2 2.8403 90.6411 27.9729 0.0000 0.0000 0.0000
# 3 0.4771 27.9729 130.3427 0.0000 0.0000 0.0000
# 4 0.0000 0.0000 0.0000 12.3992 0.0000 0.0000
# 5 0.0000 0.0000 0.0000 0.0000 26.0621 0.0000
# 6 0.0000 0.0000 0.0000 0.0000 0.0000 34.2331
#
#
#
# Elastic Compliance Matrix: (Units=1/GPa)
#
#
# Indices 1 2 3 4 5 6 
#
# 1 0.092045 -0.002977 0.000302 0.000000 0.000000 0.000000
# 2 -0.002977 0.011911 -0.002545 0.000000 0.000000 0.000000
# 3 0.000302 -0.002545 0.008217 0.000000 0.000000 0.000000
# 4 0.000000 0.000000 0.000000 0.080650 0.000000 0.000000
# 5 0.000000 0.000000 0.000000 0.000000 0.038370 0.000000
# 6 0.000000 0.000000 0.000000 0.000000 0.000000 0.029211
#
#
# Mechanical properties :
#
#
# Convention : Reuss Voigt Hill
#
# Bulk Modulus (GPa) = 9.82979 32.72433 21.27706
# Shear Modulus (GPa) = 16.40653 27.91544 22.16099
#
# Velocity S-wave (km/s) = 2.85847 3.72862 3.32216
# Velocity P-wave (km/s) = 3.97366 5.90206 5.03112
#
# Compressibility (1/GPa) = 0.10173155
#
# Stress axis : x y z
#
# Youngs Moduli (GPa) = 10.86431 83.95349 121.69530
#
# Poissons Ratio (x) = 0.24997 -0.03676
# Poissons Ratio (y) = 0.03235 0.30976
# Poissons Ratio (z) = -0.00328 0.21370
#
# Static dielectric constant tensor:
#      x y z
#    x 1.694180 0.000000 0.000000 
#    y 0.000000 1.705790 0.000000 
#    z 0.000000 0.000000 1.684030 
# 
# From -- ./inp_files/20159.got.cif
#   From: 2010.05.17/outbox.cif.g08.bks.cpg/sg53_11_cif.got.tgz:20159.got - 2010.06.03 12:45:16.
