data_PCOD9418498
_publ_section_title
;
Structure prediction by ZEFSAII (Michael W. Deem and Ramdas Pophale) SiO2 
 PCOD9418498
Probable space group: P M N A
;
_chemical_formula_sum "Si O2"
_cell_formula_units_Z 48
_cell_length_a 8.316350
_cell_length_b 32.091352
_cell_length_c 9.282868
_cell_angle_alpha 90.000000
_cell_angle_beta 90.000000
_cell_angle_gamma 90.000000
_cell_volume 2477.438873
_symmetry_space_group_name_H-M "P M N A"
_symmetry_group_IT_number 53
_symmetry_cell_setting 'orthorhombic'
loop_
_space_group_symop_operation_xyz
x,y,z
1/2-x,-y,1/2+z
x,-y,-z
1/2-x,y,1/2-z
-x,-y,-z
1/2+x,y,1/2-z
-x,y,z
1/2+x,-y,1/2+z
loop_
_atom_site_type_symbol
_atom_site_label
_atom_site_fract_x
_atom_site_fract_y
_atom_site_fract_z
Si Si1 0.305581 0.123657 0.085291
Si Si2 0.692598 0.713329 0.586462
Si Si3 0.805725 0.459865 0.913881
Si Si4 0.194395 0.041223 0.585225
Si Si5 0.305598 0.367592 0.585049
Si Si6 0.192665 0.794171 0.414301
O O1 0.250000 0.122966 0.250000
O O2 0.500000 0.123674 0.084461
O O3 0.250747 0.082658 0.998763
O O4 0.250026 0.165339 0.003229
O O5 0.750000 0.717247 0.750000
O O6 0.500000 0.712696 0.585568
O O7 0.751940 0.670313 0.513779
O O8 0.749141 0.752399 0.492315
O O9 0.750000 0.463341 0.750000
O O10 0.753006 0.413803 0.965434
O O11 0.000000 0.460360 0.918675
O O12 0.745362 0.500000 0.000000
O O13 0.250000 0.041030 0.750000
O O14 0.000000 0.041210 0.584612
O O15 0.249309 0.000000 0.500000
O O16 0.250000 0.361933 0.750000
O O17 0.500000 0.367080 0.584976
O O18 0.250000 0.795852 0.250000
O O19 0.000000 0.794419 0.415130
#
# Coordination Sequence:
#
# PCOD9418498 Si02
#       6
#     8   8   8   8   8   8
#     4  10  22  38  57  83 113 145 182 225 271 321
#     4  11  23  38  56  80 110 142 179 223 271 321
#     4   9  18  33  52  75 104 136 172 214 260 312
#     4  10  21  37  57  83 113 145 184 226 270 322
#     4   9  19  35  54  76 103 137 175 216 262 314
#     4  11  23  39  59  83 111 144 183 224 270 323
#
# _framework density 19.374849000000001
#
# number of rings (size 3 to 8) (size 9 to 14) (size 15 to 20)
#    0.000    2.000    0.000    3.000    0.000    7.333 
#    0.000    0.000    0.000    0.000    0.000    0.000 
#    0.000    0.000    0.000    0.000    0.000    0.000 
#
# Total GULP energy -268110.585347 kJ/mol
# GULP energy per Si atom -5585.637195 kJ/mol
# Density = 1.933075 g / cm^3
# Si number density = 19.374849 Si / 1000 Ang^3
#
#
#
# Elastic Constant Matrix: (Units=GPa)
#
#
# Indices 1 2 3 4 5 6 
#
# 1 16.5972 27.7761 16.1523 0.0000 0.0000 0.0000
# 2 27.7761 228.7829 128.2895 0.0000 0.0000 0.0000
# 3 16.1523 128.2895 174.0488 0.0000 0.0000 0.0000
# 4 0.0000 0.0000 0.0000 42.9764 0.0000 0.0000
# 5 0.0000 0.0000 0.0000 0.0000 37.3867 0.0000
# 6 0.0000 0.0000 0.0000 0.0000 0.0000 19.5484
#
#
#
# Elastic Compliance Matrix: (Units=1/GPa)
#
#
# Indices 1 2 3 4 5 6 
#
# 1 0.075633 -0.008943 -0.000427 0.000000 0.000000 0.000000
# 2 -0.008943 0.008508 -0.005441 0.000000 0.000000 0.000000
# 3 -0.000427 -0.005441 0.009796 0.000000 0.000000 0.000000
# 4 0.000000 0.000000 0.000000 0.023269 0.000000 0.000000
# 5 0.000000 0.000000 0.000000 0.000000 0.026747 0.000000
# 6 0.000000 0.000000 0.000000 0.000000 0.000000 0.051155
#
#
# Mechanical properties :
#
#
# Convention : Reuss Voigt Hill
#
# Bulk Modulus (GPa) = 15.54863 84.87384 50.21124
# Shear Modulus (GPa) = 20.31127 36.46302 28.38714
#
# Velocity S-wave (km/s) = 3.24131 4.34288 3.83189
# Velocity P-wave (km/s) = 4.69582 8.30956 6.74905
#
# Compressibility (1/GPa) = 0.06431434
#
# Stress axis : x y z
#
# Youngs Moduli (GPa) = 13.22168 117.53988 102.08558
#
# Poissons Ratio (x) = 1.05115 0.04362
# Poissons Ratio (y) = 0.11824 0.55545
# Poissons Ratio (z) = 0.00565 0.63954
#
# Static dielectric constant tensor:
#      x y z
#    x 1.678900 0.000000 0.000000 
#    y 0.000000 1.697050 0.000000 
#    z 0.000000 0.000000 1.625350 
# 
# From -- ./inp_files/6570.got.cif
#   From: 2010.05.17/outbox.cif.g08.bks.cpg/sg53_4_cif.got.tgz:6570.got - 2010.06.03 12:45:16.
