data_PCOD9418745
_publ_section_title
;
Structure prediction by ZEFSAII (Michael W. Deem and Ramdas Pophale) SiO2 
 PCOD9418745
Probable space group: P M N A
;
_chemical_formula_sum "Si O2"
_cell_formula_units_Z 40
_cell_length_a 18.080701
_cell_length_b 12.000952
_cell_length_c 8.920020
_cell_angle_alpha 90.000000
_cell_angle_beta 90.000000
_cell_angle_gamma 90.000000
_cell_volume 1935.516113
_symmetry_space_group_name_H-M "P M N A"
_symmetry_group_IT_number 53
_symmetry_cell_setting 'orthorhombic'
loop_
_space_group_symop_operation_xyz
x,y,z
1/2-x,-y,1/2+z
x,-y,-z
1/2-x,y,1/2-z
-x,-y,-z
1/2+x,y,1/2-z
-x,y,z
1/2+x,-y,1/2+z
loop_
_atom_site_type_symbol
_atom_site_label
_atom_site_fract_x
_atom_site_fract_y
_atom_site_fract_z
Si Si1 0.087601 0.903563 0.124315
Si Si2 0.337232 0.704142 0.263994
Si Si3 0.321988 0.539212 0.828514
Si Si4 0.412442 0.262850 0.059408
Si Si5 0.177848 0.949006 0.655985
O O1 0.126333 0.782479 0.109222
O O2 0.000000 0.888116 0.144441
O O3 0.128231 0.956955 0.266347
O O4 0.097994 0.000000 0.000000
O O5 0.250000 0.732033 0.250000
O O6 0.340857 0.569680 0.271130
O O7 0.380126 0.727527 0.108648
O O8 0.250000 0.591458 0.750000
O O9 0.387004 0.627215 0.850859
O O10 0.303829 0.500000 0.000000
O O11 0.500000 0.251420 0.055781
O O12 0.373547 0.157092 0.132854
O O13 0.250000 0.921271 0.750000
O O14 0.204190 0.000000 0.500000
#
# Coordination Sequence:
#
# PCOD9418745 Si02
#       5
#     8   8   8   8   8
#     4  11  24  40  61  90 129 170 214 268 327 392
#     4  10  21  38  63  91 129 168 216 267 326 390
#     4   9  20  40  64  94 126 170 217 275 327 393
#     4  11  23  39  65  97 128 166 218 277 334 395
#     4  12  25  40  64  92 126 169 218 271 331 406
#
# _framework density 20.666321
#
# number of rings (size 3 to 8) (size 9 to 14) (size 15 to 20)
#    0.000    1.400    2.000    3.000    2.800    5.200 
#    3.600    0.000    0.000    0.600    0.000    0.000 
#    0.000    0.000    0.000    0.000    0.000    0.000 
#
# Total GULP energy -223422.746559 kJ/mol
# GULP energy per Si atom -5585.568664 kJ/mol
# Density = 2.061928 g / cm^3
# Si number density = 20.666321 Si / 1000 Ang^3
#
#
#
# Elastic Constant Matrix: (Units=GPa)
#
#
# Indices 1 2 3 4 5 6 
#
# 1 191.9939 70.7502 45.3644 0.0000 0.0000 0.0000
# 2 70.7502 100.1453 20.2680 0.0000 0.0000 0.0000
# 3 45.3644 20.2680 44.3238 0.0000 0.0000 0.0000
# 4 0.0000 0.0000 0.0000 30.7567 0.0000 0.0000
# 5 0.0000 0.0000 0.0000 0.0000 322.4154 0.0000
# 6 0.0000 0.0000 0.0000 0.0000 0.0000 3.0512
#
#
#
# Elastic Compliance Matrix: (Units=1/GPa)
#
#
# Indices 1 2 3 4 5 6 
#
# 1 0.008471 -0.004661 -0.006539 0.000000 0.000000 0.000000
# 2 -0.004661 0.013569 -0.001434 0.000000 0.000000 0.000000
# 3 -0.006539 -0.001434 0.029909 0.000000 0.000000 0.000000
# 4 0.000000 0.000000 0.000000 0.032513 0.000000 0.000000
# 5 0.000000 0.000000 0.000000 0.000000 0.003102 0.000000
# 6 0.000000 0.000000 0.000000 0.000000 0.000000 0.327736
#
#
# Mechanical properties :
#
#
# Convention : Reuss Voigt Hill
#
# Bulk Modulus (GPa) = 37.47922 67.69201 52.58561
# Shear Modulus (GPa) = 11.12443 84.58336 47.85389
#
# Velocity S-wave (km/s) = 2.32262 6.40445 4.81724
# Velocity P-wave (km/s) = 5.03662 9.35495 7.51274
#
# Compressibility (1/GPa) = 0.02668146
#
# Stress axis : x y z
#
# Youngs Moduli (GPa) = 118.04787 73.69843 33.43486
#
# Poissons Ratio (x) = 0.34353 0.21861
# Poissons Ratio (y) = 0.55026 0.04794
# Poissons Ratio (z) = 0.77186 0.10567
#
# Static dielectric constant tensor:
#      x y z
#    x 1.683850 0.000000 0.000000 
#    y 0.000000 1.846320 0.000000 
#    z 0.000000 0.000000 1.767000 
# 
# From -- ./inp_files/9622.got.cif
#   From: 2010.05.17/outbox.cif.g08.bks.cpg/sg53_5_cif.got.tgz:9622.got - 2010.06.03 12:45:16.
