data_PCOD9418377
_publ_section_title
;
Structure prediction by ZEFSAII (Michael W. Deem and Ramdas Pophale) SiO2 
 PCOD9418377
Probable space group: P M N A
;
_chemical_formula_sum "Si O2"
_cell_formula_units_Z 64
_cell_length_a 8.654129
_cell_length_b 40.928056
_cell_length_c 10.227804
_cell_angle_alpha 90.000000
_cell_angle_beta 90.000000
_cell_angle_gamma 90.000000
_cell_volume 3622.654183
_symmetry_space_group_name_H-M "P M N A"
_symmetry_group_IT_number 53
_symmetry_cell_setting 'orthorhombic'
loop_
_space_group_symop_operation_xyz
x,y,z
1/2-x,-y,1/2+z
x,-y,-z
1/2-x,y,1/2-z
-x,-y,-z
1/2+x,y,1/2-z
-x,y,z
1/2+x,-y,1/2+z
loop_
_atom_site_type_symbol
_atom_site_label
_atom_site_fract_x
_atom_site_fract_y
_atom_site_fract_z
Si Si1 0.685229 0.275746 0.606572
Si Si2 0.814163 0.221428 0.107144
Si Si3 0.185359 0.972755 0.392364
Si Si4 0.815008 0.850509 0.605551
Si Si5 0.814464 0.527094 0.893682
Si Si6 0.685461 0.347224 0.893783
Si Si7 0.814420 0.401338 0.393742
Si Si8 0.184906 0.900946 0.105386
O O1 0.750000 0.267413 0.750000
O O2 0.500000 0.277879 0.613976
O O3 0.726891 0.248478 0.500267
O O4 0.751271 0.311357 0.571116
O O5 0.750000 0.230572 0.250000
O O6 0.743634 0.186069 0.074100
O O7 0.000000 0.218556 0.113633
O O8 0.250000 0.982199 0.250000
O O9 0.258697 0.937693 0.425942
O O10 0.000000 0.969092 0.384438
O O11 0.221952 0.000000 0.500000
O O12 0.750000 0.858327 0.750000
O O13 0.750980 0.875817 0.499975
O O14 0.000000 0.851097 0.608386
O O15 0.750000 0.518889 0.750000
O O16 0.749746 0.562853 0.928635
O O17 0.000000 0.528787 0.887181
O O18 0.769971 0.500000 0.000000
O O19 0.750000 0.355272 0.750000
O O20 0.500000 0.345819 0.887340
O O21 0.730840 0.374279 0.000003
O O22 0.750000 0.393191 0.250000
O O23 0.000000 0.402888 0.387439
O O24 0.250000 0.893348 0.250000
O O25 0.000000 0.899813 0.107662
#
# Coordination Sequence:
#
# PCOD9418377 Si02
#       8
#     8   8   8   8   8   8   8   8
#     4  10  21  36  56  80 108 141 178 220 266 317
#     4  10  21  37  56  81 110 142 181 223 269 321
#     4  10  21  37  57  82 112 145 184 228 274 326
#     4  11  22  38  59  83 112 146 184 227 275 326
#     4  10  21  36  55  79 106 138 175 216 262 312
#     4  10  21  36  55  79 107 139 177 218 263 314
#     4  10  21  36  55  79 106 139 176 217 263 312
#     4  11  22  38  59  83 113 147 185 229 276 327
#
# _framework density 17.666606000000002
#
# number of rings (size 3 to 8) (size 9 to 14) (size 15 to 20)
#    0.000    1.750    0.000    7.500    0.000    8.000 
#    0.000    7.500    0.000    0.000    0.000    0.000 
#    0.000    0.000    0.000    0.000    0.000    0.000 
#
# Total GULP energy -357541.666696 kJ/mol
# GULP energy per Si atom -5586.588542 kJ/mol
# Density = 1.762640 g / cm^3
# Si number density = 17.666606 Si / 1000 Ang^3
#
#
#
# Elastic Constant Matrix: (Units=GPa)
#
#
# Indices 1 2 3 4 5 6 
#
# 1 107.6142 76.1417 75.4014 0.0000 0.0000 0.0000
# 2 76.1417 156.2224 150.4972 0.0000 0.0000 0.0000
# 3 75.4014 150.4972 154.7690 0.0000 0.0000 0.0000
# 4 0.0000 0.0000 0.0000 43.7937 0.0000 0.0000
# 5 0.0000 0.0000 0.0000 0.0000 70.2448 0.0000
# 6 0.0000 0.0000 0.0000 0.0000 0.0000 36.7581
#
#
#
# Elastic Compliance Matrix: (Units=1/GPa)
#
#
# Indices 1 2 3 4 5 6 
#
# 1 0.014271 -0.004076 -0.002989 0.000000 0.000000 0.000000
# 2 -0.004076 0.102387 -0.097576 0.000000 0.000000 0.000000
# 3 -0.002989 -0.097576 0.102800 0.000000 0.000000 0.000000
# 4 0.000000 0.000000 0.000000 0.022834 0.000000 0.000000
# 5 0.000000 0.000000 0.000000 0.000000 0.014236 0.000000
# 6 0.000000 0.000000 0.000000 0.000000 0.000000 0.027205
#
#
# Mechanical properties :
#
#
# Convention : Reuss Voigt Hill
#
# Bulk Modulus (GPa) = 98.26342 113.63181 105.94761
# Shear Modulus (GPa) = 10.07239 37.93035 24.00137
#
# Velocity S-wave (km/s) = 2.39034 4.63861 3.68988
# Velocity P-wave (km/s) = 7.95990 9.65136 8.84615
#
# Compressibility (1/GPa) = 0.01017673
#
# Stress axis : x y z
#
# Youngs Moduli (GPa) = 70.07386 9.76684 9.72763
#
# Poissons Ratio (x) = 0.03981 0.02908
# Poissons Ratio (y) = 0.28560 0.94918
# Poissons Ratio (z) = 0.20947 0.95301
#
# Static dielectric constant tensor:
#      x y z
#    x 1.594020 0.000000 0.000000 
#    y 0.000000 1.580300 0.000000 
#    z 0.000000 0.000000 1.579490 
# 
# From -- ./inp_files/14253.got.cif
#   From: 2010.05.17/outbox.cif.g08.bks.cpg/sg53_8_cif.got.tgz:14253.got - 2010.06.03 12:45:16.
