data_PCOD9418271
_publ_section_title
;
Structure prediction by ZEFSAII (Michael W. Deem and Ramdas Pophale) SiO2 
 PCOD9418271
Probable space group: P M N A
;
_chemical_formula_sum "Si O2"
_cell_formula_units_Z 48
_cell_length_a 8.089201
_cell_length_b 32.655862
_cell_length_c 9.271654
_cell_angle_alpha 90.000000
_cell_angle_beta 90.000000
_cell_angle_gamma 90.000000
_cell_volume 2449.198559
_symmetry_space_group_name_H-M "P M N A"
_symmetry_group_IT_number 53
_symmetry_cell_setting 'orthorhombic'
loop_
_space_group_symop_operation_xyz
x,y,z
1/2-x,-y,1/2+z
x,-y,-z
1/2-x,y,1/2-z
-x,-y,-z
1/2+x,y,1/2-z
-x,y,z
1/2+x,-y,1/2+z
loop_
_atom_site_type_symbol
_atom_site_label
_atom_site_fract_x
_atom_site_fract_y
_atom_site_fract_z
Si Si1 0.199194 0.790205 0.081952
Si Si2 0.197295 0.539969 0.415930
Si Si3 0.199733 0.959614 0.915745
Si Si4 0.800033 0.120742 0.917491
Si Si5 0.200169 0.298975 0.917655
Si Si6 0.197171 0.621131 0.915378
O O1 0.250000 0.790238 0.250000
O O2 0.257893 0.834494 0.026021
O O3 0.257755 0.745872 0.026517
O O4 0.000000 0.790204 0.072079
O O5 0.263611 0.500000 0.500000
O O6 0.250000 0.539795 0.250000
O O7 0.250123 0.581367 0.495352
O O8 0.000000 0.538241 0.420004
O O9 0.250000 0.961207 0.750000
O O10 0.000000 0.959375 0.923563
O O11 0.260565 0.917999 0.991887
O O12 0.258915 0.000000 0.000000
O O13 0.750000 0.116608 0.750000
O O14 0.000000 0.120754 0.922412
O O15 0.250000 0.303384 0.750000
O O16 0.000000 0.299018 0.922139
O O17 0.262549 0.337312 0.009842
O O18 0.250000 0.617926 0.750000
O O19 0.000000 0.623069 0.919640
#
# Coordination Sequence:
#
# PCOD9418271 Si02
#       6
#     8   8   8   8   8   8
#     4   8  14  27  47  71  99 129 164 206 251 299
#     4  11  24  41  62  87 114 144 178 217 261 310
#     4  10  21  35  50  71  98 128 164 205 250 300
#     4   9  17  30  50  74  99 129 165 206 251 301
#     4   9  18  32  52  77 103 134 172 214 258 305
#     4  11  23  38  56  79 109 144 181 221 266 313
#
# _framework density 19.598248000000002
#
# number of rings (size 3 to 8) (size 9 to 14) (size 15 to 20)
#    0.000    2.333    0.000    2.500    0.000    6.333 
#    0.000    0.833    0.000    0.000    0.000    0.000 
#    0.000    0.000    0.000    0.000    0.000    0.000 
#
# Total GULP energy -267753.231492 kJ/mol
# GULP energy per Si atom -5578.192323 kJ/mol
# Density = 1.955364 g / cm^3
# Si number density = 19.598248 Si / 1000 Ang^3
#
#
#
# Elastic Constant Matrix: (Units=GPa)
#
#
# Indices 1 2 3 4 5 6 
#
# 1 19.8201 20.8171 6.9291 0.0000 0.0000 0.0000
# 2 20.8171 257.2422 114.6936 0.0000 0.0000 0.0000
# 3 6.9291 114.6936 129.4988 0.0000 0.0000 0.0000
# 4 0.0000 0.0000 0.0000 33.6435 0.0000 0.0000
# 5 0.0000 0.0000 0.0000 0.0000 28.2444 0.0000
# 6 0.0000 0.0000 0.0000 0.0000 0.0000 37.9816
#
#
#
# Elastic Compliance Matrix: (Units=1/GPa)
#
#
# Indices 1 2 3 4 5 6 
#
# 1 0.055356 -0.005221 0.001662 0.000000 0.000000 0.000000
# 2 -0.005221 0.006917 -0.005846 0.000000 0.000000 0.000000
# 3 0.001662 -0.005846 0.012811 0.000000 0.000000 0.000000
# 4 0.000000 0.000000 0.000000 0.029723 0.000000 0.000000
# 5 0.000000 0.000000 0.000000 0.000000 0.035405 0.000000
# 6 0.000000 0.000000 0.000000 0.000000 0.000000 0.026329
#
#
# Mechanical properties :
#
#
# Convention : Reuss Voigt Hill
#
# Bulk Modulus (GPa) = 17.77046 76.82674 47.29860
# Shear Modulus (GPa) = 24.49670 37.58199 31.03935
#
# Velocity S-wave (km/s) = 3.53929 4.38381 3.98399
# Velocity P-wave (km/s) = 5.07830 8.05666 6.73420
#
# Compressibility (1/GPa) = 0.05627315
#
# Stress axis : x y z
#
# Youngs Moduli (GPa) = 18.06492 144.58091 78.05664
#
# Poissons Ratio (x) = 0.75479 -0.12971
# Poissons Ratio (y) = 0.09431 0.45635
# Poissons Ratio (z) = -0.03002 0.84529
#
# Static dielectric constant tensor:
#      x y z
#    x 1.686170 0.000000 0.000000 
#    y 0.000000 1.750380 0.000000 
#    z 0.000000 0.000000 1.613590 
# 
# From -- ./inp_files/6751.got.cif
#   From: 2010.05.17/outbox.cif.g08.bks.cpg/sg53_4_cif.got.tgz:6751.got - 2010.06.03 12:45:16.
