data_PCOD9418246
_publ_section_title
;
Structure prediction by ZEFSAII (Michael W. Deem and Ramdas Pophale) SiO2 
 PCOD9418246
Probable space group: P M N A
;
_chemical_formula_sum "Si O2"
_cell_formula_units_Z 40
_cell_length_a 7.491403
_cell_length_b 7.951781
_cell_length_c 30.746049
_cell_angle_alpha 90.000000
_cell_angle_beta 90.000000
_cell_angle_gamma 90.000000
_cell_volume 1831.542017
_symmetry_space_group_name_H-M "P M N A"
_symmetry_group_IT_number 53
_symmetry_cell_setting 'orthorhombic'
loop_
_space_group_symop_operation_xyz
x,y,z
1/2-x,-y,1/2+z
x,-y,-z
1/2-x,y,1/2-z
-x,-y,-z
1/2+x,y,1/2-z
-x,y,z
1/2+x,-y,1/2+z
loop_
_atom_site_type_symbol
_atom_site_label
_atom_site_fract_x
_atom_site_fract_y
_atom_site_fract_z
Si Si1 0.282415 0.557961 0.359670
Si Si2 0.791708 0.056299 0.856597
Si Si3 0.216547 0.579541 0.045304
Si Si4 0.714259 0.746747 0.698983
Si Si5 0.701232 0.964167 0.046827
O O1 0.500000 0.564443 0.358114
O O2 0.219287 0.751934 0.353883
O O3 0.236917 0.495791 0.408610
O O4 0.219829 0.423280 0.324464
O O5 0.780970 0.989504 0.906438
O O6 0.000000 0.073523 0.845864
O O7 0.715059 0.914852 0.824757
O O8 0.297012 0.763582 0.048099
O O9 0.000000 0.594370 0.044107
O O10 0.273755 0.500000 0.000000
O O11 0.750000 0.747479 0.750000
O O12 0.500000 0.747207 0.692836
O O13 0.500000 0.033249 0.045453
O O14 0.789406 0.000000 0.000000
#
# Coordination Sequence:
#
# PCOD9418246 Si02
#       5
#     8   8   8   8   8
#     4   8  16  33  52  76 106 132 171 221 265 313
#     4   9  19  36  57  77 103 142 183 227 268 313
#     4   9  18  32  54  80 104 138 185 227 265 318
#     4  10  21  36  56  80 106 137 176 224 275 322
#     4  10  21  34  49  76 113 147 177 218 273 329
#
# _framework density 21.83952
#
# number of rings (size 3 to 8) (size 9 to 14) (size 15 to 20)
#    0.000    2.800    0.000    1.800    2.800    3.600 
#    0.000    4.000    0.000    0.000    0.000    0.000 
#    0.000    0.000    0.000    0.000    0.000    0.000 
#
# Total GULP energy -222956.533552 kJ/mol
# GULP energy per Si atom -5573.913339 kJ/mol
# Density = 2.178981 g / cm^3
# Si number density = 21.839520 Si / 1000 Ang^3
#
#
#
# Elastic Constant Matrix: (Units=GPa)
#
#
# Indices 1 2 3 4 5 6 
#
# 1 53.4883 5.0579 -1.4620 0.0000 0.0000 0.0000
# 2 5.0579 113.0940 108.2430 0.0000 0.0000 0.0000
# 3 -1.4620 108.2430 209.7851 0.0000 0.0000 0.0000
# 4 0.0000 0.0000 0.0000 44.4346 0.0000 0.0000
# 5 0.0000 0.0000 0.0000 0.0000 26.5735 0.0000
# 6 0.0000 0.0000 0.0000 0.0000 0.0000 -0.8352
#
#
#
# Elastic Compliance Matrix: (Units=1/GPa)
#
#
# Indices 1 2 3 4 5 6 
#
# 1 0.018908 -0.001920 0.001122 0.000000 0.000000 0.000000
# 2 -0.001920 0.017664 -0.009128 0.000000 0.000000 0.000000
# 3 0.001122 -0.009128 0.009484 0.000000 0.000000 0.000000
# 4 0.000000 0.000000 0.000000 0.022505 0.000000 0.000000
# 5 0.000000 0.000000 0.000000 0.000000 0.037631 0.000000
# 6 0.000000 0.000000 0.000000 0.000000 0.000000 -1.197309
#
#
# Mechanical properties :
#
#
# Convention : Reuss Voigt Hill
#
# Bulk Modulus (GPa) = 38.15906 66.67168 52.41537
# Shear Modulus (GPa) = -4.70574 31.66982 13.48204
#
# Velocity S-wave (km/s) = -1.46948 3.81217 2.48729
# Velocity P-wave (km/s) = 3.82508 7.06903 5.68341
#
# Compressibility (1/GPa) = 0.02620610
#
# Stress axis : x y z
#
# Youngs Moduli (GPa) = 52.88801 56.61208 105.43917
#
# Poissons Ratio (x) = 0.10868 -0.11834
# Poissons Ratio (y) = 0.10153 0.96240
# Poissons Ratio (z) = -0.05936 0.51673
#
# Static dielectric constant tensor:
#      x y z
#    x 1.830880 0.000000 0.000000 
#    y 0.000000 1.782520 0.000000 
#    z 0.000000 0.000000 1.811060 
# 
# From -- ./inp_files/33624.got.cif
#   From: 2010.05.17/outbox.cif.g08.bks.cpg/sg53_17_cif.got.tgz:33624.got - 2010.06.03 12:45:16.
