data_PCOD9418980
_publ_section_title
;
Structure prediction by ZEFSAII (Michael W. Deem and Ramdas Pophale) SiO2 
 PCOD9418980
Probable space group: P M N A
;
_chemical_formula_sum "Si O2"
_cell_formula_units_Z 56
_cell_length_a 13.673972
_cell_length_b 13.100423
_cell_length_c 14.385130
_cell_angle_alpha 90.000000
_cell_angle_beta 90.000000
_cell_angle_gamma 90.000000
_cell_volume 2576.877634
_symmetry_space_group_name_H-M "P M N A"
_symmetry_group_IT_number 53
_symmetry_cell_setting 'orthorhombic'
loop_
_space_group_symop_operation_xyz
x,y,z
1/2-x,-y,1/2+z
x,-y,-z
1/2-x,y,1/2-z
-x,-y,-z
1/2+x,y,1/2-z
-x,y,z
1/2+x,-y,1/2+z
loop_
_atom_site_type_symbol
_atom_site_label
_atom_site_fract_x
_atom_site_fract_y
_atom_site_fract_z
Si Si1 0.884589 0.477412 0.710772
Si Si2 0.111929 0.750979 0.356437
Si Si3 0.391292 0.144237 0.192538
Si Si4 0.289689 0.550926 0.601138
Si Si5 0.245499 0.098943 0.952411
Si Si6 0.108469 0.067212 0.783659
Si Si7 0.184280 0.214359 0.113193
O O1 0.861353 0.363060 0.674357
O O2 0.851349 0.494260 0.817482
O O3 0.819616 0.549862 0.645073
O O4 0.000000 0.494666 0.702483
O O5 0.182827 0.808036 0.427589
O O6 0.114862 0.823997 0.266464
O O7 0.000000 0.749499 0.390772
O O8 0.500000 0.167800 0.155903
O O9 0.297626 0.187945 0.139500
O O10 0.379563 0.186192 0.297599
O O11 0.382497 0.022258 0.207411
O O12 0.292344 0.500000 0.500000
O O13 0.325139 0.666667 0.593479
O O14 0.190871 0.062082 0.860374
O O15 0.166053 0.144853 0.023810
O O16 0.293579 0.000000 0.000000
O O17 0.000000 0.055657 0.824397
#
# Coordination Sequence:
#
# PCOD9418980 Si02
#       7
#     8   8   8   8   8   8   8
#     4  10  23  45  68  93 128 173 221 270 331 390
#     4  10  23  40  63  91 121 167 213 252 312 378
#     4  10  21  41  62  84 123 163 200 250 301 366
#     4  11  25  42  65  97 131 166 215 278 329 383
#     4  12  23  37  63  92 130 165 200 260 311 371
#     4  10  22  38  60  91 124 163 205 244 303 375
#     4  11  24  38  59  96 119 157 213 244 314 375
#
# _framework density 21.731726999999999
#
# number of rings (size 3 to 8) (size 9 to 14) (size 15 to 20)
#    0.000    1.429    1.429    3.857    8.000    4.571 
#    0.000    0.000    0.000    0.000    0.000    0.000 
#    0.000    0.000    0.000    0.000    0.000    0.000 
#
# Total GULP energy -313080.641461 kJ/mol
# GULP energy per Si atom -5590.725740 kJ/mol
# Density = 2.168226 g / cm^3
# Si number density = 21.731727 Si / 1000 Ang^3
#
#
#
# Elastic Constant Matrix: (Units=GPa)
#
#
# Indices 1 2 3 4 5 6 
#
# 1 66.1720 -4.2350 -3.3090 0.0000 0.0000 0.0000
# 2 -4.2350 75.5787 2.4064 0.0000 0.0000 0.0000
# 3 -3.3090 2.4064 60.6713 0.0000 0.0000 0.0000
# 4 0.0000 0.0000 0.0000 33.5818 0.0000 0.0000
# 5 0.0000 0.0000 0.0000 0.0000 6.6341 0.0000
# 6 0.0000 0.0000 0.0000 0.0000 0.0000 23.9092
#
#
#
# Elastic Compliance Matrix: (Units=1/GPa)
#
#
# Indices 1 2 3 4 5 6 
#
# 1 0.015205 0.000827 0.000796 0.000000 0.000000 0.000000
# 2 0.000827 0.013293 -0.000482 0.000000 0.000000 0.000000
# 3 0.000796 -0.000482 0.016545 0.000000 0.000000 0.000000
# 4 0.000000 0.000000 0.000000 0.029778 0.000000 0.000000
# 5 0.000000 0.000000 0.000000 0.000000 0.150736 0.000000
# 6 0.000000 0.000000 0.000000 0.000000 0.000000 0.041825
#
#
# Mechanical properties :
#
#
# Convention : Reuss Voigt Hill
#
# Bulk Modulus (GPa) = 21.13070 21.34965 21.24017
# Shear Modulus (GPa) = 17.80153 26.66231 22.23192
#
# Velocity S-wave (km/s) = 2.86518 3.50649 3.20193
# Velocity P-wave (km/s) = 4.54865 5.12245 4.84405
#
# Compressibility (1/GPa) = 0.04732451
#
# Stress axis : x y z
#
# Youngs Moduli (GPa) = 65.76847 75.22800 60.44189
#
# Poissons Ratio (x) = -0.06219 -0.04814
# Poissons Ratio (y) = -0.05437 0.02914
# Poissons Ratio (z) = -0.05238 0.03627
#
# Static dielectric constant tensor:
#      x y z
#    x 1.814790 0.000000 0.000000 
#    y 0.000000 1.788880 0.000000 
#    z 0.000000 0.000000 1.795500 
# 
# From -- ./inp_files/22775.got.cif
#   From: 2010.05.17/outbox.cif.g08.bks.cpg/sg53_12_cif.got.tgz:22775.got - 2010.06.03 12:45:16.
