data_PCOD9418444
_publ_section_title
;
Structure prediction by ZEFSAII (Michael W. Deem and Ramdas Pophale) SiO2 
 PCOD9418444
Probable space group: P M N A
;
_chemical_formula_sum "Si O2"
_cell_formula_units_Z 48
_cell_length_a 12.862526
_cell_length_b 11.955955
_cell_length_c 14.101708
_cell_angle_alpha 90.000000
_cell_angle_beta 90.000000
_cell_angle_gamma 90.000000
_cell_volume 2168.613989
_symmetry_space_group_name_H-M "P M N A"
_symmetry_group_IT_number 53
_symmetry_cell_setting 'orthorhombic'
loop_
_space_group_symop_operation_xyz
x,y,z
1/2-x,-y,1/2+z
x,-y,-z
1/2-x,y,1/2-z
-x,-y,-z
1/2+x,y,1/2-z
-x,y,z
1/2+x,-y,1/2+z
loop_
_atom_site_type_symbol
_atom_site_label
_atom_site_fract_x
_atom_site_fract_y
_atom_site_fract_z
Si Si1 0.377224 0.948615 0.366444
Si Si2 0.119825 0.518611 0.306294
Si Si3 0.114743 0.232316 0.705125
Si Si4 0.289981 0.199075 0.353507
Si Si5 0.321661 0.563639 0.599679
Si Si6 0.676066 0.880242 0.018650
O O1 0.500000 0.941428 0.390821
O O2 0.355397 0.866409 0.277359
O O3 0.294814 0.902372 0.443105
O O4 0.348269 0.078741 0.346797
O O5 0.162764 0.645948 0.308412
O O6 0.125328 0.483754 0.195409
O O7 0.199086 0.449937 0.372690
O O8 0.000000 0.511152 0.338513
O O9 0.118163 0.181456 0.601231
O O10 0.000000 0.261906 0.739342
O O11 0.250000 0.230939 0.250000
O O12 0.348295 0.304192 0.400777
O O13 0.190137 0.180122 0.419982
O O14 0.342856 0.500000 0.500000
O O15 0.627975 0.000000 0.000000
#
# Coordination Sequence:
#
# PCOD9418444 Si02
#       6
#     8   8   8   8   8   8
#     4  10  22  38  63  97 131 164 201 254 319 378
#     4  10  23  43  65  94 130 166 215 266 314 377
#     4  10  21  39  65  95 122 160 208 255 312 372
#     4  11  22  41  58  91 126 167 208 253 318 373
#     4  11  24  42  68  92 125 172 221 265 318 373
#     4  10  21  36  63  89 126 160 202 254 307 371
#
# _framework density 22.133952000000001
#
# number of rings (size 3 to 8) (size 9 to 14) (size 15 to 20)
#    0.000    1.667    1.667    3.500    7.000    4.667 
#    0.000    1.667    0.000    0.000    0.000    0.000 
#    0.000    0.000    0.000    0.000    0.000    0.000 
#
# Total GULP energy -267578.957775 kJ/mol
# GULP energy per Si atom -5574.561620 kJ/mol
# Density = 2.208357 g / cm^3
# Si number density = 22.133952 Si / 1000 Ang^3
#
#
#
# Elastic Constant Matrix: (Units=GPa)
#
#
# Indices 1 2 3 4 5 6 
#
# 1 84.6226 -17.1385 -27.3118 0.0000 0.0000 0.0000
# 2 -17.1385 135.7553 17.1078 0.0000 0.0000 0.0000
# 3 -27.3118 17.1078 87.7896 0.0000 0.0000 0.0000
# 4 0.0000 0.0000 0.0000 -8.4229 0.0000 0.0000
# 5 0.0000 0.0000 0.0000 0.0000 32.0354 0.0000
# 6 0.0000 0.0000 0.0000 0.0000 0.0000 15.8670
#
#
#
# Elastic Compliance Matrix: (Units=1/GPa)
#
#
# Indices 1 2 3 4 5 6 
#
# 1 0.013321 0.001189 0.003913 0.000000 0.000000 0.000000
# 2 0.001189 0.007658 -0.001122 0.000000 0.000000 0.000000
# 3 0.003913 -0.001122 0.012827 0.000000 0.000000 0.000000
# 4 0.000000 0.000000 0.000000 -0.118723 0.000000 0.000000
# 5 0.000000 0.000000 0.000000 0.000000 0.031215 0.000000
# 6 0.000000 0.000000 0.000000 0.000000 0.000000 0.063024
#
#
# Mechanical properties :
#
#
# Convention : Reuss Voigt Hill
#
# Bulk Modulus (GPa) = 23.94495 28.16472 26.05484
# Shear Modulus (GPa) = 327.12371 30.26323 178.69347
#
# Velocity S-wave (km/s) = 12.17019 3.70168 8.99489
# Velocity P-wave (km/s) = 14.43352 5.56976 10.93958
#
# Compressibility (1/GPa) = 0.04176245
#
# Stress axis : x y z
#
# Youngs Moduli (GPa) = 75.07132 130.58741 77.96164
#
# Poissons Ratio (x) = -0.15522 -0.30503
# Poissons Ratio (y) = -0.08923 0.08751
# Poissons Ratio (z) = -0.29372 0.14658
#
# Static dielectric constant tensor:
#      x y z
#    x 1.681240 0.000000 0.000000 
#    y 0.000000 1.845120 0.000000 
#    z 0.000000 0.000000 1.857100 
# 
# From -- ./inp_files/22642.got.cif
#   From: 2010.05.17/outbox.cif.g08.bks.cpg/sg53_12_cif.got.tgz:22642.got - 2010.06.03 12:45:16.
