data_PCOD9418027
_publ_section_title
;
Structure prediction by ZEFSAII (Michael W. Deem and Ramdas Pophale) SiO2 
 PCOD9418027
Probable space group: P M N A
;
_chemical_formula_sum "Si O2"
_cell_formula_units_Z 48
_cell_length_a 8.643676
_cell_length_b 15.272083
_cell_length_c 19.654537
_cell_angle_alpha 90.000000
_cell_angle_beta 90.000000
_cell_angle_gamma 90.000000
_cell_volume 2594.535233
_symmetry_space_group_name_H-M "P M N A"
_symmetry_group_IT_number 53
_symmetry_cell_setting 'orthorhombic'
loop_
_space_group_symop_operation_xyz
x,y,z
1/2-x,-y,1/2+z
x,-y,-z
1/2-x,y,1/2-z
-x,-y,-z
1/2+x,y,1/2-z
-x,y,z
1/2+x,-y,1/2+z
loop_
_atom_site_type_symbol
_atom_site_label
_atom_site_fract_x
_atom_site_fract_y
_atom_site_fract_z
Si Si1 0.185249 0.537755 0.575367
Si Si2 0.184832 0.390634 0.826108
Si Si3 0.815086 0.772343 0.411769
Si Si4 0.686466 0.731358 0.560915
Si Si5 0.313833 0.928741 0.324989
Si Si6 0.686006 0.130970 0.324081
O O1 0.219823 0.500000 0.500000
O O2 0.262023 0.474865 0.630817
O O3 0.248616 0.635926 0.579079
O O4 0.000000 0.536868 0.583944
O O5 0.250000 0.394756 0.750000
O O6 0.252557 0.305944 0.864442
O O7 0.000000 0.384977 0.824708
O O8 0.749345 0.758088 0.487138
O O9 0.756702 0.862873 0.379497
O O10 0.000000 0.769108 0.413247
O O11 0.500000 0.728214 0.558713
O O12 0.735446 0.802428 0.617309
O O13 0.250000 0.905916 0.250000
O O14 0.500000 0.921794 0.325023
O O15 0.269408 0.030006 0.338344
O O16 0.750000 0.155137 0.250000
O O17 0.500000 0.133013 0.320884
#
# Coordination Sequence:
#
# PCOD9418027 Si02
#       6
#     8   8   8   8   8   8
#     4  11  23  41  64  90 123 160 201 248 302 362
#     4  12  25  42  65  92 123 160 203 252 303 361
#     4  12  24  39  59  89 124 160 202 250 303 363
#     4  11  23  40  63  91 121 161 205 249 304 362
#     4  10  20  38  61  87 120 160 201 248 302 358
#     4   9  21  40  63  89 120 157 202 251 300 357
#
# _framework density 18.500423999999999
#
# number of rings (size 3 to 8) (size 9 to 14) (size 15 to 20)
#    0.000    1.167    1.667    5.000    0.000    4.000 
#    0.000    5.000    0.000    0.000    0.000    0.000 
#    0.000    0.000    0.000    0.000    0.000    0.000 
#
# Total GULP energy -268469.321650 kJ/mol
# GULP energy per Si atom -5593.110868 kJ/mol
# Density = 1.845832 g / cm^3
# Si number density = 18.500424 Si / 1000 Ang^3
#
#
#
# Elastic Constant Matrix: (Units=GPa)
#
#
# Indices 1 2 3 4 5 6 
#
# 1 84.9676 42.6551 48.9952 0.0000 0.0000 0.0000
# 2 42.6551 127.9476 94.6397 0.0000 0.0000 0.0000
# 3 48.9952 94.6397 156.5747 0.0000 0.0000 0.0000
# 4 0.0000 0.0000 0.0000 78.1117 0.0000 0.0000
# 5 0.0000 0.0000 0.0000 0.0000 32.3280 0.0000
# 6 0.0000 0.0000 0.0000 0.0000 0.0000 25.6440
#
#
#
# Elastic Compliance Matrix: (Units=1/GPa)
#
#
# Indices 1 2 3 4 5 6 
#
# 1 0.014874 -0.002742 -0.002997 0.000000 0.000000 0.000000
# 2 -0.002742 0.014641 -0.007992 0.000000 0.000000 0.000000
# 3 -0.002997 -0.007992 0.012155 0.000000 0.000000 0.000000
# 4 0.000000 0.000000 0.000000 0.012802 0.000000 0.000000
# 5 0.000000 0.000000 0.000000 0.000000 0.030933 0.000000
# 6 0.000000 0.000000 0.000000 0.000000 0.000000 0.038995
#
#
# Mechanical properties :
#
#
# Convention : Reuss Voigt Hill
#
# Bulk Modulus (GPa) = 70.37848 82.45222 76.41535
# Shear Modulus (GPa) = 31.92901 39.43007 35.67954
#
# Velocity S-wave (km/s) = 4.15885 4.62162 4.39632
# Velocity P-wave (km/s) = 7.82211 8.55240 8.19540
#
# Compressibility (1/GPa) = 0.01420889
#
# Stress axis : x y z
#
# Youngs Moduli (GPa) = 67.23220 68.30170 82.27073
#
# Poissons Ratio (x) = 0.18727 0.24657
# Poissons Ratio (y) = 0.18433 0.65747
# Poissons Ratio (z) = 0.20150 0.54584
#
# Static dielectric constant tensor:
#      x y z
#    x 1.619070 0.000000 0.000000 
#    y 0.000000 1.622130 0.000000 
#    z 0.000000 0.000000 1.600650 
# 
# From -- ./inp_files/26281.got.cif
#   From: 2010.05.17/outbox.cif.g08.bks.cpg/sg53_14_cif.got.tgz:26281.got - 2010.06.03 12:45:16.
