data_PCOD9418314
_publ_section_title
;
Structure prediction by ZEFSAII (Michael W. Deem and Ramdas Pophale) SiO2 
 PCOD9418314
Probable space group: P M N A
;
_chemical_formula_sum "Si O2"
_cell_formula_units_Z 40
_cell_length_a 8.940060
_cell_length_b 9.822610
_cell_length_c 24.827349
_cell_angle_alpha 90.000000
_cell_angle_beta 90.000000
_cell_angle_gamma 90.000000
_cell_volume 2180.206769
_symmetry_space_group_name_H-M "P M N A"
_symmetry_group_IT_number 53
_symmetry_cell_setting 'orthorhombic'
loop_
_space_group_symop_operation_xyz
x,y,z
1/2-x,-y,1/2+z
x,-y,-z
1/2-x,y,1/2-z
-x,-y,-z
1/2+x,y,1/2-z
-x,y,z
1/2+x,-y,1/2+z
loop_
_atom_site_type_symbol
_atom_site_label
_atom_site_fract_x
_atom_site_fract_y
_atom_site_fract_z
Si Si1 0.821385 0.081489 0.808347
Si Si2 0.677534 0.790582 0.503736
Si Si3 0.826782 0.885392 0.605879
Si Si4 0.820411 0.690453 0.110704
Si Si5 0.673929 0.588398 0.921821
O O1 0.750000 0.066046 0.750000
O O2 0.782122 0.226310 0.835838
O O3 0.000000 0.072783 0.804845
O O4 0.762353 0.968674 0.850020
O O5 0.500000 0.808704 0.508539
O O6 0.757695 0.891967 0.545559
O O7 0.718765 0.784463 0.441169
O O8 0.729294 0.643671 0.527766
O O9 0.818982 0.721987 0.616623
O O10 0.000000 0.926296 0.605161
O O11 0.738938 0.547287 0.103633
O O12 0.000000 0.669849 0.108686
O O13 0.500000 0.571054 0.937125
#
# Coordination Sequence:
#
# PCOD9418314 Si02
#       5
#     8   8   8   8   8
#     4  11  24  42  60  79 106 147 192 237 283 331
#     4   9  17  32  56  85 117 150 183 224 275 336
#     4   9  20  37  56  83 113 146 186 227 274 331
#     4  10  21  35  56  85 117 150 186 226 280 340
#     4   9  19  33  54  86 118 147 181 221 274 332
#
# _framework density 18.346883999999999
#
# number of rings (size 3 to 8) (size 9 to 14) (size 15 to 20)
#    1.200    1.200    0.000    2.400    0.000    6.400 
#    0.000    5.000    0.000    2.400    0.000    0.000 
#    0.000    0.000    0.000    0.000    0.000    0.000 
#
# Total GULP energy -222885.362917 kJ/mol
# GULP energy per Si atom -5572.134073 kJ/mol
# Density = 1.830513 g / cm^3
# Si number density = 18.346884 Si / 1000 Ang^3
#
#
#
# Elastic Constant Matrix: (Units=GPa)
#
#
# Indices 1 2 3 4 5 6 
#
# 1 59.9356 23.3074 41.2686 0.0000 0.0000 0.0000
# 2 23.3074 72.0122 39.4282 0.0000 0.0000 0.0000
# 3 41.2686 39.4282 105.7914 0.0000 0.0000 0.0000
# 4 0.0000 0.0000 0.0000 17.0415 0.0000 0.0000
# 5 0.0000 0.0000 0.0000 0.0000 18.8363 0.0000
# 6 0.0000 0.0000 0.0000 0.0000 0.0000 41.9146
#
#
#
# Elastic Compliance Matrix: (Units=1/GPa)
#
#
# Indices 1 2 3 4 5 6 
#
# 1 0.023397 -0.003236 -0.007921 0.000000 0.000000 0.000000
# 2 -0.003236 0.017894 -0.005407 0.000000 0.000000 0.000000
# 3 -0.007921 -0.005407 0.014558 0.000000 0.000000 0.000000
# 4 0.000000 0.000000 0.000000 0.058680 0.000000 0.000000
# 5 0.000000 0.000000 0.000000 0.000000 0.053089 0.000000
# 6 0.000000 0.000000 0.000000 0.000000 0.000000 0.023858
#
#
# Mechanical properties :
#
#
# Convention : Reuss Voigt Hill
#
# Bulk Modulus (GPa) = 44.01127 49.52753 46.76940
# Shear Modulus (GPa) = 21.53530 24.47415 23.00472
#
# Velocity S-wave (km/s) = 3.42977 3.65631 3.54485
# Velocity P-wave (km/s) = 6.30277 6.69914 6.50398
#
# Compressibility (1/GPa) = 0.02272145
#
# Stress axis : x y z
#
# Youngs Moduli (GPa) = 42.74077 55.88410 68.69229
#
# Poissons Ratio (x) = 0.18082 0.54412
# Poissons Ratio (y) = 0.13829 0.37141
# Poissons Ratio (z) = 0.33855 0.30216
#
# Static dielectric constant tensor:
#      x y z
#    x 1.616220 0.000000 0.000000 
#    y 0.000000 1.673850 0.000000 
#    z 0.000000 0.000000 1.619120 
# 
# From -- ./inp_files/36051.got.cif
#   From: 2010.05.17/outbox.cif.g08.bks.cpg/sg53_19_cif.got.tgz:36051.got - 2010.06.03 12:45:16.
