data_PCOD9418730
_publ_section_title
;
Structure prediction by ZEFSAII (Michael W. Deem and Ramdas Pophale) SiO2 
 PCOD9418730
Probable space group: P M N A
;
_chemical_formula_sum "Si O2"
_cell_formula_units_Z 56
_cell_length_a 8.669341
_cell_length_b 22.099559
_cell_length_c 14.747284
_cell_angle_alpha 90.000000
_cell_angle_beta 90.000000
_cell_angle_gamma 90.000000
_cell_volume 2825.411686
_symmetry_space_group_name_H-M "P M N A"
_symmetry_group_IT_number 53
_symmetry_cell_setting 'orthorhombic'
loop_
_space_group_symop_operation_xyz
x,y,z
1/2-x,-y,1/2+z
x,-y,-z
1/2-x,y,1/2-z
-x,-y,-z
1/2+x,y,1/2-z
-x,y,z
1/2+x,-y,1/2+z
loop_
_atom_site_type_symbol
_atom_site_label
_atom_site_fract_x
_atom_site_fract_y
_atom_site_fract_z
Si Si1 0.314513 0.474971 0.647218
Si Si2 0.186015 0.608055 0.852009
Si Si3 0.184077 0.846512 0.527412
Si Si4 0.183483 0.348527 0.648495
Si Si5 0.815083 0.717036 0.982336
Si Si6 0.184415 0.045629 0.148581
Si Si7 0.816010 0.084192 0.650689
O O1 0.250000 0.477191 0.750000
O O2 0.500000 0.468934 0.646816
O O3 0.273438 0.541209 0.609064
O O4 0.243267 0.413256 0.610112
O O5 0.250000 0.613347 0.750000
O O6 0.000000 0.609235 0.846756
O O7 0.236553 0.663710 0.914109
O O8 0.259288 0.782417 0.549813
O O9 0.250466 0.900728 0.587557
O O10 0.217251 0.864695 0.423175
O O11 0.000000 0.843373 0.538944
O O12 0.250000 0.341354 0.750000
O O13 0.243799 0.297865 0.580228
O O14 0.000000 0.348980 0.653266
O O15 0.000000 0.715419 0.988205
O O16 0.250000 0.053246 0.250000
O O17 0.000000 0.046361 0.149403
O O18 0.242941 0.979368 0.118596
O O19 0.750000 0.097829 0.750000
O O20 0.000000 0.076029 0.657124
#
# Coordination Sequence:
#
# PCOD9418730 Si02
#       7
#     8   8   8   8   8   8   8
#     4   9  16  31  55  83 111 142 182 231 288 345
#     4   9  20  37  59  84 113 148 187 235 289 342
#     4  11  24  41  59  84 119 157 196 239 286 338
#     4  11  22  38  59  84 113 148 189 238 292 345
#     4  11  24  41  58  82 115 155 199 238 283 342
#     4  11  22  38  63  92 120 152 191 236 286 339
#     4  10  21  38  62  90 120 151 187 234 286 339
#
# _framework density 19.820119999999999
#
# number of rings (size 3 to 8) (size 9 to 14) (size 15 to 20)
#    0.000    1.714    0.000    6.429    0.000    7.429 
#    0.000    5.714    0.000    0.000    0.000    0.000 
#    0.000    0.000    0.000    0.000    0.000    0.000 
#
# Total GULP energy -312936.771618 kJ/mol
# GULP energy per Si atom -5588.156636 kJ/mol
# Density = 1.977501 g / cm^3
# Si number density = 19.820120 Si / 1000 Ang^3
#
#
#
# Elastic Constant Matrix: (Units=GPa)
#
#
# Indices 1 2 3 4 5 6 
#
# 1 80.1790 16.8540 9.7984 0.0000 0.0000 0.0000
# 2 16.8540 59.2861 4.7547 0.0000 0.0000 0.0000
# 3 9.7984 4.7547 36.7637 0.0000 0.0000 0.0000
# 4 0.0000 0.0000 0.0000 -35.4270 0.0000 0.0000
# 5 0.0000 0.0000 0.0000 0.0000 21.8380 0.0000
# 6 0.0000 0.0000 0.0000 0.0000 0.0000 38.3235
#
#
#
# Elastic Compliance Matrix: (Units=1/GPa)
#
#
# Indices 1 2 3 4 5 6 
#
# 1 0.013619 -0.003618 -0.003162 0.000000 0.000000 0.000000
# 2 -0.003618 0.018005 -0.001364 0.000000 0.000000 0.000000
# 3 -0.003162 -0.001364 0.028220 0.000000 0.000000 0.000000
# 4 0.000000 0.000000 0.000000 -0.028227 0.000000 0.000000
# 5 0.000000 0.000000 0.000000 0.000000 0.045792 0.000000
# 6 0.000000 0.000000 0.000000 0.000000 0.000000 0.026094
#
#
# Mechanical properties :
#
#
# Convention : Reuss Voigt Hill
#
# Bulk Modulus (GPa) = 22.95913 26.56035 24.75974
# Shear Modulus (GPa) = 37.22737 14.60168 25.91453
#
# Velocity S-wave (km/s) = 4.33859 2.71719 3.61984
# Velocity P-wave (km/s) = 6.05861 4.82430 5.47634
#
# Compressibility (1/GPa) = 0.04355566
#
# Stress axis : x y z
#
# Youngs Moduli (GPa) = 73.42664 55.53914 35.43598
#
# Poissons Ratio (x) = 0.20094 0.11204
# Poissons Ratio (y) = 0.26566 0.04835
# Poissons Ratio (z) = 0.23217 0.07577
#
# Static dielectric constant tensor:
#      x y z
#    x 1.661100 0.000000 0.000000 
#    y 0.000000 1.700890 0.000000 
#    z 0.000000 0.000000 1.666820 
# 
# From -- ./inp_files/20481.got.cif
#   From: 2010.05.17/outbox.cif.g08.bks.cpg/sg53_11_cif.got.tgz:20481.got - 2010.06.03 12:45:16.
