data_PCOD9418655
_publ_section_title
;
Structure prediction by ZEFSAII (Michael W. Deem and Ramdas Pophale) SiO2 
 PCOD9418655
Probable space group: P M N A
;
_chemical_formula_sum "Si O2"
_cell_formula_units_Z 56
_cell_length_a 14.761059
_cell_length_b 24.440924
_cell_length_c 8.773818
_cell_angle_alpha 90.000000
_cell_angle_beta 90.000000
_cell_angle_gamma 90.000000
_cell_volume 3165.364724
_symmetry_space_group_name_H-M "P M N A"
_symmetry_group_IT_number 53
_symmetry_cell_setting 'orthorhombic'
loop_
_space_group_symop_operation_xyz
x,y,z
1/2-x,-y,1/2+z
x,-y,-z
1/2-x,y,1/2-z
-x,-y,-z
1/2+x,y,1/2-z
-x,y,z
1/2+x,-y,1/2+z
loop_
_atom_site_type_symbol
_atom_site_label
_atom_site_fract_x
_atom_site_fract_y
_atom_site_fract_z
Si Si1 0.107434 0.941157 0.930648
Si Si2 0.103394 0.649133 0.564520
Si Si3 0.250000 0.560453 0.934116
Si Si4 0.896606 0.350867 0.064520
Si Si5 0.750000 0.738502 0.934297
Si Si6 0.750000 0.859415 0.431215
Si Si7 0.392566 0.058843 0.069351
O O1 0.124543 0.941632 0.750000
O O2 0.000000 0.933974 0.955784
O O3 0.163897 0.893118 0.007281
O O4 0.133379 0.000000 0.000000
O O5 0.162084 0.596097 0.518801
O O6 0.101490 0.648839 0.750000
O O7 0.162188 0.702361 0.521242
O O8 0.000000 0.649287 0.510039
O O9 0.250000 0.557867 0.750000
O O10 0.162084 0.596097 0.981199
O O11 0.250000 0.500000 0.000000
O O12 0.837812 0.297639 0.021242
O O13 0.000000 0.350713 0.010039
O O14 0.750000 0.743124 0.750000
O O15 0.750000 0.798061 0.005644
O O16 0.750000 0.859107 0.250000
O O17 0.836104 0.893118 0.492719
O O18 0.500000 0.066025 0.044215
O O19 0.366619 0.000000 0.000000
#
# Coordination Sequence:
#
# PCOD9418655 Si02
#       7
#     8   8   8   8   8   8   8
#     4  10  21  38  59  81 106 137 175 218 262 311
#     4   8  15  30  51  71  94 128 167 207 251 297
#     4   9  17  29  47  73 102 129 161 200 242 295
#     4   8  15  30  51  71  94 128 167 207 251 297
#     4   9  18  33  52  73  94 123 172 220 253 295
#     4  12  24  36  53  78 111 144 172 210 262 320
#     4  10  21  38  59  81 106 137 175 218 262 311
#
# _framework density 17.691483999999999
#
# number of rings (size 3 to 8) (size 9 to 14) (size 15 to 20)
#    0.000    2.571    0.000    4.286    0.000    3.429 
#    0.000    5.714    0.000    1.714    0.000    0.000 
#    0.000    0.000    0.000    0.000    0.000    0.000 
#
# Total GULP energy -312446.427139 kJ/mol
# GULP energy per Si atom -5579.400485 kJ/mol
# Density = 1.765122 g / cm^3
# Si number density = 17.691484 Si / 1000 Ang^3
#
#
#
# Elastic Constant Matrix: (Units=GPa)
#
#
# Indices 1 2 3 4 5 6 
#
# 1 158.3934 106.1690 48.8082 0.0000 0.0000 0.0000
# 2 106.1690 208.2214 62.4202 0.0000 0.0000 0.0000
# 3 48.8082 62.4202 56.7342 0.0000 0.0000 0.0000
# 4 0.0000 0.0000 0.0000 36.0975 0.0000 0.0000
# 5 0.0000 0.0000 0.0000 0.0000 15.7116 0.0000
# 6 0.0000 0.0000 0.0000 0.0000 0.0000 -12.0413
#
#
#
# Elastic Compliance Matrix: (Units=1/GPa)
#
#
# Indices 1 2 3 4 5 6 
#
# 1 0.010344 -0.003889 -0.004620 0.000000 0.000000 0.000000
# 2 -0.003889 0.008629 -0.006147 0.000000 0.000000 0.000000
# 3 -0.004620 -0.006147 0.028364 0.000000 0.000000 0.000000
# 4 0.000000 0.000000 0.000000 0.027703 0.000000 0.000000
# 5 0.000000 0.000000 0.000000 0.000000 0.063647 0.000000
# 6 0.000000 0.000000 0.000000 0.000000 0.000000 -0.083048
#
#
# Mechanical properties :
#
#
# Convention : Reuss Voigt Hill
#
# Bulk Modulus (GPa) = 55.48309 95.34930 75.41619
# Shear Modulus (GPa) = 54.97000 21.68368 38.32684
#
# Velocity S-wave (km/s) = 5.58022 3.50474 4.65951
# Velocity P-wave (km/s) = 8.54097 8.38988 8.46576
#
# Compressibility (1/GPa) = 0.01802351
#
# Stress axis : x y z
#
# Youngs Moduli (GPa) = 96.67557 115.89489 35.25628
#
# Poissons Ratio (x) = 0.45075 0.16287
# Poissons Ratio (y) = 0.37600 0.21673
# Poissons Ratio (z) = 0.44661 0.71244
#
# Static dielectric constant tensor:
#      x y z
#    x 1.616460 0.000000 0.000000 
#    y 0.000000 1.564300 0.000000 
#    z 0.000000 0.000000 1.590280 
# 
# From -- ./inp_files/8842.got.cif
#   From: 2010.05.17/outbox.cif.g08.bks.cpg/sg53_5_cif.got.tgz:8842.got - 2010.06.03 12:45:16.
