data_PCOD9418935
_publ_section_title
;
Structure prediction by ZEFSAII (Michael W. Deem and Ramdas Pophale) SiO2 
 PCOD9418935
Probable space group: P M N A
;
_chemical_formula_sum "Si O2"
_cell_formula_units_Z 60
_cell_length_a 14.790792
_cell_length_b 15.093647
_cell_length_c 11.988660
_cell_angle_alpha 90.000000
_cell_angle_beta 90.000000
_cell_angle_gamma 90.000000
_cell_volume 2676.432299
_symmetry_space_group_name_H-M "P M N A"
_symmetry_group_IT_number 53
_symmetry_cell_setting 'orthorhombic'
loop_
_space_group_symop_operation_xyz
x,y,z
1/2-x,-y,1/2+z
x,-y,-z
1/2-x,y,1/2-z
-x,-y,-z
1/2+x,y,1/2-z
-x,y,z
1/2+x,-y,1/2+z
loop_
_atom_site_type_symbol
_atom_site_label
_atom_site_fract_x
_atom_site_fract_y
_atom_site_fract_z
Si Si1 0.894436 0.497371 0.271219
Si Si2 0.603648 0.768799 0.216970
Si Si3 0.105694 0.318516 0.343143
Si Si4 0.169737 0.881623 0.661653
Si Si5 0.197928 0.368236 0.563868
Si Si6 0.764806 0.000000 0.000000
Si Si7 0.899997 0.637222 0.076425
Si Si8 0.601330 0.961444 0.297066
O O1 0.866644 0.395351 0.256684
O O2 0.828941 0.549347 0.356747
O O3 0.896397 0.551328 0.156526
O O4 0.000000 0.500830 0.312171
O O5 0.500000 0.758309 0.172851
O O6 0.673725 0.716665 0.140350
O O7 0.602559 0.720364 0.337497
O O8 0.623858 0.871821 0.230812
O O9 0.143692 0.220244 0.341339
O O10 0.131523 0.363040 0.460067
O O11 0.000000 0.306716 0.330618
O O12 0.250000 0.885991 0.750000
O O13 0.203636 0.919473 0.543989
O O14 0.102860 0.954286 0.714739
O O15 0.301235 0.364485 0.521166
O O16 0.828312 0.026915 0.897008
O O17 0.000000 0.638580 0.019908
O O18 0.500000 0.950186 0.342717
#
# Coordination Sequence:
#
# PCOD9418935 Si02
#       8
#     8   8   8   8   8   4   8   8
#     4   9  18  35  56  83 116 151 196 246 297 361
#     4   9  18  31  53  88 120 152 195 249 312 364
#     4  11  23  38  60  89 123 161 203 249 307 375
#     4  10  24  41  59  88 124 163 212 262 309 374
#     4  11  20  32  58  90 122 155 195 250 304 370
#     4  10  23  40  61  88 122 166 216 262 310 378
#     4   9  19  34  54  85 118 152 195 243 301 359
#     4  10  21  40  64  88 122 164 210 264 320 378
#
# _framework density 22.417902999999999
#
# number of rings (size 3 to 8) (size 9 to 14) (size 15 to 20)
#    0.000    2.133    0.000    4.600    3.733    4.267 
#    0.000    0.667    0.000    2.400    0.000    0.000 
#    0.000    0.000    0.000    0.000    0.000    0.000 
#
# Total GULP energy -335083.269149 kJ/mol
# GULP energy per Si atom -5584.721152 kJ/mol
# Density = 2.236688 g / cm^3
# Si number density = 22.417903 Si / 1000 Ang^3
#
#
#
# Elastic Constant Matrix: (Units=GPa)
#
#
# Indices 1 2 3 4 5 6 
#
# 1 89.6312 36.6908 6.5610 0.0000 0.0000 0.0000
# 2 36.6908 163.7809 20.9189 0.0000 0.0000 0.0000
# 3 6.5610 20.9189 33.4167 0.0000 0.0000 0.0000
# 4 0.0000 0.0000 0.0000 -4.9035 0.0000 0.0000
# 5 0.0000 0.0000 0.0000 0.0000 -102.3411 0.0000
# 6 0.0000 0.0000 0.0000 0.0000 0.0000 21.2543
#
#
#
# Elastic Compliance Matrix: (Units=1/GPa)
#
#
# Indices 1 2 3 4 5 6 
#
# 1 0.012301 -0.002660 -0.000750 0.000000 0.000000 0.000000
# 2 -0.002660 0.007211 -0.003992 0.000000 0.000000 0.000000
# 3 -0.000750 -0.003992 0.032572 0.000000 0.000000 0.000000
# 4 0.000000 0.000000 0.000000 -0.203936 0.000000 0.000000
# 5 0.000000 0.000000 0.000000 0.000000 -0.009771 0.000000
# 6 0.000000 0.000000 0.000000 0.000000 0.000000 0.047049
#
#
# Mechanical properties :
#
#
# Convention : Reuss Voigt Hill
#
# Bulk Modulus (GPa) = 26.82438 46.13001 36.47719
# Shear Modulus (GPa) = -57.24511 -2.35418 -29.79964
#
# Velocity S-wave (km/s) = -5.05874 -1.02587 -3.64988
# Velocity P-wave (km/s) = 4.70421 4.38392 1.20641
#
# Compressibility (1/GPa) = 0.03727952
#
# Stress axis : x y z
#
# Youngs Moduli (GPa) = 81.29733 138.66791 30.70166
#
# Poissons Ratio (x) = 0.36883 0.02303
# Poissons Ratio (y) = 0.21624 0.12257
# Poissons Ratio (z) = 0.06098 0.55358
#
# Static dielectric constant tensor:
#      x y z
#    x 1.859860 0.000000 0.000000 
#    y 0.000000 1.875030 0.000000 
#    z 0.000000 0.000000 1.818450 
# 
# From -- ./inp_files/22987.got.cif
#   From: 2010.05.17/outbox.cif.g08.bks.cpg/sg53_12_cif.got.tgz:22987.got - 2010.06.03 12:45:16.
