data_PCOD9418059
_publ_section_title
;
Structure prediction by ZEFSAII (Michael W. Deem and Ramdas Pophale) SiO2 
 PCOD9418059
Probable space group: P M N A
;
_chemical_formula_sum "Si O2"
_cell_formula_units_Z 56
_cell_length_a 21.919284
_cell_length_b 15.106177
_cell_length_c 7.996760
_cell_angle_alpha 90.000000
_cell_angle_beta 90.000000
_cell_angle_gamma 90.000000
_cell_volume 2647.859853
_symmetry_space_group_name_H-M "P M N A"
_symmetry_group_IT_number 53
_symmetry_cell_setting 'orthorhombic'
loop_
_space_group_symop_operation_xyz
x,y,z
1/2-x,-y,1/2+z
x,-y,-z
1/2-x,y,1/2-z
-x,-y,-z
1/2+x,y,1/2-z
-x,y,z
1/2+x,-y,1/2+z
loop_
_atom_site_type_symbol
_atom_site_label
_atom_site_fract_x
_atom_site_fract_y
_atom_site_fract_z
Si Si1 0.663072 0.291377 0.617319
Si Si2 0.297148 0.265804 0.997544
Si Si3 0.067129 0.029974 0.193372
Si Si4 0.308511 0.930579 0.864587
Si Si5 0.564091 0.770991 0.606968
Si Si6 0.429916 0.573343 0.243676
Si Si7 0.099238 0.376567 0.370784
O O1 0.725513 0.289668 0.511782
O O2 0.680898 0.266446 0.805072
O O3 0.618636 0.224750 0.523408
O O4 0.619796 0.378211 0.638860
O O5 0.316780 0.170083 0.069051
O O6 0.332267 0.342673 0.096852
O O7 0.131046 0.020677 0.289834
O O8 0.061942 0.135752 0.196747
O O9 0.000000 0.994220 0.252898
O O10 0.073053 0.000000 0.000000
O O11 0.250000 0.920146 0.750000
O O12 0.286639 0.000000 0.000000
O O13 0.500000 0.757719 0.514562
O O14 0.571778 0.694300 0.743049
O O15 0.500000 0.574297 0.305025
O O16 0.409045 0.473026 0.208245
O O17 0.428678 0.618804 0.058389
#
# Coordination Sequence:
#
# PCOD9418059 Si02
#       7
#     8   8   8   8   8   8   8
#     4  10  23  39  60  88 129 166 207 272 323 379
#     4  10  23  43  62  87 128 168 215 262 323 393
#     4  10  23  43  65  95 135 169 208 266 331 397
#     4  12  26  42  70  99 125 170 219 272 330 402
#     4  11  21  37  63  92 123 167 211 258 322 386
#     4  10  20  39  64  93 129 168 217 271 323 384
#     4  10  20  38  63  90 123 172 216 270 320 385
#
# _framework density 21.149156000000001
#
# number of rings (size 3 to 8) (size 9 to 14) (size 15 to 20)
#    0.000    1.571    1.429    3.429    4.000    0.857 
#    0.000   13.571    0.000    0.000    0.000    0.000 
#    0.000    0.000    0.000    0.000    0.000    0.000 
#
# Total GULP energy -312176.354999 kJ/mol
# GULP energy per Si atom -5574.577768 kJ/mol
# Density = 2.110102 g / cm^3
# Si number density = 21.149156 Si / 1000 Ang^3
#
#
#
# Elastic Constant Matrix: (Units=GPa)
#
#
# Indices 1 2 3 4 5 6 
#
# 1 158.4501 13.2489 22.2551 0.0000 0.0000 0.0000
# 2 13.2489 50.4821 10.0598 0.0000 0.0000 0.0000
# 3 22.2551 10.0598 19.6446 0.0000 0.0000 0.0000
# 4 0.0000 0.0000 0.0000 31.3150 0.0000 0.0000
# 5 0.0000 0.0000 0.0000 0.0000 42.9619 0.0000
# 6 0.0000 0.0000 0.0000 0.0000 0.0000 56.8988
#
#
#
# Elastic Compliance Matrix: (Units=1/GPa)
#
#
# Indices 1 2 3 4 5 6 
#
# 1 0.007510 -0.000307 -0.008350 0.000000 0.000000 0.000000
# 2 -0.000307 0.022073 -0.010956 0.000000 0.000000 0.000000
# 3 -0.008350 -0.010956 0.065975 0.000000 0.000000 0.000000
# 4 0.000000 0.000000 0.000000 0.031934 0.000000 0.000000
# 5 0.000000 0.000000 0.000000 0.000000 0.023276 0.000000
# 6 0.000000 0.000000 0.000000 0.000000 0.000000 0.017575
#
#
# Mechanical properties :
#
#
# Convention : Reuss Voigt Hill
#
# Bulk Modulus (GPa) = 17.75204 35.52271 26.63737
# Shear Modulus (GPa) = 22.09011 38.43601 30.26306
#
# Velocity S-wave (km/s) = 3.23537 4.26770 3.78687
# Velocity P-wave (km/s) = 4.72956 6.41226 5.63408
#
# Compressibility (1/GPa) = 0.05633155
#
# Stress axis : x y z
#
# Youngs Moduli (GPa) = 133.16197 45.30481 15.15723
#
# Poissons Ratio (x) = 0.01390 0.12657
# Poissons Ratio (y) = 0.04086 0.16606
# Poissons Ratio (z) = 1.11196 0.49634
#
# Static dielectric constant tensor:
#      x y z
#    x 1.954700 0.000000 0.000000 
#    y 0.000000 1.725120 0.000000 
#    z 0.000000 0.000000 1.779440 
# 
# From -- ./inp_files/11093.got.cif
#   From: 2010.05.17/outbox.cif.g08.bks.cpg/sg53_6_cif.got.tgz:11093.got - 2010.06.03 12:45:16.
