data_PCOD9418193
_publ_section_title
;
Structure prediction by ZEFSAII (Michael W. Deem and Ramdas Pophale) SiO2 
 PCOD9418193
Probable space group: P M N A
;
_chemical_formula_sum "Si O2"
_cell_formula_units_Z 40
_cell_length_a 23.186920
_cell_length_b 9.428060
_cell_length_c 9.749030
_cell_angle_alpha 90.000000
_cell_angle_beta 90.000000
_cell_angle_gamma 90.000000
_cell_volume 2131.212762
_symmetry_space_group_name_H-M "P M N A"
_symmetry_group_IT_number 53
_symmetry_cell_setting 'orthorhombic'
loop_
_space_group_symop_operation_xyz
x,y,z
1/2-x,-y,1/2+z
x,-y,-z
1/2-x,y,1/2-z
-x,-y,-z
1/2+x,y,1/2-z
-x,y,z
1/2+x,-y,1/2+z
loop_
_atom_site_type_symbol
_atom_site_label
_atom_site_fract_x
_atom_site_fract_y
_atom_site_fract_z
Si Si1 0.623825 0.670019 0.012018
Si Si2 0.317235 0.188042 0.748091
Si Si3 0.315189 0.140196 0.206530
Si Si4 0.609488 0.160314 0.476041
Si Si5 0.000000 0.647349 0.920178
Si Si6 0.000000 0.646568 0.586618
O O1 0.667239 0.759013 0.917378
O O2 0.559791 0.715830 0.963089
O O3 0.628752 0.500000 0.000000
O O4 0.640854 0.712242 0.165078
O O5 0.250000 0.232143 0.750000
O O6 0.343444 0.183031 0.595808
O O7 0.319253 0.029893 0.814536
O O8 0.250000 0.169102 0.250000
O O9 0.357533 0.170464 0.332515
O O10 0.556486 0.267034 0.468211
O O11 0.587473 0.000000 0.500000
O O12 0.000000 0.631221 0.752631
O O13 0.000000 0.500000 0.000000
O O14 0.000000 0.500000 0.500000
#
# Coordination Sequence:
#
# PCOD9418193 Si02
#       6
#     8   8   8   8   4   4
#     4  11  23  39  62  88 128 160 202 254 301 365
#     4  10  22  40  64  93 124 160 205 244 306 370
#     4  10  20  40  65  89 122 165 200 252 308 361
#     4  10  22  39  63  92 124 156 205 258 298 360
#     4  12  25  41  67  88 120 166 208 252 309 365
#     4  10  24  43  60  87 125 163 202 249 309 358
#
# _framework density 18.768657000000001
#
# number of rings (size 3 to 8) (size 9 to 14) (size 15 to 20)
#    0.000    1.600    2.000    2.100    5.600    4.000 
#    0.000    5.000    0.000    0.000    0.000    0.000 
#    0.000    0.000    0.000    0.000    0.000    0.000 
#
# Total GULP energy -223211.689657 kJ/mol
# GULP energy per Si atom -5580.292241 kJ/mol
# Density = 1.872594 g / cm^3
# Si number density = 18.768657 Si / 1000 Ang^3
#
#
#
# Elastic Constant Matrix: (Units=GPa)
#
#
# Indices 1 2 3 4 5 6 
#
# 1 112.2930 37.0938 2.4244 0.0000 0.0000 0.0000
# 2 37.0938 49.2016 16.8090 0.0000 0.0000 0.0000
# 3 2.4244 16.8090 64.0795 0.0000 0.0000 0.0000
# 4 0.0000 0.0000 0.0000 34.4744 0.0000 0.0000
# 5 0.0000 0.0000 0.0000 0.0000 22.3403 0.0000
# 6 0.0000 0.0000 0.0000 0.0000 0.0000 34.6142
#
#
#
# Elastic Compliance Matrix: (Units=1/GPa)
#
#
# Indices 1 2 3 4 5 6 
#
# 1 0.012117 -0.009863 0.002129 0.000000 0.000000 0.000000
# 2 -0.009863 0.030353 -0.007589 0.000000 0.000000 0.000000
# 3 0.002129 -0.007589 0.017516 0.000000 0.000000 0.000000
# 4 0.000000 0.000000 0.000000 0.029007 0.000000 0.000000
# 5 0.000000 0.000000 0.000000 0.000000 0.044762 0.000000
# 6 0.000000 0.000000 0.000000 0.000000 0.000000 0.028890
#
#
# Mechanical properties :
#
#
# Convention : Reuss Voigt Hill
#
# Bulk Modulus (GPa) = 34.08297 37.58095 35.83196
# Shear Modulus (GPa) = 24.62202 29.56891 27.09546
#
# Velocity S-wave (km/s) = 3.62590 3.97349 3.80367
# Velocity P-wave (km/s) = 5.97733 6.41235 6.19866
#
# Compressibility (1/GPa) = 0.02934016
#
# Stress axis : x y z
#
# Youngs Moduli (GPa) = 82.52716 32.94603 57.09155
#
# Poissons Ratio (x) = 0.32493 -0.12153
# Poissons Ratio (y) = 0.81393 0.43326
# Poissons Ratio (z) = -0.17567 0.25002
#
# Static dielectric constant tensor:
#      x y z
#    x 1.574220 0.000000 0.000000 
#    y 0.000000 1.655540 0.000000 
#    z 0.000000 0.000000 1.639600 
# 
# From -- ./inp_files/11628.got.cif
#   From: 2010.05.17/outbox.cif.g08.bks.cpg/sg53_6_cif.got.tgz:11628.got - 2010.06.03 12:45:16.
