data_PCOD9418919
_publ_section_title
;
Structure prediction by ZEFSAII (Michael W. Deem and Ramdas Pophale) SiO2 
 PCOD9418919
Probable space group: P M N A
;
_chemical_formula_sum "Si O2"
_cell_formula_units_Z 56
_cell_length_a 17.319232
_cell_length_b 10.051168
_cell_length_c 15.577522
_cell_angle_alpha 90.000000
_cell_angle_beta 90.000000
_cell_angle_gamma 90.000000
_cell_volume 2711.711826
_symmetry_space_group_name_H-M "P M N A"
_symmetry_group_IT_number 53
_symmetry_cell_setting 'orthorhombic'
loop_
_space_group_symop_operation_xyz
x,y,z
1/2-x,-y,1/2+z
x,-y,-z
1/2-x,y,1/2-z
-x,-y,-z
1/2+x,y,1/2-z
-x,y,z
1/2+x,-y,1/2+z
loop_
_atom_site_type_symbol
_atom_site_label
_atom_site_fract_x
_atom_site_fract_y
_atom_site_fract_z
Si Si1 0.330851 0.644246 0.005945
Si Si2 0.155969 0.639042 0.960902
Si Si3 0.909062 0.944096 0.255406
Si Si4 0.829282 0.316795 0.705576
Si Si5 0.091111 0.814816 0.629619
Si Si6 0.590005 0.118275 0.567781
Si Si7 0.341723 0.614352 0.734541
O O1 0.314253 0.663278 0.105540
O O2 0.372316 0.500000 0.000000
O O3 0.248908 0.630601 0.958515
O O4 0.373256 0.766242 0.960184
O O5 0.132750 0.653927 0.861533
O O6 0.126921 0.500000 0.000000
O O7 0.132176 0.757001 0.024609
O O8 0.893595 0.795418 0.286748
O O9 0.878039 0.938795 0.157744
O O10 0.000000 0.973913 0.248776
O O11 0.877220 0.052584 0.322704
O O12 0.750000 0.270475 0.750000
O O13 0.851219 0.456511 0.749633
O O14 0.110499 0.696432 0.695938
O O15 0.000000 0.830044 0.617287
O O16 0.500000 0.156401 0.581721
O O17 0.592393 0.000000 0.500000
O O18 0.250000 0.641077 0.750000
#
# Coordination Sequence:
#
# PCOD9418919 Si02
#       7
#     8   8   8   8   8   8   8
#     4  11  21  42  64  93 128 160 208 268 318 377
#     4  11  21  37  65  92 125 163 210 264 322 381
#     4  10  23  42  60  87 127 166 208 259 315 373
#     4  11  22  40  65  91 126 165 209 258 322 379
#     4  11  24  42  65  93 125 171 218 260 317 386
#     4  10  21  40  62  89 127 167 208 261 320 377
#     4  11  20  39  63  91 126 162 210 268 318 376
#
# _framework density 20.651161999999999
#
# number of rings (size 3 to 8) (size 9 to 14) (size 15 to 20)
#    0.000    1.286    2.857    5.143    0.000    4.571 
#    5.143    1.429    0.000    0.000    0.000    0.000 
#    0.000    0.000    0.000    0.000    0.000    0.000 
#
# Total GULP energy -312645.267914 kJ/mol
# GULP energy per Si atom -5582.951213 kJ/mol
# Density = 2.060416 g / cm^3
# Si number density = 20.651162 Si / 1000 Ang^3
#
#
#
# Elastic Constant Matrix: (Units=GPa)
#
#
# Indices 1 2 3 4 5 6 
#
# 1 10.0829 12.6137 11.5315 0.0000 0.0000 0.0000
# 2 12.6137 73.4079 17.2199 0.0000 0.0000 0.0000
# 3 11.5315 17.2199 128.1980 0.0000 0.0000 0.0000
# 4 0.0000 0.0000 0.0000 15.4373 0.0000 0.0000
# 5 0.0000 0.0000 0.0000 0.0000 12.4508 0.0000
# 6 0.0000 0.0000 0.0000 0.0000 0.0000 15.8525
#
#
#
# Elastic Compliance Matrix: (Units=1/GPa)
#
#
# Indices 1 2 3 4 5 6 
#
# 1 0.136544 -0.021251 -0.009428 0.000000 0.000000 0.000000
# 2 -0.021251 0.017373 -0.000422 0.000000 0.000000 0.000000
# 3 -0.009428 -0.000422 0.008705 0.000000 0.000000 0.000000
# 4 0.000000 0.000000 0.000000 0.064778 0.000000 0.000000
# 5 0.000000 0.000000 0.000000 0.000000 0.080316 0.000000
# 6 0.000000 0.000000 0.000000 0.000000 0.000000 0.063081
#
#
# Mechanical properties :
#
#
# Convention : Reuss Voigt Hill
#
# Bulk Modulus (GPa) = 9.95806 32.71323 21.33565
# Shear Modulus (GPa) = 10.71873 20.10305 15.41089
#
# Velocity S-wave (km/s) = 2.28071 3.12341 2.73472
# Velocity P-wave (km/s) = 3.43046 5.37428 4.50838
#
# Compressibility (1/GPa) = 0.10042112
#
# Stress axis : x y z
#
# Youngs Moduli (GPa) = 7.32363 57.56044 114.87437
#
# Poissons Ratio (x) = 1.22321 1.08301
# Poissons Ratio (y) = 0.15563 0.04848
# Poissons Ratio (z) = 0.06905 0.02429
#
# Static dielectric constant tensor:
#      x y z
#    x 1.740880 0.000000 0.000000 
#    y 0.000000 1.760100 0.000000 
#    z 0.000000 0.000000 1.805250 
# 
# From -- ./inp_files/24308.got.cif
#   From: 2010.05.17/outbox.cif.g08.bks.cpg/sg53_13_cif.got.tgz:24308.got - 2010.06.03 12:45:16.
