data_PCOD9418322
_publ_section_title
;
Structure prediction by ZEFSAII (Michael W. Deem and Ramdas Pophale) SiO2 
 PCOD9418322
Probable space group: P M N A
;
_chemical_formula_sum "Si O2"
_cell_formula_units_Z 64
_cell_length_a 19.468097
_cell_length_b 30.243867
_cell_length_c 5.336691
_cell_angle_alpha 90.000000
_cell_angle_beta 90.000000
_cell_angle_gamma 90.000000
_cell_volume 3142.193157
_symmetry_space_group_name_H-M "P M N A"
_symmetry_group_IT_number 53
_symmetry_cell_setting 'orthorhombic'
loop_
_space_group_symop_operation_xyz
x,y,z
1/2-x,-y,1/2+z
x,-y,-z
1/2-x,y,1/2-z
-x,-y,-z
1/2+x,y,1/2-z
-x,y,z
1/2+x,-y,1/2+z
loop_
_atom_site_type_symbol
_atom_site_label
_atom_site_fract_x
_atom_site_fract_y
_atom_site_fract_z
Si Si1 0.831836 0.523615 0.745039
Si Si2 0.077835 0.646710 0.068881
Si Si3 0.177186 0.307951 0.331829
Si Si4 0.682167 0.397171 0.899526
Si Si5 0.416077 0.125236 0.107851
Si Si6 0.416540 0.026138 0.251148
Si Si7 0.924351 0.261210 0.634671
Si Si8 0.082923 0.172749 0.899564
O O1 0.862344 0.500000 0.500000
O O2 0.750000 0.515541 0.750000
O O3 0.834309 0.425341 0.350001
O O4 0.857970 0.500000 0.000000
O O5 0.116358 0.607450 0.217814
O O6 0.071332 0.689877 0.246919
O O7 0.000000 0.635442 0.985242
O O8 0.128467 0.665118 0.857500
O O9 0.250000 0.290459 0.250000
O O10 0.197470 0.346722 0.527104
O O11 0.132317 0.267658 0.427867
O O12 0.750000 0.414473 0.750000
O O13 0.500000 0.124887 0.097218
O O14 0.394720 0.076632 0.202655
O O15 0.393073 0.158303 0.327446
O O16 0.393471 0.141715 0.832716
O O17 0.500000 0.027168 0.268418
O O18 0.392600 0.000000 0.500000
O O19 0.398252 0.000000 0.000000
O O20 0.903958 0.223542 0.828794
O O21 0.000000 0.249548 0.532634
O O22 0.000000 0.168212 0.906692
#
# Coordination Sequence:
#
# PCOD9418322 Si02
#       8
#     8   8   8   8   8   8   8   8
#     4  10  21  35  58  92 125 153 189 239 290 339
#     4  10  22  38  58  86 118 157 200 245 293 350
#     4  11  21  34  58  85 113 151 195 244 294 343
#     4  11  21  37  62  90 125 156 195 246 299 345
#     4   9  16  25  38  58  83 119 171 223 275 330
#     4   9  15  22  33  50  77 113 157 216 275 326
#     4   9  20  34  50  75 109 147 190 241 292 342
#     4   9  17  28  43  62  89 128 174 228 276 325
#
# _framework density 20.367940000000001
#
# number of rings (size 3 to 8) (size 9 to 14) (size 15 to 20)
#    0.000    2.250    1.250    2.625    3.500    3.500 
#    0.000    0.000    0.000    0.750    0.000    0.000 
#    0.000    0.500    0.000    0.000    0.000    3.750 
#
# Total GULP energy -356471.116787 kJ/mol
# GULP energy per Si atom -5569.861200 kJ/mol
# Density = 2.032158 g / cm^3
# Si number density = 20.367940 Si / 1000 Ang^3
#
#
#
# Elastic Constant Matrix: (Units=GPa)
#
#
# Indices 1 2 3 4 5 6 
#
# 1 76.1082 7.5659 20.1358 0.0000 0.0000 0.0000
# 2 7.5659 66.2319 2.9980 0.0000 0.0000 0.0000
# 3 20.1358 2.9980 83.8384 0.0000 0.0000 0.0000
# 4 0.0000 0.0000 0.0000 27.5959 0.0000 0.0000
# 5 0.0000 0.0000 0.0000 0.0000 15.7957 0.0000
# 6 0.0000 0.0000 0.0000 0.0000 0.0000 17.1478
#
#
#
# Elastic Compliance Matrix: (Units=1/GPa)
#
#
# Indices 1 2 3 4 5 6 
#
# 1 0.014172 -0.001467 -0.003351 0.000000 0.000000 0.000000
# 2 -0.001467 0.015275 -0.000194 0.000000 0.000000 0.000000
# 3 -0.003351 -0.000194 0.012740 0.000000 0.000000 0.000000
# 4 0.000000 0.000000 0.000000 0.036237 0.000000 0.000000
# 5 0.000000 0.000000 0.000000 0.000000 0.063308 0.000000
# 6 0.000000 0.000000 0.000000 0.000000 0.000000 0.058316
#
#
# Mechanical properties :
#
#
# Convention : Reuss Voigt Hill
#
# Bulk Modulus (GPa) = 31.09301 31.95309 31.52305
# Shear Modulus (GPa) = 22.64565 25.13981 23.89273
#
# Velocity S-wave (km/s) = 3.33803 3.51705 3.42871
# Velocity P-wave (km/s) = 5.49139 5.67581 5.58436
#
# Compressibility (1/GPa) = 0.03216157
#
# Stress axis : x y z
#
# Youngs Moduli (GPa) = 70.56333 65.46716 78.49593
#
# Poissons Ratio (x) = 0.09605 0.26306
# Poissons Ratio (y) = 0.10353 0.01522
# Poissons Ratio (z) = 0.23647 0.01269
#
# Static dielectric constant tensor:
#      x y z
#    x 1.757060 0.000000 0.000000 
#    y 0.000000 1.778440 0.000000 
#    z 0.000000 0.000000 1.838050 
# 
# From -- ./inp_files/2336.got.cif
#   From: 2010.05.17/outbox.cif.g08.bks.cpg/sg53_2_cif.got.tgz:2336.got - 2010.06.03 12:45:16.
