data_PCOD9418793
_publ_section_title
;
Structure prediction by ZEFSAII (Michael W. Deem and Ramdas Pophale) SiO2 
 PCOD9418793
Probable space group: P M N A
;
_chemical_formula_sum "Si O2"
_cell_formula_units_Z 48
_cell_length_a 7.415217
_cell_length_b 17.222981
_cell_length_c 19.953342
_cell_angle_alpha 90.000000
_cell_angle_beta 90.000000
_cell_angle_gamma 90.000000
_cell_volume 2548.284037
_symmetry_space_group_name_H-M "P M N A"
_symmetry_group_IT_number 53
_symmetry_cell_setting 'orthorhombic'
loop_
_space_group_symop_operation_xyz
x,y,z
1/2-x,-y,1/2+z
x,-y,-z
1/2-x,y,1/2-z
-x,-y,-z
1/2+x,y,1/2-z
-x,y,z
1/2+x,-y,1/2+z
loop_
_atom_site_type_symbol
_atom_site_label
_atom_site_fract_x
_atom_site_fract_y
_atom_site_fract_z
Si Si1 0.284931 0.628661 0.327208
Si Si2 0.000000 0.948405 0.602151
Si Si3 0.281355 0.307851 0.410996
Si Si4 0.000000 0.117897 0.548900
Si Si5 0.286866 0.155026 0.328698
Si Si6 0.781773 0.747803 0.058586
Si Si7 0.715928 0.546530 0.672473
O O1 0.250000 0.649915 0.250000
O O2 0.500000 0.624392 0.335703
O O3 0.223805 0.692074 0.380539
O O4 0.213594 0.541008 0.338132
O O5 0.826993 0.915544 0.641231
O O6 0.000000 0.910698 0.528073
O O7 0.000000 0.040651 0.593541
O O8 0.500000 0.310283 0.408659
O O9 0.227380 0.233415 0.367001
O O10 0.233410 0.293191 0.488019
O O11 0.215160 0.387308 0.377371
O O12 0.174282 0.171751 0.561058
O O13 0.250000 0.163314 0.250000
O O14 0.500000 0.144632 0.339785
O O15 0.000000 0.758762 0.060124
O O16 0.750000 0.568054 0.750000
O O17 0.500000 0.543218 0.664117
#
# Coordination Sequence:
#
# PCOD9418793 Si02
#       7
#     8   4   8   4   8   8   8
#     4   9  19  34  57  79 110 155 197 243 297 339
#     4  11  24  42  62  93 116 155 193 238 308 358
#     4   9  18  32  54  85 118 153 193 231 286 344
#     4  11  24  42  66  86 117 149 197 247 296 367
#     4  11  21  37  62  90 125 160 190 236 291 354
#     4  10  21  39  60  87 115 150 198 245 291 351
#     4   9  17  32  50  79 116 154 195 237 282 341
#
# _framework density 18.836203999999999
#
# number of rings (size 3 to 8) (size 9 to 14) (size 15 to 20)
#    0.000    2.167    2.500    0.500    1.167    1.333 
#    3.000    5.833    0.000    1.000    0.000    0.000 
#    0.000    0.000    0.000    0.000    0.000    0.000 
#
# Total GULP energy -267965.226506 kJ/mol
# GULP energy per Si atom -5582.608886 kJ/mol
# Density = 1.879333 g / cm^3
# Si number density = 18.836204 Si / 1000 Ang^3
#
#
#
# Elastic Constant Matrix: (Units=GPa)
#
#
# Indices 1 2 3 4 5 6 
#
# 1 90.5175 39.7297 27.4260 0.0000 0.0000 0.0000
# 2 39.7297 159.4153 111.7590 0.0000 0.0000 0.0000
# 3 27.4260 111.7590 146.3724 0.0000 0.0000 0.0000
# 4 0.0000 0.0000 0.0000 -31.7168 0.0000 0.0000
# 5 0.0000 0.0000 0.0000 0.0000 15.1645 0.0000
# 6 0.0000 0.0000 0.0000 0.0000 0.0000 23.0996
#
#
#
# Elastic Compliance Matrix: (Units=1/GPa)
#
#
# Indices 1 2 3 4 5 6 
#
# 1 0.012405 -0.003146 0.000078 0.000000 0.000000 0.000000
# 2 -0.003146 0.014296 -0.010326 0.000000 0.000000 0.000000
# 3 0.000078 -0.010326 0.014701 0.000000 0.000000 0.000000
# 4 0.000000 0.000000 0.000000 -0.031529 0.000000 0.000000
# 5 0.000000 0.000000 0.000000 0.000000 0.065943 0.000000
# 6 0.000000 0.000000 0.000000 0.000000 0.000000 0.043291
#
#
# Mechanical properties :
#
#
# Convention : Reuss Voigt Hill
#
# Bulk Modulus (GPa) = 68.42786 83.79273 76.11029
# Shear Modulus (GPa) = 33.16377 15.80217 24.48297
#
# Velocity S-wave (km/s) = 4.20055 2.89956 3.60916
# Velocity P-wave (km/s) = 7.74163 7.46937 7.60672
#
# Compressibility (1/GPa) = 0.01461393
#
# Stress axis : x y z
#
# Youngs Moduli (GPa) = 80.61332 69.94959 68.02086
#
# Poissons Ratio (x) = 0.22007 -0.00529
# Poissons Ratio (y) = 0.25362 0.70237
# Poissons Ratio (z) = -0.00627 0.72229
#
# Static dielectric constant tensor:
#      x y z
#    x 1.677240 0.000000 0.000000 
#    y 0.000000 1.632650 0.000000 
#    z 0.000000 0.000000 1.643900 
# 
# From -- ./inp_files/26317.got.cif
#   From: 2010.05.17/outbox.cif.g08.bks.cpg/sg53_14_cif.got.tgz:26317.got - 2010.06.03 12:45:16.
