data_PCOD9418020
_publ_section_title
;
Structure prediction by ZEFSAII (Michael W. Deem and Ramdas Pophale) SiO2 
 PCOD9418020
Probable space group: P M N A
;
_chemical_formula_sum "Si O2"
_cell_formula_units_Z 24
_cell_length_a 28.941416
_cell_length_b 8.054787
_cell_length_c 5.006371
_cell_angle_alpha 90.000000
_cell_angle_beta 90.000000
_cell_angle_gamma 90.000000
_cell_volume 1167.069895
_symmetry_space_group_name_H-M "P M N A"
_symmetry_group_IT_number 53
_symmetry_cell_setting 'orthorhombic'
loop_
_space_group_symop_operation_xyz
x,y,z
1/2-x,-y,1/2+z
x,-y,-z
1/2-x,y,1/2-z
-x,-y,-z
1/2+x,y,1/2-z
-x,y,z
1/2+x,-y,1/2+z
loop_
_atom_site_type_symbol
_atom_site_label
_atom_site_fract_x
_atom_site_fract_y
_atom_site_fract_z
Si Si1 0.599714 0.314723 0.379605
Si Si2 0.250000 0.120732 0.750000
Si Si3 0.000000 0.376043 0.248119
Si Si4 0.349623 0.813643 0.116994
O O1 0.600058 0.500000 0.500000
O O2 0.547726 0.276145 0.278262
O O3 0.618878 0.203183 0.620589
O O4 0.631853 0.300105 0.121241
O O5 0.203511 0.221451 0.692154
O O6 0.259908 0.000000 0.500000
O O7 0.000000 0.500000 0.500000
O O8 0.000000 0.500000 0.000000
O O9 0.350815 0.000000 0.000000
#
# Coordination Sequence:
#
# PCOD9418020 Si02
#       4
#     8   4   4   8
#     4  11  22  39  62  89 118 155 197 243 291 348
#     4  10  20  38  62  86 116 162 200 228 288 372
#     4  10  20  38  61  84 115 162 199 226 287 372
#     4  11  22  39  62  89 118 155 197 243 291 348
#
# _framework density 20.564323999999999
#
# number of rings (size 3 to 8) (size 9 to 14) (size 15 to 20)
#    0.000    1.333    0.000   10.000    0.000    0.000 
#    0.000    8.333    0.000    4.000    0.000    0.000 
#    0.000    0.000    0.000    0.000    0.000    0.000 
#
# Total GULP energy -134088.526751 kJ/mol
# GULP energy per Si atom -5587.021948 kJ/mol
# Density = 2.051752 g / cm^3
# Si number density = 20.564324 Si / 1000 Ang^3
#
#
#
# Elastic Constant Matrix: (Units=GPa)
#
#
# Indices 1 2 3 4 5 6 
#
# 1 214.7440 42.4517 85.4177 0.0000 0.0000 0.0000
# 2 42.4517 33.7195 14.8246 0.0000 0.0000 0.0000
# 3 85.4177 14.8246 170.9420 0.0000 0.0000 0.0000
# 4 0.0000 0.0000 0.0000 45.8717 0.0000 0.0000
# 5 0.0000 0.0000 0.0000 0.0000 40.7641 0.0000
# 6 0.0000 0.0000 0.0000 0.0000 0.0000 43.5239
#
#
#
# Elastic Compliance Matrix: (Units=1/GPa)
#
#
# Indices 1 2 3 4 5 6 
#
# 1 0.007452 -0.008051 -0.003025 0.000000 0.000000 0.000000
# 2 -0.008051 0.039531 0.000595 0.000000 0.000000 0.000000
# 3 -0.003025 0.000595 0.007310 0.000000 0.000000 0.000000
# 4 0.000000 0.000000 0.000000 0.021800 0.000000 0.000000
# 5 0.000000 0.000000 0.000000 0.000000 0.024531 0.000000
# 6 0.000000 0.000000 0.000000 0.000000 0.000000 0.022976
#
#
# Mechanical properties :
#
#
# Convention : Reuss Voigt Hill
#
# Bulk Modulus (GPa) = 30.00345 78.31037 54.15691
# Shear Modulus (GPa) = 32.11849 44.47936 38.29893
#
# Velocity S-wave (km/s) = 3.95632 4.65579 4.32023
# Velocity P-wave (km/s) = 5.95749 8.18933 7.16089
#
# Compressibility (1/GPa) = 0.03332950
#
# Stress axis : x y z
#
# Youngs Moduli (GPa) = 134.19754 25.29644 136.79806
#
# Poissons Ratio (x) = 0.20367 0.41385
# Poissons Ratio (y) = 1.08048 -0.08138
# Poissons Ratio (z) = 0.40599 -0.01505
#
# Static dielectric constant tensor:
#      x y z
#    x 1.789990 0.000000 0.000000 
#    y 0.000000 1.737740 0.000000 
#    z 0.000000 0.000000 1.703610 
# 
# From -- ./inp_files/3268.got.cif
#   From: 2010.05.17/outbox.cif.g08.bks.cpg/sg53_2_cif.got.tgz:3268.got - 2010.06.03 12:45:16.
