data_PCOD9418229
_publ_section_title
;
Structure prediction by ZEFSAII (Michael W. Deem and Ramdas Pophale) SiO2 
 PCOD9418229
Probable space group: P M N A
;
_chemical_formula_sum "Si O2"
_cell_formula_units_Z 32
_cell_length_a 14.931371
_cell_length_b 5.190738
_cell_length_c 16.440705
_cell_angle_alpha 90.000000
_cell_angle_beta 90.000000
_cell_angle_gamma 90.000000
_cell_volume 1274.234126
_symmetry_space_group_name_H-M "P M N A"
_symmetry_group_IT_number 53
_symmetry_cell_setting 'orthorhombic'
loop_
_space_group_symop_operation_xyz
x,y,z
1/2-x,-y,1/2+z
x,-y,-z
1/2-x,y,1/2-z
-x,-y,-z
1/2+x,y,1/2-z
-x,y,z
1/2+x,-y,1/2+z
loop_
_atom_site_type_symbol
_atom_site_label
_atom_site_fract_x
_atom_site_fract_y
_atom_site_fract_z
Si Si1 0.826609 0.176496 0.575868
Si Si2 0.099821 0.409803 0.167342
Si Si3 0.172524 0.500000 0.000000
Si Si4 0.000000 0.552745 0.374253
Si Si5 0.000000 0.052766 0.265761
Si Si6 0.750000 0.771748 0.250000
O O1 0.736291 0.293752 0.541124
O O2 0.795223 0.092972 0.668586
O O3 0.904953 0.388899 0.584631
O O4 0.858899 0.000000 0.500000
O O5 0.119800 0.374897 0.073368
O O6 0.173432 0.579030 0.213359
O O7 0.000000 0.529810 0.170856
O O8 0.084540 0.133930 0.210310
O O9 0.000000 0.270491 0.336673
O O10 0.000000 0.785857 0.309451
#
# Coordination Sequence:
#
# PCOD9418229 Si02
#       6
#     8   8   4   4   4   4
#     4  11  25  41  66 102 138 192 240 303 354 438
#     4   9  19  41  68  99 138 188 240 304 357 437
#     4  10  23  41  64  98 142 184 245 296 371 418
#     4  12  25  45  70 107 143 193 238 301 363 428
#     4  10  24  43  76 100 141 191 241 295 370 426
#     4  10  20  42  70  98 146 184 246 296 372 418
#
# _framework density 25.113122000000001
#
# number of rings (size 3 to 8) (size 9 to 14) (size 15 to 20)
#    0.750    1.000    2.500    0.750    3.500    2.500 
#    0.000    1.250    0.000    5.250    0.000    0.000 
#    0.000    0.000    0.000    0.000    0.000    0.000 
#
# Total GULP energy -178592.627860 kJ/mol
# GULP energy per Si atom -5581.019621 kJ/mol
# Density = 2.505596 g / cm^3
# Si number density = 25.113122 Si / 1000 Ang^3
#
#
#
# Elastic Constant Matrix: (Units=GPa)
#
#
# Indices 1 2 3 4 5 6 
#
# 1 131.8652 7.6610 60.3673 0.0000 0.0000 0.0000
# 2 7.6610 35.7716 52.5369 0.0000 0.0000 0.0000
# 3 60.3673 52.5369 225.5384 0.0000 0.0000 0.0000
# 4 0.0000 0.0000 0.0000 41.5986 0.0000 0.0000
# 5 0.0000 0.0000 0.0000 0.0000 61.6851 0.0000
# 6 0.0000 0.0000 0.0000 0.0000 0.0000 10.9623
#
#
#
# Elastic Compliance Matrix: (Units=1/GPa)
#
#
# Indices 1 2 3 4 5 6 
#
# 1 0.008775 0.002387 -0.002905 0.000000 0.000000 0.000000
# 2 0.002387 0.043142 -0.010688 0.000000 0.000000 0.000000
# 3 -0.002905 -0.010688 0.007701 0.000000 0.000000 0.000000
# 4 0.000000 0.000000 0.000000 0.024039 0.000000 0.000000
# 5 0.000000 0.000000 0.000000 0.000000 0.016211 0.000000
# 6 0.000000 0.000000 0.000000 0.000000 0.000000 0.091221
#
#
# Mechanical properties :
#
#
# Convention : Reuss Voigt Hill
#
# Bulk Modulus (GPa) = 26.87823 70.47842 48.67833
# Shear Modulus (GPa) = 22.13340 41.02321 31.57831
#
# Velocity S-wave (km/s) = 2.97197 4.04609 3.54989
# Velocity P-wave (km/s) = 4.74372 7.06775 6.01897
#
# Compressibility (1/GPa) = 0.03720482
#
# Stress axis : x y z
#
# Youngs Moduli (GPa) = 113.96630 23.17951 129.85392
#
# Poissons Ratio (x) = -0.05532 0.37716
# Poissons Ratio (y) = -0.27199 1.38790
# Poissons Ratio (z) = 0.33102 0.24775
#
# Static dielectric constant tensor:
#      x y z
#    x 2.044420 0.000000 0.000000 
#    y 0.000000 2.034670 0.000000 
#    z 0.000000 0.000000 2.107890 
# 
# From -- ./inp_files/27871.got.cif
#   From: 2010.05.17/outbox.cif.g08.bks.cpg/sg53_14_cif.got.tgz:27871.got - 2010.06.03 12:45:16.
