data_PCOD9418388
_publ_section_title
;
Structure prediction by ZEFSAII (Michael W. Deem and Ramdas Pophale) SiO2 
 PCOD9418388
Probable space group: P M N A
;
_chemical_formula_sum "Si O2"
_cell_formula_units_Z 48
_cell_length_a 8.611516
_cell_length_b 31.698104
_cell_length_c 9.141993
_cell_angle_alpha 90.000000
_cell_angle_beta 90.000000
_cell_angle_gamma 90.000000
_cell_volume 2495.478217
_symmetry_space_group_name_H-M "P M N A"
_symmetry_group_IT_number 53
_symmetry_cell_setting 'orthorhombic'
loop_
_space_group_symop_operation_xyz
x,y,z
1/2-x,-y,1/2+z
x,-y,-z
1/2-x,y,1/2-z
-x,-y,-z
1/2+x,y,1/2-z
-x,y,z
1/2+x,-y,1/2+z
loop_
_atom_site_type_symbol
_atom_site_label
_atom_site_fract_x
_atom_site_fract_y
_atom_site_fract_z
Si Si1 0.687753 0.873762 0.585768
Si Si2 0.314461 0.376064 0.914461
Si Si3 0.813124 0.294979 0.085446
Si Si4 0.813682 0.543016 0.914363
Si Si5 0.687356 0.789785 0.414122
Si Si6 0.312343 0.042055 0.585828
O O1 0.750000 0.873359 0.750000
O O2 0.500000 0.873605 0.590602
O O3 0.738810 0.832086 0.497975
O O4 0.737697 0.916017 0.500906
O O5 0.250000 0.377018 0.750000
O O6 0.500000 0.375157 0.911161
O O7 0.251613 0.334834 0.997215
O O8 0.257129 0.417245 0.001011
O O9 0.750000 0.295333 0.250000
O O10 0.000000 0.297059 0.088160
O O11 0.765646 0.251851 0.003734
O O12 0.750000 0.541332 0.750000
O O13 0.000000 0.547180 0.911009
O O14 0.774297 0.500000 0.000000
O O15 0.750000 0.788624 0.250000
O O16 0.500000 0.790291 0.408406
O O17 0.250000 0.042215 0.750000
O O18 0.500000 0.042024 0.590746
O O19 0.261947 0.000000 0.500000
#
# Coordination Sequence:
#
# PCOD9418388 Si02
#       6
#     8   8   8   8   8   8
#     4  10  21  37  56  82 113 146 188 234 283 340
#     4  12  25  42  64  90 122 158 198 244 294 348
#     4  11  23  40  61  87 118 153 195 240 291 347
#     4  11  24  42  65  93 125 161 201 245 294 347
#     4  10  22  38  58  84 114 149 190 237 287 343
#     4  10  21  36  55  81 112 146 187 233 281 338
#
# _framework density 19.234791000000001
#
# number of rings (size 3 to 8) (size 9 to 14) (size 15 to 20)
#    0.000    1.333    0.000    5.500    0.000    7.000 
#    0.000    0.000    0.000    0.000    0.000    0.000 
#    0.000    0.000    0.000    0.000    0.000    0.000 
#
# Total GULP energy -268545.206155 kJ/mol
# GULP energy per Si atom -5594.691795 kJ/mol
# Density = 1.919101 g / cm^3
# Si number density = 19.234791 Si / 1000 Ang^3
#
#
#
# Elastic Constant Matrix: (Units=GPa)
#
#
# Indices 1 2 3 4 5 6 
#
# 1 56.1524 68.1458 58.2859 0.0000 0.0000 0.0000
# 2 68.1458 234.7871 143.6706 0.0000 0.0000 0.0000
# 3 58.2859 143.6706 240.3345 0.0000 0.0000 0.0000
# 4 0.0000 0.0000 0.0000 1.0471 0.0000 0.0000
# 5 0.0000 0.0000 0.0000 0.0000 43.6896 0.0000
# 6 0.0000 0.0000 0.0000 0.0000 0.0000 -9.6628
#
#
#
# Elastic Compliance Matrix: (Units=1/GPa)
#
#
# Indices 1 2 3 4 5 6 
#
# 1 0.028928 -0.006470 -0.003148 0.000000 0.000000 0.000000
# 2 -0.006470 0.008163 -0.003311 0.000000 0.000000 0.000000
# 3 -0.003148 -0.003311 0.006903 0.000000 0.000000 0.000000
# 4 0.000000 0.000000 0.000000 0.954973 0.000000 0.000000
# 5 0.000000 0.000000 0.000000 0.000000 0.022889 0.000000
# 6 0.000000 0.000000 0.000000 0.000000 0.000000 -0.103489
#
#
# Mechanical properties :
#
#
# Convention : Reuss Voigt Hill
#
# Bulk Modulus (GPa) = 55.13500 119.05317 87.09409
# Shear Modulus (GPa) = 5.26166 24.42623 14.84395
#
# Velocity S-wave (km/s) = 1.65573 3.56743 2.78101
# Velocity P-wave (km/s) = 5.69049 8.88807 7.46256
#
# Compressibility (1/GPa) = 0.01813730
#
# Stress axis : x y z
#
# Youngs Moduli (GPa) = 34.56851 122.50565 144.85647
#
# Poissons Ratio (x) = 0.79261 0.45600
# Poissons Ratio (y) = 0.22366 0.47957
# Poissons Ratio (z) = 0.10882 0.40557
#
# Static dielectric constant tensor:
#      x y z
#    x 1.650710 0.000000 0.000000 
#    y 0.000000 1.654700 0.000000 
#    z 0.000000 0.000000 1.609840 
# 
# From -- ./inp_files/6658.got.cif
#   From: 2010.05.17/outbox.cif.g08.bks.cpg/sg53_4_cif.got.tgz:6658.got - 2010.06.03 12:45:16.
