data_PCOD9418652
_publ_section_title
;
Structure prediction by ZEFSAII (Michael W. Deem and Ramdas Pophale) SiO2 
 PCOD9418652
Probable space group: P M N A
;
_chemical_formula_sum "Si O2"
_cell_formula_units_Z 40
_cell_length_a 28.007806
_cell_length_b 9.531938
_cell_length_c 7.608638
_cell_angle_alpha 90.000000
_cell_angle_beta 90.000000
_cell_angle_gamma 90.000000
_cell_volume 2031.267970
_symmetry_space_group_name_H-M "P M N A"
_symmetry_group_IT_number 53
_symmetry_cell_setting 'orthorhombic'
loop_
_space_group_symop_operation_xyz
x,y,z
1/2-x,-y,1/2+z
x,-y,-z
1/2-x,y,1/2-z
-x,-y,-z
1/2+x,y,1/2-z
-x,y,z
1/2+x,-y,1/2+z
loop_
_atom_site_type_symbol
_atom_site_label
_atom_site_fract_x
_atom_site_fract_y
_atom_site_fract_z
Si Si1 0.303194 0.062911 0.194743
Si Si2 0.115903 0.551065 0.312923
Si Si3 0.609107 0.756340 0.714340
Si Si4 0.945340 0.207115 0.564439
Si Si5 0.630425 0.163742 0.667006
O O1 0.250000 0.100668 0.250000
O O2 0.340046 0.191277 0.210025
O O3 0.325477 0.939886 0.316314
O O4 0.303231 0.000000 0.000000
O O5 0.136636 0.500000 0.500000
O O6 0.108339 0.412185 0.200812
O O7 0.067254 0.634934 0.366090
O O8 0.144517 0.676785 0.220628
O O9 0.570378 0.795785 0.861692
O O10 0.606141 0.825988 0.523210
O O11 0.908529 0.119825 0.685360
O O12 0.000000 0.170455 0.588925
#
# Coordination Sequence:
#
# PCOD9418652 Si02
#       5
#     8   8   8   8   8
#     4  12  23  42  64  89 116 155 201 250 306 364
#     4   8  17  35  58  82 120 157 194 240 296 341
#     4  11  20  37  60  88 122 158 198 252 294 351
#     4   9  20  37  61  89 125 163 202 244 299 353
#     4  10  21  38  58  88 121 159 200 247 296 353
#
# _framework density 19.692135
#
# number of rings (size 3 to 8) (size 9 to 14) (size 15 to 20)
#    1.200    0.800    2.000    2.400    0.000    4.400 
#    0.000    4.000    0.000    4.800    0.000    0.000 
#    0.000    0.000    0.000    0.000    0.000    0.000 
#
# Total GULP energy -222838.609028 kJ/mol
# GULP energy per Si atom -5570.965226 kJ/mol
# Density = 1.964731 g / cm^3
# Si number density = 19.692135 Si / 1000 Ang^3
#
#
#
# Elastic Constant Matrix: (Units=GPa)
#
#
# Indices 1 2 3 4 5 6 
#
# 1 77.5088 5.6141 3.3268 0.0000 0.0000 0.0000
# 2 5.6141 68.7751 -1.6538 0.0000 0.0000 0.0000
# 3 3.3268 -1.6538 91.8620 0.0000 0.0000 0.0000
# 4 0.0000 0.0000 0.0000 29.2629 0.0000 0.0000
# 5 0.0000 0.0000 0.0000 0.0000 13.3341 0.0000
# 6 0.0000 0.0000 0.0000 0.0000 0.0000 14.5529
#
#
#
# Elastic Compliance Matrix: (Units=1/GPa)
#
#
# Indices 1 2 3 4 5 6 
#
# 1 0.013001 -0.001073 -0.000490 0.000000 0.000000 0.000000
# 2 -0.001073 0.014635 0.000302 0.000000 0.000000 0.000000
# 3 -0.000490 0.000302 0.010909 0.000000 0.000000 0.000000
# 4 0.000000 0.000000 0.000000 0.034173 0.000000 0.000000
# 5 0.000000 0.000000 0.000000 0.000000 0.074996 0.000000
# 6 0.000000 0.000000 0.000000 0.000000 0.000000 0.068715
#
#
# Mechanical properties :
#
#
# Convention : Reuss Voigt Hill
#
# Bulk Modulus (GPa) = 27.76006 28.08001 27.92003
# Shear Modulus (GPa) = 21.64898 26.82055 24.23477
#
# Velocity S-wave (km/s) = 3.31928 3.69452 3.51191
# Velocity P-wave (km/s) = 5.36822 5.69998 5.53658
#
# Compressibility (1/GPa) = 0.03602298
#
# Stress axis : x y z
#
# Youngs Moduli (GPa) = 76.92001 68.32931 91.66665
#
# Poissons Ratio (x) = 0.07332 0.04493
# Poissons Ratio (y) = 0.08254 -0.02771
# Poissons Ratio (z) = 0.03770 -0.02066
#
# Static dielectric constant tensor:
#      x y z
#    x 1.627450 0.000000 0.000000 
#    y 0.000000 1.754440 0.000000 
#    z 0.000000 0.000000 1.749360 
# 
# From -- ./inp_files/11590.got.cif
#   From: 2010.05.17/outbox.cif.g08.bks.cpg/sg53_6_cif.got.tgz:11590.got - 2010.06.03 12:45:16.
