data_PCOD9418386
_publ_section_title
;
Structure prediction by ZEFSAII (Michael W. Deem and Ramdas Pophale) SiO2 
 PCOD9418386
Probable space group: P M N A
;
_chemical_formula_sum "Si O2"
_cell_formula_units_Z 40
_cell_length_a 8.564930
_cell_length_b 26.506945
_cell_length_c 9.161964
_cell_angle_alpha 90.000000
_cell_angle_beta 90.000000
_cell_angle_gamma 90.000000
_cell_volume 2080.041864
_symmetry_space_group_name_H-M "P M N A"
_symmetry_group_IT_number 53
_symmetry_cell_setting 'orthorhombic'
loop_
_space_group_symop_operation_xyz
x,y,z
1/2-x,-y,1/2+z
x,-y,-z
1/2-x,y,1/2-z
-x,-y,-z
1/2+x,y,1/2-z
-x,y,z
1/2+x,-y,1/2+z
loop_
_atom_site_type_symbol
_atom_site_label
_atom_site_fract_x
_atom_site_fract_y
_atom_site_fract_z
Si Si1 0.312437 0.852086 0.414453
Si Si2 0.811434 0.248800 0.085664
Si Si3 0.312554 0.050791 0.085547
Si Si4 0.688761 0.650780 0.414359
Si Si5 0.811288 0.449755 0.085673
O O1 0.250000 0.852282 0.250000
O O2 0.500000 0.853280 0.411556
O O3 0.261933 0.801133 0.497880
O O4 0.251322 0.900587 0.501176
O O5 0.750000 0.248002 0.250000
O O6 0.000000 0.249093 0.089964
O O7 0.759818 0.299240 0.001204
O O8 0.250000 0.049702 0.250000
O O9 0.500000 0.053003 0.088383
O O10 0.265260 0.000000 0.000000
O O11 0.750000 0.651071 0.250000
O O12 0.500000 0.650872 0.410442
O O13 0.739630 0.600398 0.499469
O O14 0.750000 0.449645 0.250000
O O15 0.000000 0.449772 0.089625
O O16 0.760197 0.500000 0.000000
#
# Coordination Sequence:
#
# PCOD9418386 Si02
#       5
#     8   8   8   8   8
#     4  11  23  39  60  86 116 150 190 234 282 336
#     4  10  22  38  57  83 113 147 187 231 279 333
#     4  11  24  41  62  88 118 152 190 233 281 334
#     4  10  21  37  56  81 112 145 185 230 277 331
#     4  10  21  36  55  81 111 144 185 230 276 330
#
# _framework density 19.230381999999999
#
# number of rings (size 3 to 8) (size 9 to 14) (size 15 to 20)
#    0.000    1.600    0.000    4.200    0.000    8.400 
#    0.000    0.000    0.000    0.000    0.000    0.000 
#    0.000    0.000    0.000    0.000    0.000    0.000 
#
# Total GULP energy -223687.211791 kJ/mol
# GULP energy per Si atom -5592.180295 kJ/mol
# Density = 1.918661 g / cm^3
# Si number density = 19.230382 Si / 1000 Ang^3
#
#
#
# Elastic Constant Matrix: (Units=GPa)
#
#
# Indices 1 2 3 4 5 6 
#
# 1 21.4804 45.4524 38.2204 0.0000 0.0000 0.0000
# 2 45.4524 244.8773 149.7567 0.0000 0.0000 0.0000
# 3 38.2204 149.7567 242.2682 0.0000 0.0000 0.0000
# 4 0.0000 0.0000 0.0000 47.1092 0.0000 0.0000
# 5 0.0000 0.0000 0.0000 0.0000 44.0785 0.0000
# 6 0.0000 0.0000 0.0000 0.0000 0.0000 -7.3481
#
#
#
# Elastic Compliance Matrix: (Units=1/GPa)
#
#
# Indices 1 2 3 4 5 6 
#
# 1 0.081150 -0.011629 -0.005614 0.000000 0.000000 0.000000
# 2 -0.011629 0.008232 -0.003254 0.000000 0.000000 0.000000
# 3 -0.005614 -0.003254 0.007025 0.000000 0.000000 0.000000
# 4 0.000000 0.000000 0.000000 0.021227 0.000000 0.000000
# 5 0.000000 0.000000 0.000000 0.000000 0.022687 0.000000
# 6 0.000000 0.000000 0.000000 0.000000 0.000000 -0.136090
#
#
# Mechanical properties :
#
#
# Convention : Reuss Voigt Hill
#
# Bulk Modulus (GPa) = 18.04634 108.38720 63.21677
# Shear Modulus (GPa) = 78.49719 35.11437 56.80578
#
# Velocity S-wave (km/s) = 6.39593 4.27779 5.44093
# Velocity P-wave (km/s) = 7.99679 8.99356 8.50978
#
# Compressibility (1/GPa) = 0.05541290
#
# Stress axis : x y z
#
# Youngs Moduli (GPa) = 12.32284 121.47246 142.35365
#
# Poissons Ratio (x) = 1.41266 0.79912
# Poissons Ratio (y) = 0.14331 0.46323
# Poissons Ratio (z) = 0.06918 0.39528
#
# Static dielectric constant tensor:
#      x y z
#    x 1.656960 0.000000 0.000000 
#    y 0.000000 1.661380 0.000000 
#    z 0.000000 0.000000 1.606710 
# 
# From -- ./inp_files/6265.got.cif
#   From: 2010.05.17/outbox.cif.g08.bks.cpg/sg53_4_cif.got.tgz:6265.got - 2010.06.03 12:45:16.
