data_PCOD9418612
_publ_section_title
;
Structure prediction by ZEFSAII (Michael W. Deem and Ramdas Pophale) SiO2 
 PCOD9418612
Probable space group: P M N A
;
_chemical_formula_sum "Si O2"
_cell_formula_units_Z 48
_cell_length_a 20.793899
_cell_length_b 9.386464
_cell_length_c 10.754428
_cell_angle_alpha 90.000000
_cell_angle_beta 90.000000
_cell_angle_gamma 90.000000
_cell_volume 2099.061994
_symmetry_space_group_name_H-M "P M N A"
_symmetry_group_IT_number 53
_symmetry_cell_setting 'orthorhombic'
loop_
_space_group_symop_operation_xyz
x,y,z
1/2-x,-y,1/2+z
x,-y,-z
1/2-x,y,1/2-z
-x,-y,-z
1/2+x,y,1/2-z
-x,y,z
1/2+x,-y,1/2+z
loop_
_atom_site_type_symbol
_atom_site_label
_atom_site_fract_x
_atom_site_fract_y
_atom_site_fract_z
Si Si1 0.352026 0.159680 0.737200
Si Si2 0.841410 0.850531 0.676591
Si Si3 0.245286 0.794634 0.461618
Si Si4 0.200700 0.586666 0.851442
Si Si5 0.928879 0.569847 0.181938
Si Si6 0.571150 0.377692 0.076040
O O1 0.307859 0.210915 0.853112
O O2 0.309423 0.159016 0.611125
O O3 0.409994 0.270663 0.723594
O O4 0.367300 0.995858 0.767230
O O5 0.782327 0.880574 0.581871
O O6 0.822623 0.732987 0.779968
O O7 0.892831 0.768710 0.591916
O O8 0.262186 0.645394 0.528443
O O9 0.250000 0.519883 0.750000
O O10 0.137976 0.490845 0.873600
O O11 0.935706 0.456771 0.293179
O O12 0.000000 0.574897 0.120761
O O13 0.500000 0.354601 0.021047
O O14 0.607583 0.500000 0.000000
#
# Coordination Sequence:
#
# PCOD9418612 Si02
#       6
#     8   8   8   8   8   8
#     4  11  24  36  61  94 128 168 209 273 338 382
#     4  10  21  37  61  92 126 166 208 267 333 386
#     4  10  23  38  58  89 131 160 214 263 325 390
#     4   9  21  40  64  90 125 172 221 263 323 392
#     4  10  22  42  61  92 132 171 220 272 326 391
#     4   9  18  36  62  88 122 166 213 260 319 393
#
# _framework density 22.867355
#
# number of rings (size 3 to 8) (size 9 to 14) (size 15 to 20)
#    0.000    2.167    0.000    1.500   11.667    1.333 
#    9.000    1.667    0.000    5.000    0.000    5.833 
#    0.000    0.000    0.000    0.000    0.000    0.000 
#
# Total GULP energy -267815.717090 kJ/mol
# GULP energy per Si atom -5579.494106 kJ/mol
# Density = 2.281531 g / cm^3
# Si number density = 22.867355 Si / 1000 Ang^3
#
#
#
# Elastic Constant Matrix: (Units=GPa)
#
#
# Indices 1 2 3 4 5 6 
#
# 1 118.9130 53.4438 20.6356 0.0000 0.0000 0.0000
# 2 53.4438 149.6225 26.2932 0.0000 0.0000 0.0000
# 3 20.6356 26.2932 65.6780 0.0000 0.0000 0.0000
# 4 0.0000 0.0000 0.0000 27.7647 0.0000 0.0000
# 5 0.0000 0.0000 0.0000 0.0000 20.9647 0.0000
# 6 0.0000 0.0000 0.0000 0.0000 0.0000 2085.9820
#
#
#
# Elastic Compliance Matrix: (Units=1/GPa)
#
#
# Indices 1 2 3 4 5 6 
#
# 1 0.010230 -0.003323 -0.001884 0.000000 0.000000 0.000000
# 2 -0.003323 0.008269 -0.002266 0.000000 0.000000 0.000000
# 3 -0.001884 -0.002266 0.016725 0.000000 0.000000 0.000000
# 4 0.000000 0.000000 0.000000 0.036017 0.000000 0.000000
# 5 0.000000 0.000000 0.000000 0.000000 0.047699 0.000000
# 6 0.000000 0.000000 0.000000 0.000000 0.000000 0.000479
#
#
# Mechanical properties :
#
#
# Convention : Reuss Voigt Hill
#
# Bulk Modulus (GPa) = 49.31585 59.43986 54.37786
# Shear Modulus (GPa) = 35.42978 442.53167 238.98073
#
# Velocity S-wave (km/s) = 3.94046 13.92628 10.23398
# Velocity P-wave (km/s) = 6.50506 16.87122 12.78581
#
# Compressibility (1/GPa) = 0.02027746
#
# Stress axis : x y z
#
# Youngs Moduli (GPa) = 97.75277 120.93854 59.79097
#
# Poissons Ratio (x) = 0.40188 0.11264
# Poissons Ratio (y) = 0.32483 0.13550
# Poissons Ratio (z) = 0.18415 0.27407
#
# Static dielectric constant tensor:
#      x y z
#    x 1.907730 0.000000 0.000000 
#    y 0.000000 1.908080 0.000000 
#    z 0.000000 0.000000 1.944890 
# 
# From -- ./inp_files/24603.got.cif
#   From: 2010.05.17/outbox.cif.g08.bks.cpg/sg53_13_cif.got.tgz:24603.got - 2010.06.03 12:45:16.
