data_PCOD9418289
_publ_section_title
;
Structure prediction by ZEFSAII (Michael W. Deem and Ramdas Pophale) SiO2 
 PCOD9418289
Probable space group: P M N A
;
_chemical_formula_sum "Si O2"
_cell_formula_units_Z 48
_cell_length_a 10.343497
_cell_length_b 12.526660
_cell_length_c 17.664611
_cell_angle_alpha 90.000000
_cell_angle_beta 90.000000
_cell_angle_gamma 90.000000
_cell_volume 2288.794287
_symmetry_space_group_name_H-M "P M N A"
_symmetry_group_IT_number 53
_symmetry_cell_setting 'orthorhombic'
loop_
_space_group_symop_operation_xyz
x,y,z
1/2-x,-y,1/2+z
x,-y,-z
1/2-x,y,1/2-z
-x,-y,-z
1/2+x,y,1/2-z
-x,y,z
1/2+x,-y,1/2+z
loop_
_atom_site_type_symbol
_atom_site_label
_atom_site_fract_x
_atom_site_fract_y
_atom_site_fract_z
Si Si1 0.848858 0.413322 0.687560
Si Si2 0.352859 0.927136 0.313005
Si Si3 0.145685 0.341225 0.527001
Si Si4 0.150540 0.651026 0.639902
Si Si5 0.643058 0.171682 0.358541
Si Si6 0.748237 0.117316 0.520338
O O1 0.750000 0.373222 0.750000
O O2 0.795590 0.376358 0.605956
O O3 0.847520 0.542410 0.686593
O O4 0.000000 0.380002 0.697212
O O5 0.250000 0.891952 0.250000
O O6 0.500000 0.897784 0.293092
O O7 0.319847 0.888274 0.398034
O O8 0.345776 0.056495 0.319400
O O9 0.196259 0.378454 0.445905
O O10 0.150534 0.213077 0.523594
O O11 0.000000 0.382246 0.531393
O O12 0.244408 0.746428 0.663442
O O13 0.000000 0.686643 0.635188
O O14 0.500000 0.215885 0.342748
O O15 0.657426 0.147539 0.448890
O O16 0.801325 0.000000 0.500000
#
# Coordination Sequence:
#
# PCOD9418289 Si02
#       6
#     8   8   8   8   8   8
#     4  10  21  37  55  77 109 145 177 212 259 315
#     4  10  21  35  51  74 106 142 176 213 263 320
#     4   9  18  34  56  80 105 136 176 220 264 310
#     4   9  18  34  57  80 102 134 176 220 264 310
#     4   9  18  34  56  79 103 134 175 222 267 312
#     4   9  18  34  56  79 103 136 178 220 263 311
#
# _framework density 20.97174
#
# number of rings (size 3 to 8) (size 9 to 14) (size 15 to 20)
#    0.000    2.667    0.000    1.000    0.000    7.667 
#    0.000   12.500    0.000    5.000    0.000    0.000 
#    0.000    0.000    0.000    0.000    0.000    0.000 
#
# Total GULP energy -267668.663673 kJ/mol
# GULP energy per Si atom -5576.430493 kJ/mol
# Density = 2.092401 g / cm^3
# Si number density = 20.971740 Si / 1000 Ang^3
#
#
#
# Elastic Constant Matrix: (Units=GPa)
#
#
# Indices 1 2 3 4 5 6 
#
# 1 93.4302 23.2422 49.6311 0.0000 0.0000 0.0000
# 2 23.2422 62.6727 4.4970 0.0000 0.0000 0.0000
# 3 49.6311 4.4970 106.6781 0.0000 0.0000 0.0000
# 4 0.0000 0.0000 0.0000 9.1153 0.0000 0.0000
# 5 0.0000 0.0000 0.0000 0.0000 -7.6454 0.0000
# 6 0.0000 0.0000 0.0000 0.0000 0.0000 -1.4479
#
#
#
# Elastic Compliance Matrix: (Units=1/GPa)
#
#
# Indices 1 2 3 4 5 6 
#
# 1 0.015828 -0.005358 -0.007138 0.000000 0.000000 0.000000
# 2 -0.005358 0.017818 0.001741 0.000000 0.000000 0.000000
# 3 -0.007138 0.001741 0.012621 0.000000 0.000000 0.000000
# 4 0.000000 0.000000 0.000000 0.109706 0.000000 0.000000
# 5 0.000000 0.000000 0.000000 0.000000 -0.130798 0.000000
# 6 0.000000 0.000000 0.000000 0.000000 0.000000 -0.690670
#
#
# Mechanical properties :
#
#
# Convention : Reuss Voigt Hill
#
# Bulk Modulus (GPa) = 40.38937 46.39130 43.39033
# Shear Modulus (GPa) = -7.86491 12.36511 2.25010
#
# Velocity S-wave (km/s) = -1.93866 2.43082 1.03694
# Velocity P-wave (km/s) = 3.78016 5.48155 4.70834
#
# Compressibility (1/GPa) = 0.02475899
#
# Stress axis : x y z
#
# Youngs Moduli (GPa) = 63.18060 56.12366 79.23046
#
# Poissons Ratio (x) = 0.30068 0.56553
# Poissons Ratio (y) = 0.33849 -0.13797
# Poissons Ratio (z) = 0.45097 -0.09774
#
# Static dielectric constant tensor:
#      x y z
#    x 1.729500 0.000000 0.000000 
#    y 0.000000 1.765100 0.000000 
#    z 0.000000 0.000000 1.805250 
# 
# From -- ./inp_files/26267.got.cif
#   From: 2010.05.17/outbox.cif.g08.bks.cpg/sg53_14_cif.got.tgz:26267.got - 2010.06.03 12:45:16.
