data_PCOD9418943
_publ_section_title
;
Structure prediction by ZEFSAII (Michael W. Deem and Ramdas Pophale) SiO2 
 PCOD9418943
Probable space group: P M N A
;
_chemical_formula_sum "Si O2"
_cell_formula_units_Z 24
_cell_length_a 14.250243
_cell_length_b 7.304907
_cell_length_c 9.818831
_cell_angle_alpha 90.000000
_cell_angle_beta 90.000000
_cell_angle_gamma 90.000000
_cell_volume 1022.107903
_symmetry_space_group_name_H-M "P M N A"
_symmetry_group_IT_number 53
_symmetry_cell_setting 'orthorhombic'
loop_
_space_group_symop_operation_xyz
x,y,z
1/2-x,-y,1/2+z
x,-y,-z
1/2-x,y,1/2-z
-x,-y,-z
1/2+x,y,1/2-z
-x,y,z
1/2+x,-y,1/2+z
loop_
_atom_site_type_symbol
_atom_site_label
_atom_site_fract_x
_atom_site_fract_y
_atom_site_fract_z
Si Si1 0.780032 0.298220 0.609443
Si Si2 0.888676 0.318474 0.358021
Si Si3 0.106112 0.793201 0.945467
O O1 0.750000 0.202558 0.750000
O O2 0.848199 0.218887 0.492345
O O3 0.833049 0.487670 0.648263
O O4 0.682030 0.315085 0.531328
O O5 0.873092 0.218047 0.215184
O O6 0.000000 0.349350 0.373091
O O7 0.000000 0.725666 0.966097
O O8 0.110600 0.000000 0.000000
#
# Coordination Sequence:
#
# PCOD9418943 Si02
#       3
#     8   8   8
#     4  11  21  35  61  97 131 170 219 268 328 398
#     4  10  21  40  64  92 131 176 224 274 326 393
#     4  10  23  43  65  92 131 179 228 279 336 397
#
# _framework density 23.480885000000001
#
# number of rings (size 3 to 8) (size 9 to 14) (size 15 to 20)
#    0.000    1.667    0.000    7.000    0.000    5.333 
#    0.000    6.667    0.000   10.000    0.000    0.000 
#    0.000    0.000    0.000    0.000    0.000    0.000 
#
# Total GULP energy -134057.173082 kJ/mol
# GULP energy per Si atom -5585.715545 kJ/mol
# Density = 2.342744 g / cm^3
# Si number density = 23.480885 Si / 1000 Ang^3
#
#
#
# Elastic Constant Matrix: (Units=GPa)
#
#
# Indices 1 2 3 4 5 6 
#
# 1 192.0054 41.9694 104.2300 0.0000 0.0000 0.0000
# 2 41.9694 79.2061 42.2014 0.0000 0.0000 0.0000
# 3 104.2300 42.2014 243.6104 0.0000 0.0000 0.0000
# 4 0.0000 0.0000 0.0000 26.5031 0.0000 0.0000
# 5 0.0000 0.0000 0.0000 0.0000 111.3318 0.0000
# 6 0.0000 0.0000 0.0000 0.0000 0.0000 -6.8880
#
#
#
# Elastic Compliance Matrix: (Units=1/GPa)
#
#
# Indices 1 2 3 4 5 6 
#
# 1 0.007171 -0.002385 -0.002655 0.000000 0.000000 0.000000
# 2 -0.002385 0.014702 -0.001526 0.000000 0.000000 0.000000
# 3 -0.002655 -0.001526 0.005505 0.000000 0.000000 0.000000
# 4 0.000000 0.000000 0.000000 0.037731 0.000000 0.000000
# 5 0.000000 0.000000 0.000000 0.000000 0.008982 0.000000
# 6 0.000000 0.000000 0.000000 0.000000 0.000000 -0.145179
#
#
# Mechanical properties :
#
#
# Convention : Reuss Voigt Hill
#
# Bulk Modulus (GPa) = 70.19737 99.06928 84.63333
# Shear Modulus (GPa) = -93.97399 47.95080 -23.01159
#
# Velocity S-wave (km/s) = -6.33312 4.52389 -3.13391
# Velocity P-wave (km/s) = 4.84947 8.34089 4.79860
#
# Compressibility (1/GPa) = 0.01424555
#
# Stress axis : x y z
#
# Youngs Moduli (GPa) = 139.45621 68.01619 181.64493
#
# Poissons Ratio (x) = 0.16222 0.48224
# Poissons Ratio (y) = 0.33261 0.27728
# Poissons Ratio (z) = 0.37024 0.10383
#
# Static dielectric constant tensor:
#      x y z
#    x 1.858630 0.000000 0.000000 
#    y 0.000000 1.947990 0.000000 
#    z 0.000000 0.000000 1.930270 
# 
# From -- ./inp_files/7781.got.cif
#   From: 2010.05.17/outbox.cif.g08.bks.cpg/sg53_4_cif.got.tgz:7781.got - 2010.06.03 12:45:16.
