data_PCOD9418212
_publ_section_title
;
Structure prediction by ZEFSAII (Michael W. Deem and Ramdas Pophale) SiO2 
 PCOD9418212
Probable space group: P M N A
;
_chemical_formula_sum "Si O2"
_cell_formula_units_Z 28
_cell_length_a 14.359439
_cell_length_b 6.726102
_cell_length_c 13.961529
_cell_angle_alpha 90.000000
_cell_angle_beta 90.000000
_cell_angle_gamma 90.000000
_cell_volume 1348.447073
_symmetry_space_group_name_H-M "P M N A"
_symmetry_group_IT_number 53
_symmetry_cell_setting 'orthorhombic'
loop_
_space_group_symop_operation_xyz
x,y,z
1/2-x,-y,1/2+z
x,-y,-z
1/2-x,y,1/2-z
-x,-y,-z
1/2+x,y,1/2-z
-x,y,z
1/2+x,-y,1/2+z
loop_
_atom_site_type_symbol
_atom_site_label
_atom_site_fract_x
_atom_site_fract_y
_atom_site_fract_z
Si Si1 0.788824 0.099328 0.411901
Si Si2 0.250000 0.781479 0.250000
Si Si3 0.398999 0.700785 0.561362
Si Si4 0.106754 0.428317 0.282365
O O1 0.752628 0.931330 0.339135
O O2 0.844591 0.000000 0.500000
O O3 0.697153 0.193182 0.459741
O O4 0.842551 0.271592 0.352987
O O5 0.163895 0.632258 0.268927
O O6 0.398508 0.500000 0.500000
O O7 0.500000 0.796542 0.542125
O O8 0.394983 0.661294 0.675221
O O9 0.000000 0.462147 0.312615
#
# Coordination Sequence:
#
# PCOD9418212 Si02
#       4
#     8   4   8   8
#     4  12  25  41  70  99 137 179 231 277 341 410
#     4  12  22  44  68  98 130 180 222 280 342 392
#     4  10  20  40  69  99 131 169 219 284 347 397
#     4  11  24  44  66  97 138 176 226 281 337 407
#
# _framework density 20.764627999999998
#
# number of rings (size 3 to 8) (size 9 to 14) (size 15 to 20)
#    0.000    0.857    5.714    1.714    0.000    3.429 
#    0.000    1.429    0.000    0.000    0.000    0.000 
#    0.000    0.000    0.000    0.000    0.000    0.000 
#
# Total GULP energy -156218.916266 kJ/mol
# GULP energy per Si atom -5579.247009 kJ/mol
# Density = 2.071737 g / cm^3
# Si number density = 20.764628 Si / 1000 Ang^3
#
#
#
# Elastic Constant Matrix: (Units=GPa)
#
#
# Indices 1 2 3 4 5 6 
#
# 1 147.0889 63.3204 20.3443 0.0000 0.0000 0.0000
# 2 63.3204 114.2490 42.1120 0.0000 0.0000 0.0000
# 3 20.3443 42.1120 111.2455 0.0000 0.0000 0.0000
# 4 0.0000 0.0000 0.0000 40.3275 0.0000 0.0000
# 5 0.0000 0.0000 0.0000 0.0000 9.7405 0.0000
# 6 0.0000 0.0000 0.0000 0.0000 0.0000 -30.3728
#
#
#
# Elastic Compliance Matrix: (Units=1/GPa)
#
#
# Indices 1 2 3 4 5 6 
#
# 1 0.008936 -0.005056 0.000280 0.000000 0.000000 0.000000
# 2 -0.005056 0.013033 -0.004009 0.000000 0.000000 0.000000
# 3 0.000280 -0.004009 0.010456 0.000000 0.000000 0.000000
# 4 0.000000 0.000000 0.000000 0.024797 0.000000 0.000000
# 5 0.000000 0.000000 0.000000 0.000000 0.102664 0.000000
# 6 0.000000 0.000000 0.000000 0.000000 0.000000 -0.032924
#
#
# Mechanical properties :
#
#
# Convention : Reuss Voigt Hill
#
# Bulk Modulus (GPa) = 67.32061 69.34852 68.33457
# Shear Modulus (GPa) = 33.44845 20.39281 26.92063
#
# Velocity S-wave (km/s) = 4.01788 3.13724 3.60455
# Velocity P-wave (km/s) = 7.34953 6.82590 7.09255
#
# Compressibility (1/GPa) = 0.01485429
#
# Stress axis : x y z
#
# Youngs Moduli (GPa) = 111.90106 76.73036 95.64293
#
# Poissons Ratio (x) = 0.38794 -0.02675
# Poissons Ratio (y) = 0.56577 0.38342
# Poissons Ratio (z) = -0.03129 0.30760
#
# Static dielectric constant tensor:
#      x y z
#    x 1.759820 0.000000 0.000000 
#    y 0.000000 1.836220 0.000000 
#    z 0.000000 0.000000 1.751570 
# 
# From -- ./inp_files/27789.got.cif
#   From: 2010.05.17/outbox.cif.g08.bks.cpg/sg53_14_cif.got.tgz:27789.got - 2010.06.03 12:45:16.
