data_PCOD9418399
_publ_section_title
;
Structure prediction by ZEFSAII (Michael W. Deem and Ramdas Pophale) SiO2 
 PCOD9418399
Probable space group: P M N A
;
_chemical_formula_sum "Si O2"
_cell_formula_units_Z 30
_cell_length_a 10.048530
_cell_length_b 18.999815
_cell_length_c 7.594001
_cell_angle_alpha 90.000000
_cell_angle_beta 90.000000
_cell_angle_gamma 90.000000
_cell_volume 1449.848273
_symmetry_space_group_name_H-M "P M N A"
_symmetry_group_IT_number 53
_symmetry_cell_setting 'orthorhombic'
loop_
_space_group_symop_operation_xyz
x,y,z
1/2-x,-y,1/2+z
x,-y,-z
1/2-x,y,1/2-z
-x,-y,-z
1/2+x,y,1/2-z
-x,y,z
1/2+x,-y,1/2+z
loop_
_atom_site_type_symbol
_atom_site_label
_atom_site_fract_x
_atom_site_fract_y
_atom_site_fract_z
Si Si1 0.750000 0.052757 0.750000
Si Si2 0.651467 0.277746 0.597656
Si Si3 0.152243 0.862686 0.907328
Si Si4 0.844768 0.424135 0.085937
Si Si5 0.500000 0.000000 0.000000
O O1 0.688498 0.098869 0.589296
O O2 0.621459 0.016888 0.849335
O O3 0.750000 0.256767 0.750000
O O4 0.500000 0.273397 0.661934
O O5 0.664382 0.221171 0.442622
O O6 0.677896 0.357599 0.539977
O O7 0.250000 0.881804 0.750000
O O8 0.000000 0.877709 0.858402
O O9 0.750000 0.415738 0.250000
O O10 0.000000 0.422042 0.138247
O O11 0.819544 0.500000 0.000000
#
# Coordination Sequence:
#
# PCOD9418399 Si02
#       5
#     4   8   8   8   2
#     4  12  28  52  76 112 144 190 234 298 348 440
#     4  10  21  38  61  94 131 172 227 284 344 408
#     4  11  25  44  73 105 142 184 235 294 354 417
#     4  10  21  36  55  84 124 169 221 276 338 406
#     4  12  32  52  84 108 158 190 244 290 372 434
#
# _framework density 20.69182
#
# number of rings (size 3 to 8) (size 9 to 14) (size 15 to 20)
#    0.000    1.333    2.667    1.600    3.733    3.200 
#    0.000    0.000    0.000    0.000    0.000    0.000 
#    0.000    0.000    0.000    0.000    0.000    0.000 
#
# Total GULP energy -167001.728075 kJ/mol
# GULP energy per Si atom -5566.724269 kJ/mol
# Density = 2.064472 g / cm^3
# Si number density = 20.691820 Si / 1000 Ang^3
#
#
#
# Elastic Constant Matrix: (Units=GPa)
#
#
# Indices 1 2 3 4 5 6 
#
# 1 135.4145 53.6476 97.6882 0.0000 0.0000 0.0000
# 2 53.6476 101.5301 36.3346 0.0000 0.0000 0.0000
# 3 97.6882 36.3346 130.6123 0.0000 0.0000 0.0000
# 4 0.0000 0.0000 0.0000 4.3308 0.0000 0.0000
# 5 0.0000 0.0000 0.0000 0.0000 56.1939 0.0000
# 6 0.0000 0.0000 0.0000 0.0000 0.0000 26.5837
#
#
#
# Elastic Compliance Matrix: (Units=1/GPa)
#
#
# Indices 1 2 3 4 5 6 
#
# 1 0.018286 -0.005295 -0.012204 0.000000 0.000000 0.000000
# 2 -0.005295 0.012471 0.000491 0.000000 0.000000 0.000000
# 3 -0.012204 0.000491 0.016647 0.000000 0.000000 0.000000
# 4 0.000000 0.000000 0.000000 0.230904 0.000000 0.000000
# 5 0.000000 0.000000 0.000000 0.000000 0.017796 0.000000
# 6 0.000000 0.000000 0.000000 0.000000 0.000000 0.037617
#
#
# Mechanical properties :
#
#
# Convention : Reuss Voigt Hill
#
# Bulk Modulus (GPa) = 74.68733 82.54419 78.61576
# Shear Modulus (GPa) = 13.43364 29.41413 21.42388
#
# Velocity S-wave (km/s) = 2.55075 3.77441 3.22122
# Velocity P-wave (km/s) = 6.69691 7.67943 7.20494
#
# Compressibility (1/GPa) = 0.01338915
#
# Stress axis : x y z
#
# Youngs Moduli (GPa) = 54.68578 80.18321 60.07003
#
# Poissons Ratio (x) = 0.42457 0.73308
# Poissons Ratio (y) = 0.28956 -0.02948
# Poissons Ratio (z) = 0.66737 -0.03936
#
# Static dielectric constant tensor:
#      x y z
#    x 1.711810 0.000000 0.000000 
#    y 0.000000 1.893660 0.000000 
#    z 0.000000 0.000000 1.698780 
# 
# From -- ./inp_files/6045.got.cif
#   From: 2010.05.17/outbox.cif.g08.bks.cpg/sg53_4_cif.got.tgz:6045.got - 2010.06.03 12:45:16.
