data_PCOD9418236
_publ_section_title
;
Structure prediction by ZEFSAII (Michael W. Deem and Ramdas Pophale) SiO2 
 PCOD9418236
Probable space group: P M N A
;
_chemical_formula_sum "Si O2"
_cell_formula_units_Z 64
_cell_length_a 14.148434
_cell_length_b 14.431949
_cell_length_c 19.330720
_cell_angle_alpha 90.000000
_cell_angle_beta 90.000000
_cell_angle_gamma 90.000000
_cell_volume 3947.129625
_symmetry_space_group_name_H-M "P M N A"
_symmetry_group_IT_number 53
_symmetry_cell_setting 'orthorhombic'
loop_
_space_group_symop_operation_xyz
x,y,z
1/2-x,-y,1/2+z
x,-y,-z
1/2-x,y,1/2-z
-x,-y,-z
1/2+x,y,1/2-z
-x,y,z
1/2+x,-y,1/2+z
loop_
_atom_site_type_symbol
_atom_site_label
_atom_site_fract_x
_atom_site_fract_y
_atom_site_fract_z
Si Si1 0.607355 0.752207 0.623539
Si Si2 0.389955 0.443122 0.429140
Si Si3 0.114251 0.781029 0.481301
Si Si4 0.386594 0.575151 0.057311
Si Si5 0.797826 0.853617 0.623905
Si Si6 0.277937 0.482251 0.174701
Si Si7 0.389645 0.702765 0.783517
Si Si8 0.609316 0.032652 0.919396
O O1 0.500000 0.786430 0.615707
O O2 0.623644 0.668593 0.569029
O O3 0.687372 0.829769 0.620441
O O4 0.614429 0.706582 0.700314
O O5 0.376069 0.500000 0.500000
O O6 0.500000 0.456556 0.408189
O O7 0.315238 0.475352 0.372267
O O8 0.145245 0.678034 0.462324
O O9 0.156286 0.809690 0.554840
O O10 0.138683 0.860071 0.424989
O O11 0.000000 0.782874 0.487325
O O12 0.500000 0.574773 0.057040
O O13 0.349321 0.544768 0.131454
O O14 0.354944 0.500000 0.000000
O O15 0.845070 0.796889 0.686515
O O16 0.826005 0.961292 0.622369
O O17 0.250000 0.517801 0.250000
O O18 0.328917 0.382649 0.186867
O O19 0.500000 0.694388 0.804028
O O20 0.500000 0.024916 0.896225
O O21 0.610836 0.000000 0.000000
#
# Coordination Sequence:
#
# PCOD9418236 Si02
#       8
#     8   8   8   8   8   8   8   8
#     4  10  21  34  46  68 104 138 173 217 262 310
#     4  10  21  36  50  65  95 141 187 218 247 302
#     4   9  18  32  49  74 105 133 161 205 256 308
#     4  10  21  33  49  76 107 133 163 205 260 312
#     4  11  17  28  50  75  97 129 164 203 253 310
#     4  12  21  32  49  72  99 137 170 209 256 311
#     4  11  20  31  47  73 107 134 161 205 269 329
#     4   8  15  28  47  72  99 125 158 195 244 311
#
# _framework density 16.214314999999999
#
# number of rings (size 3 to 8) (size 9 to 14) (size 15 to 20)
#    0.000    1.875    2.500    3.750    1.750    1.500 
#    0.000    0.000    0.000    4.875    0.000    0.000 
#    0.000    0.000    0.000    0.000    0.000    0.000 
#
# Total GULP energy -356896.309363 kJ/mol
# GULP energy per Si atom -5576.504834 kJ/mol
# Density = 1.617741 g / cm^3
# Si number density = 16.214315 Si / 1000 Ang^3
#
#
#
# Elastic Constant Matrix: (Units=GPa)
#
#
# Indices 1 2 3 4 5 6 
#
# 1 76.0443 35.9164 22.5213 0.0000 0.0000 0.0000
# 2 35.9164 110.1646 34.3884 0.0000 0.0000 0.0000
# 3 22.5213 34.3884 57.6087 0.0000 0.0000 0.0000
# 4 0.0000 0.0000 0.0000 22.6125 0.0000 0.0000
# 5 0.0000 0.0000 0.0000 0.0000 25.1476 0.0000
# 6 0.0000 0.0000 0.0000 0.0000 0.0000 21.4730
#
#
#
# Elastic Compliance Matrix: (Units=1/GPa)
#
#
# Indices 1 2 3 4 5 6 
#
# 1 0.016232 -0.004070 -0.003917 0.000000 0.000000 0.000000
# 2 -0.004070 0.012176 -0.005678 0.000000 0.000000 0.000000
# 3 -0.003917 -0.005678 0.022279 0.000000 0.000000 0.000000
# 4 0.000000 0.000000 0.000000 0.044223 0.000000 0.000000
# 5 0.000000 0.000000 0.000000 0.000000 0.039765 0.000000
# 6 0.000000 0.000000 0.000000 0.000000 0.000000 0.046570
#
#
# Mechanical properties :
#
#
# Convention : Reuss Voigt Hill
#
# Bulk Modulus (GPa) = 42.80801 47.71885 45.26343
# Shear Modulus (GPa) = 23.10965 23.91272 23.51118
#
# Velocity S-wave (km/s) = 3.77936 3.84447 3.81205
# Velocity P-wave (km/s) = 6.74562 7.01431 6.88128
#
# Compressibility (1/GPa) = 0.02336011
#
# Stress axis : x y z
#
# Youngs Moduli (GPa) = 61.60579 82.12637 44.88594
#
# Poissons Ratio (x) = 0.33422 0.17580
# Poissons Ratio (y) = 0.25071 0.25484
# Poissons Ratio (z) = 0.24128 0.46627
#
# Static dielectric constant tensor:
#      x y z
#    x 1.565050 0.000000 0.000000 
#    y 0.000000 1.566480 0.000000 
#    z 0.000000 0.000000 1.542950 
# 
# From -- ./inp_files/28616.got.cif
#   From: 2010.05.17/outbox.cif.g08.bks.cpg/sg53_15_cif.got.tgz:28616.got - 2010.06.03 12:45:16.
