data_PCOD9418598
_publ_section_title
;
Structure prediction by ZEFSAII (Michael W. Deem and Ramdas Pophale) SiO2 
 PCOD9418598
Probable space group: P M N A
;
_chemical_formula_sum "Si O2"
_cell_formula_units_Z 24
_cell_length_a 10.484947
_cell_length_b 6.810623
_cell_length_c 13.192025
_cell_angle_alpha 90.000000
_cell_angle_beta 90.000000
_cell_angle_gamma 90.000000
_cell_volume 942.029593
_symmetry_space_group_name_H-M "P M N A"
_symmetry_group_IT_number 53
_symmetry_cell_setting 'orthorhombic'
loop_
_space_group_symop_operation_xyz
x,y,z
1/2-x,-y,1/2+z
x,-y,-z
1/2-x,y,1/2-z
-x,-y,-z
1/2+x,y,1/2-z
-x,y,z
1/2+x,-y,1/2+z
loop_
_atom_site_type_symbol
_atom_site_label
_atom_site_fract_x
_atom_site_fract_y
_atom_site_fract_z
Si Si1 0.862916 0.469582 0.138105
Si Si2 0.856933 0.066029 0.882342
Si Si3 0.142072 0.236386 0.353460
O O1 0.742247 0.370048 0.085631
O O2 0.869721 0.362703 0.248691
O O3 0.000000 0.419134 0.091884
O O4 0.849270 0.702594 0.140183
O O5 0.724284 0.963535 0.847691
O O6 0.000000 0.008807 0.839011
O O7 0.863964 0.000000 0.000000
O O8 0.000000 0.208364 0.393680
#
# Coordination Sequence:
#
# PCOD9418598 Si02
#       3
#     8   8   8
#     4   9  20  39  61  86 118 158 205 251 300 365
#     4  10  22  41  64  89 121 163 208 254 305 365
#     4  10  21  37  60  90 123 158 200 254 310 366
#
# _framework density 25.476908000000002
#
# number of rings (size 3 to 8) (size 9 to 14) (size 15 to 20)
#    0.000    2.333    0.000    1.000    0.000   10.000 
#    0.000   23.333    0.000    0.000    0.000    0.000 
#    0.000    0.000    0.000    0.000    0.000    0.000 
#
# Total GULP energy -133677.618795 kJ/mol
# GULP energy per Si atom -5569.900783 kJ/mol
# Density = 2.541892 g / cm^3
# Si number density = 25.476908 Si / 1000 Ang^3
#
#
#
# Elastic Constant Matrix: (Units=GPa)
#
#
# Indices 1 2 3 4 5 6 
#
# 1 351.7863 103.8163 11.9450 0.0000 0.0000 0.0000
# 2 103.8163 225.0894 -8.7241 0.0000 0.0000 0.0000
# 3 11.9450 -8.7241 45.7508 0.0000 0.0000 0.0000
# 4 0.0000 0.0000 0.0000 24.3917 0.0000 0.0000
# 5 0.0000 0.0000 0.0000 0.0000 -11.8193 0.0000
# 6 0.0000 0.0000 0.0000 0.0000 0.0000 48.5364
#
#
#
# Elastic Compliance Matrix: (Units=1/GPa)
#
#
# Indices 1 2 3 4 5 6 
#
# 1 0.003352 -0.001592 -0.001179 0.000000 0.000000 0.000000
# 2 -0.001592 0.005232 0.001413 0.000000 0.000000 0.000000
# 3 -0.001179 0.001413 0.022435 0.000000 0.000000 0.000000
# 4 0.000000 0.000000 0.000000 0.040998 0.000000 0.000000
# 5 0.000000 0.000000 0.000000 0.000000 -0.084607 0.000000
# 6 0.000000 0.000000 0.000000 0.000000 0.000000 0.020603
#
#
# Mechanical properties :
#
#
# Convention : Reuss Voigt Hill
#
# Bulk Modulus (GPa) = 35.33078 92.96674 64.14876
# Shear Modulus (GPa) = 247.98958 46.59437 147.29198
#
# Velocity S-wave (km/s) = 9.87675 4.28119 7.61179
# Velocity P-wave (km/s) = 11.99854 7.81076 10.12356
#
# Compressibility (1/GPa) = 0.02830393
#
# Stress axis : x y z
#
# Youngs Moduli (GPa) = 298.28873 191.14308 44.57355
#
# Poissons Ratio (x) = 0.30428 0.05255
# Poissons Ratio (y) = 0.47485 -0.06299
# Poissons Ratio (z) = 0.35164 -0.27013
#
# Static dielectric constant tensor:
#      x y z
#    x 2.115920 0.000000 0.000000 
#    y 0.000000 2.033570 0.000000 
#    z 0.000000 0.000000 2.171810 
# 
# From -- ./inp_files/27129.got.cif
#   From: 2010.05.17/outbox.cif.g08.bks.cpg/sg53_14_cif.got.tgz:27129.got - 2010.06.03 12:45:16.
