data_PCOD9418162
_publ_section_title
;
Structure prediction by ZEFSAII (Michael W. Deem and Ramdas Pophale) SiO2 
 PCOD9418162
Probable space group: P M N A
;
_chemical_formula_sum "Si O2"
_cell_formula_units_Z 56
_cell_length_a 31.680362
_cell_length_b 13.657701
_cell_length_c 5.990735
_cell_angle_alpha 90.000000
_cell_angle_beta 90.000000
_cell_angle_gamma 90.000000
_cell_volume 2592.076682
_symmetry_space_group_name_H-M "P M N A"
_symmetry_group_IT_number 53
_symmetry_cell_setting 'orthorhombic'
loop_
_space_group_symop_operation_xyz
x,y,z
1/2-x,-y,1/2+z
x,-y,-z
1/2-x,y,1/2-z
-x,-y,-z
1/2+x,y,1/2-z
-x,y,z
1/2+x,-y,1/2+z
loop_
_atom_site_type_symbol
_atom_site_label
_atom_site_fract_x
_atom_site_fract_y
_atom_site_fract_z
Si Si1 0.294492 0.400686 0.372821
Si Si2 0.953151 0.293771 0.208893
Si Si3 0.372545 0.613859 0.952289
Si Si4 0.770990 0.807316 0.003582
Si Si5 0.075050 0.108462 0.445561
Si Si6 0.095992 0.256014 0.819993
Si Si7 0.643180 0.101210 0.391716
O O1 0.307393 0.500000 0.500000
O O2 0.250000 0.422969 0.250000
O O3 0.330992 0.370933 0.197024
O O4 0.286151 0.305640 0.524644
O O5 0.915391 0.347943 0.336661
O O6 0.949466 0.177195 0.268995
O O7 0.000000 0.326866 0.265470
O O8 0.941329 0.309317 0.950816
O O9 0.375311 0.500000 0.000000
O O10 0.373505 0.674284 0.181059
O O11 0.750000 0.830683 0.250000
O O12 0.750000 0.805500 0.750000
O O13 0.808341 0.883857 0.952495
O O14 0.075883 0.174318 0.663206
O O15 0.123684 0.100778 0.356070
O O16 0.059400 0.000000 0.500000
O O17 0.122783 0.196519 0.998176
O O18 0.627777 0.000000 0.500000
#
# Coordination Sequence:
#
# PCOD9418162 Si02
#       7
#     8   8   8   8   8   8   8
#     4  11  24  43  70 107 140 180 233 293 369 435
#     4  10  24  44  66 100 140 185 236 293 363 436
#     4  11  26  43  72 102 139 183 239 293 365 435
#     4  11  27  43  65  98 146 189 240 300 365 437
#     4  10  20  39  67 101 131 176 236 290 361 426
#     4  10  22  41  67  95 137 176 230 291 349 433
#     4  11  23  39  68  95 131 186 234 291 355 431
#
# _framework density 21.604301
#
# number of rings (size 3 to 8) (size 9 to 14) (size 15 to 20)
#    0.000    1.429    1.429    3.429   10.000    3.429 
#    0.000    1.429    0.000    0.000    0.000    0.000 
#    0.000    0.000    0.000    0.000    0.000    0.000 
#
# Total GULP energy -312183.076884 kJ/mol
# GULP energy per Si atom -5574.697802 kJ/mol
# Density = 2.155513 g / cm^3
# Si number density = 21.604301 Si / 1000 Ang^3
#
#
#
# Elastic Constant Matrix: (Units=GPa)
#
#
# Indices 1 2 3 4 5 6 
#
# 1 120.4180 12.9100 41.3852 0.0000 0.0000 0.0000
# 2 12.9100 54.5651 4.9819 0.0000 0.0000 0.0000
# 3 41.3852 4.9819 88.6719 0.0000 0.0000 0.0000
# 4 0.0000 0.0000 0.0000 24.2778 0.0000 0.0000
# 5 0.0000 0.0000 0.0000 0.0000 12.1294 0.0000
# 6 0.0000 0.0000 0.0000 0.0000 0.0000 8.3822
#
#
#
# Elastic Compliance Matrix: (Units=1/GPa)
#
#
# Indices 1 2 3 4 5 6 
#
# 1 0.010097 -0.001969 -0.004602 0.000000 0.000000 0.000000
# 2 -0.001969 0.018805 -0.000138 0.000000 0.000000 0.000000
# 3 -0.004602 -0.000138 0.013433 0.000000 0.000000 0.000000
# 4 0.000000 0.000000 0.000000 0.041190 0.000000 0.000000
# 5 0.000000 0.000000 0.000000 0.000000 0.082444 0.000000
# 6 0.000000 0.000000 0.000000 0.000000 0.000000 0.119301
#
#
# Mechanical properties :
#
#
# Convention : Reuss Voigt Hill
#
# Bulk Modulus (GPa) = 34.57989 42.46768 38.52378
# Shear Modulus (GPa) = 16.21658 22.58309 19.39983
#
# Velocity S-wave (km/s) = 2.74271 3.23663 2.99985
# Velocity P-wave (km/s) = 5.10595 5.80236 5.46526
#
# Compressibility (1/GPa) = 0.02891854
#
# Stress axis : x y z
#
# Youngs Moduli (GPa) = 99.03870 53.17706 74.44308
#
# Poissons Ratio (x) = 0.10469 0.34258
# Poissons Ratio (y) = 0.19498 0.01025
# Poissons Ratio (z) = 0.45577 0.00732
#
# Static dielectric constant tensor:
#      x y z
#    x 1.847680 0.000000 0.000000 
#    y 0.000000 1.767800 0.000000 
#    z 0.000000 0.000000 1.903040 
# 
# From -- ./inp_files/5345.got.cif
#   From: 2010.05.17/outbox.cif.g08.bks.cpg/sg53_3_cif.got.tgz:5345.got - 2010.06.03 12:45:16.
