data_PCOD9418875
_publ_section_title
;
Structure prediction by ZEFSAII (Michael W. Deem and Ramdas Pophale) SiO2 
 PCOD9418875
Probable space group: P M N A
;
_chemical_formula_sum "Si O2"
_cell_formula_units_Z 56
_cell_length_a 18.819622
_cell_length_b 15.964030
_cell_length_c 9.820443
_cell_angle_alpha 90.000000
_cell_angle_beta 90.000000
_cell_angle_gamma 90.000000
_cell_volume 2950.424534
_symmetry_space_group_name_H-M "P M N A"
_symmetry_group_IT_number 53
_symmetry_cell_setting 'orthorhombic'
loop_
_space_group_symop_operation_xyz
x,y,z
1/2-x,-y,1/2+z
x,-y,-z
1/2-x,y,1/2-z
-x,-y,-z
1/2+x,y,1/2-z
-x,y,z
1/2+x,-y,1/2+z
loop_
_atom_site_type_symbol
_atom_site_label
_atom_site_fract_x
_atom_site_fract_y
_atom_site_fract_z
Si Si1 0.125935 0.202989 0.528472
Si Si2 0.764009 0.068007 0.604208
Si Si3 0.417496 0.308795 0.717470
Si Si4 0.500000 0.078753 0.396563
Si Si5 0.796407 0.431071 0.882585
Si Si6 0.747411 0.300614 0.101728
Si Si7 0.363818 0.823887 0.503722
Si Si8 0.500000 0.086445 0.080650
O O1 0.180581 0.144081 0.612968
O O2 0.094428 0.271758 0.631461
O O3 0.175348 0.248802 0.418558
O O4 0.067245 0.143884 0.460865
O O5 0.750000 0.028366 0.750000
O O6 0.690072 0.105721 0.551002
O O7 0.792314 0.000000 0.500000
O O8 0.500000 0.329547 0.698268
O O9 0.366439 0.385911 0.677825
O O10 0.394964 0.233270 0.617056
O O11 0.429696 0.133052 0.423938
O O12 0.500000 0.000000 0.500000
O O13 0.500000 0.058902 0.237524
O O14 0.750000 0.456832 0.750000
O O15 0.811897 0.500000 0.000000
O O16 0.754612 0.360905 0.971368
O O17 0.750000 0.342255 0.250000
O O18 0.813915 0.237035 0.092411
O O19 0.500000 0.000000 0.000000
#
# Coordination Sequence:
#
# PCOD9418875 Si02
#       8
#     8   8   8   4   8   8   8   4
#     4  11  22  39  64  86 125 168 228 271 320 396
#     4  11  23  36  56  83 121 162 215 279 335 381
#     4  11  21  40  70  95 122 179 218 258 319 396
#     4  12  26  40  56  84 124 165 216 278 339 386
#     4  11  23  41  69 107 137 164 208 261 324 394
#     4  10  21  39  65  93 123 166 213 262 321 386
#     4  10  22  37  61  83 117 163 220 266 319 383
#     4  12  28  40  58  92 127 174 228 285 335 375
#
# _framework density 18.980319999999999
#
# number of rings (size 3 to 8) (size 9 to 14) (size 15 to 20)
#    0.000    1.143    4.286    2.143    2.000    6.000 
#    0.000    0.000    0.000    0.429    0.000    0.000 
#    0.000    0.000    0.000    0.000    0.000    0.000 
#
# Total GULP energy -312670.235331 kJ/mol
# GULP energy per Si atom -5583.397059 kJ/mol
# Density = 1.893712 g / cm^3
# Si number density = 18.980320 Si / 1000 Ang^3
#
#
#
# Elastic Constant Matrix: (Units=GPa)
#
#
# Indices 1 2 3 4 5 6 
#
# 1 124.6390 41.6711 37.8357 0.0000 0.0000 0.0000
# 2 41.6711 88.0120 43.1385 0.0000 0.0000 0.0000
# 3 37.8357 43.1385 135.2595 0.0000 0.0000 0.0000
# 4 0.0000 0.0000 0.0000 33.6339 0.0000 0.0000
# 5 0.0000 0.0000 0.0000 0.0000 12.6017 0.0000
# 6 0.0000 0.0000 0.0000 0.0000 0.0000 0.1515
#
#
#
# Elastic Compliance Matrix: (Units=1/GPa)
#
#
# Indices 1 2 3 4 5 6 
#
# 1 0.009780 -0.003899 -0.001492 0.000000 0.000000 0.000000
# 2 -0.003899 0.015022 -0.003700 0.000000 0.000000 0.000000
# 3 -0.001492 -0.003700 0.008991 0.000000 0.000000 0.000000
# 4 0.000000 0.000000 0.000000 0.029732 0.000000 0.000000
# 5 0.000000 0.000000 0.000000 0.000000 0.079355 0.000000
# 6 0.000000 0.000000 0.000000 0.000000 0.000000 6.600769
#
#
# Mechanical properties :
#
#
# Convention : Reuss Voigt Hill
#
# Bulk Modulus (GPa) = 64.06402 65.91123 64.98762
# Shear Modulus (GPa) = 0.73888 24.29508 12.51698
#
# Velocity S-wave (km/s) = 0.62460 3.58161 2.57080
# Velocity P-wave (km/s) = 5.86057 7.20454 6.56703
#
# Compressibility (1/GPa) = 0.01560939
#
# Stress axis : x y z
#
# Youngs Moduli (GPa) = 102.25251 66.56972 111.22584
#
# Poissons Ratio (x) = 0.25956 0.16596
# Poissons Ratio (y) = 0.39869 0.41157
# Poissons Ratio (z) = 0.15257 0.24633
#
# Static dielectric constant tensor:
#      x y z
#    x 1.634760 0.000000 0.000000 
#    y 0.000000 1.658220 0.000000 
#    z 0.000000 0.000000 1.691700 
# 
# From -- ./inp_files/11120.got.cif
#   From: 2010.05.17/outbox.cif.g08.bks.cpg/sg53_6_cif.got.tgz:11120.got - 2010.06.03 12:45:16.
