data_PCOD9418199
_publ_section_title
;
Structure prediction by ZEFSAII (Michael W. Deem and Ramdas Pophale) SiO2 
 PCOD9418199
Probable space group: P M N A
;
_chemical_formula_sum "Si O2"
_cell_formula_units_Z 48
_cell_length_a 8.855939
_cell_length_b 15.363274
_cell_length_c 19.309265
_cell_angle_alpha 90.000000
_cell_angle_beta 90.000000
_cell_angle_gamma 90.000000
_cell_volume 2627.145556
_symmetry_space_group_name_H-M "P M N A"
_symmetry_group_IT_number 53
_symmetry_cell_setting 'orthorhombic'
loop_
_space_group_symop_operation_xyz
x,y,z
1/2-x,-y,1/2+z
x,-y,-z
1/2-x,y,1/2-z
-x,-y,-z
1/2+x,y,1/2-z
-x,y,z
1/2+x,-y,1/2+z
loop_
_atom_site_type_symbol
_atom_site_label
_atom_site_fract_x
_atom_site_fract_y
_atom_site_fract_z
Si Si1 0.818597 0.965018 0.076884
Si Si2 0.819384 0.872898 0.826116
Si Si3 0.681116 0.523176 0.920010
Si Si4 0.681206 0.724701 0.921665
Si Si5 0.679961 0.373765 0.673697
Si Si6 0.819329 0.223837 0.579764
O O1 0.735936 0.874461 0.090375
O O2 0.000000 0.951452 0.079126
O O3 0.777849 0.039620 0.131778
O O4 0.780980 0.000000 0.000000
O O5 0.750000 0.873209 0.750000
O O6 0.760566 0.791001 0.869991
O O7 0.000000 0.869375 0.821914
O O8 0.500000 0.512172 0.910922
O O9 0.719612 0.624083 0.907921
O O10 0.765806 0.457818 0.869443
O O11 0.714571 0.500000 0.000000
O O12 0.500000 0.733786 0.914942
O O13 0.720253 0.748281 0.001034
O O14 0.750000 0.376143 0.750000
O O15 0.500000 0.371211 0.677695
O O16 0.741286 0.289857 0.632515
O O17 0.000000 0.230312 0.587016
#
# Coordination Sequence:
#
# PCOD9418199 Si02
#       6
#     8   8   8   8   8   8
#     4  10  21  39  62  91 124 162 207 258 307 362
#     4  11  24  41  62  88 126 163 203 256 311 367
#     4  10  20  40  66  93 126 162 204 254 306 367
#     4  10  21  38  64  93 124 162 205 251 304 365
#     4  12  26  43  64  92 128 166 208 258 313 371
#     4  11  22  39  65  95 125 163 207 255 310 371
#
# _framework density 18.270780999999999
#
# number of rings (size 3 to 8) (size 9 to 14) (size 15 to 20)
#    0.000    1.333    3.333    2.500    0.000    4.667 
#    0.000    1.667    0.000    0.000    0.000    0.000 
#    0.000    0.000    0.000    0.000    0.000    0.000 
#
# Total GULP energy -268387.966821 kJ/mol
# GULP energy per Si atom -5591.415975 kJ/mol
# Density = 1.822920 g / cm^3
# Si number density = 18.270781 Si / 1000 Ang^3
#
#
#
# Elastic Constant Matrix: (Units=GPa)
#
#
# Indices 1 2 3 4 5 6 
#
# 1 81.2884 88.4467 87.7734 0.0000 0.0000 0.0000
# 2 88.4467 193.8631 112.2002 0.0000 0.0000 0.0000
# 3 87.7734 112.2002 182.9067 0.0000 0.0000 0.0000
# 4 0.0000 0.0000 0.0000 27.7055 0.0000 0.0000
# 5 0.0000 0.0000 0.0000 0.0000 25.5417 0.0000
# 6 0.0000 0.0000 0.0000 0.0000 0.0000 36.6441
#
#
#
# Elastic Compliance Matrix: (Units=1/GPa)
#
#
# Indices 1 2 3 4 5 6 
#
# 1 0.033794 -0.009353 -0.010480 0.000000 0.000000 0.000000
# 2 -0.009353 0.010586 -0.002006 0.000000 0.000000 0.000000
# 3 -0.010480 -0.002006 0.011727 0.000000 0.000000 0.000000
# 4 0.000000 0.000000 0.000000 0.036094 0.000000 0.000000
# 5 0.000000 0.000000 0.000000 0.000000 0.039152 0.000000
# 6 0.000000 0.000000 0.000000 0.000000 0.000000 0.027290
#
#
# Mechanical properties :
#
#
# Convention : Reuss Voigt Hill
#
# Bulk Modulus (GPa) = 80.44782 114.98878 97.71830
# Shear Modulus (GPa) = 24.21755 29.28746 26.75251
#
# Velocity S-wave (km/s) = 3.64466 4.00805 3.83067
# Velocity P-wave (km/s) = 7.86371 9.19194 8.55365
#
# Compressibility (1/GPa) = 0.01243042
#
# Stress axis : x y z
#
# Youngs Moduli (GPa) = 29.59096 94.46416 85.27521
#
# Poissons Ratio (x) = 0.88348 0.89368
# Poissons Ratio (y) = 0.27675 0.17103
# Poissons Ratio (z) = 0.31011 0.18946
#
# Static dielectric constant tensor:
#      x y z
#    x 1.610360 0.000000 0.000000 
#    y 0.000000 1.600910 0.000000 
#    z 0.000000 0.000000 1.594860 
# 
# From -- ./inp_files/26154.got.cif
#   From: 2010.05.17/outbox.cif.g08.bks.cpg/sg53_14_cif.got.tgz:26154.got - 2010.06.03 12:45:16.
