data_PCOD9418152
_publ_section_title
;
Structure prediction by ZEFSAII (Michael W. Deem and Ramdas Pophale) SiO2 
 PCOD9418152
Probable space group: P M N A
;
_chemical_formula_sum "Si O2"
_cell_formula_units_Z 56
_cell_length_a 16.866088
_cell_length_b 12.051977
_cell_length_c 13.071579
_cell_angle_alpha 90.000000
_cell_angle_beta 90.000000
_cell_angle_gamma 90.000000
_cell_volume 2657.056003
_symmetry_space_group_name_H-M "P M N A"
_symmetry_group_IT_number 53
_symmetry_cell_setting 'orthorhombic'
loop_
_space_group_symop_operation_xyz
x,y,z
1/2-x,-y,1/2+z
x,-y,-z
1/2-x,y,1/2-z
-x,-y,-z
1/2+x,y,1/2-z
-x,y,z
1/2+x,-y,1/2+z
loop_
_atom_site_type_symbol
_atom_site_label
_atom_site_fract_x
_atom_site_fract_y
_atom_site_fract_z
Si Si1 0.832599 0.710964 0.609098
Si Si2 0.094001 0.311448 0.853183
Si Si3 0.345434 0.509929 0.758257
Si Si4 0.091186 0.852079 0.790619
Si Si5 0.593924 0.880574 0.043960
Si Si6 0.853661 0.329211 0.073961
Si Si7 0.343140 0.908053 0.269714
O O1 0.862393 0.588355 0.643852
O O2 0.854568 0.790110 0.705641
O O3 0.869642 0.775311 0.513958
O O4 0.739292 0.697601 0.588970
O O5 0.117176 0.389829 0.757465
O O6 0.136934 0.193584 0.843039
O O7 0.000000 0.298425 0.856946
O O8 0.125749 0.362600 0.959387
O O9 0.250000 0.499404 0.750000
O O10 0.374206 0.580213 0.659879
O O11 0.098817 0.780413 0.893064
O O12 0.000000 0.853401 0.754200
O O13 0.122202 0.975400 0.806492
O O14 0.500000 0.877639 0.028648
O O15 0.614904 0.880411 0.162460
O O16 0.623283 0.000000 0.000000
O O17 0.250000 0.918017 0.250000
#
# Coordination Sequence:
#
# PCOD9418152 Si02
#       7
#     8   8   8   8   8   8   8
#     4  10  20  39  65  94 122 160 213 264 310 372
#     4  12  25  41  62  91 128 167 210 259 318 380
#     4   9  21  41  65  89 123 163 211 262 309 368
#     4  11  21  37  61  92 128 162 206 266 323 374
#     4  11  22  38  63  93 124 160 205 258 313 370
#     4  10  22  40  62  92 125 167 214 256 310 381
#     4  12  25  42  62  88 125 170 209 257 318 388
#
# _framework density 21.075958
#
# number of rings (size 3 to 8) (size 9 to 14) (size 15 to 20)
#    0.000    1.286    1.429    6.000    0.000    4.571 
#    0.000    3.571    0.000    1.714    0.000    0.000 
#    0.000    0.000    0.000    0.000    0.000    0.000 
#
# Total GULP energy -313012.545452 kJ/mol
# GULP energy per Si atom -5589.509740 kJ/mol
# Density = 2.102799 g / cm^3
# Si number density = 21.075958 Si / 1000 Ang^3
#
#
#
# Elastic Constant Matrix: (Units=GPa)
#
#
# Indices 1 2 3 4 5 6 
#
# 1 77.8623 26.7615 -3.9082 0.0000 0.0000 0.0000
# 2 26.7615 98.7352 9.0015 0.0000 0.0000 0.0000
# 3 -3.9082 9.0015 29.1497 0.0000 0.0000 0.0000
# 4 0.0000 0.0000 0.0000 36.3979 0.0000 0.0000
# 5 0.0000 0.0000 0.0000 0.0000 30.7662 0.0000
# 6 0.0000 0.0000 0.0000 0.0000 0.0000 141.1890
#
#
#
# Elastic Compliance Matrix: (Units=1/GPa)
#
#
# Indices 1 2 3 4 5 6 
#
# 1 0.014454 -0.004213 0.003239 0.000000 0.000000 0.000000
# 2 -0.004213 0.011649 -0.004162 0.000000 0.000000 0.000000
# 3 0.003239 -0.004162 0.036025 0.000000 0.000000 0.000000
# 4 0.000000 0.000000 0.000000 0.027474 0.000000 0.000000
# 5 0.000000 0.000000 0.000000 0.000000 0.032503 0.000000
# 6 0.000000 0.000000 0.000000 0.000000 0.000000 0.007083
#
#
# Mechanical properties :
#
#
# Convention : Reuss Voigt Hill
#
# Bulk Modulus (GPa) = 19.28421 29.93963 24.61192
# Shear Modulus (GPa) = 31.89870 53.26345 42.58108
#
# Velocity S-wave (km/s) = 3.89461 5.03259 4.49972
# Velocity P-wave (km/s) = 5.42159 6.92862 6.22091
#
# Compressibility (1/GPa) = 0.05185590
#
# Stress axis : x y z
#
# Youngs Moduli (GPa) = 69.18635 85.84115 27.75830
#
# Poissons Ratio (x) = 0.36164 -0.08990
# Poissons Ratio (y) = 0.29147 0.11554
# Poissons Ratio (z) = -0.22408 0.35729
#
# Static dielectric constant tensor:
#      x y z
#    x 1.731410 0.000000 0.000000 
#    y 0.000000 1.813960 0.000000 
#    z 0.000000 0.000000 1.774560 
# 
# From -- ./inp_files/22819.got.cif
#   From: 2010.05.17/outbox.cif.g08.bks.cpg/sg53_12_cif.got.tgz:22819.got - 2010.06.03 12:45:16.
