data_PCOD9418359
_publ_section_title
;
Structure prediction by ZEFSAII (Michael W. Deem and Ramdas Pophale) SiO2 
 PCOD9418359
Probable space group: P M N A
;
_chemical_formula_sum "Si O2"
_cell_formula_units_Z 40
_cell_length_a 15.686848
_cell_length_b 13.630082
_cell_length_c 9.143720
_cell_angle_alpha 90.000000
_cell_angle_beta 90.000000
_cell_angle_gamma 90.000000
_cell_volume 1955.046429
_symmetry_space_group_name_H-M "P M N A"
_symmetry_group_IT_number 53
_symmetry_cell_setting 'orthorhombic'
loop_
_space_group_symop_operation_xyz
x,y,z
1/2-x,-y,1/2+z
x,-y,-z
1/2-x,y,1/2-z
-x,-y,-z
1/2+x,y,1/2-z
-x,y,z
1/2+x,-y,1/2+z
loop_
_atom_site_type_symbol
_atom_site_label
_atom_site_fract_x
_atom_site_fract_y
_atom_site_fract_z
Si Si1 0.843567 0.316038 0.302690
Si Si2 0.398487 0.897212 0.816989
Si Si3 0.398347 0.107670 0.830103
Si Si4 0.895375 0.680290 0.360832
Si Si5 0.402094 0.494747 0.658834
O O1 0.750000 0.342818 0.250000
O O2 0.860621 0.203364 0.256506
O O3 0.858181 0.322781 0.476178
O O4 0.901931 0.398049 0.229015
O O5 0.500000 0.893489 0.790292
O O6 0.364426 0.004229 0.768053
O O7 0.387568 0.894436 0.993498
O O8 0.500000 0.104538 0.803308
O O9 0.369411 0.216222 0.785430
O O10 0.866417 0.586790 0.268319
O O11 0.000000 0.680605 0.376270
O O12 0.359762 0.500000 0.500000
O O13 0.500000 0.461786 0.636604
#
# Coordination Sequence:
#
# PCOD9418359 Si02
#       5
#     8   8   8   8   8
#     4  11  21  31  48  75 107 140 173 209 253 311
#     4   8  13  25  47  74 102 129 166 215 257 294
#     4   7  11  22  47  79  99 119 159 210 255 296
#     4   9  17  33  58  82 102 130 173 221 267 313
#     4  10  21  36  54  75 100 132 173 222 269 312
#
# _framework density 20.459873000000002
#
# number of rings (size 3 to 8) (size 9 to 14) (size 15 to 20)
#    0.000    3.000    0.000    4.800    0.000    3.200 
#    0.000    0.000    0.000   12.000    0.000    7.000 
#    0.000    0.000    0.000    0.000    0.000    0.000 
#
# Total GULP energy -222691.115680 kJ/mol
# GULP energy per Si atom -5567.277892 kJ/mol
# Density = 2.041331 g / cm^3
# Si number density = 20.459873 Si / 1000 Ang^3
#
#
#
# Elastic Constant Matrix: (Units=GPa)
#
#
# Indices 1 2 3 4 5 6 
#
# 1 36.4549 5.8669 7.8283 0.0000 0.0000 0.0000
# 2 5.8669 164.1128 57.0918 0.0000 0.0000 0.0000
# 3 7.8283 57.0918 59.3699 0.0000 0.0000 0.0000
# 4 0.0000 0.0000 0.0000 4.7062 0.0000 0.0000
# 5 0.0000 0.0000 0.0000 0.0000 59.5371 0.0000
# 6 0.0000 0.0000 0.0000 0.0000 0.0000 -56.0728
#
#
#
# Elastic Compliance Matrix: (Units=1/GPa)
#
#
# Indices 1 2 3 4 5 6 
#
# 1 0.028251 0.000430 -0.004138 0.000000 0.000000 0.000000
# 2 0.000430 0.009163 -0.008868 0.000000 0.000000 0.000000
# 3 -0.004138 -0.008868 0.025917 0.000000 0.000000 0.000000
# 4 0.000000 0.000000 0.000000 0.212488 0.000000 0.000000
# 5 0.000000 0.000000 0.000000 0.000000 0.016796 0.000000
# 6 0.000000 0.000000 0.000000 0.000000 0.000000 -0.017834
#
#
# Mechanical properties :
#
#
# Convention : Reuss Voigt Hill
#
# Bulk Modulus (GPa) = 26.19351 44.61242 35.40296
# Shear Modulus (GPa) = 15.99182 14.24412 15.11797
#
# Velocity S-wave (km/s) = 2.79878 2.64142 2.72124
# Velocity P-wave (km/s) = 4.82435 5.58166 5.21677
#
# Compressibility (1/GPa) = 0.03817740
#
# Stress axis : x y z
#
# Youngs Moduli (GPa) = 35.39746 109.13379 38.58464
#
# Poissons Ratio (x) = -0.04689 0.15967
# Poissons Ratio (y) = -0.01521 0.34217
# Poissons Ratio (z) = 0.14648 0.96781
#
# Static dielectric constant tensor:
#      x y z
#    x 1.740920 0.000000 0.000000 
#    y 0.000000 1.808190 0.000000 
#    z 0.000000 0.000000 1.725230 
# 
# From -- ./inp_files/8384.got.cif
#   From: 2010.05.17/outbox.cif.g08.bks.cpg/sg53_5_cif.got.tgz:8384.got - 2010.06.03 12:45:16.
