data_PCOD9418164
_publ_section_title
;
Structure prediction by ZEFSAII (Michael W. Deem and Ramdas Pophale) SiO2 
 PCOD9418164
Probable space group: P M N A
;
_chemical_formula_sum "Si O2"
_cell_formula_units_Z 64
_cell_length_a 18.228832
_cell_length_b 6.386910
_cell_length_c 25.862420
_cell_angle_alpha 90.000000
_cell_angle_beta 90.000000
_cell_angle_gamma 90.000000
_cell_volume 3011.055768
_symmetry_space_group_name_H-M "P M N A"
_symmetry_group_IT_number 53
_symmetry_cell_setting 'orthorhombic'
loop_
_space_group_symop_operation_xyz
x,y,z
1/2-x,-y,1/2+z
x,-y,-z
1/2-x,y,1/2-z
-x,-y,-z
1/2+x,y,1/2-z
-x,y,z
1/2+x,-y,1/2+z
loop_
_atom_site_type_symbol
_atom_site_label
_atom_site_fract_x
_atom_site_fract_y
_atom_site_fract_z
Si Si1 0.833703 0.437842 0.736904
Si Si2 0.332626 0.610895 0.875491
Si Si3 0.853170 0.747900 0.985496
Si Si4 0.579801 0.077921 0.793776
Si Si5 0.808596 0.887973 0.877103
Si Si6 0.082752 0.025967 0.414517
Si Si7 0.776585 0.222025 0.560853
Si Si8 0.581929 0.242239 0.293827
O O1 0.750000 0.482157 0.750000
O O2 0.855064 0.520240 0.679808
O O3 0.852031 0.196691 0.730373
O O4 0.881933 0.535097 0.782493
O O5 0.266480 0.770133 0.863216
O O6 0.396047 0.732292 0.906076
O O7 0.300648 0.434665 0.912532
O O8 0.847381 0.762483 0.923986
O O9 0.880327 0.500000 0.000000
O O10 0.771262 0.752034 0.009501
O O11 0.881175 0.000000 0.000000
O O12 0.500000 0.182628 0.783072
O O13 0.585950 0.056875 0.855089
O O14 0.577964 0.862920 0.762636
O O15 0.864921 0.889819 0.830434
O O16 0.780102 0.106175 0.900195
O O17 0.000000 0.994912 0.433889
O O18 0.149049 0.912882 0.444093
O O19 0.500000 0.253923 0.315142
#
# Coordination Sequence:
#
# PCOD9418164 Si02
#       8
#     8   8   8   8   8   8   8   8
#     4  12  23  33  56  86 121 163 213 259 301 370
#     4  11  20  34  55  87 117 156 205 261 309 372
#     4  10  20  39  68  96 123 159 210 277 340 393
#     4  10  22  37  52  77 121 172 208 243 302 370
#     4  10  22  38  61  90 117 155 211 261 316 380
#     4  10  21  35  55  85 124 167 212 253 308 385
#     4  10  21  37  61  89 120 155 206 271 326 377
#     4  11  24  41  58  84 130 171 206 253 313 375
#
# _framework density 21.255004
#
# number of rings (size 3 to 8) (size 9 to 14) (size 15 to 20)
#    0.000    1.500    5.000    0.375    1.750    1.500 
#    0.000    0.000    0.000   13.500    0.000    0.000 
#    0.000    0.000    0.000    0.000    0.000    0.000 
#
# Total GULP energy -356485.876556 kJ/mol
# GULP energy per Si atom -5570.091821 kJ/mol
# Density = 2.120663 g / cm^3
# Si number density = 21.255004 Si / 1000 Ang^3
#
#
#
# Elastic Constant Matrix: (Units=GPa)
#
#
# Indices 1 2 3 4 5 6 
#
# 1 51.5236 7.9806 5.2057 0.0000 0.0000 0.0000
# 2 7.9806 72.9575 2.7612 0.0000 0.0000 0.0000
# 3 5.2057 2.7612 55.3337 0.0000 0.0000 0.0000
# 4 0.0000 0.0000 0.0000 23.6830 0.0000 0.0000
# 5 0.0000 0.0000 0.0000 0.0000 9.1190 0.0000
# 6 0.0000 0.0000 0.0000 0.0000 0.0000 14.0228
#
#
#
# Elastic Compliance Matrix: (Units=1/GPa)
#
#
# Indices 1 2 3 4 5 6 
#
# 1 0.019914 -0.002111 -0.001768 0.000000 0.000000 0.000000
# 2 -0.002111 0.013956 -0.000498 0.000000 0.000000 0.000000
# 3 -0.001768 -0.000498 0.018263 0.000000 0.000000 0.000000
# 4 0.000000 0.000000 0.000000 0.042224 0.000000 0.000000
# 5 0.000000 0.000000 0.000000 0.000000 0.109661 0.000000
# 6 0.000000 0.000000 0.000000 0.000000 0.000000 0.071312
#
#
# Mechanical properties :
#
#
# Convention : Reuss Voigt Hill
#
# Bulk Modulus (GPa) = 23.05249 23.52332 23.28791
# Shear Modulus (GPa) = 16.74783 20.28946 18.51864
#
# Velocity S-wave (km/s) = 2.81009 3.09297 2.95491
# Velocity P-wave (km/s) = 4.62580 4.88329 4.75628
#
# Compressibility (1/GPa) = 0.04337926
#
# Stress axis : x y z
#
# Youngs Moduli (GPa) = 50.21522 71.65165 54.75449
#
# Poissons Ratio (x) = 0.15129 0.09681
# Poissons Ratio (y) = 0.10603 0.02726
# Poissons Ratio (z) = 0.08879 0.03567
#
# Static dielectric constant tensor:
#      x y z
#    x 1.781080 0.000000 0.000000 
#    y 0.000000 1.882540 0.000000 
#    z 0.000000 0.000000 1.758670 
# 
# From -- ./inp_files/37238.got.cif
#   From: 2010.05.17/outbox.cif.g08.bks.cpg/sg53_19_cif.got.tgz:37238.got - 2010.06.03 12:45:16.
