data_PCOD9418896
_publ_section_title
;
Structure prediction by ZEFSAII (Michael W. Deem and Ramdas Pophale) SiO2 
 PCOD9418896
Probable space group: P M N A
;
_chemical_formula_sum "Si O2"
_cell_formula_units_Z 28
_cell_length_a 14.073051
_cell_length_b 6.712934
_cell_length_c 12.413021
_cell_angle_alpha 90.000000
_cell_angle_beta 90.000000
_cell_angle_gamma 90.000000
_cell_volume 1172.676248
_symmetry_space_group_name_H-M "P M N A"
_symmetry_group_IT_number 53
_symmetry_cell_setting 'orthorhombic'
loop_
_space_group_symop_operation_xyz
x,y,z
1/2-x,-y,1/2+z
x,-y,-z
1/2-x,y,1/2-z
-x,-y,-z
1/2+x,y,1/2-z
-x,y,z
1/2+x,-y,1/2+z
loop_
_atom_site_type_symbol
_atom_site_label
_atom_site_fract_x
_atom_site_fract_y
_atom_site_fract_z
Si Si1 0.500000 0.250221 0.888390
Si Si2 0.293766 0.129306 0.895754
Si Si3 0.812584 0.500000 0.000000
Si Si4 0.000000 0.718779 0.644109
Si Si5 0.336300 0.774178 0.689090
O O1 0.397593 0.175161 0.845534
O O2 0.500000 0.482293 0.863227
O O3 0.500000 0.779548 0.981113
O O4 0.209886 0.987324 0.846404
O O5 0.250766 0.340081 0.934270
O O6 0.317769 0.000000 0.000000
O O7 0.865987 0.640891 0.913303
O O8 0.912554 0.785486 0.717388
O O9 0.250000 0.664727 0.750000
#
# Coordination Sequence:
#
# PCOD9418896 Si02
#       5
#     4   8   4   4   8
#     4  11  21  42  74 106 138 186 240 301 357 418
#     4  10  21  39  67  98 137 182 233 294 357 414
#     4  10  22  44  64  92 144 194 234 292 364 428
#     4  11  24  43  73 106 143 186 243 298 354 423
#     4  11  24  42  67 102 140 187 239 294 357 427
#
# _framework density 23.877008
#
# number of rings (size 3 to 8) (size 9 to 14) (size 15 to 20)
#    0.000    1.429    0.000    7.286    0.000    5.143 
#    0.000    9.286    0.000    0.000    0.000    0.000 
#    0.000    0.000    0.000    0.000    0.000    0.000 
#
# Total GULP energy -156113.411414 kJ/mol
# GULP energy per Si atom -5575.478979 kJ/mol
# Density = 2.382266 g / cm^3
# Si number density = 23.877008 Si / 1000 Ang^3
#
#
#
# Elastic Constant Matrix: (Units=GPa)
#
#
# Indices 1 2 3 4 5 6 
#
# 1 113.4957 53.0962 33.8285 0.0000 0.0000 0.0000
# 2 53.0962 212.3848 73.8249 0.0000 0.0000 0.0000
# 3 33.8285 73.8249 88.9449 0.0000 0.0000 0.0000
# 4 0.0000 0.0000 0.0000 45.3583 0.0000 0.0000
# 5 0.0000 0.0000 0.0000 0.0000 32.2220 0.0000
# 6 0.0000 0.0000 0.0000 0.0000 0.0000 169.6010
#
#
#
# Elastic Compliance Matrix: (Units=1/GPa)
#
#
# Indices 1 2 3 4 5 6 
#
# 1 0.010364 -0.001716 -0.002518 0.000000 0.000000 0.000000
# 2 -0.001716 0.006902 -0.005076 0.000000 0.000000 0.000000
# 3 -0.002518 -0.005076 0.016413 0.000000 0.000000 0.000000
# 4 0.000000 0.000000 0.000000 0.022047 0.000000 0.000000
# 5 0.000000 0.000000 0.000000 0.000000 0.031035 0.000000
# 6 0.000000 0.000000 0.000000 0.000000 0.000000 0.005896
#
#
# Mechanical properties :
#
#
# Convention : Reuss Voigt Hill
#
# Bulk Modulus (GPa) = 66.39869 81.81384 74.10627
# Shear Modulus (GPa) = 42.99379 66.37463 54.68421
#
# Velocity S-wave (km/s) = 4.24799 5.27815 4.79084
# Velocity P-wave (km/s) = 7.20622 8.45484 7.85538
#
# Compressibility (1/GPa) = 0.01506054
#
# Stress axis : x y z
#
# Youngs Moduli (GPa) = 96.48750 144.88961 60.92555
#
# Poissons Ratio (x) = 0.24862 0.15338
# Poissons Ratio (y) = 0.16556 0.30925
# Poissons Ratio (z) = 0.24291 0.73545
#
# Static dielectric constant tensor:
#      x y z
#    x 1.830980 0.000000 0.000000 
#    y 0.000000 1.965020 0.000000 
#    z 0.000000 0.000000 2.037770 
# 
# From -- ./inp_files/27808.got.cif
#   From: 2010.05.17/outbox.cif.g08.bks.cpg/sg53_14_cif.got.tgz:27808.got - 2010.06.03 12:45:16.
