data_PCOD9418028
_publ_section_title
;
Structure prediction by ZEFSAII (Michael W. Deem and Ramdas Pophale) SiO2 
 PCOD9418028
Probable space group: P M N A
;
_chemical_formula_sum "Si O2"
_cell_formula_units_Z 64
_cell_length_a 15.870027
_cell_length_b 21.385201
_cell_length_c 9.792600
_cell_angle_alpha 90.000000
_cell_angle_beta 90.000000
_cell_angle_gamma 90.000000
_cell_volume 3323.448990
_symmetry_space_group_name_H-M "P M N A"
_symmetry_group_IT_number 53
_symmetry_cell_setting 'orthorhombic'
loop_
_space_group_symop_operation_xyz
x,y,z
1/2-x,-y,1/2+z
x,-y,-z
1/2-x,y,1/2-z
-x,-y,-z
1/2+x,y,1/2-z
-x,y,z
1/2+x,-y,1/2+z
loop_
_atom_site_type_symbol
_atom_site_label
_atom_site_fract_x
_atom_site_fract_y
_atom_site_fract_z
Si Si1 0.897966 0.853533 0.115154
Si Si2 0.750378 0.563381 0.913744
Si Si3 0.400889 0.345556 0.485263
Si Si4 0.649665 0.278288 0.748321
Si Si5 0.596058 0.751651 0.729258
Si Si6 0.099537 0.987716 0.151641
Si Si7 0.095890 0.656315 0.521564
Si Si8 0.342371 0.118694 0.301948
O O1 0.869924 0.791686 0.195116
O O2 0.872664 0.918092 0.193725
O O3 0.000000 0.849752 0.100753
O O4 0.860313 0.862374 0.961343
O O5 0.750000 0.553268 0.750000
O O6 0.837509 0.599259 0.948301
O O7 0.670064 0.605684 0.959227
O O8 0.747212 0.500000 0.000000
O O9 0.500000 0.356692 0.451187
O O10 0.391632 0.326337 0.641501
O O11 0.368154 0.284474 0.401806
O O12 0.750000 0.286770 0.750000
O O13 0.614113 0.298192 0.894420
O O14 0.500000 0.766730 0.693235
O O15 0.598985 0.700398 0.846302
O O16 0.634322 0.817008 0.773030
O O17 0.000000 0.980763 0.136527
O O18 0.111738 0.053107 0.227969
O O19 0.136795 0.000000 0.000000
O O20 0.000000 0.630467 0.510817
O O21 0.250000 0.104855 0.250000
#
# Coordination Sequence:
#
# PCOD9418028 Si02
#       8
#     8   8   8   8   8   8   8   8
#     4  10  20  38  61  87 121 169 222 268 322 396
#     4  12  28  47  72 101 138 172 212 261 315 387
#     4  11  23  44  71  96 129 174 219 267 314 381
#     4  12  24  38  66  99 133 168 215 275 330 381
#     4  10  21  38  64  91 121 165 214 264 320 373
#     4   8  16  33  54  77 114 161 212 265 316 381
#     4  11  25  45  67  96 135 175 213 267 331 384
#     4  11  21  29  56  90 122 158 212 272 326 376
#
# _framework density 19.257104000000002
#
# number of rings (size 3 to 8) (size 9 to 14) (size 15 to 20)
#    0.000    1.375    3.750    3.000    5.250    1.000 
#    0.000    0.000    0.000    0.000    0.000    3.500 
#    0.000    0.000    0.000    0.000    0.000    0.000 
#
# Total GULP energy -356615.157217 kJ/mol
# GULP energy per Si atom -5572.111832 kJ/mol
# Density = 1.921327 g / cm^3
# Si number density = 19.257104 Si / 1000 Ang^3
#
#
#
# Elastic Constant Matrix: (Units=GPa)
#
#
# Indices 1 2 3 4 5 6 
#
# 1 89.8396 47.3936 19.0919 0.0000 0.0000 0.0000
# 2 47.3936 131.9402 24.5545 0.0000 0.0000 0.0000
# 3 19.0919 24.5545 57.3197 0.0000 0.0000 0.0000
# 4 0.0000 0.0000 0.0000 -1.0316 0.0000 0.0000
# 5 0.0000 0.0000 0.0000 0.0000 21.6236 0.0000
# 6 0.0000 0.0000 0.0000 0.0000 0.0000 11.1795
#
#
#
# Elastic Compliance Matrix: (Units=1/GPa)
#
#
# Indices 1 2 3 4 5 6 
#
# 1 0.014121 -0.004561 -0.002750 0.000000 0.000000 0.000000
# 2 -0.004561 0.009709 -0.002640 0.000000 0.000000 0.000000
# 3 -0.002750 -0.002640 0.019493 0.000000 0.000000 0.000000
# 4 0.000000 0.000000 0.000000 -0.969329 0.000000 0.000000
# 5 0.000000 0.000000 0.000000 0.000000 0.046246 0.000000
# 6 0.000000 0.000000 0.000000 0.000000 0.000000 0.089449
#
#
# Mechanical properties :
#
#
# Convention : Reuss Voigt Hill
#
# Bulk Modulus (GPa) = 42.69500 51.24217 46.96858
# Shear Modulus (GPa) = -6.55649 18.89161 6.16756
#
# Velocity S-wave (km/s) = -1.84719 3.13552 1.79156
# Velocity P-wave (km/s) = 4.20353 6.30682 5.35937
#
# Compressibility (1/GPa) = 0.02342194
#
# Stress axis : x y z
#
# Youngs Moduli (GPa) = 70.81533 103.00030 51.30106
#
# Poissons Ratio (x) = 0.46975 0.14107
# Poissons Ratio (y) = 0.32297 0.13543
# Poissons Ratio (z) = 0.19473 0.27191
#
# Static dielectric constant tensor:
#      x y z
#    x 1.687230 0.000000 0.000000 
#    y 0.000000 1.734410 0.000000 
#    z 0.000000 0.000000 1.690640 
# 
# From -- ./inp_files/8968.got.cif
#   From: 2010.05.17/outbox.cif.g08.bks.cpg/sg53_5_cif.got.tgz:8968.got - 2010.06.03 12:45:16.
