data_PCOD9418310
_publ_section_title
;
Structure prediction by ZEFSAII (Michael W. Deem and Ramdas Pophale) SiO2 
 PCOD9418310
Probable space group: P M N A
;
_chemical_formula_sum "Si O2"
_cell_formula_units_Z 48
_cell_length_a 18.590811
_cell_length_b 7.322558
_cell_length_c 13.196207
_cell_angle_alpha 90.000000
_cell_angle_beta 90.000000
_cell_angle_gamma 90.000000
_cell_volume 1796.429902
_symmetry_space_group_name_H-M "P M N A"
_symmetry_group_IT_number 53
_symmetry_cell_setting 'orthorhombic'
loop_
_space_group_symop_operation_xyz
x,y,z
1/2-x,-y,1/2+z
x,-y,-z
1/2-x,y,1/2-z
-x,-y,-z
1/2+x,y,1/2-z
-x,y,z
1/2+x,-y,1/2+z
loop_
_atom_site_type_symbol
_atom_site_label
_atom_site_fract_x
_atom_site_fract_y
_atom_site_fract_z
Si Si1 0.876490 0.696752 0.411459
Si Si2 0.615896 0.275187 0.129767
Si Si3 0.277906 0.305485 0.646938
Si Si4 0.730325 0.101310 0.393902
Si Si5 0.078901 0.767589 0.189884
Si Si6 0.576858 0.181400 0.355703
O O1 0.904990 0.785630 0.514786
O O2 0.898371 0.490525 0.385764
O O3 0.789701 0.673002 0.425825
O O4 0.896061 0.799213 0.307590
O O5 0.699313 0.209676 0.141281
O O6 0.579912 0.219419 0.234686
O O7 0.250000 0.396498 0.750000
O O8 0.360802 0.355714 0.635536
O O9 0.284934 0.086733 0.666156
O O10 0.657382 0.220237 0.397317
O O11 0.743649 0.000000 0.500000
O O12 0.000000 0.683647 0.193131
O O13 0.073232 0.961044 0.134212
O O14 0.500000 0.253507 0.396374
#
# Coordination Sequence:
#
# PCOD9418310 Si02
#       6
#     8   8   8   8   8   8
#     4  10  21  35  55  85 115 147 189 233 287 342
#     4  11  22  36  57  85 116 147 186 240 288 341
#     4   9  17  33  55  80 109 141 185 234 281 337
#     4  11  20  35  62  85 110 148 192 241 285 337
#     4   9  19  35  55  79 110 148 186 226 280 342
#     4  10  23  39  56  85 118 150 189 236 291 348
#
# _framework density 26.719660999999999
#
# number of rings (size 3 to 8) (size 9 to 14) (size 15 to 20)
#    0.000    2.000    1.667    3.500    0.000    5.667 
#    0.000    3.333    0.000    0.000    0.000    2.333 
#    0.000    0.000    0.000    0.000    0.000    0.000 
#
# Total GULP energy -267515.774231 kJ/mol
# GULP energy per Si atom -5573.245296 kJ/mol
# Density = 2.665885 g / cm^3
# Si number density = 26.719661 Si / 1000 Ang^3
#
#
#
# Elastic Constant Matrix: (Units=GPa)
#
#
# Indices 1 2 3 4 5 6 
#
# 1 152.0285 -17.0092 -19.1046 0.0000 0.0000 0.0000
# 2 -17.0092 72.0652 -7.9753 0.0000 0.0000 0.0000
# 3 -19.1046 -7.9753 29.3368 0.0000 0.0000 0.0000
# 4 0.0000 0.0000 0.0000 24.9334 0.0000 0.0000
# 5 0.0000 0.0000 0.0000 0.0000 7.4576 0.0000
# 6 0.0000 0.0000 0.0000 0.0000 0.0000 -15.6446
#
#
#
# Elastic Compliance Matrix: (Units=1/GPa)
#
#
# Indices 1 2 3 4 5 6 
#
# 1 0.007545 0.002397 0.005565 0.000000 0.000000 0.000000
# 2 0.002397 0.015068 0.005657 0.000000 0.000000 0.000000
# 3 0.005565 0.005657 0.039249 0.000000 0.000000 0.000000
# 4 0.000000 0.000000 0.000000 0.040107 0.000000 0.000000
# 5 0.000000 0.000000 0.000000 0.000000 0.134092 0.000000
# 6 0.000000 0.000000 0.000000 0.000000 0.000000 -0.063920
#
#
# Mechanical properties :
#
#
# Convention : Reuss Voigt Hill
#
# Bulk Modulus (GPa) = 11.22331 18.36135 14.79233
# Shear Modulus (GPa) = 28.63640 23.18392 25.91016
#
# Velocity S-wave (km/s) = 3.27729 2.94882 3.11739
# Velocity P-wave (km/s) = 4.30469 4.29894 4.30181
#
# Compressibility (1/GPa) = 0.08910024
#
# Stress axis : x y z
#
# Youngs Moduli (GPa) = 132.53444 66.36547 25.47839
#
# Poissons Ratio (x) = -0.15906 -0.14179
# Poissons Ratio (y) = -0.31765 -0.14413
# Poissons Ratio (z) = -0.73757 -0.37544
#
# Static dielectric constant tensor:
#      x y z
#    x 2.243190 0.000000 0.000000 
#    y 0.000000 2.114640 0.000000 
#    z 0.000000 0.000000 2.209650 
# 
# From -- ./inp_files/28894.got.cif
#   From: 2010.05.17/outbox.cif.g08.bks.cpg/sg53_15_cif.got.tgz:28894.got - 2010.06.03 12:45:16.
