data_PCOD9418351
_publ_section_title
;
Structure prediction by ZEFSAII (Michael W. Deem and Ramdas Pophale) SiO2 
 PCOD9418351
Probable space group: P M N A
;
_chemical_formula_sum "Si O2"
_cell_formula_units_Z 32
_cell_length_a 15.779984
_cell_length_b 11.016023
_cell_length_c 8.517639
_cell_angle_alpha 90.000000
_cell_angle_beta 90.000000
_cell_angle_gamma 90.000000
_cell_volume 1480.643901
_symmetry_space_group_name_H-M "P M N A"
_symmetry_group_IT_number 53
_symmetry_cell_setting 'orthorhombic'
loop_
_space_group_symop_operation_xyz
x,y,z
1/2-x,-y,1/2+z
x,-y,-z
1/2-x,y,1/2-z
-x,-y,-z
1/2+x,y,1/2-z
-x,y,z
1/2+x,-y,1/2+z
loop_
_atom_site_type_symbol
_atom_site_label
_atom_site_fract_x
_atom_site_fract_y
_atom_site_fract_z
Si Si1 0.401846 0.295478 0.827490
Si Si2 0.602304 0.928917 0.345237
Si Si3 0.403623 0.839179 0.839615
Si Si4 0.750000 0.680322 0.750000
Si Si5 0.198939 0.500000 0.500000
O O1 0.500000 0.323685 0.791607
O O2 0.364682 0.205972 0.693648
O O3 0.401419 0.209420 0.982800
O O4 0.356074 0.419026 0.878189
O O5 0.500000 0.915511 0.361363
O O6 0.633603 0.000000 0.500000
O O7 0.615899 0.021233 0.200023
O O8 0.500000 0.818474 0.782229
O O9 0.333639 0.760849 0.752458
O O10 0.748772 0.595367 0.598854
#
# Coordination Sequence:
#
# PCOD9418351 Si02
#       5
#     8   8   8   4   4
#     4   9  17  32  56  81 107 144 188 230 278 340
#     4   9  17  30  52  83 114 142 178 229 286 339
#     4   9  18  35  56  77 106 143 180 224 280 337
#     4  10  22  38  54  78 108 142 188 236 280 340
#     4  10  21  36  53  76 112 150 190 234 278 336
#
# _framework density 21.612220000000001
#
# number of rings (size 3 to 8) (size 9 to 14) (size 15 to 20)
#    0.000    2.750    0.000    1.125    0.000    6.000 
#    0.000    6.875    0.000    0.000    0.000    0.000 
#    0.000    0.000    0.000    0.000    0.000    0.000 
#
# Total GULP energy -178484.717584 kJ/mol
# GULP energy per Si atom -5577.647424 kJ/mol
# Density = 2.156303 g / cm^3
# Si number density = 21.612220 Si / 1000 Ang^3
#
#
#
# Elastic Constant Matrix: (Units=GPa)
#
#
# Indices 1 2 3 4 5 6 
#
# 1 56.1575 52.2696 20.3538 0.0000 0.0000 0.0000
# 2 52.2696 132.8030 27.6441 0.0000 0.0000 0.0000
# 3 20.3538 27.6441 31.1898 0.0000 0.0000 0.0000
# 4 0.0000 0.0000 0.0000 43.6960 0.0000 0.0000
# 5 0.0000 0.0000 0.0000 0.0000 8.6444 0.0000
# 6 0.0000 0.0000 0.0000 0.0000 0.0000 4.7649
#
#
#
# Elastic Compliance Matrix: (Units=1/GPa)
#
#
# Indices 1 2 3 4 5 6 
#
# 1 0.031195 -0.009859 -0.011619 0.000000 0.000000 0.000000
# 2 -0.009859 0.012350 -0.004512 0.000000 0.000000 0.000000
# 3 -0.011619 -0.004512 0.043643 0.000000 0.000000 0.000000
# 4 0.000000 0.000000 0.000000 0.022885 0.000000 0.000000
# 5 0.000000 0.000000 0.000000 0.000000 0.115682 0.000000
# 6 0.000000 0.000000 0.000000 0.000000 0.000000 0.209869
#
#
# Mechanical properties :
#
#
# Convention : Reuss Voigt Hill
#
# Bulk Modulus (GPa) = 28.40275 46.74282 37.57278
# Shear Modulus (GPa) = 10.01326 19.41324 14.71325
#
# Velocity S-wave (km/s) = 2.15481 3.00034 2.61201
# Velocity P-wave (km/s) = 4.40017 5.80324 5.14971
#
# Compressibility (1/GPa) = 0.03520786
#
# Stress axis : x y z
#
# Youngs Moduli (GPa) = 32.05649 80.97404 22.91338
#
# Poissons Ratio (x) = 0.79836 0.26622
# Poissons Ratio (y) = 0.31606 0.10338
# Poissons Ratio (z) = 0.37245 0.36533
#
# Static dielectric constant tensor:
#      x y z
#    x 1.764250 0.000000 0.000000 
#    y 0.000000 1.780430 0.000000 
#    z 0.000000 0.000000 1.891000 
# 
# From -- ./inp_files/8102.got.cif
#   From: 2010.05.17/outbox.cif.g08.bks.cpg/sg53_5_cif.got.tgz:8102.got - 2010.06.03 12:45:16.
