data_PCOD9418687
_publ_section_title
;
Structure prediction by ZEFSAII (Michael W. Deem and Ramdas Pophale) SiO2 
 PCOD9418687
Probable space group: P M N A
;
_chemical_formula_sum "Si O2"
_cell_formula_units_Z 64
_cell_length_a 8.411839
_cell_length_b 28.591366
_cell_length_c 12.740742
_cell_angle_alpha 90.000000
_cell_angle_beta 90.000000
_cell_angle_gamma 90.000000
_cell_volume 3064.224482
_symmetry_space_group_name_H-M "P M N A"
_symmetry_group_IT_number 53
_symmetry_cell_setting 'orthorhombic'
loop_
_space_group_symop_operation_xyz
x,y,z
1/2-x,-y,1/2+z
x,-y,-z
1/2-x,y,1/2-z
-x,-y,-z
1/2+x,y,1/2-z
-x,y,z
1/2+x,-y,1/2+z
loop_
_atom_site_type_symbol
_atom_site_label
_atom_site_fract_x
_atom_site_fract_y
_atom_site_fract_z
Si Si1 0.314563 0.990477 0.628574
Si Si2 0.812583 0.862801 0.138334
Si Si3 0.189229 0.108055 0.417605
Si Si4 0.315867 0.488217 0.139457
Si Si5 0.809903 0.657004 0.361079
Si Si6 0.807738 0.239008 0.586428
Si Si7 0.189425 0.788336 0.641989
Si Si8 0.816393 0.425569 0.986257
O O1 0.250000 0.005585 0.750000
O O2 0.500000 0.003811 0.628476
O O3 0.284209 0.934966 0.629302
O O4 0.259717 0.000000 0.500000
O O5 0.750000 0.879781 0.250000
O O6 0.773910 0.807278 0.131555
O O7 0.000000 0.870166 0.127690
O O8 0.722416 0.887213 0.042185
O O9 0.245233 0.157999 0.372168
O O10 0.000000 0.102149 0.400348
O O11 0.250000 0.502643 0.250000
O O12 0.500000 0.476265 0.139178
O O13 0.214268 0.443190 0.103421
O O14 0.287356 0.535070 0.072060
O O15 0.750000 0.637593 0.250000
O O16 0.758737 0.711155 0.368511
O O17 0.740091 0.625281 0.453137
O O18 0.000000 0.655717 0.365464
O O19 0.767212 0.238841 0.463038
O O20 0.000000 0.233342 0.598196
O O21 0.250000 0.768035 0.750000
O O22 0.000000 0.790536 0.644860
O O23 0.000000 0.431703 0.958154
#
# Coordination Sequence:
#
# PCOD9418687 Si02
#       8
#     8   8   8   8   8   8   8   8
#     4  11  25  44  66  94 128 167 212 260 314 375
#     4  11  21  34  55  83 117 154 196 244 299 358
#     4  10  21  38  60  86 118 154 197 248 301 355
#     4  11  21  37  59  83 110 141 177 221 274 326
#     4  11  22  37  56  78 107 144 183 227 276 329
#     4   9  20  37  54  76 110 148 189 234 283 337
#     4   9  18  33  54  81 109 141 180 227 278 330
#     4  11  22  37  56  82 111 141 181 225 270 326
#
# _framework density 20.886199000000001
#
# number of rings (size 3 to 8) (size 9 to 14) (size 15 to 20)
#    0.000    1.625    0.000    7.125    0.000    7.000 
#    0.000    1.875    0.000    1.500    0.000    0.000 
#    0.000    0.000    0.000    0.000    0.000    0.000 
#
# Total GULP energy -356806.218206 kJ/mol
# GULP energy per Si atom -5575.097159 kJ/mol
# Density = 2.083866 g / cm^3
# Si number density = 20.886199 Si / 1000 Ang^3
#
#
#
# Elastic Constant Matrix: (Units=GPa)
#
#
# Indices 1 2 3 4 5 6 
#
# 1 39.5815 11.4640 3.3444 0.0000 0.0000 0.0000
# 2 11.4640 68.3519 0.5098 0.0000 0.0000 0.0000
# 3 3.3444 0.5098 92.8800 0.0000 0.0000 0.0000
# 4 0.0000 0.0000 0.0000 7.3445 0.0000 0.0000
# 5 0.0000 0.0000 0.0000 0.0000 30.4797 0.0000
# 6 0.0000 0.0000 0.0000 0.0000 0.0000 6.6802
#
#
#
# Elastic Compliance Matrix: (Units=1/GPa)
#
#
# Indices 1 2 3 4 5 6 
#
# 1 0.026635 -0.004460 -0.000935 0.000000 0.000000 0.000000
# 2 -0.004460 0.015378 0.000076 0.000000 0.000000 0.000000
# 3 -0.000935 0.000076 0.010800 0.000000 0.000000 0.000000
# 4 0.000000 0.000000 0.000000 0.136156 0.000000 0.000000
# 5 0.000000 0.000000 0.000000 0.000000 0.032809 0.000000
# 6 0.000000 0.000000 0.000000 0.000000 0.000000 0.149696
#
#
# Mechanical properties :
#
#
# Convention : Reuss Voigt Hill
#
# Bulk Modulus (GPa) = 23.71056 25.71664 24.71360
# Shear Modulus (GPa) = 12.62087 21.26722 16.94405
#
# Velocity S-wave (km/s) = 2.46085 3.19445 2.85134
# Velocity P-wave (km/s) = 4.41036 5.09367 4.76429
#
# Compressibility (1/GPa) = 0.04217529
#
# Stress axis : x y z
#
# Youngs Moduli (GPa) = 37.54435 65.02929 92.59417
#
# Poissons Ratio (x) = 0.29005 0.08654
# Poissons Ratio (y) = 0.16746 -0.00706
# Poissons Ratio (z) = 0.03509 -0.00496
#
# Static dielectric constant tensor:
#      x y z
#    x 1.738220 0.000000 0.000000 
#    y 0.000000 1.728340 0.000000 
#    z 0.000000 0.000000 1.836710 
# 
# From -- ./inp_files/14247.got.cif
#   From: 2010.05.17/outbox.cif.g08.bks.cpg/sg53_8_cif.got.tgz:14247.got - 2010.06.03 12:45:16.
