data_PCOD9418844
_publ_section_title
;
Structure prediction by ZEFSAII (Michael W. Deem and Ramdas Pophale) SiO2 
 PCOD9418844
Probable space group: P M N A
;
_chemical_formula_sum "Si O2"
_cell_formula_units_Z 36
_cell_length_a 19.650302
_cell_length_b 7.976165
_cell_length_c 9.529091
_cell_angle_alpha 90.000000
_cell_angle_beta 90.000000
_cell_angle_gamma 90.000000
_cell_volume 1493.533035
_symmetry_space_group_name_H-M "P M N A"
_symmetry_group_IT_number 53
_symmetry_cell_setting 'orthorhombic'
loop_
_space_group_symop_operation_xyz
x,y,z
1/2-x,-y,1/2+z
x,-y,-z
1/2-x,y,1/2-z
-x,-y,-z
1/2+x,y,1/2-z
-x,y,z
1/2+x,-y,1/2+z
loop_
_atom_site_type_symbol
_atom_site_label
_atom_site_fract_x
_atom_site_fract_y
_atom_site_fract_z
Si Si1 0.890521 0.048981 0.157816
Si Si2 0.750000 0.917087 0.250000
Si Si3 0.924027 0.847503 0.423436
Si Si4 0.177368 0.391817 0.614333
Si Si5 0.421147 0.558754 0.663085
O O1 0.913846 0.239826 0.180329
O O2 0.809561 0.027477 0.183724
O O3 0.921963 0.908654 0.262423
O O4 0.907329 0.000000 0.000000
O O5 0.783633 0.779878 0.353348
O O6 0.888708 0.677904 0.464214
O O7 0.000000 0.836402 0.474626
O O8 0.887516 0.000000 0.500000
O O9 0.216726 0.500000 0.500000
O O10 0.142464 0.476806 0.750244
O O11 0.415037 0.500000 0.500000
O O12 0.500000 0.511735 0.706491
#
# Coordination Sequence:
#
# PCOD9418844 Si02
#       5
#     8   4   8   8   8
#     4  11  24  42  65  92 126 170 215 258 308 373
#     4  10  26  44  62  90 126 170 216 258 308 372
#     4  10  21  39  63  93 128 165 205 251 310 376
#     4  11  24  42  65  92 125 164 210 262 314 368
#     4  11  24  42  66  98 131 162 203 260 323 377
#
# _framework density 24.103922000000001
#
# number of rings (size 3 to 8) (size 9 to 14) (size 15 to 20)
#    0.000    1.333    0.000    5.333    0.000   16.000 
#    0.000    0.000    0.000    0.000    0.000    0.000 
#    0.000    0.000    0.000    0.000    0.000    0.000 
#
# Total GULP energy -200890.918756 kJ/mol
# GULP energy per Si atom -5580.303299 kJ/mol
# Density = 2.404906 g / cm^3
# Si number density = 24.103922 Si / 1000 Ang^3
#
#
#
# Elastic Constant Matrix: (Units=GPa)
#
#
# Indices 1 2 3 4 5 6 
#
# 1 74.0659 15.7382 3.2607 0.0000 0.0000 0.0000
# 2 15.7382 87.3333 1.9969 0.0000 0.0000 0.0000
# 3 3.2607 1.9969 85.3583 0.0000 0.0000 0.0000
# 4 0.0000 0.0000 0.0000 33.3331 0.0000 0.0000
# 5 0.0000 0.0000 0.0000 0.0000 -20.4720 0.0000
# 6 0.0000 0.0000 0.0000 0.0000 0.0000 23.9110
#
#
#
# Elastic Compliance Matrix: (Units=1/GPa)
#
#
# Indices 1 2 3 4 5 6 
#
# 1 0.014059 -0.002523 -0.000478 0.000000 0.000000 0.000000
# 2 -0.002523 0.011909 -0.000182 0.000000 0.000000 0.000000
# 3 -0.000478 -0.000182 0.011738 0.000000 0.000000 0.000000
# 4 0.000000 0.000000 0.000000 0.030000 0.000000 0.000000
# 5 0.000000 0.000000 0.000000 0.000000 -0.048847 0.000000
# 6 0.000000 0.000000 0.000000 0.000000 0.000000 0.041822
#
#
# Mechanical properties :
#
#
# Convention : Reuss Voigt Hill
#
# Bulk Modulus (GPa) = 31.90820 32.08323 31.99571
# Shear Modulus (GPa) = 64.52238 22.40521 43.46379
#
# Velocity S-wave (km/s) = 5.17943 3.05212 4.25100
# Velocity P-wave (km/s) = 7.00251 5.07542 6.11535
#
# Compressibility (1/GPa) = 0.03133991
#
# Stress axis : x y z
#
# Youngs Moduli (GPa) = 71.13115 83.96917 85.19453
#
# Poissons Ratio (x) = 0.21182 0.04072
# Poissons Ratio (y) = 0.17943 0.01553
# Poissons Ratio (z) = 0.03400 0.01530
#
# Static dielectric constant tensor:
#      x y z
#    x 2.018440 0.000000 0.000000 
#    y 0.000000 1.788850 0.000000 
#    z 0.000000 0.000000 1.949330 
# 
# From -- ./inp_files/10587.got.cif
#   From: 2010.05.17/outbox.cif.g08.bks.cpg/sg53_6_cif.got.tgz:10587.got - 2010.06.03 12:45:16.
