data_PCOD9418499
_publ_section_title
;
Structure prediction by ZEFSAII (Michael W. Deem and Ramdas Pophale) SiO2 
 PCOD9418499
Probable space group: P M N A
;
_chemical_formula_sum "Si O2"
_cell_formula_units_Z 40
_cell_length_a 8.532050
_cell_length_b 26.521729
_cell_length_c 9.164074
_cell_angle_alpha 90.000000
_cell_angle_beta 90.000000
_cell_angle_gamma 90.000000
_cell_volume 2073.689900
_symmetry_space_group_name_H-M "P M N A"
_symmetry_group_IT_number 53
_symmetry_cell_setting 'orthorhombic'
loop_
_space_group_symop_operation_xyz
x,y,z
1/2-x,-y,1/2+z
x,-y,-z
1/2-x,y,1/2-z
-x,-y,-z
1/2+x,y,1/2-z
-x,y,z
1/2+x,-y,1/2+z
loop_
_atom_site_type_symbol
_atom_site_label
_atom_site_fract_x
_atom_site_fract_y
_atom_site_fract_z
Si Si1 0.311694 0.348951 0.585277
Si Si2 0.189494 0.050269 0.414647
Si Si3 0.810650 0.550161 0.914654
Si Si4 0.688308 0.748493 0.914718
Si Si5 0.810686 0.150661 0.585382
O O1 0.250000 0.349260 0.750000
O O2 0.500000 0.347718 0.587330
O O3 0.260697 0.399663 0.500968
O O4 0.249948 0.300185 0.500243
O O5 0.250000 0.050360 0.250000
O O6 0.241513 0.100339 0.500693
O O7 0.000000 0.050360 0.411445
O O8 0.240855 0.000000 0.500000
O O9 0.750000 0.550538 0.750000
O O10 0.000000 0.549788 0.911169
O O11 0.758088 0.500000 0.000000
O O12 0.750000 0.748594 0.750000
O O13 0.500000 0.747292 0.912676
O O14 0.739433 0.799294 0.998514
O O15 0.750000 0.151235 0.750000
O O16 0.000000 0.150367 0.588878
#
# Coordination Sequence:
#
# PCOD9418499 Si02
#       5
#     8   8   8   8   8
#     4  11  23  39  60  86 116 150 190 234 282 336
#     4  10  21  37  57  83 113 145 185 230 277 331
#     4  10  22  39  59  85 115 148 187 231 280 334
#     4  11  23  39  59  84 115 150 190 234 282 336
#     4  10  22  38  57  83 113 147 187 231 279 333
#
# _framework density 19.289285
#
# number of rings (size 3 to 8) (size 9 to 14) (size 15 to 20)
#    0.000    1.600    0.000    4.200    0.000    8.000 
#    0.000    0.000    0.000    0.000    0.000    0.000 
#    0.000    0.000    0.000    0.000    0.000    0.000 
#
# Total GULP energy -223686.864795 kJ/mol
# GULP energy per Si atom -5592.171620 kJ/mol
# Density = 1.924538 g / cm^3
# Si number density = 19.289285 Si / 1000 Ang^3
#
#
#
# Elastic Constant Matrix: (Units=GPa)
#
#
# Indices 1 2 3 4 5 6 
#
# 1 24.1873 43.0661 35.9811 0.0000 0.0000 0.0000
# 2 43.0661 246.7548 150.7654 0.0000 0.0000 0.0000
# 3 35.9811 150.7654 242.6831 0.0000 0.0000 0.0000
# 4 0.0000 0.0000 0.0000 47.3070 0.0000 0.0000
# 5 0.0000 0.0000 0.0000 0.0000 43.9404 0.0000
# 6 0.0000 0.0000 0.0000 0.0000 0.0000 50.1878
#
#
#
# Elastic Compliance Matrix: (Units=1/GPa)
#
#
# Indices 1 2 3 4 5 6 
#
# 1 0.062305 -0.008430 -0.004001 0.000000 0.000000 0.000000
# 2 -0.008430 0.007672 -0.003517 0.000000 0.000000 0.000000
# 3 -0.004001 -0.003517 0.006898 0.000000 0.000000 0.000000
# 4 0.000000 0.000000 0.000000 0.021139 0.000000 0.000000
# 5 0.000000 0.000000 0.000000 0.000000 0.022758 0.000000
# 6 0.000000 0.000000 0.000000 0.000000 0.000000 0.019925
#
#
# Mechanical properties :
#
#
# Convention : Reuss Voigt Hill
#
# Bulk Modulus (GPa) = 22.23129 108.13892 65.18511
# Shear Modulus (GPa) = 26.65455 47.20788 36.93122
#
# Velocity S-wave (km/s) = 3.72133 4.95245 4.38036
# Velocity P-wave (km/s) = 5.47856 9.42792 7.71039
#
# Compressibility (1/GPa) = 0.04498165
#
# Stress axis : x y z
#
# Youngs Moduli (GPa) = 16.05017 130.33562 144.95972
#
# Poissons Ratio (x) = 1.09868 0.57993
# Poissons Ratio (y) = 0.13530 0.50978
# Poissons Ratio (z) = 0.06421 0.45835
#
# Static dielectric constant tensor:
#      x y z
#    x 1.665210 0.000000 0.000000 
#    y 0.000000 1.664690 0.000000 
#    z 0.000000 0.000000 1.608940 
# 
# From -- ./inp_files/6267.got.cif
#   From: 2010.05.17/outbox.cif.g08.bks.cpg/sg53_4_cif.got.tgz:6267.got - 2010.06.03 12:45:16.
