data_PCOD9418447
_publ_section_title
;
Structure prediction by ZEFSAII (Michael W. Deem and Ramdas Pophale) SiO2 
 PCOD9418447
Probable space group: P M N A
;
_chemical_formula_sum "Si O2"
_cell_formula_units_Z 48
_cell_length_a 14.601625
_cell_length_b 7.207793
_cell_length_c 23.918777
_cell_angle_alpha 90.000000
_cell_angle_beta 90.000000
_cell_angle_gamma 90.000000
_cell_volume 2517.343417
_symmetry_space_group_name_H-M "P M N A"
_symmetry_group_IT_number 53
_symmetry_cell_setting 'orthorhombic'
loop_
_space_group_symop_operation_xyz
x,y,z
1/2-x,-y,1/2+z
x,-y,-z
1/2-x,y,1/2-z
-x,-y,-z
1/2+x,y,1/2-z
-x,y,z
1/2+x,-y,1/2+z
loop_
_atom_site_type_symbol
_atom_site_label
_atom_site_fract_x
_atom_site_fract_y
_atom_site_fract_z
Si Si1 0.671890 0.510266 0.203134
Si Si2 0.606132 0.381710 0.556897
Si Si3 0.750965 0.961578 0.062308
Si Si4 0.892628 0.897305 0.339096
Si Si5 0.187447 0.694742 0.870991
Si Si6 0.602569 0.840567 0.740161
O O1 0.750000 0.554944 0.250000
O O2 0.620090 0.688945 0.182023
O O3 0.722078 0.409065 0.151397
O O4 0.606526 0.361723 0.232050
O O5 0.622394 0.500000 0.500000
O O6 0.500000 0.319143 0.556835
O O7 0.676467 0.209366 0.562125
O O8 0.622853 0.529735 0.606873
O O9 0.670510 0.925158 0.106858
O O10 0.797583 0.153829 0.081415
O O11 0.715792 0.000000 0.000000
O O12 0.000000 0.940346 0.349320
O O13 0.858167 0.024154 0.287403
O O14 0.152511 0.812484 0.818097
O O15 0.500000 0.904553 0.728855
#
# Coordination Sequence:
#
# PCOD9418447 Si02
#       6
#     8   8   8   8   8   8
#     4  10  21  36  64  90 125 166 206 258 322 381
#     4  11  24  42  65  95 129 166 213 269 328 392
#     4  12  25  42  67  92 129 173 220 268 326 384
#     4  11  24  41  65  96 130 169 219 269 319 380
#     4  11  22  40  64  92 128 171 210 259 325 390
#     4  10  22  38  60  93 127 160 207 264 321 387
#
# _framework density 19.067717999999999
#
# number of rings (size 3 to 8) (size 9 to 14) (size 15 to 20)
#    0.000    1.167    5.000    1.000    2.333    2.000 
#    0.000    3.333    0.000    1.500    0.000    0.000 
#    0.000    0.000    0.000    0.000    0.000    0.000 
#
# Total GULP energy -267903.933774 kJ/mol
# GULP energy per Si atom -5581.331954 kJ/mol
# Density = 1.902432 g / cm^3
# Si number density = 19.067718 Si / 1000 Ang^3
#
#
#
# Elastic Constant Matrix: (Units=GPa)
#
#
# Indices 1 2 3 4 5 6 
#
# 1 63.3021 11.7533 23.8024 0.0000 0.0000 0.0000
# 2 11.7533 66.0541 37.3507 0.0000 0.0000 0.0000
# 3 23.8024 37.3507 113.2940 0.0000 0.0000 0.0000
# 4 0.0000 0.0000 0.0000 27.0508 0.0000 0.0000
# 5 0.0000 0.0000 0.0000 0.0000 21.9847 0.0000
# 6 0.0000 0.0000 0.0000 0.0000 0.0000 -150.8586
#
#
#
# Elastic Compliance Matrix: (Units=1/GPa)
#
#
# Indices 1 2 3 4 5 6 
#
# 1 0.017236 -0.001253 -0.003208 0.000000 0.000000 0.000000
# 2 -0.001253 0.018699 -0.005901 0.000000 0.000000 0.000000
# 3 -0.003208 -0.005901 0.011446 0.000000 0.000000 0.000000
# 4 0.000000 0.000000 0.000000 0.036968 0.000000 0.000000
# 5 0.000000 0.000000 0.000000 0.000000 0.045486 0.000000
# 6 0.000000 0.000000 0.000000 0.000000 0.000000 -0.006629
#
#
# Mechanical properties :
#
#
# Convention : Reuss Voigt Hill
#
# Bulk Modulus (GPa) = 37.51432 43.16255 40.33844
# Shear Modulus (GPa) = 32.71888 -9.04837 11.83525
#
# Velocity S-wave (km/s) = 4.14687 -2.18075 2.49408
# Velocity P-wave (km/s) = 6.53037 4.04286 5.43095
#
# Compressibility (1/GPa) = 0.02665648
#
# Stress axis : x y z
#
# Youngs Moduli (GPa) = 58.01741 53.47862 87.36515
#
# Poissons Ratio (x) = 0.06700 0.28028
# Poissons Ratio (y) = 0.07269 0.51558
# Poissons Ratio (z) = 0.18613 0.31560
#
# Static dielectric constant tensor:
#      x y z
#    x 1.694520 0.000000 0.000000 
#    y 0.000000 1.650570 0.000000 
#    z 0.000000 0.000000 1.672180 
# 
# From -- ./inp_files/36994.got.cif
#   From: 2010.05.17/outbox.cif.g08.bks.cpg/sg53_19_cif.got.tgz:36994.got - 2010.06.03 12:45:16.
