data_PCOD9418693
_publ_section_title
;
Structure prediction by ZEFSAII (Michael W. Deem and Ramdas Pophale) SiO2 
 PCOD9418693
Probable space group: P M N A
;
_chemical_formula_sum "Si O2"
_cell_formula_units_Z 48
_cell_length_a 8.747451
_cell_length_b 15.324419
_cell_length_c 19.624922
_cell_angle_alpha 90.000000
_cell_angle_beta 90.000000
_cell_angle_gamma 90.000000
_cell_volume 2630.713029
_symmetry_space_group_name_H-M "P M N A"
_symmetry_group_IT_number 53
_symmetry_cell_setting 'orthorhombic'
loop_
_space_group_symop_operation_xyz
x,y,z
1/2-x,-y,1/2+z
x,-y,-z
1/2-x,y,1/2-z
-x,-y,-z
1/2+x,y,1/2-z
-x,y,z
1/2+x,-y,1/2+z
loop_
_atom_site_type_symbol
_atom_site_label
_atom_site_fract_x
_atom_site_fract_y
_atom_site_fract_z
Si Si1 0.316293 0.374976 0.175744
Si Si2 0.182436 0.564890 0.175317
Si Si3 0.317036 0.037903 0.425889
Si Si4 0.183026 0.104857 0.674422
Si Si5 0.684077 0.721232 0.089840
Si Si6 0.684000 0.770541 0.935702
O O1 0.250000 0.352043 0.250000
O O2 0.500000 0.382033 0.179870
O O3 0.248039 0.469504 0.157381
O O4 0.276355 0.302137 0.120211
O O5 0.250000 0.587225 0.250000
O O6 0.236507 0.637309 0.122111
O O7 0.000000 0.561371 0.179707
O O8 0.500000 0.034507 0.421321
O O9 0.260385 0.136879 0.420754
O O10 0.270722 0.000000 0.500000
O O11 0.245845 0.976753 0.368126
O O12 0.250000 0.106815 0.750000
O O13 0.224814 0.193246 0.633870
O O14 0.000000 0.100166 0.677425
O O15 0.500000 0.709898 0.093242
O O16 0.726567 0.738589 0.011464
O O17 0.500000 0.782027 0.934919
#
# Coordination Sequence:
#
# PCOD9418693 Si02
#       6
#     8   8   8   8   8   8
#     4  10  21  39  62  86 116 153 197 245 292 348
#     4  11  22  37  59  85 118 157 196 241 295 351
#     4  11  23  39  61  88 120 157 197 243 295 352
#     4  11  23  39  62  88 120 156 199 248 296 353
#     4  10  21  38  60  87 118 155 197 242 295 354
#     4  10  22  40  63  88 116 157 200 242 297 354
#
# _framework density 18.246003999999999
#
# number of rings (size 3 to 8) (size 9 to 14) (size 15 to 20)
#    0.000    1.500    1.667    4.500    0.000    6.667 
#    0.000    5.000    0.000    0.000    0.000    0.000 
#    0.000    0.000    0.000    0.000    0.000    0.000 
#
# Total GULP energy -268338.037897 kJ/mol
# GULP energy per Si atom -5590.375790 kJ/mol
# Density = 1.820447 g / cm^3
# Si number density = 18.246004 Si / 1000 Ang^3
#
#
#
# Elastic Constant Matrix: (Units=GPa)
#
#
# Indices 1 2 3 4 5 6 
#
# 1 69.4610 71.8986 68.1904 0.0000 0.0000 0.0000
# 2 71.8986 164.4320 128.0152 0.0000 0.0000 0.0000
# 3 68.1904 128.0152 170.0885 0.0000 0.0000 0.0000
# 4 0.0000 0.0000 0.0000 38.4636 0.0000 0.0000
# 5 0.0000 0.0000 0.0000 0.0000 28.5546 0.0000
# 6 0.0000 0.0000 0.0000 0.0000 0.0000 31.3627
#
#
#
# Elastic Compliance Matrix: (Units=1/GPa)
#
#
# Indices 1 2 3 4 5 6 
#
# 1 0.027852 -0.008417 -0.004831 0.000000 0.000000 0.000000
# 2 -0.008417 0.017232 -0.009595 0.000000 0.000000 0.000000
# 3 -0.004831 -0.009595 0.015037 0.000000 0.000000 0.000000
# 4 0.000000 0.000000 0.000000 0.025999 0.000000 0.000000
# 5 0.000000 0.000000 0.000000 0.000000 0.035021 0.000000
# 6 0.000000 0.000000 0.000000 0.000000 0.000000 0.031885
#
#
# Mechanical properties :
#
#
# Convention : Reuss Voigt Hill
#
# Bulk Modulus (GPa) = 69.27542 104.46555 86.87048
# Shear Modulus (GPa) = 24.56724 28.73468 26.65096
#
# Velocity S-wave (km/s) = 3.67337 3.97274 3.82599
# Velocity P-wave (km/s) = 7.48608 8.85561 8.19949
#
# Compressibility (1/GPa) = 0.01443514
#
# Stress axis : x y z
#
# Youngs Moduli (GPa) = 35.90431 58.03204 66.50066
#
# Poissons Ratio (x) = 0.48847 0.32126
# Poissons Ratio (y) = 0.30222 0.63806
# Poissons Ratio (z) = 0.17345 0.55680
#
# Static dielectric constant tensor:
#      x y z
#    x 1.613910 0.000000 0.000000 
#    y 0.000000 1.592080 0.000000 
#    z 0.000000 0.000000 1.604730 
# 
# From -- ./inp_files/26209.got.cif
#   From: 2010.05.17/outbox.cif.g08.bks.cpg/sg53_14_cif.got.tgz:26209.got - 2010.06.03 12:45:16.
