data_PCOD9418061
_publ_section_title
;
Structure prediction by ZEFSAII (Michael W. Deem and Ramdas Pophale) SiO2 
 PCOD9418061
Probable space group: P M N A
;
_chemical_formula_sum "Si O2"
_cell_formula_units_Z 52
_cell_length_a 14.794634
_cell_length_b 7.583607
_cell_length_c 22.607203
_cell_angle_alpha 90.000000
_cell_angle_beta 90.000000
_cell_angle_gamma 90.000000
_cell_volume 2536.453346
_symmetry_space_group_name_H-M "P M N A"
_symmetry_group_IT_number 53
_symmetry_cell_setting 'orthorhombic'
loop_
_space_group_symop_operation_xyz
x,y,z
1/2-x,-y,1/2+z
x,-y,-z
1/2-x,y,1/2-z
-x,-y,-z
1/2+x,y,1/2-z
-x,y,z
1/2+x,-y,1/2+z
loop_
_atom_site_type_symbol
_atom_site_label
_atom_site_fract_x
_atom_site_fract_y
_atom_site_fract_z
Si Si1 0.776797 0.978513 0.564351
Si Si2 0.500000 0.865702 0.196783
Si Si3 0.301672 0.879469 0.689823
Si Si4 0.205128 0.533364 0.187058
Si Si5 0.500000 0.812269 0.738772
Si Si6 0.102742 0.367353 0.449367
Si Si7 0.853581 0.698111 0.384127
Si Si8 0.000000 0.422533 0.789728
O O1 0.722334 0.969901 0.626953
O O2 0.836139 0.800196 0.563652
O O3 0.728519 0.000000 0.500000
O O4 0.841357 0.151042 0.566944
O O5 0.588204 0.796300 0.164725
O O6 0.500000 0.765632 0.258743
O O7 0.500000 0.074743 0.201661
O O8 0.250000 0.945392 0.750000
O O9 0.274112 0.674302 0.682354
O O10 0.408545 0.869012 0.704718
O O11 0.250000 0.587981 0.250000
O O12 0.255560 0.641992 0.137509
O O13 0.098039 0.561105 0.180753
O O14 0.500000 0.602815 0.749660
O O15 0.140396 0.500000 0.500000
O O16 0.100012 0.511572 0.397212
O O17 0.000000 0.315519 0.465221
#
# Coordination Sequence:
#
# PCOD9418061 Si02
#       8
#     8   4   8   8   4   8   8   4
#     4  12  26  42  67  97 132 178 226 274 335 400
#     4  12  24  36  62  97 132 177 214 265 335 400
#     4  10  22  43  67  95 131 176 217 279 340 390
#     4  10  20  38  63  91 128 169 214 267 328 395
#     4  10  24  42  63  95 135 171 226 279 329 399
#     4  11  24  44  64  89 134 175 219 272 325 397
#     4  12  24  38  62  95 128 171 218 263 330 399
#     4  10  22  40  62  88 130 172 220 265 331 389
#
# _framework density 20.501066999999999
#
# number of rings (size 3 to 8) (size 9 to 14) (size 15 to 20)
#    0.000    1.077    5.385    0.923    3.231    2.154 
#    1.385    0.385    0.000    0.000    0.000    4.308 
#    0.000    0.000    0.000    0.000    0.000    0.000 
#
# Total GULP energy -289840.547174 kJ/mol
# GULP energy per Si atom -5573.856676 kJ/mol
# Density = 2.045441 g / cm^3
# Si number density = 20.501067 Si / 1000 Ang^3
#
#
#
# Elastic Constant Matrix: (Units=GPa)
#
#
# Indices 1 2 3 4 5 6 
#
# 1 95.4812 26.2726 25.8773 0.0000 0.0000 0.0000
# 2 26.2726 98.6169 20.1940 0.0000 0.0000 0.0000
# 3 25.8773 20.1940 71.5504 0.0000 0.0000 0.0000
# 4 0.0000 0.0000 0.0000 31.0348 0.0000 0.0000
# 5 0.0000 0.0000 0.0000 0.0000 -37.2084 0.0000
# 6 0.0000 0.0000 0.0000 0.0000 0.0000 9.4441
#
#
#
# Elastic Compliance Matrix: (Units=1/GPa)
#
#
# Indices 1 2 3 4 5 6 
#
# 1 0.012158 -0.002482 -0.003697 0.000000 0.000000 0.000000
# 2 -0.002482 0.011269 -0.002283 0.000000 0.000000 0.000000
# 3 -0.003697 -0.002283 0.015957 0.000000 0.000000 0.000000
# 4 0.000000 0.000000 0.000000 0.032222 0.000000 0.000000
# 5 0.000000 0.000000 0.000000 0.000000 -0.026876 0.000000
# 6 0.000000 0.000000 0.000000 0.000000 0.000000 0.105886
#
#
# Mechanical properties :
#
#
# Convention : Reuss Voigt Hill
#
# Bulk Modulus (GPa) = 44.52078 45.59289 45.05683
# Shear Modulus (GPa) = 28.56703 13.54107 21.05405
#
# Velocity S-wave (km/s) = 3.73693 2.57282 3.20812
# Velocity P-wave (km/s) = 6.35476 5.57794 5.97898
#
# Compressibility (1/GPa) = 0.02246142
#
# Stress axis : x y z
#
# Youngs Moduli (GPa) = 82.24972 88.73933 62.66690
#
# Poissons Ratio (x) = 0.22026 0.23166
# Poissons Ratio (y) = 0.20415 0.14306
# Poissons Ratio (z) = 0.30405 0.20257
#
# Static dielectric constant tensor:
#      x y z
#    x 1.701940 0.000000 0.000000 
#    y 0.000000 1.760750 0.000000 
#    z 0.000000 0.000000 1.868050 
# 
# From -- ./inp_files/32389.got.cif
#   From: 2010.05.17/outbox.cif.g08.bks.cpg/sg53_17_cif.got.tgz:32389.got - 2010.06.03 12:45:16.
