data_PCOD9418899
_publ_section_title
;
Structure prediction by ZEFSAII (Michael W. Deem and Ramdas Pophale) SiO2 
 PCOD9418899
Probable space group: P M N A
;
_chemical_formula_sum "Si O2"
_cell_formula_units_Z 48
_cell_length_a 18.623802
_cell_length_b 12.032921
_cell_length_c 9.646565
_cell_angle_alpha 90.000000
_cell_angle_beta 90.000000
_cell_angle_gamma 90.000000
_cell_volume 2161.783044
_symmetry_space_group_name_H-M "P M N A"
_symmetry_group_IT_number 53
_symmetry_cell_setting 'orthorhombic'
loop_
_space_group_symop_operation_xyz
x,y,z
1/2-x,-y,1/2+z
x,-y,-z
1/2-x,y,1/2-z
-x,-y,-z
1/2+x,y,1/2-z
-x,y,z
1/2+x,-y,1/2+z
loop_
_atom_site_type_symbol
_atom_site_label
_atom_site_fract_x
_atom_site_fract_y
_atom_site_fract_z
Si Si1 0.082144 0.252763 0.960725
Si Si2 0.325100 0.406146 0.389865
Si Si3 0.185071 0.038511 0.655569
Si Si4 0.172493 0.327346 0.390963
Si Si5 0.413827 0.867256 0.728242
Si Si6 0.324848 0.299102 0.808214
O O1 0.123645 0.284852 0.822482
O O2 0.000000 0.237517 0.927073
O O3 0.099605 0.356544 0.060486
O O4 0.103992 0.152910 0.065176
O O5 0.305983 0.500000 0.500000
O O6 0.259664 0.316677 0.403451
O O7 0.333000 0.424489 0.225551
O O8 0.250000 0.995912 0.750000
O O9 0.188570 0.170693 0.651344
O O10 0.192512 0.000000 0.500000
O O11 0.112873 0.987021 0.720642
O O12 0.130349 0.223218 0.322026
O O13 0.148026 0.350574 0.547401
O O14 0.500000 0.852732 0.744019
O O15 0.250000 0.347074 0.750000
#
# Coordination Sequence:
#
# PCOD9418899 Si02
#       6
#     8   8   8   8   8   8
#     4  10  23  41  64  91 130 173 212 265 330 396
#     4  10  22  40  68  98 120 160 213 270 331 403
#     4  11  25  37  62  94 130 171 226 277 314 376
#     4  10  21  39  68  90 126 165 212 266 323 395
#     4  10  23  42  64  93 133 182 223 264 327 389
#     4  11  22  38  60  95 128 172 217 269 319 378
#
# _framework density 22.203892
#
# number of rings (size 3 to 8) (size 9 to 14) (size 15 to 20)
#    0.000    1.667    3.333    0.000    9.333    4.667 
#    0.000    1.667    0.000    1.500    0.000    0.000 
#    0.000    0.000    0.000    0.000    0.000    0.000 
#
# Total GULP energy -267649.819187 kJ/mol
# GULP energy per Si atom -5576.037900 kJ/mol
# Density = 2.215335 g / cm^3
# Si number density = 22.203892 Si / 1000 Ang^3
#
#
#
# Elastic Constant Matrix: (Units=GPa)
#
#
# Indices 1 2 3 4 5 6 
#
# 1 29.8813 0.1290 29.0020 0.0000 0.0000 0.0000
# 2 0.1290 43.5139 22.7943 0.0000 0.0000 0.0000
# 3 29.0020 22.7943 223.0335 0.0000 0.0000 0.0000
# 4 0.0000 0.0000 0.0000 -2.5813 0.0000 0.0000
# 5 0.0000 0.0000 0.0000 0.0000 31.8257 0.0000
# 6 0.0000 0.0000 0.0000 0.0000 0.0000 2.1914
#
#
#
# Elastic Compliance Matrix: (Units=1/GPa)
#
#
# Indices 1 2 3 4 5 6 
#
# 1 0.038588 0.002656 -0.005289 0.000000 0.000000 0.000000
# 2 0.002656 0.024464 -0.002846 0.000000 0.000000 0.000000
# 3 -0.005289 -0.002846 0.005462 0.000000 0.000000 0.000000
# 4 0.000000 0.000000 0.000000 -0.387405 0.000000 0.000000
# 5 0.000000 0.000000 0.000000 0.000000 0.031421 0.000000
# 6 0.000000 0.000000 0.000000 0.000000 0.000000 0.456322
#
#
# Mechanical properties :
#
#
# Convention : Reuss Voigt Hill
#
# Bulk Modulus (GPa) = 17.37413 44.47551 30.92482
# Shear Modulus (GPa) = 25.12635 22.58740 23.85688
#
# Velocity S-wave (km/s) = 3.36760 3.19293 3.28143
# Velocity P-wave (km/s) = 4.79195 5.80233 5.32118
#
# Compressibility (1/GPa) = 0.05755684
#
# Stress axis : x y z
#
# Youngs Moduli (GPa) = 25.91488 40.87647 183.07503
#
# Poissons Ratio (x) = -0.10858 0.96832
# Poissons Ratio (y) = -0.06884 0.52097
# Poissons Ratio (z) = 0.13707 0.11632
#
# Static dielectric constant tensor:
#      x y z
#    x 1.792470 0.000000 0.000000 
#    y 0.000000 1.898640 0.000000 
#    z 0.000000 0.000000 1.876410 
# 
# From -- ./inp_files/9958.got.cif
#   From: 2010.05.17/outbox.cif.g08.bks.cpg/sg53_5_cif.got.tgz:9958.got - 2010.06.03 12:45:16.
