data_PCOD9418371
_publ_section_title
;
Structure prediction by ZEFSAII (Michael W. Deem and Ramdas Pophale) SiO2 
 PCOD9418371
Probable space group: P M N A
;
_chemical_formula_sum "Si O2"
_cell_formula_units_Z 28
_cell_length_a 31.996751
_cell_length_b 7.516660
_cell_length_c 5.205297
_cell_angle_alpha 90.000000
_cell_angle_beta 90.000000
_cell_angle_gamma 90.000000
_cell_volume 1251.919206
_symmetry_space_group_name_H-M "P M N A"
_symmetry_group_IT_number 53
_symmetry_cell_setting 'orthorhombic'
loop_
_space_group_symop_operation_xyz
x,y,z
1/2-x,-y,1/2+z
x,-y,-z
1/2-x,y,1/2-z
-x,-y,-z
1/2+x,y,1/2-z
-x,y,z
1/2+x,-y,1/2+z
loop_
_atom_site_type_symbol
_atom_site_label
_atom_site_fract_x
_atom_site_fract_y
_atom_site_fract_z
Si Si1 0.500000 0.625489 0.744193
Si Si2 0.627831 0.210792 0.977630
Si Si3 0.084143 0.212864 0.035879
Si Si4 0.774963 0.285101 0.504836
O O1 0.500000 0.500000 0.500000
O O2 0.458818 0.741455 0.684910
O O3 0.500000 0.500000 0.000000
O O4 0.598062 0.281657 0.746919
O O5 0.617530 0.283809 0.259366
O O6 0.677069 0.233321 0.947643
O O7 0.619227 0.000000 0.000000
O O8 0.085027 0.000000 0.000000
O O9 0.774358 0.500000 0.500000
O O10 0.750000 0.225567 0.250000
O O11 0.750000 0.219287 0.750000
#
# Coordination Sequence:
#
# PCOD9418371 Si02
#       4
#     4   8   8   8
#     4  12  25  40  61  92 120 150 198 246 293 352
#     4  10  21  37  60  86 111 149 198 241 287 347
#     4  10  22  41  61  84 118 156 192 238 300 358
#     4  10  21  36  54  80 115 153 189 232 292 351
#
# _framework density 22.365663000000001
#
# number of rings (size 3 to 8) (size 9 to 14) (size 15 to 20)
#    0.000    1.714    0.000    3.857    0.000    4.571 
#    0.000    5.714    0.000    0.000    0.000    0.000 
#    0.000    0.000    0.000    0.000    0.000    0.000 
#
# Total GULP energy -156055.717989 kJ/mol
# GULP energy per Si atom -5573.418500 kJ/mol
# Density = 2.231476 g / cm^3
# Si number density = 22.365663 Si / 1000 Ang^3
#
#
#
# Elastic Constant Matrix: (Units=GPa)
#
#
# Indices 1 2 3 4 5 6 
#
# 1 145.3053 -6.6261 69.9839 0.0000 0.0000 0.0000
# 2 -6.6261 50.7415 30.1072 0.0000 0.0000 0.0000
# 3 69.9839 30.1072 215.4386 0.0000 0.0000 0.0000
# 4 0.0000 0.0000 0.0000 1.7208 0.0000 0.0000
# 5 0.0000 0.0000 0.0000 0.0000 41.9149 0.0000
# 6 0.0000 0.0000 0.0000 0.0000 0.0000 49.2048
#
#
#
# Elastic Compliance Matrix: (Units=1/GPa)
#
#
# Indices 1 2 3 4 5 6 
#
# 1 0.008563 0.003019 -0.003203 0.000000 0.000000 0.000000
# 2 0.003019 0.022554 -0.004133 0.000000 0.000000 0.000000
# 3 -0.003203 -0.004133 0.006260 0.000000 0.000000 0.000000
# 4 0.000000 0.000000 0.000000 0.581128 0.000000 0.000000
# 5 0.000000 0.000000 0.000000 0.000000 0.023858 0.000000
# 6 0.000000 0.000000 0.000000 0.000000 0.000000 0.020323
#
#
# Mechanical properties :
#
#
# Convention : Reuss Voigt Hill
#
# Bulk Modulus (GPa) = 34.79199 66.49060 50.64129
# Shear Modulus (GPa) = 7.34322 39.76946 23.55634
#
# Velocity S-wave (km/s) = 1.81394 4.22138 3.24888
# Velocity P-wave (km/s) = 4.46956 7.31803 6.06343
#
# Compressibility (1/GPa) = 0.02874224
#
# Stress axis : x y z
#
# Youngs Moduli (GPa) = 116.78718 44.33808 159.74929
#
# Poissons Ratio (x) = -0.13385 0.51174
# Poissons Ratio (y) = -0.35256 0.66017
# Poissons Ratio (z) = 0.37411 0.18323
#
# Static dielectric constant tensor:
#      x y z
#    x 1.692590 0.000000 0.000000 
#    y 0.000000 1.788530 0.000000 
#    z 0.000000 0.000000 1.833370 
# 
# From -- ./inp_files/4139.got.cif
#   From: 2010.05.17/outbox.cif.g08.bks.cpg/sg53_3_cif.got.tgz:4139.got - 2010.06.03 12:45:16.
