data_PCOD9418592
_publ_section_title
;
Structure prediction by ZEFSAII (Michael W. Deem and Ramdas Pophale) SiO2 
 PCOD9418592
Probable space group: P M N A
;
_chemical_formula_sum "Si O2"
_cell_formula_units_Z 48
_cell_length_a 8.809383
_cell_length_b 15.237744
_cell_length_c 19.640783
_cell_angle_alpha 90.000000
_cell_angle_beta 90.000000
_cell_angle_gamma 90.000000
_cell_volume 2636.482921
_symmetry_space_group_name_H-M "P M N A"
_symmetry_group_IT_number 53
_symmetry_cell_setting 'orthorhombic'
loop_
_space_group_symop_operation_xyz
x,y,z
1/2-x,-y,1/2+z
x,-y,-z
1/2-x,y,1/2-z
-x,-y,-z
1/2+x,y,1/2-z
-x,y,z
1/2+x,-y,1/2+z
loop_
_atom_site_type_symbol
_atom_site_label
_atom_site_fract_x
_atom_site_fract_y
_atom_site_fract_z
Si Si1 0.182128 0.363977 0.175835
Si Si2 0.180969 0.568152 0.176227
Si Si3 0.318209 0.038951 0.425099
Si Si4 0.182477 0.105757 0.674544
Si Si5 0.682322 0.720725 0.088945
Si Si6 0.682543 0.768020 0.934298
O O1 0.250000 0.342752 0.250000
O O2 0.219696 0.466378 0.161812
O O3 0.252772 0.301141 0.119432
O O4 0.000000 0.355202 0.177242
O O5 0.250000 0.591052 0.250000
O O6 0.243954 0.634122 0.120110
O O7 0.000000 0.575414 0.180228
O O8 0.500000 0.041821 0.417626
O O9 0.249869 0.135965 0.420348
O O10 0.282639 0.000000 0.500000
O O11 0.247316 0.974986 0.368909
O O12 0.250000 0.106384 0.750000
O O13 0.224677 0.195348 0.634994
O O14 0.000000 0.100502 0.677177
O O15 0.500000 0.711907 0.091669
O O16 0.725670 0.739573 0.011039
O O17 0.500000 0.771328 0.930375
#
# Coordination Sequence:
#
# PCOD9418592 Si02
#       6
#     8   8   8   8   8   8
#     4  10  22  41  62  88 119 156 201 250 300 353
#     4  10  21  37  60  86 119 159 200 247 299 352
#     4  11  23  40  63  89 118 156 198 243 297 356
#     4  11  23  40  61  89 123 158 200 248 296 352
#     4  10  22  38  59  88 122 159 198 241 296 356
#     4  11  23  40  63  90 120 158 198 244 299 356
#
# _framework density 18.206073
#
# number of rings (size 3 to 8) (size 9 to 14) (size 15 to 20)
#    0.000    1.500    1.667    3.000    0.000    8.000 
#    0.000    6.667    0.000    0.000    0.000    0.000 
#    0.000    0.000    0.000    0.000    0.000    0.000 
#
# Total GULP energy -268354.769356 kJ/mol
# GULP energy per Si atom -5590.724362 kJ/mol
# Density = 1.816464 g / cm^3
# Si number density = 18.206073 Si / 1000 Ang^3
#
#
#
# Elastic Constant Matrix: (Units=GPa)
#
#
# Indices 1 2 3 4 5 6 
#
# 1 59.9964 60.8509 70.5645 0.0000 0.0000 0.0000
# 2 60.8509 141.0247 116.0337 0.0000 0.0000 0.0000
# 3 70.5645 116.0337 184.9782 0.0000 0.0000 0.0000
# 4 0.0000 0.0000 0.0000 39.9829 0.0000 0.0000
# 5 0.0000 0.0000 0.0000 0.0000 31.0450 0.0000
# 6 0.0000 0.0000 0.0000 0.0000 0.0000 34.6727
#
#
#
# Elastic Compliance Matrix: (Units=1/GPa)
#
#
# Indices 1 2 3 4 5 6 
#
# 1 0.034428 -0.008369 -0.007884 0.000000 0.000000 0.000000
# 2 -0.008369 0.016689 -0.007276 0.000000 0.000000 0.000000
# 3 -0.007884 -0.007276 0.012978 0.000000 0.000000 0.000000
# 4 0.000000 0.000000 0.000000 0.025011 0.000000 0.000000
# 5 0.000000 0.000000 0.000000 0.000000 0.032211 0.000000
# 6 0.000000 0.000000 0.000000 0.000000 0.000000 0.028841
#
#
# Mechanical properties :
#
#
# Convention : Reuss Voigt Hill
#
# Bulk Modulus (GPa) = 58.69501 97.87749 78.28625
# Shear Modulus (GPa) = 24.64340 30.37680 27.51010
#
# Velocity S-wave (km/s) = 3.68310 4.08916 3.89143
# Velocity P-wave (km/s) = 7.09903 8.72769 7.95515
#
# Compressibility (1/GPa) = 0.01703722
#
# Stress axis : x y z
#
# Youngs Moduli (GPa) = 29.04595 59.92117 77.05487
#
# Poissons Ratio (x) = 0.50145 0.60750
# Poissons Ratio (y) = 0.24307 0.56066
# Poissons Ratio (z) = 0.22900 0.43599
#
# Static dielectric constant tensor:
#      x y z
#    x 1.607730 0.000000 0.000000 
#    y 0.000000 1.597680 0.000000 
#    z 0.000000 0.000000 1.592470 
# 
# From -- ./inp_files/26208.got.cif
#   From: 2010.05.17/outbox.cif.g08.bks.cpg/sg53_14_cif.got.tgz:26208.got - 2010.06.03 12:45:16.
