data_PCOD9418204
_publ_section_title
;
Structure prediction by ZEFSAII (Michael W. Deem and Ramdas Pophale) SiO2 
 PCOD9418204
Probable space group: P M N A
;
_chemical_formula_sum "Si O2"
_cell_formula_units_Z 48
_cell_length_a 16.020143
_cell_length_b 8.892987
_cell_length_c 14.764025
_cell_angle_alpha 90.000000
_cell_angle_beta 90.000000
_cell_angle_gamma 90.000000
_cell_volume 2103.385219
_symmetry_space_group_name_H-M "P M N A"
_symmetry_group_IT_number 53
_symmetry_cell_setting 'orthorhombic'
loop_
_space_group_symop_operation_xyz
x,y,z
1/2-x,-y,1/2+z
x,-y,-z
1/2-x,y,1/2-z
-x,-y,-z
1/2+x,y,1/2-z
-x,y,z
1/2+x,-y,1/2+z
loop_
_atom_site_type_symbol
_atom_site_label
_atom_site_fract_x
_atom_site_fract_y
_atom_site_fract_z
Si Si1 0.154920 0.603335 0.568711
Si Si2 0.092587 0.862874 0.809664
Si Si3 0.500000 0.993613 0.848623
Si Si4 0.903931 0.649801 0.062778
Si Si5 0.650151 0.473974 0.262051
Si Si6 0.721942 0.139601 0.450560
Si Si7 0.500000 0.759134 0.013954
O O1 0.207266 0.500000 0.500000
O O2 0.121077 0.521412 0.657710
O O3 0.212860 0.744472 0.592294
O O4 0.081238 0.663172 0.506169
O O5 0.117564 0.689217 0.794548
O O6 0.162832 0.927984 0.873246
O O7 0.000000 0.864727 0.852738
O O8 0.077880 0.950698 0.715893
O O9 0.500000 0.881517 0.932983
O O10 0.500000 0.158122 0.890226
O O11 0.878242 0.595093 0.163879
O O12 0.000000 0.706105 0.065300
O O13 0.903671 0.500000 0.000000
O O14 0.839708 0.767512 0.017602
O O15 0.750000 0.478950 0.250000
O O16 0.765344 0.000000 0.500000
#
# Coordination Sequence:
#
# PCOD9418204 Si02
#       7
#     8   8   4   8   8   8   4
#     4  12  26  46  70 101 142 185 242 299 359 416
#     4  10  20  40  67  98 136 183 236 276 346 432
#     4   9  22  40  71 102 133 185 249 279 351 429
#     4  11  23  42  72 103 138 180 234 295 352 425
#     4  12  21  39  71  99 134 186 239 288 346 421
#     4  12  26  44  69 104 143 189 228 298 371 431
#     4  11  23  44  72  95 140 190 235 309 345 425
#
# _framework density 22.820354999999999
#
# number of rings (size 3 to 8) (size 9 to 14) (size 15 to 20)
#    0.500    0.333    5.000    2.750    3.500    1.333 
#    3.000    0.000    3.667    0.000    0.000    0.000 
#    0.000    0.000    0.000    0.000    0.000    0.000 
#
# Total GULP energy -268220.035772 kJ/mol
# GULP energy per Si atom -5587.917412 kJ/mol
# Density = 2.276841 g / cm^3
# Si number density = 22.820355 Si / 1000 Ang^3
#
#
#
# Elastic Constant Matrix: (Units=GPa)
#
#
# Indices 1 2 3 4 5 6 
#
# 1 84.2313 7.1458 13.0129 0.0000 0.0000 0.0000
# 2 7.1458 44.4919 40.0043 0.0000 0.0000 0.0000
# 3 13.0129 40.0043 128.8698 0.0000 0.0000 0.0000
# 4 0.0000 0.0000 0.0000 45.0398 0.0000 0.0000
# 5 0.0000 0.0000 0.0000 0.0000 33.4241 0.0000
# 6 0.0000 0.0000 0.0000 0.0000 0.0000 18.6309
#
#
#
# Elastic Compliance Matrix: (Units=1/GPa)
#
#
# Indices 1 2 3 4 5 6 
#
# 1 0.012104 -0.001172 -0.000858 0.000000 0.000000 0.000000
# 2 -0.001172 0.031292 -0.009595 0.000000 0.000000 0.000000
# 3 -0.000858 -0.009595 0.010825 0.000000 0.000000 0.000000
# 4 0.000000 0.000000 0.000000 0.022203 0.000000 0.000000
# 5 0.000000 0.000000 0.000000 0.000000 0.029919 0.000000
# 6 0.000000 0.000000 0.000000 0.000000 0.000000 0.053674
#
#
# Mechanical properties :
#
#
# Convention : Reuss Voigt Hill
#
# Bulk Modulus (GPa) = 32.29029 41.99101 37.14065
# Shear Modulus (GPa) = 25.82759 32.58097 29.20428
#
# Velocity S-wave (km/s) = 3.36784 3.78261 3.58124
# Velocity P-wave (km/s) = 5.41328 6.12521 5.78022
#
# Compressibility (1/GPa) = 0.03096907
#
# Stress axis : x y z
#
# Youngs Moduli (GPa) = 82.61648 31.95724 92.37810
#
# Poissons Ratio (x) = 0.03746 0.07929
# Poissons Ratio (y) = 0.09685 0.88640
# Poissons Ratio (z) = 0.07091 0.30664
#
# Static dielectric constant tensor:
#      x y z
#    x 1.847510 0.000000 0.000000 
#    y 0.000000 1.879690 0.000000 
#    z 0.000000 0.000000 1.898750 
# 
# From -- ./inp_files/23696.got.cif
#   From: 2010.05.17/outbox.cif.g08.bks.cpg/sg53_12_cif.got.tgz:23696.got - 2010.06.03 12:45:16.
