data_PCOD9418207
_publ_section_title
;
Structure prediction by ZEFSAII (Michael W. Deem and Ramdas Pophale) SiO2 
 PCOD9418207
Probable space group: P M N A
;
_chemical_formula_sum "Si O2"
_cell_formula_units_Z 56
_cell_length_a 13.477139
_cell_length_b 9.872720
_cell_length_c 21.789538
_cell_angle_alpha 90.000000
_cell_angle_beta 90.000000
_cell_angle_gamma 90.000000
_cell_volume 2899.229198
_symmetry_space_group_name_H-M "P M N A"
_symmetry_group_IT_number 53
_symmetry_cell_setting 'orthorhombic'
loop_
_space_group_symop_operation_xyz
x,y,z
1/2-x,-y,1/2+z
x,-y,-z
1/2-x,y,1/2-z
-x,-y,-z
1/2+x,y,1/2-z
-x,y,z
1/2+x,-y,1/2+z
loop_
_atom_site_type_symbol
_atom_site_label
_atom_site_fract_x
_atom_site_fract_y
_atom_site_fract_z
Si Si1 0.273701 0.151619 0.020889
Si Si2 0.825811 0.506899 0.336006
Si Si3 0.615045 0.176105 0.379385
Si Si4 0.115692 0.776535 0.400923
Si Si5 0.613955 0.217845 0.135123
Si Si6 0.387053 0.454671 0.304524
Si Si7 0.767075 0.009529 0.682449
O O1 0.180212 0.207709 0.059693
O O2 0.361010 0.144010 0.071464
O O3 0.318990 0.229050 0.962961
O O4 0.248092 0.000000 0.000000
O O5 0.878628 0.633854 0.365957
O O6 0.846289 0.369043 0.372275
O O7 0.867077 0.470333 0.268138
O O8 0.707339 0.531918 0.333229
O O9 0.500000 0.154788 0.393404
O O10 0.621430 0.301423 0.331210
O O11 0.666917 0.042718 0.350450
O O12 0.000000 0.811049 0.412753
O O13 0.169312 0.886317 0.357402
O O14 0.500000 0.221090 0.149787
O O15 0.671048 0.131057 0.186076
O O16 0.500000 0.500038 0.317900
O O17 0.750000 0.065165 0.750000
#
# Coordination Sequence:
#
# PCOD9418207 Si02
#       7
#     8   8   8   8   8   8   8
#     4  11  22  42  63  93 128 170 215 265 314 381
#     4  11  23  40  64  97 128 161 215 265 316 391
#     4  10  21  41  69  97 124 166 219 271 319 373
#     4  12  26  43  63  92 136 175 209 267 332 382
#     4  11  21  38  65  91 120 165 215 263 320 377
#     4  10  20  40  68  93 126 166 205 262 327 381
#     4  11  23  39  60  97 127 168 213 268 319 390
#
# _framework density 19.315480000000001
#
# number of rings (size 3 to 8) (size 9 to 14) (size 15 to 20)
#    0.000    1.143    5.714    3.000    2.000    3.714 
#    0.000    2.857    0.000    1.714    0.000    0.000 
#    0.000    0.000    0.000    0.000    0.000    0.000 
#
# Total GULP energy -312336.098569 kJ/mol
# GULP energy per Si atom -5577.430332 kJ/mol
# Density = 1.927152 g / cm^3
# Si number density = 19.315480 Si / 1000 Ang^3
#
#
#
# Elastic Constant Matrix: (Units=GPa)
#
#
# Indices 1 2 3 4 5 6 
#
# 1 152.1074 11.6312 39.3966 0.0000 0.0000 0.0000
# 2 11.6312 55.6795 24.2899 0.0000 0.0000 0.0000
# 3 39.3966 24.2899 105.8122 0.0000 0.0000 0.0000
# 4 0.0000 0.0000 0.0000 17.0980 0.0000 0.0000
# 5 0.0000 0.0000 0.0000 0.0000 16.2105 0.0000
# 6 0.0000 0.0000 0.0000 0.0000 0.0000 24.7049
#
#
#
# Elastic Compliance Matrix: (Units=1/GPa)
#
#
# Indices 1 2 3 4 5 6 
#
# 1 0.007283 -0.000376 -0.002625 0.000000 0.000000 0.000000
# 2 -0.000376 0.019978 -0.004446 0.000000 0.000000 0.000000
# 3 -0.002625 -0.004446 0.011449 0.000000 0.000000 0.000000
# 4 0.000000 0.000000 0.000000 0.058486 0.000000 0.000000
# 5 0.000000 0.000000 0.000000 0.000000 0.061688 0.000000
# 6 0.000000 0.000000 0.000000 0.000000 0.000000 0.040478
#
#
# Mechanical properties :
#
#
# Convention : Reuss Voigt Hill
#
# Bulk Modulus (GPa) = 41.99050 51.58161 46.78605
# Shear Modulus (GPa) = 22.50267 27.48810 24.99538
#
# Velocity S-wave (km/s) = 3.41692 3.77651 3.60121
# Velocity P-wave (km/s) = 6.11176 6.76600 6.44719
#
# Compressibility (1/GPa) = 0.02381491
#
# Stress axis : x y z
#
# Youngs Moduli (GPa) = 137.30540 50.05488 87.34528
#
# Poissons Ratio (x) = 0.01883 0.22931
# Poissons Ratio (y) = 0.05164 0.38834
# Poissons Ratio (z) = 0.36047 0.22255
#
# Static dielectric constant tensor:
#      x y z
#    x 1.689690 0.000000 0.000000 
#    y 0.000000 1.676780 0.000000 
#    z 0.000000 0.000000 1.711580 
# 
# From -- ./inp_files/32470.got.cif
#   From: 2010.05.17/outbox.cif.g08.bks.cpg/sg53_17_cif.got.tgz:32470.got - 2010.06.03 12:45:16.
