data_PCOD9418643
_publ_section_title
;
Structure prediction by ZEFSAII (Michael W. Deem and Ramdas Pophale) SiO2 
 PCOD9418643
Probable space group: P M N A
;
_chemical_formula_sum "Si O2"
_cell_formula_units_Z 48
_cell_length_a 9.149357
_cell_length_b 10.247441
_cell_length_c 23.903971
_cell_angle_alpha 90.000000
_cell_angle_beta 90.000000
_cell_angle_gamma 90.000000
_cell_volume 2241.176467
_symmetry_space_group_name_H-M "P M N A"
_symmetry_group_IT_number 53
_symmetry_cell_setting 'orthorhombic'
loop_
_space_group_symop_operation_xyz
x,y,z
1/2-x,-y,1/2+z
x,-y,-z
1/2-x,y,1/2-z
-x,-y,-z
1/2+x,y,1/2-z
-x,y,z
1/2+x,-y,1/2+z
loop_
_atom_site_type_symbol
_atom_site_label
_atom_site_fract_x
_atom_site_fract_y
_atom_site_fract_z
Si Si1 0.173041 0.184905 0.692639
Si Si2 0.672960 0.185827 0.460170
Si Si3 0.826719 0.744497 0.431875
Si Si4 0.332180 0.554450 0.926317
Si Si5 0.832163 0.374611 0.302044
Si Si6 0.826015 0.101445 0.351290
O O1 0.250000 0.226452 0.750000
O O2 0.224179 0.239021 0.632209
O O3 0.000000 0.213049 0.697149
O O4 0.193686 0.029218 0.683806
O O5 0.500000 0.168657 0.461657
O O6 0.742723 0.171984 0.521662
O O7 0.718877 0.334026 0.442782
O O8 0.745556 0.100591 0.410964
O O9 0.810595 0.591498 0.447796
O O10 0.000000 0.776341 0.433036
O O11 0.500000 0.597395 0.939550
O O12 0.325297 0.545155 0.858975
O O13 0.750000 0.433499 0.250000
O O14 0.774733 0.230091 0.318064
O O15 0.000000 0.359195 0.285970
O O16 0.000000 0.117699 0.362125
#
# Coordination Sequence:
#
# PCOD9418643 Si02
#       6
#     8   8   8   8   8   8
#     4  10  22  39  60  84 111 147 187 224 265 319
#     4  11  22  35  56  86 112 136 177 234 284 319
#     4  10  21  38  58  79 109 151 187 215 263 333
#     4   9  19  36  55  76 108 149 186 220 268 333
#     4   9  17  29  48  74 102 135 176 221 267 314
#     4   9  19  37  57  78 108 145 182 220 270 332
#
# _framework density 21.417323
#
# number of rings (size 3 to 8) (size 9 to 14) (size 15 to 20)
#    0.000    2.333    0.000    3.500    0.000    8.000 
#    0.000    3.333    0.000    0.000    0.000    0.000 
#    0.000    0.000    0.000    0.000    0.000    0.000 
#
# Total GULP energy -268058.854620 kJ/mol
# GULP energy per Si atom -5584.559471 kJ/mol
# Density = 2.136858 g / cm^3
# Si number density = 21.417323 Si / 1000 Ang^3
#
#
#
# Elastic Constant Matrix: (Units=GPa)
#
#
# Indices 1 2 3 4 5 6 
#
# 1 61.0109 4.6308 55.3870 0.0000 0.0000 0.0000
# 2 4.6308 22.3394 -3.1293 0.0000 0.0000 0.0000
# 3 55.3870 -3.1293 152.6462 0.0000 0.0000 0.0000
# 4 0.0000 0.0000 0.0000 7.7808 0.0000 0.0000
# 5 0.0000 0.0000 0.0000 0.0000 40.5339 0.0000
# 6 0.0000 0.0000 0.0000 0.0000 0.0000 -88.1998
#
#
#
# Elastic Compliance Matrix: (Units=1/GPa)
#
#
# Indices 1 2 3 4 5 6 
#
# 1 0.025367 -0.006567 -0.009339 0.000000 0.000000 0.000000
# 2 -0.006567 0.046593 0.003338 0.000000 0.000000 0.000000
# 3 -0.009339 0.003338 0.010008 0.000000 0.000000 0.000000
# 4 0.000000 0.000000 0.000000 0.128521 0.000000 0.000000
# 5 0.000000 0.000000 0.000000 0.000000 0.024671 0.000000
# 6 0.000000 0.000000 0.000000 0.000000 0.000000 -0.011338
#
#
# Mechanical properties :
#
#
# Convention : Reuss Voigt Hill
#
# Bulk Modulus (GPa) = 17.59559 38.86372 28.22966
# Shear Modulus (GPa) = 18.66361 3.96353 11.31357
#
# Velocity S-wave (km/s) = 2.95519 1.36185 2.30085
# Velocity P-wave (km/s) = 4.45844 4.54513 4.50199
#
# Compressibility (1/GPa) = 0.05683242
#
# Stress axis : x y z
#
# Youngs Moduli (GPa) = 39.42128 21.46257 99.91897
#
# Poissons Ratio (x) = 0.14094 0.93314
# Poissons Ratio (y) = 0.25887 -0.33351
# Poissons Ratio (z) = 0.36815 -0.07164
#
# Static dielectric constant tensor:
#      x y z
#    x 1.718230 0.000000 0.000000 
#    y 0.000000 1.811110 0.000000 
#    z 0.000000 0.000000 1.812410 
# 
# From -- ./inp_files/33845.got.cif
#   From: 2010.05.17/outbox.cif.g08.bks.cpg/sg53_17_cif.got.tgz:33845.got - 2010.06.03 12:45:16.
