data_PCOD9418825
_publ_section_title
;
Structure prediction by ZEFSAII (Michael W. Deem and Ramdas Pophale) SiO2 
 PCOD9418825
Probable space group: P M N A
;
_chemical_formula_sum "Si O2"
_cell_formula_units_Z 32
_cell_length_a 14.656964
_cell_length_b 5.143096
_cell_length_c 18.263180
_cell_angle_alpha 90.000000
_cell_angle_beta 90.000000
_cell_angle_gamma 90.000000
_cell_volume 1376.718193
_symmetry_space_group_name_H-M "P M N A"
_symmetry_group_IT_number 53
_symmetry_cell_setting 'orthorhombic'
loop_
_space_group_symop_operation_xyz
x,y,z
1/2-x,-y,1/2+z
x,-y,-z
1/2-x,y,1/2-z
-x,-y,-z
1/2+x,y,1/2-z
-x,y,z
1/2+x,-y,1/2+z
loop_
_atom_site_type_symbol
_atom_site_label
_atom_site_fract_x
_atom_site_fract_y
_atom_site_fract_z
Si Si1 0.398750 0.074947 0.915471
Si Si2 0.788114 0.743001 0.050925
Si Si3 0.110060 0.810316 0.201167
Si Si4 0.610217 0.309289 0.211909
O O1 0.500000 0.167204 0.890284
O O2 0.315076 0.271878 0.917444
O O3 0.370347 0.828366 0.865895
O O4 0.408411 0.000000 0.000000
O O5 0.852698 0.756375 0.120889
O O6 0.808276 0.500000 0.000000
O O7 0.794396 0.000000 0.000000
O O8 0.140553 0.589817 0.259339
O O9 0.000000 0.809243 0.199353
O O10 0.140540 0.092409 0.229253
O O11 0.500000 0.319014 0.213745
#
# Coordination Sequence:
#
# PCOD9418825 Si02
#       4
#     8   8   8   8
#     4   9  20  40  63  87 119 158 201 251 301 353
#     4  11  24  40  60  90 123 160 207 249 299 366
#     4  10  21  39  62  90 123 156 197 249 299 356
#     4   9  19  37  62  89 117 154 198 243 299 360
#
# _framework density 23.243682
#
# number of rings (size 3 to 8) (size 9 to 14) (size 15 to 20)
#    0.000    2.250    0.000    1.500    0.000    6.500 
#    0.000   10.000    0.000    0.000    0.000    0.000 
#    0.000    0.000    0.000    0.000    0.000    0.000 
#
# Total GULP energy -178943.882852 kJ/mol
# GULP energy per Si atom -5591.996339 kJ/mol
# Density = 2.319078 g / cm^3
# Si number density = 23.243682 Si / 1000 Ang^3
#
#
#
# Elastic Constant Matrix: (Units=GPa)
#
#
# Indices 1 2 3 4 5 6 
#
# 1 66.0739 -9.2136 28.8978 0.0000 0.0000 0.0000
# 2 -9.2136 93.9584 36.6410 0.0000 0.0000 0.0000
# 3 28.8978 36.6410 152.9132 0.0000 0.0000 0.0000
# 4 0.0000 0.0000 0.0000 26.6301 0.0000 0.0000
# 5 0.0000 0.0000 0.0000 0.0000 29.7130 0.0000
# 6 0.0000 0.0000 0.0000 0.0000 0.0000 8.6833
#
#
#
# Elastic Compliance Matrix: (Units=1/GPa)
#
#
# Indices 1 2 3 4 5 6 
#
# 1 0.017375 0.003292 -0.004072 0.000000 0.000000 0.000000
# 2 0.003292 0.012364 -0.003585 0.000000 0.000000 0.000000
# 3 -0.004072 -0.003585 0.008168 0.000000 0.000000 0.000000
# 4 0.000000 0.000000 0.000000 0.037551 0.000000 0.000000
# 5 0.000000 0.000000 0.000000 0.000000 0.033655 0.000000
# 6 0.000000 0.000000 0.000000 0.000000 0.000000 0.115164
#
#
# Mechanical properties :
#
#
# Convention : Reuss Voigt Hill
#
# Bulk Modulus (GPa) = 34.27440 47.28842 40.78141
# Shear Modulus (GPa) = 20.59881 30.11330 25.35605
#
# Velocity S-wave (km/s) = 2.98016 3.60328 3.30643
# Velocity P-wave (km/s) = 5.15941 6.14005 5.67097
#
# Compressibility (1/GPa) = 0.02917629
#
# Stress axis : x y z
#
# Youngs Moduli (GPa) = 57.55520 80.88176 122.42599
#
# Poissons Ratio (x) = -0.26625 0.49855
# Poissons Ratio (y) = -0.18946 0.43886
# Poissons Ratio (z) = 0.23438 0.28994
#
# Static dielectric constant tensor:
#      x y z
#    x 1.910960 0.000000 0.000000 
#    y 0.000000 1.891880 0.000000 
#    z 0.000000 0.000000 1.880360 
# 
# From -- ./inp_files/27835.got.cif
#   From: 2010.05.17/outbox.cif.g08.bks.cpg/sg53_14_cif.got.tgz:27835.got - 2010.06.03 12:45:16.
