data_PCOD9418991
_publ_section_title
;
Structure prediction by ZEFSAII (Michael W. Deem and Ramdas Pophale) SiO2 
 PCOD9418991
Probable space group: P M N A
;
_chemical_formula_sum "Si O2"
_cell_formula_units_Z 56
_cell_length_a 14.083202
_cell_length_b 11.942620
_cell_length_c 15.574866
_cell_angle_alpha 90.000000
_cell_angle_beta 90.000000
_cell_angle_gamma 90.000000
_cell_volume 2619.541850
_symmetry_space_group_name_H-M "P M N A"
_symmetry_group_IT_number 53
_symmetry_cell_setting 'orthorhombic'
loop_
_space_group_symop_operation_xyz
x,y,z
1/2-x,-y,1/2+z
x,-y,-z
1/2-x,y,1/2-z
-x,-y,-z
1/2+x,y,1/2-z
-x,y,z
1/2+x,-y,1/2+z
loop_
_atom_site_type_symbol
_atom_site_label
_atom_site_fract_x
_atom_site_fract_y
_atom_site_fract_z
Si Si1 0.275105 0.234394 0.660543
Si Si2 0.394843 0.152140 0.439616
Si Si3 0.885385 0.182778 0.336657
Si Si4 0.608374 0.981642 0.279776
Si Si5 0.386688 0.351098 0.308187
Si Si6 0.193413 0.873236 0.487105
Si Si7 0.885735 0.439695 0.909089
O O1 0.250000 0.293479 0.750000
O O2 0.334416 0.127193 0.693696
O O3 0.186653 0.185980 0.604878
O O4 0.333855 0.322304 0.603823
O O5 0.500000 0.152205 0.480161
O O6 0.377851 0.268722 0.390172
O O7 0.307250 0.124746 0.499431
O O8 0.395090 0.062324 0.362717
O O9 0.852056 0.283541 0.275194
O O10 0.849635 0.193653 0.433069
O O11 0.000000 0.179598 0.333891
O O12 0.852543 0.063827 0.295389
O O13 0.500000 0.951309 0.257327
O O14 0.500000 0.362814 0.295089
O O15 0.352305 0.472444 0.336036
O O16 0.157285 0.000000 0.500000
O O17 0.000000 0.424049 0.903686
O O18 0.866794 0.500000 0.000000
#
# Coordination Sequence:
#
# PCOD9418991 Si02
#       7
#     8   8   8   8   8   8   8
#     4  12  25  40  54  84 127 158 194 244 304 371
#     4   9  18  33  56  91 124 149 187 241 301 360
#     4   9  20  39  63  91 119 157 211 253 290 350
#     4   9  18  35  60  88 122 160 193 239 298 357
#     4   8  16  35  62  88 113 148 195 245 300 352
#     4  12  23  36  57  89 123 164 202 247 301 358
#     4  10  21  41  66  87 115 154 198 251 306 363
#
# _framework density 21.377783999999998
#
# number of rings (size 3 to 8) (size 9 to 14) (size 15 to 20)
#    0.000    2.143    1.429    3.857    0.000    4.571 
#    5.143    1.429    0.000    0.000    0.000    3.000 
#    0.000    0.000    0.000    0.000    0.000    0.000 
#
# Total GULP energy -312817.783535 kJ/mol
# GULP energy per Si atom -5586.031849 kJ/mol
# Density = 2.132913 g / cm^3
# Si number density = 21.377784 Si / 1000 Ang^3
#
#
#
# Elastic Constant Matrix: (Units=GPa)
#
#
# Indices 1 2 3 4 5 6 
#
# 1 38.3025 13.8871 11.9335 0.0000 0.0000 0.0000
# 2 13.8871 132.8507 40.2245 0.0000 0.0000 0.0000
# 3 11.9335 40.2245 116.6847 0.0000 0.0000 0.0000
# 4 0.0000 0.0000 0.0000 26.3408 0.0000 0.0000
# 5 0.0000 0.0000 0.0000 0.0000 23.8873 0.0000
# 6 0.0000 0.0000 0.0000 0.0000 0.0000 15.4682
#
#
#
# Elastic Compliance Matrix: (Units=1/GPa)
#
#
# Indices 1 2 3 4 5 6 
#
# 1 0.027564 -0.002264 -0.002038 0.000000 0.000000 0.000000
# 2 -0.002264 0.008590 -0.002730 0.000000 0.000000 0.000000
# 3 -0.002038 -0.002730 0.009720 0.000000 0.000000 0.000000
# 4 0.000000 0.000000 0.000000 0.037964 0.000000 0.000000
# 5 0.000000 0.000000 0.000000 0.000000 0.041863 0.000000
# 6 0.000000 0.000000 0.000000 0.000000 0.000000 0.064649
#
#
# Mechanical properties :
#
#
# Convention : Reuss Voigt Hill
#
# Bulk Modulus (GPa) = 31.43746 46.65867 39.04806
# Shear Modulus (GPa) = 23.25389 27.92546 25.58968
#
# Velocity S-wave (km/s) = 3.30170 3.61818 3.46355
# Velocity P-wave (km/s) = 5.41041 6.27121 5.85665
#
# Compressibility (1/GPa) = 0.03180919
#
# Stress axis : x y z
#
# Youngs Moduli (GPa) = 36.27932 116.40834 102.88466
#
# Poissons Ratio (x) = 0.26356 0.20973
# Poissons Ratio (y) = 0.08214 0.28086
# Poissons Ratio (z) = 0.07396 0.31777
#
# Static dielectric constant tensor:
#      x y z
#    x 1.801150 0.000000 0.000000 
#    y 0.000000 1.769410 0.000000 
#    z 0.000000 0.000000 1.842260 
# 
# From -- ./inp_files/22858.got.cif
#   From: 2010.05.17/outbox.cif.g08.bks.cpg/sg53_12_cif.got.tgz:22858.got - 2010.06.03 12:45:16.
