data_PCOD9418481
_publ_section_title
;
Structure prediction by ZEFSAII (Michael W. Deem and Ramdas Pophale) SiO2 
 PCOD9418481
Probable space group: P M N A
;
_chemical_formula_sum "Si O2"
_cell_formula_units_Z 48
_cell_length_a 17.580334
_cell_length_b 13.416725
_cell_length_c 9.014250
_cell_angle_alpha 90.000000
_cell_angle_beta 90.000000
_cell_angle_gamma 90.000000
_cell_volume 2126.195715
_symmetry_space_group_name_H-M "P M N A"
_symmetry_group_IT_number 53
_symmetry_cell_setting 'orthorhombic'
loop_
_space_group_symop_operation_xyz
x,y,z
1/2-x,-y,1/2+z
x,-y,-z
1/2-x,y,1/2-z
-x,-y,-z
1/2+x,y,1/2-z
-x,y,z
1/2+x,-y,1/2+z
loop_
_atom_site_type_symbol
_atom_site_label
_atom_site_fract_x
_atom_site_fract_y
_atom_site_fract_z
Si Si1 0.086727 0.437182 0.801584
Si Si2 0.000000 0.991035 0.677610
Si Si3 0.199033 0.717593 0.033375
Si Si4 0.586002 0.327458 0.295605
Si Si5 0.000000 0.119165 0.041606
Si Si6 0.877185 0.685800 0.459212
Si Si7 0.614437 0.850832 0.289707
O O1 0.148810 0.367388 0.881930
O O2 0.097426 0.554226 0.823076
O O3 0.096022 0.411551 0.628555
O O4 0.000000 0.411947 0.846167
O O5 0.078486 0.047312 0.728131
O O6 0.000000 0.000000 0.500000
O O7 0.000000 0.891268 0.779396
O O8 0.286095 0.686326 0.024105
O O9 0.193765 0.817135 0.135909
O O10 0.157511 0.724589 0.874882
O O11 0.500000 0.303961 0.350599
O O12 0.588629 0.306453 0.121230
O O13 0.067863 0.162908 0.943173
O O14 0.000000 0.000000 0.000000
O O15 0.899984 0.774769 0.345856
#
# Coordination Sequence:
#
# PCOD9418481 Si02
#       7
#     8   4   8   8   4   8   8
#     4  10  21  37  56  80 117 165 223 274 316 361
#     4  10  22  40  68 102 126 147 193 240 291 369
#     4  11  23  37  58  85 122 169 214 252 318 378
#     4  11  24  36  54  84 121 165 222 280 316 357
#     4   8  18  36  62  94 120 151 191 230 289 363
#     4  11  23  37  58  87 122 168 213 261 317 368
#     4   9  20  37  61  88 123 156 190 247 293 362
#
# _framework density 22.575531999999999
#
# number of rings (size 3 to 8) (size 9 to 14) (size 15 to 20)
#    0.000    2.000    0.000    4.500   14.000    8.000 
#    0.000    0.000    0.000   12.000    0.000    0.000 
#    0.000    0.000    0.000    0.000    0.000    0.000 
#
# Total GULP energy -267381.743686 kJ/mol
# GULP energy per Si atom -5570.452993 kJ/mol
# Density = 2.252415 g / cm^3
# Si number density = 22.575532 Si / 1000 Ang^3
#
#
#
# Elastic Constant Matrix: (Units=GPa)
#
#
# Indices 1 2 3 4 5 6 
#
# 1 125.4061 14.8992 39.1405 0.0000 0.0000 0.0000
# 2 14.8992 50.2324 23.7155 0.0000 0.0000 0.0000
# 3 39.1405 23.7155 181.2722 0.0000 0.0000 0.0000
# 4 0.0000 0.0000 0.0000 33.3922 0.0000 0.0000
# 5 0.0000 0.0000 0.0000 0.0000 9.5523 0.0000
# 6 0.0000 0.0000 0.0000 0.0000 0.0000 -1.7460
#
#
#
# Elastic Compliance Matrix: (Units=1/GPa)
#
#
# Indices 1 2 3 4 5 6 
#
# 1 0.008701 -0.001805 -0.001643 0.000000 0.000000 0.000000
# 2 -0.001805 0.021593 -0.002435 0.000000 0.000000 0.000000
# 3 -0.001643 -0.002435 0.006190 0.000000 0.000000 0.000000
# 4 0.000000 0.000000 0.000000 0.029947 0.000000 0.000000
# 5 0.000000 0.000000 0.000000 0.000000 0.104687 0.000000
# 6 0.000000 0.000000 0.000000 0.000000 0.000000 -0.572723
#
#
# Mechanical properties :
#
#
# Convention : Reuss Voigt Hill
#
# Bulk Modulus (GPa) = 40.45703 56.93568 48.69636
# Shear Modulus (GPa) = -13.10273 26.85005 6.87366
#
# Velocity S-wave (km/s) = -2.41175 3.45243 1.74681
# Velocity P-wave (km/s) = 3.19441 6.41616 5.06811
#
# Compressibility (1/GPa) = 0.02471758
#
# Stress axis : x y z
#
# Youngs Moduli (GPa) = 114.92601 46.31212 161.55561
#
# Poissons Ratio (x) = 0.08361 0.26537
# Poissons Ratio (y) = 0.20748 0.39341
# Poissons Ratio (z) = 0.18878 0.11278
#
# Static dielectric constant tensor:
#      x y z
#    x 1.867770 0.000000 0.000000 
#    y 0.000000 1.969820 0.000000 
#    z 0.000000 0.000000 1.899170 
# 
# From -- ./inp_files/10057.got.cif
#   From: 2010.05.17/outbox.cif.g08.bks.cpg/sg53_6_cif.got.tgz:10057.got - 2010.06.03 12:45:16.
