data_PCOD9418281
_publ_section_title
;
Structure prediction by ZEFSAII (Michael W. Deem and Ramdas Pophale) SiO2 
 PCOD9418281
Probable space group: P M N A
;
_chemical_formula_sum "Si O2"
_cell_formula_units_Z 48
_cell_length_a 7.571115
_cell_length_b 32.425906
_cell_length_c 9.222539
_cell_angle_alpha 90.000000
_cell_angle_beta 90.000000
_cell_angle_gamma 90.000000
_cell_volume 2264.135753
_symmetry_space_group_name_H-M "P M N A"
_symmetry_group_IT_number 53
_symmetry_cell_setting 'orthorhombic'
loop_
_space_group_symop_operation_xyz
x,y,z
1/2-x,-y,1/2+z
x,-y,-z
1/2-x,y,1/2-z
-x,-y,-z
1/2+x,y,1/2-z
-x,y,z
1/2+x,-y,1/2+z
loop_
_atom_site_type_symbol
_atom_site_label
_atom_site_fract_x
_atom_site_fract_y
_atom_site_fract_z
Si Si1 0.212126 0.376541 0.420370
Si Si2 0.712140 0.705440 0.080334
Si Si3 0.212058 0.959149 0.419405
Si Si4 0.212088 0.213462 0.419988
Si Si5 0.787979 0.121912 0.419838
Si Si6 0.287838 0.541179 0.079392
O O1 0.250000 0.378056 0.250000
O O2 0.279771 0.334452 0.493415
O O3 0.279719 0.417256 0.502586
O O4 0.000000 0.376327 0.437349
O O5 0.750000 0.701874 0.250000
O O6 0.500000 0.706031 0.062439
O O7 0.780654 0.748379 0.013791
O O8 0.250000 0.961277 0.250000
O O9 0.280988 0.916610 0.488588
O O10 0.000000 0.958742 0.438898
O O11 0.280206 0.000000 0.500000
O O12 0.250000 0.220378 0.250000
O O13 0.279920 0.167679 0.459209
O O14 0.000000 0.212330 0.436435
O O15 0.750000 0.115292 0.250000
O O16 0.000000 0.123036 0.437150
O O17 0.250000 0.540754 0.250000
O O18 0.500000 0.541237 0.062747
O O19 0.220327 0.500000 0.000000
#
# Coordination Sequence:
#
# PCOD9418281 Si02
#       6
#     8   8   8   8   8   8
#     4  10  21  36  54  77 103 132 169 210 251 298
#     4  10  21  35  51  74 103 133 167 207 249 295
#     4  10  21  35  51  73 100 129 163 203 245 291
#     4   9  18  33  52  74 100 130 165 204 245 292
#     4   9  18  33  52  74 100 129 163 203 245 291
#     4  10  21  36  54  78 106 135 170 209 249 297
#
# _framework density 21.200143000000001
#
# number of rings (size 3 to 8) (size 9 to 14) (size 15 to 20)
#    0.000    2.333    0.000    2.000    0.000    4.000 
#    0.000    0.000    0.000    0.000    0.000    0.000 
#    0.000    0.000    0.000    0.000    0.000    0.000 
#
# Total GULP energy -268144.982851 kJ/mol
# GULP energy per Si atom -5586.353809 kJ/mol
# Density = 2.115189 g / cm^3
# Si number density = 21.200143 Si / 1000 Ang^3
#
#
#
# Elastic Constant Matrix: (Units=GPa)
#
#
# Indices 1 2 3 4 5 6 
#
# 1 49.4806 13.8590 -11.3188 0.0000 0.0000 0.0000
# 2 13.8590 258.3158 153.7049 0.0000 0.0000 0.0000
# 3 -11.3188 153.7049 173.5413 0.0000 0.0000 0.0000
# 4 0.0000 0.0000 0.0000 68.1345 0.0000 0.0000
# 5 0.0000 0.0000 0.0000 0.0000 31.3826 0.0000
# 6 0.0000 0.0000 0.0000 0.0000 0.0000 -3.0433
#
#
#
# Elastic Compliance Matrix: (Units=1/GPa)
#
#
# Indices 1 2 3 4 5 6 
#
# 1 0.022689 -0.004435 0.005408 0.000000 0.000000 0.000000
# 2 -0.004435 0.009052 -0.008306 0.000000 0.000000 0.000000
# 3 0.005408 -0.008306 0.013472 0.000000 0.000000 0.000000
# 4 0.000000 0.000000 0.000000 0.014677 0.000000 0.000000
# 5 0.000000 0.000000 0.000000 0.000000 0.031865 0.000000
# 6 0.000000 0.000000 0.000000 0.000000 0.000000 -0.328587
#
#
# Mechanical properties :
#
#
# Convention : Reuss Voigt Hill
#
# Bulk Modulus (GPa) = 32.73734 88.20311 60.47022
# Shear Modulus (GPa) = -23.58674 40.96760 8.69043
#
# Velocity S-wave (km/s) = -3.33915 4.40070 2.02685
# Velocity P-wave (km/s) = 0.78040 8.21686 5.83635
#
# Compressibility (1/GPa) = 0.03054616
#
# Stress axis : x y z
#
# Youngs Moduli (GPa) = 44.07339 110.47663 74.22832
#
# Poissons Ratio (x) = 0.49001 -0.40145
# Poissons Ratio (y) = 0.19548 0.61657
# Poissons Ratio (z) = -0.23836 0.91766
#
# Static dielectric constant tensor:
#      x y z
#    x 1.772990 0.000000 0.000000 
#    y 0.000000 1.789800 0.000000 
#    z 0.000000 0.000000 1.680760 
# 
# From -- ./inp_files/6633.got.cif
#   From: 2010.05.17/outbox.cif.g08.bks.cpg/sg53_4_cif.got.tgz:6633.got - 2010.06.03 12:45:16.
