data_PCOD9418836
_publ_section_title
;
Structure prediction by ZEFSAII (Michael W. Deem and Ramdas Pophale) SiO2 
 PCOD9418836
Probable space group: P M N A
;
_chemical_formula_sum "Si O2"
_cell_formula_units_Z 40
_cell_length_a 8.612771
_cell_length_b 10.184316
_cell_length_c 23.136202
_cell_angle_alpha 90.000000
_cell_angle_beta 90.000000
_cell_angle_gamma 90.000000
_cell_volume 2029.396158
_symmetry_space_group_name_H-M "P M N A"
_symmetry_group_IT_number 53
_symmetry_cell_setting 'orthorhombic'
loop_
_space_group_symop_operation_xyz
x,y,z
1/2-x,-y,1/2+z
x,-y,-z
1/2-x,y,1/2-z
-x,-y,-z
1/2+x,y,1/2-z
-x,y,z
1/2+x,-y,1/2+z
loop_
_atom_site_type_symbol
_atom_site_label
_atom_site_fract_x
_atom_site_fract_y
_atom_site_fract_z
Si Si1 0.186078 0.493859 0.186589
Si Si2 0.687461 0.149756 0.985122
Si Si3 0.313836 0.054149 0.311638
Si Si4 0.314336 0.729473 0.895891
Si Si5 0.686827 0.224494 0.640020
O O1 0.250000 0.459406 0.250000
O O2 0.240313 0.392109 0.137785
O O3 0.240988 0.639523 0.168152
O O4 0.000000 0.492369 0.189449
O O5 0.500000 0.147529 0.982215
O O6 0.751424 0.199274 0.924323
O O7 0.733356 0.245394 0.037837
O O8 0.738035 0.000000 0.000000
O O9 0.250000 0.098530 0.250000
O O10 0.500000 0.067472 0.313669
O O11 0.237532 0.141354 0.361161
O O12 0.269964 0.902742 0.322446
O O13 0.500000 0.716978 0.894027
O O14 0.500000 0.229119 0.637444
#
# Coordination Sequence:
#
# PCOD9418836 Si02
#       5
#     8   8   8   8   8
#     4  11  24  43  63  89 124 162 204 250 303 361
#     4  10  21  39  63  91 123 159 202 251 300 356
#     4  11  22  37  59  88 118 155 201 250 302 357
#     4  11  23  40  62  89 121 160 202 248 302 357
#     4  10  23  40  62  90 121 159 201 248 304 359
#
# _framework density 19.710296
#
# number of rings (size 3 to 8) (size 9 to 14) (size 15 to 20)
#    0.000    1.400    2.000    3.000    0.000    5.200 
#    0.000    4.000    0.000    0.000    0.000    0.000 
#    0.000    0.000    0.000    0.000    0.000    0.000 
#
# Total GULP energy -223618.088010 kJ/mol
# GULP energy per Si atom -5590.452200 kJ/mol
# Density = 1.966543 g / cm^3
# Si number density = 19.710296 Si / 1000 Ang^3
#
#
#
# Elastic Constant Matrix: (Units=GPa)
#
#
# Indices 1 2 3 4 5 6 
#
# 1 21.6086 4.3892 4.2530 0.0000 0.0000 0.0000
# 2 4.3892 66.1438 -11.3459 0.0000 0.0000 0.0000
# 3 4.2530 -11.3459 85.7828 0.0000 0.0000 0.0000
# 4 0.0000 0.0000 0.0000 33.3194 0.0000 0.0000
# 5 0.0000 0.0000 0.0000 0.0000 33.3194 0.0000
# 6 0.0000 0.0000 0.0000 0.0000 0.0000 -146.8206
#
#
#
# Elastic Compliance Matrix: (Units=1/GPa)
#
#
# Indices 1 2 3 4 5 6 
#
# 1 0.047577 -0.003644 -0.002841 0.000000 0.000000 0.000000
# 2 -0.003644 0.015749 0.002264 0.000000 0.000000 0.000000
# 3 -0.002841 0.002264 0.012098 0.000000 0.000000 0.000000
# 4 0.000000 0.000000 0.000000 0.030013 0.000000 0.000000
# 5 0.000000 0.000000 0.000000 0.000000 0.030013 0.000000
# 6 0.000000 0.000000 0.000000 0.000000 0.000000 -0.006811
#
#
# Mechanical properties :
#
#
# Convention : Reuss Voigt Hill
#
# Bulk Modulus (GPa) = 14.92975 18.68086 16.80531
# Shear Modulus (GPa) = 31.36615 -4.28709 13.53953
#
# Velocity S-wave (km/s) = 3.99351 -1.47641 2.62377
# Velocity P-wave (km/s) = 5.37171 2.56747 4.20994
#
# Compressibility (1/GPa) = 0.06698034
#
# Stress axis : x y z
#
# Youngs Moduli (GPa) = 21.01847 63.49726 82.66112
#
# Poissons Ratio (x) = 0.23141 0.23482
# Poissons Ratio (y) = 0.07660 -0.18712
# Poissons Ratio (z) = 0.05971 -0.14374
#
# Static dielectric constant tensor:
#      x y z
#    x 1.668030 0.000000 0.000000 
#    y 0.000000 1.702130 0.000000 
#    z 0.000000 0.000000 1.653800 
# 
# From -- ./inp_files/33629.got.cif
#   From: 2010.05.17/outbox.cif.g08.bks.cpg/sg53_17_cif.got.tgz:33629.got - 2010.06.03 12:45:16.
