data_PCOD9418558
_publ_section_title
;
Structure prediction by ZEFSAII (Michael W. Deem and Ramdas Pophale) SiO2 
 PCOD9418558
Probable space group: P M N A
;
_chemical_formula_sum "Si O2"
_cell_formula_units_Z 48
_cell_length_a 13.416589
_cell_length_b 5.459622
_cell_length_c 27.859622
_cell_angle_alpha 90.000000
_cell_angle_beta 90.000000
_cell_angle_gamma 90.000000
_cell_volume 2040.703506
_symmetry_space_group_name_H-M "P M N A"
_symmetry_group_IT_number 53
_symmetry_cell_setting 'orthorhombic'
loop_
_space_group_symop_operation_xyz
x,y,z
1/2-x,-y,1/2+z
x,-y,-z
1/2-x,y,1/2-z
-x,-y,-z
1/2+x,y,1/2-z
-x,y,z
1/2+x,-y,1/2+z
loop_
_atom_site_type_symbol
_atom_site_label
_atom_site_fract_x
_atom_site_fract_y
_atom_site_fract_z
Si Si1 0.880137 0.750000 0.259818
Si Si2 0.817117 0.250000 0.999671
Si Si3 0.119379 0.750000 0.685991
Si Si4 0.781259 0.750000 0.890963
Si Si5 0.105514 0.750000 0.469968
Si Si6 0.119588 0.250000 0.852664
O O1 0.850642 0.497044 0.285681
O O2 0.853730 0.750000 0.203899
O O3 0.000000 0.750000 0.261494
O O4 0.850642 0.002956 0.285681
O O5 0.768101 0.250000 0.052344
O O6 0.876439 0.500000 0.000000
O O7 0.726149 0.250000 0.960647
O O8 0.876439 0.000000 0.000000
O O9 0.175230 0.750000 0.635506
O O10 0.000000 0.750000 0.680571
O O11 0.838698 0.502962 0.874779
O O12 0.838698 0.997038 0.874779
O O13 0.097996 0.500000 0.500000
O O14 0.000000 0.750000 0.439400
O O15 0.097996 0.000000 0.500000
O O16 0.000000 0.250000 0.857467
#
# Coordination Sequence:
#
# PCOD9418558 Si02
#       6
#     8   8   8   8   8   8
#     4   9  19  37  59  85 125 169 196 233 292 347
#     4  10  21  38  57  79 112 150 192 244 301 359
#     4  10  21  37  58  92 133 163 195 234 281 356
#     4  12  24  38  64  92 116 159 202 247 309 350
#     4   8  14  26  46  71  98 133 176 218 264 327
#     4  11  24  42  63  89 120 154 203 256 297 352
#
# _framework density 23.521301000000001
#
# number of rings (size 3 to 8) (size 9 to 14) (size 15 to 20)
#    0.000    2.000    0.000    3.500    0.000    7.333 
#    0.000    0.000    0.000   20.000    0.000    0.000 
#    0.000    0.000    0.000    0.000    0.000    0.000 
#
# Total GULP energy -267585.630546 kJ/mol
# GULP energy per Si atom -5574.700636 kJ/mol
# Density = 2.346777 g / cm^3
# Si number density = 23.521301 Si / 1000 Ang^3
#
#
#
# Elastic Constant Matrix: (Units=GPa)
#
#
# Indices 1 2 3 4 5 6 
#
# 1 123.2116 40.1638 17.9134 0.0000 0.0000 0.0000
# 2 40.1638 242.2279 21.4618 0.0000 0.0000 0.0000
# 3 17.9134 21.4618 88.4441 0.0000 0.0000 0.0000
# 4 0.0000 0.0000 0.0000 17.5426 0.0000 0.0000
# 5 0.0000 0.0000 0.0000 0.0000 29.2028 0.0000
# 6 0.0000 0.0000 0.0000 0.0000 0.0000 24.8253
#
#
#
# Elastic Compliance Matrix: (Units=1/GPa)
#
#
# Indices 1 2 3 4 5 6 
#
# 1 0.008759 -0.001324 -0.001453 0.000000 0.000000 0.000000
# 2 -0.001324 0.004419 -0.000804 0.000000 0.000000 0.000000
# 3 -0.001453 -0.000804 0.011796 0.000000 0.000000 0.000000
# 4 0.000000 0.000000 0.000000 0.057004 0.000000 0.000000
# 5 0.000000 0.000000 0.000000 0.000000 0.034243 0.000000
# 6 0.000000 0.000000 0.000000 0.000000 0.000000 0.040281
#
#
# Mechanical properties :
#
#
# Convention : Reuss Voigt Hill
#
# Bulk Modulus (GPa) = 56.14017 68.10685 62.12351
# Shear Modulus (GPa) = 29.48088 39.27045 34.37566
#
# Velocity S-wave (km/s) = 3.54414 4.09047 3.82706
# Velocity P-wave (km/s) = 6.37711 7.16432 6.78215
#
# Compressibility (1/GPa) = 0.01781256
#
# Stress axis : x y z
#
# Youngs Moduli (GPa) = 114.17100 226.29223 84.77454
#
# Poissons Ratio (x) = 0.29951 0.12316
# Poissons Ratio (y) = 0.15111 0.06818
# Poissons Ratio (z) = 0.16587 0.18200
#
# Static dielectric constant tensor:
#      x y z
#    x 1.919010 0.000000 0.000000 
#    y 0.000000 1.943550 0.000000 
#    z 0.000000 0.000000 1.881780 
# 
# From -- ./inp_files/36998.got.cif
#   From: 2010.05.17/outbox.cif.g08.bks.cpg/sg53_19_cif.got.tgz:36998.got - 2010.06.03 12:45:16.
