data_PCOD9418777
_publ_section_title
;
Structure prediction by ZEFSAII (Michael W. Deem and Ramdas Pophale) SiO2 
 PCOD9418777
Probable space group: P M N A
;
_chemical_formula_sum "Si O2"
_cell_formula_units_Z 40
_cell_length_a 13.862327
_cell_length_b 14.626053
_cell_length_c 7.828971
_cell_angle_alpha 90.000000
_cell_angle_beta 90.000000
_cell_angle_gamma 90.000000
_cell_volume 1587.332712
_symmetry_space_group_name_H-M "P M N A"
_symmetry_group_IT_number 53
_symmetry_cell_setting 'orthorhombic'
loop_
_space_group_symop_operation_xyz
x,y,z
1/2-x,-y,1/2+z
x,-y,-z
1/2-x,y,1/2-z
-x,-y,-z
1/2+x,y,1/2-z
-x,y,z
1/2+x,-y,1/2+z
loop_
_atom_site_type_symbol
_atom_site_label
_atom_site_fract_x
_atom_site_fract_y
_atom_site_fract_z
Si Si1 0.000000 0.149265 0.930942
Si Si2 0.000000 0.953933 0.739719
Si Si3 0.702409 0.910064 0.923625
Si Si4 0.892067 0.229370 0.661434
Si Si5 0.107657 0.603670 0.918995
Si Si6 0.674916 0.607343 0.970139
O O1 0.093156 0.201497 0.857141
O O2 0.000000 0.050635 0.837247
O O3 0.000000 0.129598 0.127443
O O4 0.901752 0.945614 0.637761
O O5 0.750000 0.874802 0.750000
O O6 0.683202 0.833663 0.063994
O O7 0.755502 0.000000 0.000000
O O8 0.874549 0.334161 0.618161
O O9 0.000000 0.207569 0.590756
O O10 0.121872 0.615363 0.713037
O O11 0.213293 0.638636 0.974322
O O12 0.000000 0.640514 0.960584
O O13 0.106283 0.500000 0.000000
O O14 0.673938 0.500000 0.000000
#
# Coordination Sequence:
#
# PCOD9418777 Si02
#       6
#     4   4   8   8   8   8
#     4   9  21  38  76  97 130 175 230 290 347 423
#     4  11  20  47  72  94 134 179 227 292 356 410
#     4  12  25  41  70 103 134 179 223 283 352 430
#     4  10  21  42  65  98 136 177 236 286 353 435
#     4   9  19  37  62  93 129 177 241 296 352 421
#     4  10  21  38  67  93 133 189 234 290 356 414
#
# _framework density 25.199506
#
# number of rings (size 3 to 8) (size 9 to 14) (size 15 to 20)
#    0.600    1.200    3.000    0.900    5.600    1.600 
#    0.000    2.000   17.600    0.000    0.000    0.000 
#    0.000    0.000    0.000    0.000    0.000    0.000 
#
# Total GULP energy -223503.138929 kJ/mol
# GULP energy per Si atom -5587.578473 kJ/mol
# Density = 2.514215 g / cm^3
# Si number density = 25.199506 Si / 1000 Ang^3
#
#
#
# Elastic Constant Matrix: (Units=GPa)
#
#
# Indices 1 2 3 4 5 6 
#
# 1 126.6219 17.7462 28.6057 0.0000 0.0000 0.0000
# 2 17.7462 110.8335 43.8234 0.0000 0.0000 0.0000
# 3 28.6057 43.8234 112.2355 0.0000 0.0000 0.0000
# 4 0.0000 0.0000 0.0000 46.2706 0.0000 0.0000
# 5 0.0000 0.0000 0.0000 0.0000 37.7392 0.0000
# 6 0.0000 0.0000 0.0000 0.0000 0.0000 -171.4853
#
#
#
# Elastic Compliance Matrix: (Units=1/GPa)
#
#
# Indices 1 2 3 4 5 6 
#
# 1 0.008413 -0.000590 -0.001914 0.000000 0.000000 0.000000
# 2 -0.000590 0.010711 -0.004032 0.000000 0.000000 0.000000
# 3 -0.001914 -0.004032 0.010972 0.000000 0.000000 0.000000
# 4 0.000000 0.000000 0.000000 0.021612 0.000000 0.000000
# 5 0.000000 0.000000 0.000000 0.000000 0.026498 0.000000
# 6 0.000000 0.000000 0.000000 0.000000 0.000000 -0.005831
#
#
# Mechanical properties :
#
#
# Convention : Reuss Voigt Hill
#
# Bulk Modulus (GPa) = 58.74048 58.89351 58.81700
# Shear Modulus (GPa) = 54.87255 -0.19406 27.33924
#
# Velocity S-wave (km/s) = 4.67146 -0.27781 3.29737
# Velocity P-wave (km/s) = 7.24275 4.82895 6.15533
#
# Compressibility (1/GPa) = 0.01702404
#
# Stress axis : x y z
#
# Youngs Moduli (GPa) = 118.86957 93.35973 91.14240
#
# Poissons Ratio (x) = 0.05511 0.17441
# Poissons Ratio (y) = 0.07017 0.36747
# Poissons Ratio (z) = 0.22747 0.37641
#
# Static dielectric constant tensor:
#      x y z
#    x 1.985200 0.000000 0.000000 
#    y 0.000000 1.968110 0.000000 
#    z 0.000000 0.000000 1.330030 
# 
# From -- ./inp_files/8444.got.cif
#   From: 2010.05.17/outbox.cif.g08.bks.cpg/sg53_5_cif.got.tgz:8444.got - 2010.06.03 12:45:16.
