data_PCOD9418015
_publ_section_title
;
Structure prediction by ZEFSAII (Michael W. Deem and Ramdas Pophale) SiO2 
 PCOD9418015
Probable space group: P M N A
;
_chemical_formula_sum "Si O2"
_cell_formula_units_Z 64
_cell_length_a 11.578513
_cell_length_b 14.113116
_cell_length_c 18.572152
_cell_angle_alpha 90.000000
_cell_angle_beta 90.000000
_cell_angle_gamma 90.000000
_cell_volume 3034.854875
_symmetry_space_group_name_H-M "P M N A"
_symmetry_group_IT_number 53
_symmetry_cell_setting 'orthorhombic'
loop_
_space_group_symop_operation_xyz
x,y,z
1/2-x,-y,1/2+z
x,-y,-z
1/2-x,y,1/2-z
-x,-y,-z
1/2+x,y,1/2-z
-x,y,z
1/2+x,-y,1/2+z
loop_
_atom_site_type_symbol
_atom_site_label
_atom_site_fract_x
_atom_site_fract_y
_atom_site_fract_z
Si Si1 0.634812 0.930737 0.435825
Si Si2 0.871357 0.656116 0.293319
Si Si3 0.626675 0.274985 0.078578
Si Si4 0.867048 0.848490 0.708906
Si Si5 0.123523 0.462123 0.918876
Si Si6 0.812870 0.556082 0.679035
Si Si7 0.250761 0.726584 0.431240
Si Si8 0.129074 0.055465 0.771047
O O1 0.500000 0.908336 0.451718
O O2 0.705175 0.833572 0.429278
O O3 0.637705 0.973548 0.355234
O O4 0.674932 0.000000 0.500000
O O5 0.750000 0.673599 0.250000
O O6 0.876155 0.541490 0.300505
O O7 0.846294 0.703216 0.371388
O O8 0.000000 0.685124 0.266483
O O9 0.500000 0.265651 0.046123
O O10 0.650814 0.182541 0.126548
O O11 0.626240 0.360319 0.136186
O O12 0.710421 0.292439 0.012606
O O13 0.750000 0.815330 0.750000
O O14 0.000000 0.814810 0.728924
O O15 0.870798 0.960701 0.723123
O O16 0.217963 0.517915 0.875787
O O17 0.150499 0.350871 0.915869
O O18 0.000000 0.481271 0.885442
O O19 0.124394 0.500000 0.000000
O O20 0.750000 0.593456 0.750000
O O21 0.250000 0.107171 0.750000
O O22 0.000000 0.099843 0.762679
#
# Coordination Sequence:
#
# PCOD9418015 Si02
#       8
#     8   8   8   8   8   8   8   8
#     4  10  23  42  64  93 128 168 215 270 327 388
#     4  10  23  42  67  94 129 174 224 275 327 383
#     4  11  22  37  58  89 133 171 210 259 318 392
#     4   9  19  35  58  87 121 162 202 250 306 370
#     4  10  20  38  60  89 129 171 217 264 314 379
#     4  10  21  37  60  93 130 170 217 262 321 382
#     4  11  23  39  64  93 127 170 217 267 325 389
#     4   9  19  38  64  91 120 159 207 256 314 381
#
# _framework density 21.088324
#
# number of rings (size 3 to 8) (size 9 to 14) (size 15 to 20)
#    0.000    2.000    1.250    1.500    3.500    6.000 
#    0.000    5.625    0.000    1.875    0.000    0.000 
#    0.000    0.000    0.000    0.000    0.000    0.000 
#
# Total GULP energy -356645.960983 kJ/mol
# GULP energy per Si atom -5572.593140 kJ/mol
# Density = 2.104033 g / cm^3
# Si number density = 21.088324 Si / 1000 Ang^3
#
#
#
# Elastic Constant Matrix: (Units=GPa)
#
#
# Indices 1 2 3 4 5 6 
#
# 1 145.5403 4.8935 27.0788 0.0000 0.0000 0.0000
# 2 4.8935 91.3798 20.5886 0.0000 0.0000 0.0000
# 3 27.0788 20.5886 79.8331 0.0000 0.0000 0.0000
# 4 0.0000 0.0000 0.0000 25.2474 0.0000 0.0000
# 5 0.0000 0.0000 0.0000 0.0000 6.9156 0.0000
# 6 0.0000 0.0000 0.0000 0.0000 0.0000 -42.1700
#
#
#
# Elastic Compliance Matrix: (Units=1/GPa)
#
#
# Indices 1 2 3 4 5 6 
#
# 1 0.007337 0.000178 -0.002534 0.000000 0.000000 0.000000
# 2 0.000178 0.011623 -0.003058 0.000000 0.000000 0.000000
# 3 -0.002534 -0.003058 0.014174 0.000000 0.000000 0.000000
# 4 0.000000 0.000000 0.000000 0.039608 0.000000 0.000000
# 5 0.000000 0.000000 0.000000 0.000000 0.144600 0.000000
# 6 0.000000 0.000000 0.000000 0.000000 0.000000 -0.023714
#
#
# Mechanical properties :
#
#
# Convention : Reuss Voigt Hill
#
# Bulk Modulus (GPa) = 44.83231 46.87500 45.85366
# Shear Modulus (GPa) = 23.59694 15.61141 19.60418
#
# Velocity S-wave (km/s) = 3.34871 2.72377 3.05228
# Velocity P-wave (km/s) = 6.02140 5.67169 5.84916
#
# Compressibility (1/GPa) = 0.02230534
#
# Stress axis : x y z
#
# Youngs Moduli (GPa) = 136.30457 86.03802 70.54964
#
# Poissons Ratio (x) = -0.01533 0.17880
# Poissons Ratio (y) = -0.02428 0.21573
# Poissons Ratio (z) = 0.34546 0.26309
#
# Static dielectric constant tensor:
#      x y z
#    x 1.790890 0.000000 0.000000 
#    y 0.000000 1.750110 0.000000 
#    z 0.000000 0.000000 1.782510 
# 
# From -- ./inp_files/27711.got.cif
#   From: 2010.05.17/outbox.cif.g08.bks.cpg/sg53_14_cif.got.tgz:27711.got - 2010.06.03 12:45:16.
