data_PCOD9418748
_publ_section_title
;
Structure prediction by ZEFSAII (Michael W. Deem and Ramdas Pophale) SiO2 
 PCOD9418748
Probable space group: P M N A
;
_chemical_formula_sum "Si O2"
_cell_formula_units_Z 36
_cell_length_a 14.466405
_cell_length_b 7.516881
_cell_length_c 16.476968
_cell_angle_alpha 90.000000
_cell_angle_beta 90.000000
_cell_angle_gamma 90.000000
_cell_volume 1791.742489
_symmetry_space_group_name_H-M "P M N A"
_symmetry_group_IT_number 53
_symmetry_cell_setting 'orthorhombic'
loop_
_space_group_symop_operation_xyz
x,y,z
1/2-x,-y,1/2+z
x,-y,-z
1/2-x,y,1/2-z
-x,-y,-z
1/2+x,y,1/2-z
-x,y,z
1/2+x,-y,1/2+z
loop_
_atom_site_type_symbol
_atom_site_label
_atom_site_fract_x
_atom_site_fract_y
_atom_site_fract_z
Si Si1 0.278774 0.849979 0.445862
Si Si2 0.892540 0.723763 0.209038
Si Si3 0.607522 0.011863 0.147829
Si Si4 0.610576 0.577213 0.830225
Si Si5 0.799712 0.500000 0.500000
O O1 0.333606 0.782375 0.367705
O O2 0.259197 0.678585 0.500220
O O3 0.327286 0.000000 0.500000
O O4 0.181874 0.935341 0.415096
O O5 0.858157 0.546075 0.255420
O O6 0.000000 0.698099 0.185978
O O7 0.888697 0.881511 0.275150
O O8 0.500000 0.012437 0.118368
O O9 0.633549 0.213667 0.172174
O O10 0.500000 0.564381 0.829135
O O11 0.643323 0.499319 0.916439
#
# Coordination Sequence:
#
# PCOD9418748 Si02
#       5
#     8   8   8   8   4
#     4  12  25  41  60  96 133 172 213 262 328 386
#     4  10  23  44  66  89 124 172 223 267 312 379
#     4  10  21  39  65  95 125 164 209 262 324 388
#     4  10  21  38  63  93 125 163 210 266 326 386
#     4  12  23  36  57  96 128 166 202 268 328 386
#
# _framework density 20.092174
#
# number of rings (size 3 to 8) (size 9 to 14) (size 15 to 20)
#    0.000    1.333    4.444    1.000    0.000    3.556 
#    4.000    0.556    0.000    0.000    0.000    0.000 
#    0.000    0.000    0.000    0.000    0.000    0.000 
#
# Total GULP energy -201134.732646 kJ/mol
# GULP energy per Si atom -5587.075907 kJ/mol
# Density = 2.004644 g / cm^3
# Si number density = 20.092174 Si / 1000 Ang^3
#
#
#
# Elastic Constant Matrix: (Units=GPa)
#
#
# Indices 1 2 3 4 5 6 
#
# 1 67.0588 33.0012 42.3232 0.0000 0.0000 0.0000
# 2 33.0012 152.2729 40.3401 0.0000 0.0000 0.0000
# 3 42.3232 40.3401 98.0591 0.0000 0.0000 0.0000
# 4 0.0000 0.0000 0.0000 35.8290 0.0000 0.0000
# 5 0.0000 0.0000 0.0000 0.0000 7.8363 0.0000
# 6 0.0000 0.0000 0.0000 0.0000 0.0000 -10.7906
#
#
#
# Elastic Compliance Matrix: (Units=1/GPa)
#
#
# Indices 1 2 3 4 5 6 
#
# 1 0.021276 -0.002445 -0.008177 0.000000 0.000000 0.000000
# 2 -0.002445 0.007651 -0.002092 0.000000 0.000000 0.000000
# 3 -0.008177 -0.002092 0.014588 0.000000 0.000000 0.000000
# 4 0.000000 0.000000 0.000000 0.027910 0.000000 0.000000
# 5 0.000000 0.000000 0.000000 0.000000 0.127611 0.000000
# 6 0.000000 0.000000 0.000000 0.000000 0.000000 -0.092673
#
#
# Mechanical properties :
#
#
# Convention : Reuss Voigt Hill
#
# Bulk Modulus (GPa) = 55.28908 60.96884 58.12896
# Shear Modulus (GPa) = 36.27869 20.02335 28.15102
#
# Velocity S-wave (km/s) = 4.25386 3.16028 3.74718
# Velocity P-wave (km/s) = 7.19059 6.61264 6.90766
#
# Compressibility (1/GPa) = 0.01808675
#
# Stress axis : x y z
#
# Youngs Moduli (GPa) = 47.00027 130.69619 68.54863
#
# Poissons Ratio (x) = 0.31952 0.56055
# Poissons Ratio (y) = 0.11490 0.14344
# Poissons Ratio (z) = 0.38434 0.27348
#
# Static dielectric constant tensor:
#      x y z
#    x 1.723730 0.000000 0.000000 
#    y 0.000000 1.741280 0.000000 
#    z 0.000000 0.000000 1.500770 
# 
# From -- ./inp_files/22315.got.cif
#   From: 2010.05.17/outbox.cif.g08.bks.cpg/sg53_12_cif.got.tgz:22315.got - 2010.06.03 12:45:16.
