data_PCOD9418496
_publ_section_title
;
Structure prediction by ZEFSAII (Michael W. Deem and Ramdas Pophale) SiO2 
 PCOD9418496
Probable space group: P M N A
;
_chemical_formula_sum "Si O2"
_cell_formula_units_Z 48
_cell_length_a 16.784046
_cell_length_b 28.102141
_cell_length_c 5.094552
_cell_angle_alpha 90.000000
_cell_angle_beta 90.000000
_cell_angle_gamma 90.000000
_cell_volume 2402.935254
_symmetry_space_group_name_H-M "P M N A"
_symmetry_group_IT_number 53
_symmetry_cell_setting 'orthorhombic'
loop_
_space_group_symop_operation_xyz
x,y,z
1/2-x,-y,1/2+z
x,-y,-z
1/2-x,y,1/2-z
-x,-y,-z
1/2+x,y,1/2-z
-x,y,z
1/2+x,-y,1/2+z
loop_
_atom_site_type_symbol
_atom_site_label
_atom_site_fract_x
_atom_site_fract_y
_atom_site_fract_z
Si Si1 0.692862 0.946084 0.999795
Si Si2 0.095707 0.707864 0.941867
Si Si3 0.405257 0.647646 0.050561
Si Si4 0.592948 0.856251 0.860930
Si Si5 0.692801 0.552660 0.999533
Si Si6 0.839957 0.806909 0.146912
O O1 0.750000 0.942462 0.750000
O O2 0.626697 0.905782 0.972777
O O3 0.750000 0.939114 0.250000
O O4 0.659950 0.000000 0.000000
O O5 0.110369 0.667360 0.159337
O O6 0.140443 0.754956 0.033934
O O7 0.000000 0.717881 0.935495
O O8 0.121600 0.687012 0.661955
O O9 0.500000 0.643341 0.017026
O O10 0.365928 0.596965 0.002724
O O11 0.500000 0.858637 0.795845
O O12 0.640414 0.841514 0.597793
O O13 0.606948 0.818870 0.097575
O O14 0.750000 0.555690 0.750000
O O15 0.653969 0.500000 0.000000
O O16 0.750000 0.555609 0.250000
O O17 0.750000 0.811468 0.250000
#
# Coordination Sequence:
#
# PCOD9418496 Si02
#       6
#     8   8   8   8   8   8
#     4  10  21  39  63  89 120 158 198 244 297 351
#     4  10  21  38  58  84 117 150 188 235 289 341
#     4  10  21  37  59  84 113 149 187 233 285 341
#     4  12  24  40  63  90 123 160 198 246 299 350
#     4  10  21  37  57  82 113 148 186 232 283 335
#     4  12  25  41  62  89 120 158 204 246 292 353
#
# _framework density 19.975570000000001
#
# number of rings (size 3 to 8) (size 9 to 14) (size 15 to 20)
#    0.000    1.333    0.000    6.500    0.000    4.000 
#    0.000    0.000    0.000   11.000    0.000    0.000 
#    0.000    0.000    0.000    0.000    0.000    0.000 
#
# Total GULP energy -268438.942246 kJ/mol
# GULP energy per Si atom -5592.477963 kJ/mol
# Density = 1.993011 g / cm^3
# Si number density = 19.975570 Si / 1000 Ang^3
#
#
#
# Elastic Constant Matrix: (Units=GPa)
#
#
# Indices 1 2 3 4 5 6 
#
# 1 47.7547 37.7190 13.0664 0.0000 0.0000 0.0000
# 2 37.7190 99.2779 0.5962 0.0000 0.0000 0.0000
# 3 13.0664 0.5962 108.7824 0.0000 0.0000 0.0000
# 4 0.0000 0.0000 0.0000 27.5068 0.0000 0.0000
# 5 0.0000 0.0000 0.0000 0.0000 0.0814 0.0000
# 6 0.0000 0.0000 0.0000 0.0000 0.0000 -42.0975
#
#
#
# Elastic Compliance Matrix: (Units=1/GPa)
#
#
# Indices 1 2 3 4 5 6 
#
# 1 0.031340 -0.011885 -0.003699 0.000000 0.000000 0.000000
# 2 -0.011885 0.014580 0.001348 0.000000 0.000000 0.000000
# 3 -0.003699 0.001348 0.009630 0.000000 0.000000 0.000000
# 4 0.000000 0.000000 0.000000 0.036355 0.000000 0.000000
# 5 0.000000 0.000000 0.000000 0.000000 12.280924 0.000000
# 6 0.000000 0.000000 0.000000 0.000000 0.000000 -0.023754
#
#
# Mechanical properties :
#
#
# Convention : Reuss Voigt Hill
#
# Bulk Modulus (GPa) = 36.93224 39.84201 38.38713
# Shear Modulus (GPa) = 0.40366 10.72703 5.56535
#
# Velocity S-wave (km/s) = 0.45002 2.31986 1.67097
# Velocity P-wave (km/s) = 4.33577 5.21194 4.79391
#
# Compressibility (1/GPa) = 0.02707661
#
# Stress axis : x y z
#
# Youngs Moduli (GPa) = 31.90846 68.58684 103.84638
#
# Poissons Ratio (x) = 0.81514 0.38415
# Poissons Ratio (y) = 0.37922 -0.13995
# Poissons Ratio (z) = 0.11804 -0.09243
#
# Static dielectric constant tensor:
#      x y z
#    x 1.670700 0.000000 0.000000 
#    y 0.000000 1.723540 0.000000 
#    z 0.000000 0.000000 1.691560 
# 
# From -- ./inp_files/1438.got.cif
#   From: 2010.05.17/outbox.cif.g08.bks.cpg/sg53_1_cif.got.tgz:1438.got - 2010.06.03 12:45:16.
