data_PCOD9418807
_publ_section_title
;
Structure prediction by ZEFSAII (Michael W. Deem and Ramdas Pophale) SiO2 
 PCOD9418807
Probable space group: P M N A
;
_chemical_formula_sum "Si O2"
_cell_formula_units_Z 40
_cell_length_a 17.375050
_cell_length_b 15.439251
_cell_length_c 7.366879
_cell_angle_alpha 90.000000
_cell_angle_beta 90.000000
_cell_angle_gamma 90.000000
_cell_volume 1976.222445
_symmetry_space_group_name_H-M "P M N A"
_symmetry_group_IT_number 53
_symmetry_cell_setting 'orthorhombic'
loop_
_space_group_symop_operation_xyz
x,y,z
1/2-x,-y,1/2+z
x,-y,-z
1/2-x,y,1/2-z
-x,-y,-z
1/2+x,y,1/2-z
-x,y,z
1/2+x,-y,1/2+z
loop_
_atom_site_type_symbol
_atom_site_label
_atom_site_fract_x
_atom_site_fract_y
_atom_site_fract_z
Si Si1 0.726219 0.601108 0.040756
Si Si2 0.842423 0.739728 0.932351
Si Si3 0.257153 0.905665 0.034289
Si Si4 0.584673 0.698005 0.178724
Si Si5 0.414135 0.156346 0.107912
O O1 0.750000 0.613651 0.250000
O O2 0.786379 0.656123 0.920575
O O3 0.641392 0.641283 0.053409
O O4 0.727508 0.500000 0.000000
O O5 0.786683 0.821934 0.960328
O O6 0.888855 0.717813 0.116165
O O7 0.605315 0.773794 0.733033
O O8 0.250000 0.893449 0.250000
O O9 0.340486 0.904669 0.932415
O O10 0.221329 0.000000 0.000000
O O11 0.500000 0.658412 0.182105
O O12 0.582340 0.789572 0.077665
O O13 0.500000 0.118526 0.142149
#
# Coordination Sequence:
#
# PCOD9418807 Si02
#       5
#     8   8   8   8   8
#     4  10  22  36  61  89 118 161 208 254 303 362
#     4  11  21  42  63  88 123 161 205 252 303 357
#     4  12  23  41  65  93 124 162 206 253 299 359
#     4  10  21  39  61  88 124 161 200 251 308 362
#     4  11  23  39  65  91 121 163 199 248 309 361
#
# _framework density 20.240638000000001
#
# number of rings (size 3 to 8) (size 9 to 14) (size 15 to 20)
#    0.000    1.200    4.000    3.000    2.800    0.800 
#    0.000    0.000    0.000    6.000    0.000    0.000 
#    0.000    0.000    0.000    0.000    0.000    0.000 
#
# Total GULP energy -222866.061035 kJ/mol
# GULP energy per Si atom -5571.651526 kJ/mol
# Density = 2.019457 g / cm^3
# Si number density = 20.240638 Si / 1000 Ang^3
#
#
#
# Elastic Constant Matrix: (Units=GPa)
#
#
# Indices 1 2 3 4 5 6 
#
# 1 74.3310 -0.7755 -13.5487 0.0000 0.0000 0.0000
# 2 -0.7755 76.2914 -27.7462 0.0000 0.0000 0.0000
# 3 -13.5487 -27.7462 74.2870 0.0000 0.0000 0.0000
# 4 0.0000 0.0000 0.0000 26.9635 0.0000 0.0000
# 5 0.0000 0.0000 0.0000 0.0000 16.2302 0.0000
# 6 0.0000 0.0000 0.0000 0.0000 0.0000 -566.2343
#
#
#
# Elastic Compliance Matrix: (Units=1/GPa)
#
#
# Indices 1 2 3 4 5 6 
#
# 1 0.014017 0.001241 0.003020 0.000000 0.000000 0.000000
# 2 0.001241 0.015278 0.005933 0.000000 0.000000 0.000000
# 3 0.003020 0.005933 0.016228 0.000000 0.000000 0.000000
# 4 0.000000 0.000000 0.000000 0.037087 0.000000 0.000000
# 5 0.000000 0.000000 0.000000 0.000000 0.061613 0.000000
# 6 0.000000 0.000000 0.000000 0.000000 0.000000 -0.001766
#
#
# Mechanical properties :
#
#
# Convention : Reuss Voigt Hill
#
# Bulk Modulus (GPa) = 15.17248 15.64095 15.40671
# Shear Modulus (GPa) = 34.71253 -86.80945 -26.04846
#
# Velocity S-wave (km/s) = 4.14574 -6.55605 -3.59128
# Velocity P-wave (km/s) = 5.51621 7.04023 3.09324
#
# Compressibility (1/GPa) = 0.06590881
#
# Stress axis : x y z
#
# Youngs Moduli (GPa) = 71.34330 65.45420 61.62231
#
# Poissons Ratio (x) = -0.08121 -0.18609
# Poissons Ratio (y) = -0.08852 -0.36558
# Poissons Ratio (z) = -0.21545 -0.38831
#
# Static dielectric constant tensor:
#      x y z
#    x 1.832410 0.000000 0.000000 
#    y 0.000000 1.694550 0.000000 
#    z 0.000000 0.000000 1.758260 
# 
# From -- ./inp_files/9773.got.cif
#   From: 2010.05.17/outbox.cif.g08.bks.cpg/sg53_5_cif.got.tgz:9773.got - 2010.06.03 12:45:16.
