data_PCOD9418523
_publ_section_title
;
Structure prediction by ZEFSAII (Michael W. Deem and Ramdas Pophale) SiO2 
 PCOD9418523
Probable space group: P M N A
;
_chemical_formula_sum "Si O2"
_cell_formula_units_Z 58
_cell_length_a 16.654808
_cell_length_b 6.677984
_cell_length_c 25.016946
_cell_angle_alpha 90.000000
_cell_angle_beta 90.000000
_cell_angle_gamma 90.000000
_cell_volume 2782.398277
_symmetry_space_group_name_H-M "P M N A"
_symmetry_group_IT_number 53
_symmetry_cell_setting 'orthorhombic'
loop_
_space_group_symop_operation_xyz
x,y,z
1/2-x,-y,1/2+z
x,-y,-z
1/2-x,y,1/2-z
-x,-y,-z
1/2+x,y,1/2-z
-x,y,z
1/2+x,-y,1/2+z
loop_
_atom_site_type_symbol
_atom_site_label
_atom_site_fract_x
_atom_site_fract_y
_atom_site_fract_z
Si Si1 0.090250 0.047599 0.344354
Si Si2 0.791761 0.037786 0.055898
Si Si3 0.409227 0.945179 0.652890
Si Si4 0.807755 0.599951 0.793725
Si Si5 0.200360 0.391671 0.392452
Si Si6 0.630331 0.220022 0.943157
Si Si7 0.592049 0.757873 0.248921
Si Si8 0.000000 0.000000 0.500000
O O1 0.143931 0.233779 0.361288
O O2 0.000000 0.112551 0.329746
O O3 0.086848 0.903513 0.395786
O O4 0.122518 0.909170 0.296718
O O5 0.850056 0.998854 0.105111
O O6 0.754207 0.257780 0.067234
O O7 0.716767 0.886195 0.052824
O O8 0.835382 0.000000 0.000000
O O9 0.500000 0.904980 0.634639
O O10 0.372207 0.752697 0.682481
O O11 0.411078 0.120090 0.696223
O O12 0.750000 0.703237 0.750000
O O13 0.757410 0.522418 0.845239
O O14 0.851519 0.428418 0.760028
O O15 0.149062 0.556446 0.423772
O O16 0.571898 0.172752 0.992509
O O17 0.500000 0.699809 0.234200
#
# Coordination Sequence:
#
# PCOD9418523 Si02
#       8
#     8   8   8   8   8   8   8   2
#     4  10  21  37  57  89 126 160 208 257 308 374
#     4  10  22  42  61  89 126 159 215 271 321 390
#     4  10  22  40  64  92 125 164 213 263 319 383
#     4  11  21  36  60  93 123 167 207 254 319 381
#     4  10  23  38  62  88 122 168 213 261 321 381
#     4  11  22  42  59  91 126 169 216 267 319 381
#     4  10  21  37  59  87 123 162 199 254 312 374
#     4  12  24  40  66  92 132 172 224 270 318 386
#
# _framework density 20.845324999999999
#
# number of rings (size 3 to 8) (size 9 to 14) (size 15 to 20)
#    0.000    1.655    1.379    2.897    0.966    3.586 
#    0.000    6.207    0.000    0.000    0.000    7.724 
#    0.000    0.000    0.000    0.000    0.000    0.000 
#
# Total GULP energy -323507.580714 kJ/mol
# GULP energy per Si atom -5577.716909 kJ/mol
# Density = 2.079788 g / cm^3
# Si number density = 20.845325 Si / 1000 Ang^3
#
#
#
# Elastic Constant Matrix: (Units=GPa)
#
#
# Indices 1 2 3 4 5 6 
#
# 1 84.5618 29.0777 18.4130 0.0000 0.0000 0.0000
# 2 29.0777 65.4316 23.5650 0.0000 0.0000 0.0000
# 3 18.4130 23.5650 63.8109 0.0000 0.0000 0.0000
# 4 0.0000 0.0000 0.0000 29.8529 0.0000 0.0000
# 5 0.0000 0.0000 0.0000 0.0000 24.1414 0.0000
# 6 0.0000 0.0000 0.0000 0.0000 0.0000 18.1988
#
#
#
# Elastic Compliance Matrix: (Units=1/GPa)
#
#
# Indices 1 2 3 4 5 6 
#
# 1 0.014184 -0.005570 -0.002036 0.000000 0.000000 0.000000
# 2 -0.005570 0.019815 -0.005710 0.000000 0.000000 0.000000
# 3 -0.002036 -0.005710 0.018368 0.000000 0.000000 0.000000
# 4 0.000000 0.000000 0.000000 0.033498 0.000000 0.000000
# 5 0.000000 0.000000 0.000000 0.000000 0.041423 0.000000
# 6 0.000000 0.000000 0.000000 0.000000 0.000000 0.054949
#
#
# Mechanical properties :
#
#
# Convention : Reuss Voigt Hill
#
# Bulk Modulus (GPa) = 38.85898 39.54623 39.20260
# Shear Modulus (GPa) = 22.99411 23.95519 23.47465
#
# Velocity S-wave (km/s) = 3.32487 3.39364 3.35943
# Velocity P-wave (km/s) = 5.78115 5.86244 5.82194
#
# Compressibility (1/GPa) = 0.02573408
#
# Stress axis : x y z
#
# Youngs Moduli (GPa) = 70.49998 50.46656 54.44388
#
# Poissons Ratio (x) = 0.28111 0.11084
# Poissons Ratio (y) = 0.39271 0.31089
# Poissons Ratio (z) = 0.14353 0.28818
#
# Static dielectric constant tensor:
#      x y z
#    x 1.783260 0.000000 0.000000 
#    y 0.000000 1.733960 0.000000 
#    z 0.000000 0.000000 1.813020 
# 
# From -- ./inp_files/37159.got.cif
#   From: 2010.05.17/outbox.cif.g08.bks.cpg/sg53_19_cif.got.tgz:37159.got - 2010.06.03 12:45:16.
