data_PCOD9418415
_publ_section_title
;
Structure prediction by ZEFSAII (Michael W. Deem and Ramdas Pophale) SiO2 
 PCOD9418415
Probable space group: P M N A
;
_chemical_formula_sum "Si O2"
_cell_formula_units_Z 64
_cell_length_a 18.307773
_cell_length_b 9.551138
_cell_length_c 20.559989
_cell_angle_alpha 90.000000
_cell_angle_beta 90.000000
_cell_angle_gamma 90.000000
_cell_volume 3595.121042
_symmetry_space_group_name_H-M "P M N A"
_symmetry_group_IT_number 53
_symmetry_cell_setting 'orthorhombic'
loop_
_space_group_symop_operation_xyz
x,y,z
1/2-x,-y,1/2+z
x,-y,-z
1/2-x,y,1/2-z
-x,-y,-z
1/2+x,y,1/2-z
-x,y,z
1/2+x,-y,1/2+z
loop_
_atom_site_type_symbol
_atom_site_label
_atom_site_fract_x
_atom_site_fract_y
_atom_site_fract_z
Si Si1 0.657519 0.334659 0.983928
Si Si2 0.819158 0.074445 0.068268
Si Si3 0.586855 0.832467 0.379878
Si Si4 0.297727 0.924308 0.814662
Si Si5 0.915197 0.598506 0.354827
Si Si6 0.413162 0.268285 0.117059
Si Si7 0.334296 0.219340 0.756824
Si Si8 0.828954 0.334982 0.988570
O O1 0.614836 0.318200 0.917191
O O2 0.743145 0.308429 0.973408
O O3 0.651109 0.500000 0.000000
O O4 0.621697 0.254365 0.044622
O O5 0.757220 0.068834 0.123653
O O6 0.887245 0.983247 0.093220
O O7 0.840761 0.233328 0.050478
O O8 0.795733 0.000000 0.000000
O O9 0.500000 0.821716 0.374731
O O10 0.626848 0.810830 0.311298
O O11 0.620256 0.721243 0.430937
O O12 0.250000 0.885772 0.750000
O O13 0.363318 0.820824 0.833972
O O14 0.331581 0.076009 0.798432
O O15 0.905410 0.432642 0.365261
O O16 0.874408 0.656234 0.292810
O O17 0.000000 0.626241 0.348392
O O18 0.500000 0.234773 0.117442
O O19 0.250000 0.258801 0.750000
O O20 0.838901 0.500000 0.000000
#
# Coordination Sequence:
#
# PCOD9418415 Si02
#       8
#     8   8   8   8   8   8   8   8
#     4   9  17  33  58  84 116 154 194 234 291 356
#     4  10  21  40  65  87 117 158 197 244 292 360
#     4  11  23  41  62  87 120 161 200 245 307 362
#     4  11  22  40  59  86 118 156 201 246 292 352
#     4  10  21  36  56  86 120 155 194 242 300 355
#     4  10  21  37  58  86 119 155 195 246 302 357
#     4  11  22  39  62  84 116 158 205 245 292 358
#     4  10  21  38  65  92 118 152 201 250 299 348
#
# _framework density 17.801905000000001
#
# number of rings (size 3 to 8) (size 9 to 14) (size 15 to 20)
#    0.000    1.750    3.750    1.500    1.750    5.500 
#    2.250    0.000    0.000    1.875    0.000    0.000 
#    0.000    0.000    0.000    0.000    0.000    0.000 
#
# Total GULP energy -356983.299231 kJ/mol
# GULP energy per Si atom -5577.864050 kJ/mol
# Density = 1.776139 g / cm^3
# Si number density = 17.801905 Si / 1000 Ang^3
#
#
#
# Elastic Constant Matrix: (Units=GPa)
#
#
# Indices 1 2 3 4 5 6 
#
# 1 -150.5174 -27.5846 118.1167 0.0000 0.0000 0.0000
# 2 -27.5846 40.7267 44.4233 0.0000 0.0000 0.0000
# 3 118.1167 44.4233 92.0683 0.0000 0.0000 0.0000
# 4 0.0000 0.0000 0.0000 22.7011 0.0000 0.0000
# 5 0.0000 0.0000 0.0000 0.0000 10.9895 0.0000
# 6 0.0000 0.0000 0.0000 0.0000 0.0000 31.2754
#
#
#
# Elastic Compliance Matrix: (Units=1/GPa)
#
#
# Indices 1 2 3 4 5 6 
#
# 1 -0.001486 -0.006516 0.005051 0.000000 0.000000 0.000000
# 2 -0.006516 0.023270 -0.002869 0.000000 0.000000 0.000000
# 3 0.005051 -0.002869 0.005766 0.000000 0.000000 0.000000
# 4 0.000000 0.000000 0.000000 0.044051 0.000000 0.000000
# 5 0.000000 0.000000 0.000000 0.000000 0.090996 0.000000
# 6 0.000000 0.000000 0.000000 0.000000 0.000000 0.031974
#
#
# Mechanical properties :
#
#
# Convention : Reuss Voigt Hill
#
# Bulk Modulus (GPa) = 52.95995 28.02092 40.49044
# Shear Modulus (GPa) = 23.86277 2.81469 13.33873
#
# Velocity S-wave (km/s) = 3.66520 1.25879 2.74028
# Velocity P-wave (km/s) = 6.90839 4.22934 5.72770
#
# Compressibility (1/GPa) = 0.01888219
#
# Stress axis : x y z
#
# Youngs Moduli (GPa) = -672.83099 42.97413 173.42737
#
# Poissons Ratio (x) = 0.28001 -0.87591
# Poissons Ratio (y) = -4.38395 0.49750
# Poissons Ratio (z) = 3.39820 0.12328
#
# Static dielectric constant tensor:
#      x y z
#    x 1.598240 0.000000 0.000000 
#    y 0.000000 1.618280 0.000000 
#    z 0.000000 0.000000 1.614220 
# 
# From -- ./inp_files/32825.got.cif
#   From: 2010.05.17/outbox.cif.g08.bks.cpg/sg53_17_cif.got.tgz:32825.got - 2010.06.03 12:45:16.
