data_PCOD9418905
_publ_section_title
;
Structure prediction by ZEFSAII (Michael W. Deem and Ramdas Pophale) SiO2 
 PCOD9418905
Probable space group: P M N A
;
_chemical_formula_sum "Si O2"
_cell_formula_units_Z 56
_cell_length_a 8.414086
_cell_length_b 17.868915
_cell_length_c 20.363560
_cell_angle_alpha 90.000000
_cell_angle_beta 90.000000
_cell_angle_gamma 90.000000
_cell_volume 3061.673210
_symmetry_space_group_name_H-M "P M N A"
_symmetry_group_IT_number 53
_symmetry_cell_setting 'orthorhombic'
loop_
_space_group_symop_operation_xyz
x,y,z
1/2-x,-y,1/2+z
x,-y,-z
1/2-x,y,1/2-z
-x,-y,-z
1/2+x,y,1/2-z
-x,y,z
1/2+x,-y,1/2+z
loop_
_atom_site_type_symbol
_atom_site_label
_atom_site_fract_x
_atom_site_fract_y
_atom_site_fract_z
Si Si1 0.693142 0.451726 0.095917
Si Si2 0.190660 0.183834 0.081814
Si Si3 0.693583 0.392149 0.951482
Si Si4 0.809863 0.118603 0.821981
Si Si5 0.808182 0.946841 0.822127
Si Si6 0.690835 0.314061 0.177279
Si Si7 0.690267 0.776901 0.061645
O O1 0.500000 0.453307 0.097120
O O2 0.747029 0.537900 0.093247
O O3 0.745117 0.396662 0.153633
O O4 0.737532 0.413666 0.026282
O O5 0.244872 0.109858 0.121282
O O6 0.245457 0.254315 0.125098
O O7 0.000000 0.182874 0.078433
O O8 0.257008 0.190982 0.008681
O O9 0.500000 0.391130 0.949905
O O10 0.749125 0.309279 0.933760
O O11 0.750000 0.141868 0.750000
O O12 0.751169 0.172523 0.879112
O O13 0.000000 0.118161 0.821652
O O14 0.754634 0.032517 0.832760
O O15 0.750000 0.922552 0.750000
O O16 0.000000 0.946216 0.821254
O O17 0.750000 0.296967 0.250000
O O18 0.500000 0.311565 0.175927
O O19 0.500000 0.775378 0.063451
#
# Coordination Sequence:
#
# PCOD9418905 Si02
#       7
#     8   8   8   8   8   8   8
#     4   8  14  28  51  75 100 136 180 221 262 313
#     4  11  22  36  54  80 112 146 184 227 273 323
#     4   8  14  28  52  78 102 134 177 220 264 315
#     4  10  21  40  61  81 106 140 181 226 276 330
#     4   9  20  37  57  78 105 144 186 225 270 324
#     4  11  21  34  52  78 111 147 183 225 274 329
#     4  11  21  35  57  86 114 143 180 225 274 327
#
# _framework density 18.290652999999999
#
# number of rings (size 3 to 8) (size 9 to 14) (size 15 to 20)
#    0.000    2.286    1.429    3.000    0.000    3.429 
#    0.000    3.571    0.000    6.000    0.000    0.000 
#    0.000    0.000    0.000    0.000    0.000    0.000 
#
# Total GULP energy -312433.009818 kJ/mol
# GULP energy per Si atom -5579.160890 kJ/mol
# Density = 1.824902 g / cm^3
# Si number density = 18.290653 Si / 1000 Ang^3
#
#
#
# Elastic Constant Matrix: (Units=GPa)
#
#
# Indices 1 2 3 4 5 6 
#
# 1 28.7588 23.6977 24.8869 0.0000 0.0000 0.0000
# 2 23.6977 135.9505 95.1103 0.0000 0.0000 0.0000
# 3 24.8869 95.1103 142.9653 0.0000 0.0000 0.0000
# 4 0.0000 0.0000 0.0000 29.7423 0.0000 0.0000
# 5 0.0000 0.0000 0.0000 0.0000 28.0166 0.0000
# 6 0.0000 0.0000 0.0000 0.0000 0.0000 18.2091
#
#
#
# Elastic Compliance Matrix: (Units=1/GPa)
#
#
# Indices 1 2 3 4 5 6 
#
# 1 0.042150 -0.004142 -0.004582 0.000000 0.000000 0.000000
# 2 -0.004142 0.014167 -0.008704 0.000000 0.000000 0.000000
# 3 -0.004582 -0.008704 0.013583 0.000000 0.000000 0.000000
# 4 0.000000 0.000000 0.000000 0.033622 0.000000 0.000000
# 5 0.000000 0.000000 0.000000 0.000000 0.035693 0.000000
# 6 0.000000 0.000000 0.000000 0.000000 0.000000 0.054917
#
#
# Mechanical properties :
#
#
# Convention : Reuss Voigt Hill
#
# Bulk Modulus (GPa) = 28.53520 66.11829 47.32674
# Shear Modulus (GPa) = 20.77555 26.12560 23.45057
#
# Velocity S-wave (km/s) = 3.37390 3.78346 3.58454
# Velocity P-wave (km/s) = 5.55090 7.43729 6.56223
#
# Compressibility (1/GPa) = 0.03504444
#
# Stress axis : x y z
#
# Youngs Moduli (GPa) = 23.72490 70.58878 73.62392
#
# Poissons Ratio (x) = 0.29236 0.33734
# Poissons Ratio (y) = 0.09826 0.64079
# Poissons Ratio (z) = 0.10871 0.61438
#
# Static dielectric constant tensor:
#      x y z
#    x 1.635430 0.000000 0.000000 
#    y 0.000000 1.659180 0.000000 
#    z 0.000000 0.000000 1.585670 
# 
# From -- ./inp_files/31024.got.cif
#   From: 2010.05.17/outbox.cif.g08.bks.cpg/sg53_16_cif.got.tgz:31024.got - 2010.06.03 12:45:16.
