data_PCOD9418267
_publ_section_title
;
Structure prediction by ZEFSAII (Michael W. Deem and Ramdas Pophale) SiO2 
 PCOD9418267
Probable space group: P M N A
;
_chemical_formula_sum "Si O2"
_cell_formula_units_Z 40
_cell_length_a 13.086676
_cell_length_b 10.616570
_cell_length_c 10.991715
_cell_angle_alpha 90.000000
_cell_angle_beta 90.000000
_cell_angle_gamma 90.000000
_cell_volume 1527.140648
_symmetry_space_group_name_H-M "P M N A"
_symmetry_group_IT_number 53
_symmetry_cell_setting 'orthorhombic'
loop_
_space_group_symop_operation_xyz
x,y,z
1/2-x,-y,1/2+z
x,-y,-z
1/2-x,y,1/2-z
-x,-y,-z
1/2+x,y,1/2-z
-x,y,z
1/2+x,-y,1/2+z
loop_
_atom_site_type_symbol
_atom_site_label
_atom_site_fract_x
_atom_site_fract_y
_atom_site_fract_z
Si Si1 0.121959 0.314625 0.067449
Si Si2 0.380661 0.685193 0.066136
Si Si3 0.688901 0.039025 0.874482
Si Si4 0.117734 0.227836 0.315742
Si Si5 0.877097 0.592866 0.179836
O O1 0.161058 0.229708 0.178500
O O2 0.134138 0.454180 0.124326
O O3 0.000000 0.290692 0.054273
O O4 0.160476 0.312676 0.927994
O O5 0.500000 0.651358 0.054571
O O6 0.369890 0.830655 0.106084
O O7 0.339832 0.606675 0.181588
O O8 0.340491 0.685096 0.926610
O O9 0.750000 0.053457 0.750000
O O10 0.619207 0.916395 0.856721
O O11 0.747759 0.000000 0.000000
O O12 0.000000 0.269956 0.303064
O O13 0.000000 0.614221 0.188382
#
# Coordination Sequence:
#
# PCOD9418267 Si02
#       5
#     8   8   8   8   8
#     4   8  14  25  42  67  98 125 148 181 227 274
#     4   9  17  30  49  71  94 121 154 191 229 271
#     4  10  21  35  49  67  93 124 156 192 234 276
#     4   9  17  30  49  71  94 121 154 191 229 271
#     4   8  14  25  42  67  98 125 148 181 227 274
#
# _framework density 26.192743
#
# number of rings (size 3 to 8) (size 9 to 14) (size 15 to 20)
#    0.000    3.200    0.000    1.800    0.000    4.800 
#    0.000    4.000    0.000    7.200    0.000    0.000 
#    0.000    0.000    0.000    0.000    0.000    0.000 
#
# Total GULP energy -223417.582161 kJ/mol
# GULP energy per Si atom -5585.439554 kJ/mol
# Density = 2.613313 g / cm^3
# Si number density = 26.192743 Si / 1000 Ang^3
#
#
#
# Elastic Constant Matrix: (Units=GPa)
#
#
# Indices 1 2 3 4 5 6 
#
# 1 67.6470 -6.9186 51.9984 0.0000 0.0000 0.0000
# 2 -6.9186 57.9754 27.3699 0.0000 0.0000 0.0000
# 3 51.9984 27.3699 205.5252 0.0000 0.0000 0.0000
# 4 0.0000 0.0000 0.0000 44.6265 0.0000 0.0000
# 5 0.0000 0.0000 0.0000 0.0000 58.8085 0.0000
# 6 0.0000 0.0000 0.0000 0.0000 0.0000 13.3766
#
#
#
# Elastic Compliance Matrix: (Units=1/GPa)
#
#
# Indices 1 2 3 4 5 6 
#
# 1 0.019622 0.005000 -0.005630 0.000000 0.000000 0.000000
# 2 0.005000 0.019680 -0.003886 0.000000 0.000000 0.000000
# 3 -0.005630 -0.003886 0.006807 0.000000 0.000000 0.000000
# 4 0.000000 0.000000 0.000000 0.022408 0.000000 0.000000
# 5 0.000000 0.000000 0.000000 0.000000 0.017004 0.000000
# 6 0.000000 0.000000 0.000000 0.000000 0.000000 0.074757
#
#
# Mechanical properties :
#
#
# Convention : Reuss Voigt Hill
#
# Bulk Modulus (GPa) = 26.97129 52.89409 39.93269
# Shear Modulus (GPa) = 27.52242 40.60886 34.06564
#
# Velocity S-wave (km/s) = 3.24507 3.94177 3.61026
# Velocity P-wave (km/s) = 4.93561 6.39959 5.71467
#
# Compressibility (1/GPa) = 0.03707646
#
# Stress axis : x y z
#
# Youngs Moduli (GPa) = 50.96397 50.81368 146.89721
#
# Poissons Ratio (x) = -0.25405 0.82705
# Poissons Ratio (y) = -0.25480 0.57079
# Poissons Ratio (z) = 0.28693 0.19745
#
# Static dielectric constant tensor:
#      x y z
#    x 2.122700 0.000000 0.000000 
#    y 0.000000 1.981190 0.000000 
#    z 0.000000 0.000000 2.139690 
# 
# From -- ./inp_files/8359.got.cif
#   From: 2010.05.17/outbox.cif.g08.bks.cpg/sg53_5_cif.got.tgz:8359.got - 2010.06.03 12:45:16.
