data_PCOD9418639
_publ_section_title
;
Structure prediction by ZEFSAII (Michael W. Deem and Ramdas Pophale) SiO2 
 PCOD9418639
Probable space group: P M N A
;
_chemical_formula_sum "Si O2"
_cell_formula_units_Z 64
_cell_length_a 24.376974
_cell_length_b 11.751968
_cell_length_c 11.494556
_cell_angle_alpha 90.000000
_cell_angle_beta 90.000000
_cell_angle_gamma 90.000000
_cell_volume 3292.930728
_symmetry_space_group_name_H-M "P M N A"
_symmetry_group_IT_number 53
_symmetry_cell_setting 'orthorhombic'
loop_
_space_group_symop_operation_xyz
x,y,z
1/2-x,-y,1/2+z
x,-y,-z
1/2-x,y,1/2-z
-x,-y,-z
1/2+x,y,1/2-z
-x,y,z
1/2+x,-y,1/2+z
loop_
_atom_site_type_symbol
_atom_site_label
_atom_site_fract_x
_atom_site_fract_y
_atom_site_fract_z
Si Si1 0.295600 0.620819 0.554630
Si Si2 0.690401 0.180246 0.814415
Si Si3 0.934817 0.121472 0.061058
Si Si4 0.873697 0.730484 0.118367
Si Si5 0.183706 0.713503 0.550742
Si Si6 0.883580 0.706917 0.767902
Si Si7 0.438937 0.513475 0.359937
Si Si8 0.232770 0.956063 0.614647
O O1 0.311696 0.500000 0.500000
O O2 0.318986 0.707939 0.457892
O O3 0.230935 0.621637 0.574097
O O4 0.328287 0.661854 0.667878
O O5 0.750000 0.194849 0.750000
O O6 0.644102 0.185043 0.718095
O O7 0.689463 0.058828 0.878036
O O8 0.678489 0.274665 0.912040
O O9 0.902429 0.172743 0.174168
O O10 0.000000 0.118627 0.084925
O O11 0.919436 0.216593 0.965005
O O12 0.919691 0.000000 0.000000
O O13 0.895663 0.611793 0.169044
O O14 0.130554 0.705906 0.631621
O O15 0.212738 0.830833 0.589489
O O16 0.926078 0.608325 0.803513
O O17 0.436621 0.500000 0.500000
O O18 0.500000 0.550430 0.328001
O O19 0.250000 0.952672 0.750000
O O20 0.267689 0.000000 0.500000
#
# Coordination Sequence:
#
# PCOD9418639 Si02
#       8
#     8   8   8   8   8   8   8   8
#     4  11  20  36  54  84 118 157 201 240 285 349
#     4  10  21  38  57  81 119 165 204 239 279 357
#     4  10  22  39  62  94 121 145 193 263 319 358
#     4  11  20  37  62  87 115 156 204 243 300 351
#     4  11  23  37  53  82 125 165 194 240 291 356
#     4  11  21  36  58  90 119 156 197 242 311 366
#     4  11  20  37  63  87 113 150 200 257 304 362
#     4   9  19  36  54  79 113 162 207 240 281 342
#
# _framework density 19.435576000000001
#
# number of rings (size 3 to 8) (size 9 to 14) (size 15 to 20)
#    0.000    1.500    5.000    1.875    1.750    1.000 
#    4.500    0.000    0.000    3.750    0.000    1.750 
#    0.000    0.000    0.000    0.000    0.000    0.000 
#
# Total GULP energy -356277.911027 kJ/mol
# GULP energy per Si atom -5566.842360 kJ/mol
# Density = 1.939134 g / cm^3
# Si number density = 19.435576 Si / 1000 Ang^3
#
#
#
# Elastic Constant Matrix: (Units=GPa)
#
#
# Indices 1 2 3 4 5 6 
#
# 1 54.0425 6.3099 17.3552 0.0000 0.0000 0.0000
# 2 6.3099 62.8669 9.0784 0.0000 0.0000 0.0000
# 3 17.3552 9.0784 81.7937 0.0000 0.0000 0.0000
# 4 0.0000 0.0000 0.0000 20.4926 0.0000 0.0000
# 5 0.0000 0.0000 0.0000 0.0000 12.0931 0.0000
# 6 0.0000 0.0000 0.0000 0.0000 0.0000 13.6135
#
#
#
# Elastic Compliance Matrix: (Units=1/GPa)
#
#
# Indices 1 2 3 4 5 6 
#
# 1 0.019980 -0.001416 -0.004082 0.000000 0.000000 0.000000
# 2 -0.001416 0.016266 -0.001505 0.000000 0.000000 0.000000
# 3 -0.004082 -0.001505 0.013259 0.000000 0.000000 0.000000
# 4 0.000000 0.000000 0.000000 0.048798 0.000000 0.000000
# 5 0.000000 0.000000 0.000000 0.000000 0.082692 0.000000
# 6 0.000000 0.000000 0.000000 0.000000 0.000000 0.073457
#
#
# Mechanical properties :
#
#
# Convention : Reuss Voigt Hill
#
# Bulk Modulus (GPa) = 28.16973 29.35446 28.76210
# Shear Modulus (GPa) = 17.83858 20.30380 19.07119
#
# Velocity S-wave (km/s) = 3.03286 3.23564 3.13589
# Velocity P-wave (km/s) = 5.17588 5.39402 5.28607
#
# Compressibility (1/GPa) = 0.03549909
#
# Stress axis : x y z
#
# Youngs Moduli (GPa) = 50.04934 61.47774 75.41975
#
# Poissons Ratio (x) = 0.08705 0.30789
# Poissons Ratio (y) = 0.07086 0.11350
# Poissons Ratio (z) = 0.20432 0.09252
#
# Static dielectric constant tensor:
#      x y z
#    x 1.695890 0.000000 0.000000 
#    y 0.000000 1.715990 0.000000 
#    z 0.000000 0.000000 1.790580 
# 
# From -- ./inp_files/18485.got.cif
#   From: 2010.05.17/outbox.cif.g08.bks.cpg/sg53_10_cif.got.tgz:18485.got - 2010.06.03 12:45:16.
