data_PCOD9418648
_publ_section_title
;
Structure prediction by ZEFSAII (Michael W. Deem and Ramdas Pophale) SiO2 
 PCOD9418648
Probable space group: P M N A
;
_chemical_formula_sum "Si O2"
_cell_formula_units_Z 48
_cell_length_a 18.547967
_cell_length_b 13.947833
_cell_length_c 9.372029
_cell_angle_alpha 90.000000
_cell_angle_beta 90.000000
_cell_angle_gamma 90.000000
_cell_volume 2424.580886
_symmetry_space_group_name_H-M "P M N A"
_symmetry_group_IT_number 53
_symmetry_cell_setting 'orthorhombic'
loop_
_space_group_symop_operation_xyz
x,y,z
1/2-x,-y,1/2+z
x,-y,-z
1/2-x,y,1/2-z
-x,-y,-z
1/2+x,y,1/2-z
-x,y,z
1/2+x,-y,1/2+z
loop_
_atom_site_type_symbol
_atom_site_label
_atom_site_fract_x
_atom_site_fract_y
_atom_site_fract_z
Si Si1 0.170782 0.451620 0.269940
Si Si2 0.580938 0.161485 0.310531
Si Si3 0.775269 0.907632 0.911884
Si Si4 0.914193 0.365074 0.688684
Si Si5 0.165180 0.254511 0.446580
Si Si6 0.081589 0.362094 0.023786
O O1 0.250000 0.494586 0.250000
O O2 0.118506 0.529575 0.340243
O O3 0.179287 0.353372 0.359849
O O4 0.136013 0.424101 0.117989
O O5 0.500000 0.123012 0.299111
O O6 0.638755 0.099232 0.396290
O O7 0.613142 0.190947 0.155684
O O8 0.579489 0.260009 0.398911
O O9 0.750000 0.918319 0.750000
O O10 0.737152 0.809410 0.965808
O O11 0.752659 0.000000 0.000000
O O12 0.873826 0.287583 0.590777
O O13 0.000000 0.362563 0.662299
O O14 0.901091 0.350417 0.857652
O O15 0.000000 0.400969 0.036210
#
# Coordination Sequence:
#
# PCOD9418648 Si02
#       6
#     8   8   8   8   8   8
#     4  11  22  36  54  80 116 159 201 236 279 338
#     4   9  18  36  61  84 113 154 191 230 286 350
#     4  10  22  40  62  87 114 147 189 239 298 358
#     4  11  23  36  56  88 119 152 197 243 286 335
#     4  10  21  38  58  83 117 152 192 240 291 349
#     4   9  19  36  56  80 117 159 195 237 285 332
#
# _framework density 19.797236000000002
#
# number of rings (size 3 to 8) (size 9 to 14) (size 15 to 20)
#    0.000    2.000    0.000    4.500    0.000    9.667 
#    0.000    0.000    0.000   12.500    0.000    0.000 
#    0.000    0.000    0.000    0.000    0.000    0.000 
#
# Total GULP energy -267934.827942 kJ/mol
# GULP energy per Si atom -5581.975582 kJ/mol
# Density = 1.975218 g / cm^3
# Si number density = 19.797236 Si / 1000 Ang^3
#
#
#
# Elastic Constant Matrix: (Units=GPa)
#
#
# Indices 1 2 3 4 5 6 
#
# 1 119.1613 24.9138 55.5226 0.0000 0.0000 0.0000
# 2 24.9138 60.9622 27.2194 0.0000 0.0000 0.0000
# 3 55.5226 27.2194 93.3822 0.0000 0.0000 0.0000
# 4 0.0000 0.0000 0.0000 24.4658 0.0000 0.0000
# 5 0.0000 0.0000 0.0000 0.0000 -3.7874 0.0000
# 6 0.0000 0.0000 0.0000 0.0000 0.0000 18.1434
#
#
#
# Elastic Compliance Matrix: (Units=1/GPa)
#
#
# Indices 1 2 3 4 5 6 
#
# 1 0.011805 -0.001943 -0.006452 0.000000 0.000000 0.000000
# 2 -0.001943 0.019178 -0.004435 0.000000 0.000000 0.000000
# 3 -0.006452 -0.004435 0.015838 0.000000 0.000000 0.000000
# 4 0.000000 0.000000 0.000000 0.040873 0.000000 0.000000
# 5 0.000000 0.000000 0.000000 0.000000 -0.264035 0.000000
# 6 0.000000 0.000000 0.000000 0.000000 0.000000 0.055116
#
#
# Mechanical properties :
#
#
# Convention : Reuss Voigt Hill
#
# Bulk Modulus (GPa) = 47.25957 54.31302 50.78629
# Shear Modulus (GPa) = -56.49000 18.82103 -18.83449
#
# Velocity S-wave (km/s) = -5.34754 3.08667 -3.08777
# Velocity P-wave (km/s) = 3.76891 6.34016 3.60506
#
# Compressibility (1/GPa) = 0.02115974
#
# Stress axis : x y z
#
# Youngs Moduli (GPa) = 84.71178 52.14359 63.14061
#
# Poissons Ratio (x) = 0.10133 0.40740
# Poissons Ratio (y) = 0.16463 0.28000
# Poissons Ratio (z) = 0.54659 0.23123
#
# Static dielectric constant tensor:
#      x y z
#    x 1.736780 0.000000 0.000000 
#    y 0.000000 1.729880 0.000000 
#    z 0.000000 0.000000 1.691930 
# 
# From -- ./inp_files/9948.got.cif
#   From: 2010.05.17/outbox.cif.g08.bks.cpg/sg53_5_cif.got.tgz:9948.got - 2010.06.03 12:45:16.
