data_PCOD9418137
_publ_section_title
;
Structure prediction by ZEFSAII (Michael W. Deem and Ramdas Pophale) SiO2 
 PCOD9418137
Probable space group: P M N A
;
_chemical_formula_sum "Si O2"
_cell_formula_units_Z 40
_cell_length_a 11.680473
_cell_length_b 9.141628
_cell_length_c 19.414567
_cell_angle_alpha 90.000000
_cell_angle_beta 90.000000
_cell_angle_gamma 90.000000
_cell_volume 2073.059100
_symmetry_space_group_name_H-M "P M N A"
_symmetry_group_IT_number 53
_symmetry_cell_setting 'orthorhombic'
loop_
_space_group_symop_operation_xyz
x,y,z
1/2-x,-y,1/2+z
x,-y,-z
1/2-x,y,1/2-z
-x,-y,-z
1/2+x,y,1/2-z
-x,y,z
1/2+x,-y,1/2+z
loop_
_atom_site_type_symbol
_atom_site_label
_atom_site_fract_x
_atom_site_fract_y
_atom_site_fract_z
Si Si1 0.629824 0.859959 0.574324
Si Si2 0.865098 0.561782 0.423964
Si Si3 0.875363 0.304356 0.784135
Si Si4 0.205504 0.383828 0.178862
Si Si5 0.705005 0.827702 0.421784
O O1 0.500000 0.916678 0.578509
O O2 0.647684 0.734384 0.630006
O O3 0.650495 0.802255 0.497040
O O4 0.714438 0.997362 0.584953
O O5 0.836893 0.500000 0.500000
O O6 0.804012 0.461636 0.366853
O O7 0.817064 0.726341 0.418551
O O8 0.000000 0.557470 0.414859
O O9 0.750000 0.268578 0.750000
O O10 0.870398 0.478527 0.797135
O O11 0.870237 0.228034 0.858381
O O12 0.000000 0.268844 0.750883
O O13 0.250000 0.315023 0.250000
#
# Coordination Sequence:
#
# PCOD9418137 Si02
#       5
#     8   8   8   8   8
#     4  11  21  37  58  83 118 153 189 244 300 348
#     4  10  20  39  63  86 118 157 197 247 297 351
#     4  10  21  37  59  86 116 154 201 249 299 355
#     4  10  22  37  59  88 119 150 198 241 294 354
#     4  10  21  37  59  86 115 149 200 241 293 351
#
# _framework density 19.295155000000001
#
# number of rings (size 3 to 8) (size 9 to 14) (size 15 to 20)
#    0.000    1.800    2.000    3.000    0.000    8.800 
#    0.000    6.000    0.000    0.000    0.000    0.000 
#    0.000    0.000    0.000    0.000    0.000    0.000 
#
# Total GULP energy -222975.362336 kJ/mol
# GULP energy per Si atom -5574.384058 kJ/mol
# Density = 1.925124 g / cm^3
# Si number density = 19.295155 Si / 1000 Ang^3
#
#
#
# Elastic Constant Matrix: (Units=GPa)
#
#
# Indices 1 2 3 4 5 6 
#
# 1 115.1069 23.8490 32.8552 0.0000 0.0000 0.0000
# 2 23.8490 49.1086 24.4307 0.0000 0.0000 0.0000
# 3 32.8552 24.4307 114.5257 0.0000 0.0000 0.0000
# 4 0.0000 0.0000 0.0000 29.5732 0.0000 0.0000
# 5 0.0000 0.0000 0.0000 0.0000 13.7108 0.0000
# 6 0.0000 0.0000 0.0000 0.0000 0.0000 9.1856
#
#
#
# Elastic Compliance Matrix: (Units=1/GPa)
#
#
# Indices 1 2 3 4 5 6 
#
# 1 0.010079 -0.003866 -0.002067 0.000000 0.000000 0.000000
# 2 -0.003866 0.024264 -0.004067 0.000000 0.000000 0.000000
# 3 -0.002067 -0.004067 0.010192 0.000000 0.000000 0.000000
# 4 0.000000 0.000000 0.000000 0.033814 0.000000 0.000000
# 5 0.000000 0.000000 0.000000 0.000000 0.072935 0.000000
# 6 0.000000 0.000000 0.000000 0.000000 0.000000 0.108866
#
#
# Mechanical properties :
#
#
# Convention : Reuss Voigt Hill
#
# Bulk Modulus (GPa) = 40.75822 49.00122 44.87972
# Shear Modulus (GPa) = 17.34135 23.66767 20.50451
#
# Velocity S-wave (km/s) = 3.00115 3.50610 3.26341
# Velocity P-wave (km/s) = 5.76009 6.46847 6.12453
#
# Compressibility (1/GPa) = 0.02453493
#
# Stress axis : x y z
#
# Youngs Moduli (GPa) = 99.22092 41.21349 98.11579
#
# Poissons Ratio (x) = 0.15935 0.20276
# Poissons Ratio (y) = 0.38363 0.39901
# Poissons Ratio (z) = 0.20504 0.16761
#
# Static dielectric constant tensor:
#      x y z
#    x 1.713200 0.000000 0.000000 
#    y 0.000000 1.661300 0.000000 
#    z 0.000000 0.000000 1.703870 
# 
# From -- ./inp_files/27379.got.cif
#   From: 2010.05.17/outbox.cif.g08.bks.cpg/sg53_14_cif.got.tgz:27379.got - 2010.06.03 12:45:16.
