data_PCOD9418770
_publ_section_title
;
Structure prediction by ZEFSAII (Michael W. Deem and Ramdas Pophale) SiO2 
 PCOD9418770
Probable space group: P M N A
;
_chemical_formula_sum "Si O2"
_cell_formula_units_Z 40
_cell_length_a 17.633417
_cell_length_b 16.179910
_cell_length_c 5.694266
_cell_angle_alpha 90.000000
_cell_angle_beta 90.000000
_cell_angle_gamma 90.000000
_cell_volume 1624.614519
_symmetry_space_group_name_H-M "P M N A"
_symmetry_group_IT_number 53
_symmetry_cell_setting 'orthorhombic'
loop_
_space_group_symop_operation_xyz
x,y,z
1/2-x,-y,1/2+z
x,-y,-z
1/2-x,y,1/2-z
-x,-y,-z
1/2+x,y,1/2-z
-x,y,z
1/2+x,-y,1/2+z
loop_
_atom_site_type_symbol
_atom_site_label
_atom_site_fract_x
_atom_site_fract_y
_atom_site_fract_z
Si Si1 0.918813 0.777488 0.896695
Si Si2 0.316413 0.851478 0.947285
Si Si3 0.410578 0.534409 0.245377
Si Si4 0.413635 0.064176 0.708983
Si Si5 0.173823 0.309647 0.773586
O O1 0.895930 0.834054 0.681713
O O2 0.000000 0.736232 0.865847
O O3 0.921490 0.843317 0.106502
O O4 0.848960 0.720044 0.965726
O O5 0.250000 0.863774 0.750000
O O6 0.340496 0.924691 0.123219
O O7 0.308253 0.767048 0.099074
O O8 0.381656 0.500000 0.500000
O O9 0.500000 0.515783 0.247459
O O10 0.396750 0.632573 0.217621
O O11 0.378177 0.500000 0.000000
O O12 0.500000 0.043275 0.789303
O O13 0.396262 0.000000 0.500000
O O14 0.250000 0.362255 0.750000
#
# Coordination Sequence:
#
# PCOD9418770 Si02
#       5
#     8   8   8   8   8
#     4  10  21  38  65  96 129 176 233 287 350 432
#     4  11  22  38  65  98 141 184 235 301 363 439
#     4  10  24  44  66  98 142 189 242 301 364 442
#     4   9  20  39  64  97 139 185 236 296 359 434
#     4  11  23  40  64  95 137 182 229 293 361 430
#
# _framework density 24.621224000000002
#
# number of rings (size 3 to 8) (size 9 to 14) (size 15 to 20)
#    0.000    1.800    2.000    1.200    2.800    4.000 
#    0.000    3.000    4.400    1.200    0.000    0.000 
#    0.000    2.400    0.000    0.000    0.000    0.000 
#
# Total GULP energy -222679.710068 kJ/mol
# GULP energy per Si atom -5566.992752 kJ/mol
# Density = 2.456518 g / cm^3
# Si number density = 24.621224 Si / 1000 Ang^3
#
#
#
# Elastic Constant Matrix: (Units=GPa)
#
#
# Indices 1 2 3 4 5 6 
#
# 1 106.1593 8.6374 58.3651 0.0000 0.0000 0.0000
# 2 8.6374 52.6059 30.9788 0.0000 0.0000 0.0000
# 3 58.3651 30.9788 131.1749 0.0000 0.0000 0.0000
# 4 0.0000 0.0000 0.0000 25.2370 0.0000 0.0000
# 5 0.0000 0.0000 0.0000 0.0000 -0.2328 0.0000
# 6 0.0000 0.0000 0.0000 0.0000 0.0000 40.4502
#
#
#
# Elastic Compliance Matrix: (Units=1/GPa)
#
#
# Indices 1 2 3 4 5 6 
#
# 1 0.012562 0.001427 -0.005926 0.000000 0.000000 0.000000
# 2 0.001427 0.022242 -0.005888 0.000000 0.000000 0.000000
# 3 -0.005926 -0.005888 0.011651 0.000000 0.000000 0.000000
# 4 0.000000 0.000000 0.000000 0.039624 0.000000 0.000000
# 5 0.000000 0.000000 0.000000 0.000000 -4.294852 0.000000
# 6 0.000000 0.000000 0.000000 0.000000 0.000000 0.024722
#
#
# Mechanical properties :
#
#
# Convention : Reuss Voigt Hill
#
# Bulk Modulus (GPa) = 38.93908 53.98918 46.46413
# Shear Modulus (GPa) = -1.20345 25.88813 12.34234
#
# Velocity S-wave (km/s) = -0.69989 3.24613 2.24138
# Velocity P-wave (km/s) = 3.89826 6.00211 5.06072
#
# Compressibility (1/GPa) = 0.02568114
#
# Stress axis : x y z
#
# Youngs Moduli (GPa) = 79.60554 44.95950 85.83074
#
# Poissons Ratio (x) = -0.06418 0.50867
# Poissons Ratio (y) = -0.11363 0.50537
# Poissons Ratio (z) = 0.47178 0.26472
#
# Static dielectric constant tensor:
#      x y z
#    x 2.049390 0.000000 0.000000 
#    y 0.000000 2.034450 0.000000 
#    z 0.000000 0.000000 1.853980 
# 
# From -- ./inp_files/2110.got.cif
#   From: 2010.05.17/outbox.cif.g08.bks.cpg/sg53_2_cif.got.tgz:2110.got - 2010.06.03 12:45:16.
