data_PCOD9418772
_publ_section_title
;
Structure prediction by ZEFSAII (Michael W. Deem and Ramdas Pophale) SiO2 
 PCOD9418772
Probable space group: P M N A
;
_chemical_formula_sum "Si O2"
_cell_formula_units_Z 40
_cell_length_a 15.958509
_cell_length_b 12.817434
_cell_length_c 8.570382
_cell_angle_alpha 90.000000
_cell_angle_beta 90.000000
_cell_angle_gamma 90.000000
_cell_volume 1753.047091
_symmetry_space_group_name_H-M "P M N A"
_symmetry_group_IT_number 53
_symmetry_cell_setting 'orthorhombic'
loop_
_space_group_symop_operation_xyz
x,y,z
1/2-x,-y,1/2+z
x,-y,-z
1/2-x,y,1/2-z
-x,-y,-z
1/2+x,y,1/2-z
-x,y,z
1/2+x,-y,1/2+z
loop_
_atom_site_type_symbol
_atom_site_label
_atom_site_fract_x
_atom_site_fract_y
_atom_site_fract_z
Si Si1 0.096799 0.610505 0.551659
Si Si2 0.500000 0.027157 0.818944
Si Si3 0.404802 0.386982 0.424328
Si Si4 0.849815 0.830198 0.406521
Si Si5 0.827844 0.810931 0.035639
Si Si6 0.000000 0.091848 0.079113
O O1 0.136799 0.500000 0.500000
O O2 0.098633 0.610389 0.738432
O O3 0.129598 0.718963 0.483114
O O4 0.000000 0.607556 0.497042
O O5 0.578226 0.082796 0.896796
O O6 0.500000 0.040164 0.622764
O O7 0.500000 0.905546 0.779132
O O8 0.395191 0.500000 0.500000
O O9 0.500000 0.349616 0.469464
O O10 0.334299 0.308582 0.483358
O O11 0.839393 0.810943 0.221406
O O12 0.762561 0.863070 0.487342
O O13 0.906573 0.862932 0.949830
#
# Coordination Sequence:
#
# PCOD9418772 Si02
#       6
#     8   4   8   8   8   4
#     4  10  21  38  66  98 138 180 218 271 341 404
#     4  12  28  48  71  96 135 178 227 290 347 406
#     4  10  21  38  66 100 133 180 228 267 327 413
#     4  11  24  44  66 101 136 172 221 283 343 402
#     4  11  24  42  70 100 133 173 228 279 334 411
#     4  12  24  48  75  94 129 186 229 280 347 408
#
# _framework density 22.817412000000001
#
# number of rings (size 3 to 8) (size 9 to 14) (size 15 to 20)
#    0.000    1.200    4.000    1.200    2.800    4.000 
#    0.000    0.000    0.000    0.000    0.000    0.000 
#    0.000    0.000    0.000    0.000    0.000    0.000 
#
# Total GULP energy -222857.712571 kJ/mol
# GULP energy per Si atom -5571.442814 kJ/mol
# Density = 2.276548 g / cm^3
# Si number density = 22.817412 Si / 1000 Ang^3
#
#
#
# Elastic Constant Matrix: (Units=GPa)
#
#
# Indices 1 2 3 4 5 6 
#
# 1 167.8264 83.2208 55.8971 0.0000 0.0000 0.0000
# 2 83.2208 99.3531 41.9335 0.0000 0.0000 0.0000
# 3 55.8971 41.9335 73.8691 0.0000 0.0000 0.0000
# 4 0.0000 0.0000 0.0000 45.4540 0.0000 0.0000
# 5 0.0000 0.0000 0.0000 0.0000 16.1423 0.0000
# 6 0.0000 0.0000 0.0000 0.0000 0.0000 -4.1390
#
#
#
# Elastic Compliance Matrix: (Units=1/GPa)
#
#
# Indices 1 2 3 4 5 6 
#
# 1 0.011057 -0.007536 -0.004089 0.000000 0.000000 0.000000
# 2 -0.007536 0.018373 -0.004727 0.000000 0.000000 0.000000
# 3 -0.004089 -0.004727 0.019315 0.000000 0.000000 0.000000
# 4 0.000000 0.000000 0.000000 0.022000 0.000000 0.000000
# 5 0.000000 0.000000 0.000000 0.000000 0.061949 0.000000
# 6 0.000000 0.000000 0.000000 0.000000 0.000000 -0.241603
#
#
# Mechanical properties :
#
#
# Convention : Reuss Voigt Hill
#
# Bulk Modulus (GPa) = 62.34176 78.12794 70.23485
# Shear Modulus (GPa) = -70.56508 22.15792 -24.20358
#
# Velocity S-wave (km/s) = -5.56715 3.11962 -3.26045
# Velocity P-wave (km/s) = 3.73401 6.87684 4.08338
#
# Compressibility (1/GPa) = 0.01604061
#
# Stress axis : x y z
#
# Youngs Moduli (GPa) = 90.43644 54.42847 51.77272
#
# Poissons Ratio (x) = 0.41018 0.21171
# Poissons Ratio (y) = 0.68154 0.24473
# Poissons Ratio (z) = 0.36981 0.25729
#
# Static dielectric constant tensor:
#      x y z
#    x 1.911960 0.000000 0.000000 
#    y 0.000000 1.904370 0.000000 
#    z 0.000000 0.000000 2.179180 
# 
# From -- ./inp_files/8480.got.cif
#   From: 2010.05.17/outbox.cif.g08.bks.cpg/sg53_5_cif.got.tgz:8480.got - 2010.06.03 12:45:16.
