data_PCOD9418831
_publ_section_title
;
Structure prediction by ZEFSAII (Michael W. Deem and Ramdas Pophale) SiO2 
 PCOD9418831
Probable space group: P M N A
;
_chemical_formula_sum "Si O2"
_cell_formula_units_Z 56
_cell_length_a 14.143562
_cell_length_b 9.714298
_cell_length_c 22.184580
_cell_angle_alpha 90.000000
_cell_angle_beta 90.000000
_cell_angle_gamma 90.000000
_cell_volume 3048.045401
_symmetry_space_group_name_H-M "P M N A"
_symmetry_group_IT_number 53
_symmetry_cell_setting 'orthorhombic'
loop_
_space_group_symop_operation_xyz
x,y,z
1/2-x,-y,1/2+z
x,-y,-z
1/2-x,y,1/2-z
-x,-y,-z
1/2+x,y,1/2-z
-x,y,z
1/2+x,-y,1/2+z
loop_
_atom_site_type_symbol
_atom_site_label
_atom_site_fract_x
_atom_site_fract_y
_atom_site_fract_z
Si Si1 0.752017 0.522841 0.146298
Si Si2 0.612683 0.408233 0.748441
Si Si3 0.755886 0.206593 0.565282
Si Si4 0.613544 0.009886 0.131687
Si Si5 0.112895 0.984559 0.895608
Si Si6 0.739633 0.241336 0.074692
Si Si7 0.613442 0.913379 0.262676
O O1 0.841639 0.515773 0.191264
O O2 0.662367 0.538869 0.190947
O O3 0.759224 0.659091 0.105691
O O4 0.744114 0.389352 0.105134
O O5 0.500000 0.419839 0.750685
O O6 0.640310 0.247108 0.740395
O O7 0.839933 0.114783 0.593863
O O8 0.663859 0.107583 0.568033
O O9 0.776559 0.246105 0.496733
O O10 0.500000 0.007866 0.127721
O O11 0.643392 0.988292 0.201481
O O12 0.658254 0.148479 0.105301
O O13 0.138786 0.017388 0.825786
O O14 0.000000 0.983601 0.902769
O O15 0.163519 0.843537 0.913873
O O16 0.500000 0.913959 0.261559
#
# Coordination Sequence:
#
# PCOD9418831 Si02
#       7
#     8   8   8   8   8   8   8
#     4  11  23  39  62  87 120 156 187 240 296 342
#     4  10  21  39  63  90 113 146 196 242 290 348
#     4  11  22  39  61  83 116 160 204 235 272 347
#     4  10  21  39  63  88 115 150 196 248 293 338
#     4  10  21  39  63  88 115 150 196 248 293 338
#     4  11  26  38  53  88 125 158 192 231 291 351
#     4   9  17  33  62  89 107 139 191 244 291 337
#
# _framework density 18.372430000000001
#
# number of rings (size 3 to 8) (size 9 to 14) (size 15 to 20)
#    0.000    1.714    2.857    2.143    0.000    8.000 
#    0.000    1.429    0.000    5.143    0.000    0.000 
#    0.000    0.000    0.000    0.000    0.000    0.000 
#
# Total GULP energy -312774.195454 kJ/mol
# GULP energy per Si atom -5585.253490 kJ/mol
# Density = 1.833061 g / cm^3
# Si number density = 18.372430 Si / 1000 Ang^3
#
#
#
# Elastic Constant Matrix: (Units=GPa)
#
#
# Indices 1 2 3 4 5 6 
#
# 1 82.4310 9.7327 -4.9318 0.0000 0.0000 0.0000
# 2 9.7327 83.7600 6.2925 0.0000 0.0000 0.0000
# 3 -4.9318 6.2925 75.8612 0.0000 0.0000 0.0000
# 4 0.0000 0.0000 0.0000 25.0671 0.0000 0.0000
# 5 0.0000 0.0000 0.0000 0.0000 19.7595 0.0000
# 6 0.0000 0.0000 0.0000 0.0000 0.0000 11.2970
#
#
#
# Elastic Compliance Matrix: (Units=1/GPa)
#
#
# Indices 1 2 3 4 5 6 
#
# 1 0.012365 -0.001507 0.000929 0.000000 0.000000 0.000000
# 2 -0.001507 0.012197 -0.001110 0.000000 0.000000 0.000000
# 3 0.000929 -0.001110 0.013334 0.000000 0.000000 0.000000
# 4 0.000000 0.000000 0.000000 0.039893 0.000000 0.000000
# 5 0.000000 0.000000 0.000000 0.000000 0.050609 0.000000
# 6 0.000000 0.000000 0.000000 0.000000 0.000000 0.088519
#
#
# Mechanical properties :
#
#
# Convention : Reuss Voigt Hill
#
# Bulk Modulus (GPa) = 28.96730 29.35990 29.16360
# Shear Modulus (GPa) = 21.57037 26.62196 24.09616
#
# Velocity S-wave (km/s) = 3.43018 3.81072 3.62545
# Velocity P-wave (km/s) = 5.61151 5.94788 5.78214
#
# Compressibility (1/GPa) = 0.03452168
#
# Stress axis : x y z
#
# Youngs Moduli (GPa) = 80.87471 81.98536 74.99400
#
# Poissons Ratio (x) = 0.12351 -0.06965
# Poissons Ratio (y) = 0.12184 0.08322
# Poissons Ratio (z) = -0.07512 0.09098
#
# Static dielectric constant tensor:
#      x y z
#    x 1.638030 0.000000 0.000000 
#    y 0.000000 1.604440 0.000000 
#    z 0.000000 0.000000 1.633480 
# 
# From -- ./inp_files/32445.got.cif
#   From: 2010.05.17/outbox.cif.g08.bks.cpg/sg53_17_cif.got.tgz:32445.got - 2010.06.03 12:45:16.
