data_PCOD9418026
_publ_section_title
;
Structure prediction by ZEFSAII (Michael W. Deem and Ramdas Pophale) SiO2 
 PCOD9418026
Probable space group: P M N A
;
_chemical_formula_sum "Si O2"
_cell_formula_units_Z 40
_cell_length_a 18.482399
_cell_length_b 7.473442
_cell_length_c 15.040667
_cell_angle_alpha 90.000000
_cell_angle_beta 90.000000
_cell_angle_gamma 90.000000
_cell_volume 2077.524270
_symmetry_space_group_name_H-M "P M N A"
_symmetry_group_IT_number 53
_symmetry_cell_setting 'orthorhombic'
loop_
_space_group_symop_operation_xyz
x,y,z
1/2-x,-y,1/2+z
x,-y,-z
1/2-x,y,1/2-z
-x,-y,-z
1/2+x,y,1/2-z
-x,y,z
1/2+x,-y,1/2+z
loop_
_atom_site_type_symbol
_atom_site_label
_atom_site_fract_x
_atom_site_fract_y
_atom_site_fract_z
Si Si1 0.797063 0.789089 0.338719
Si Si2 0.684180 0.369339 0.180006
Si Si3 0.921409 0.875353 0.914414
Si Si4 0.224619 0.709597 0.981275
Si Si5 0.916906 0.942184 0.716852
O O1 0.750000 0.822437 0.250000
O O2 0.823911 0.582100 0.334165
O O3 0.747134 0.805427 0.426847
O O4 0.864093 0.923938 0.334808
O O5 0.750000 0.346781 0.250000
O O6 0.710752 0.278345 0.089037
O O7 0.614560 0.259336 0.210521
O O8 0.849239 0.765907 0.933761
O O9 0.913442 0.983235 0.822538
O O10 0.000000 0.778634 0.907026
O O11 0.925967 0.000000 0.000000
O O12 0.216628 0.500000 0.000000
O O13 0.000000 0.952878 0.687971
#
# Coordination Sequence:
#
# PCOD9418026 Si02
#       5
#     8   8   8   8   8
#     4  10  22  38  60  89 118 155 200 243 290 352
#     4  10  20  38  61  87 115 152 203 246 288 348
#     4  10  21  36  56  88 123 152 189 239 299 363
#     4  10  21  37  61  87 114 154 198 245 296 345
#     4  11  23  39  60  86 121 162 194 239 303 349
#
# _framework density 19.253686999999999
#
# number of rings (size 3 to 8) (size 9 to 14) (size 15 to 20)
#    0.000    1.800    2.000    1.800    2.800    1.200 
#    0.000    2.000    0.000    3.600    0.000    0.000 
#    0.000    0.000    0.000    0.000    0.000    0.000 
#
# Total GULP energy -223139.163069 kJ/mol
# GULP energy per Si atom -5578.479077 kJ/mol
# Density = 1.920986 g / cm^3
# Si number density = 19.253687 Si / 1000 Ang^3
#
#
#
# Elastic Constant Matrix: (Units=GPa)
#
#
# Indices 1 2 3 4 5 6 
#
# 1 124.3831 51.2179 13.3137 0.0000 0.0000 0.0000
# 2 51.2179 54.6442 4.7895 0.0000 0.0000 0.0000
# 3 13.3137 4.7895 57.5377 0.0000 0.0000 0.0000
# 4 0.0000 0.0000 0.0000 20.6916 0.0000 0.0000
# 5 0.0000 0.0000 0.0000 0.0000 18.4250 0.0000
# 6 0.0000 0.0000 0.0000 0.0000 0.0000 29.5988
#
#
#
# Elastic Compliance Matrix: (Units=1/GPa)
#
#
# Indices 1 2 3 4 5 6 
#
# 1 0.013331 -0.012315 -0.002060 0.000000 0.000000 0.000000
# 2 -0.012315 0.029810 0.000368 0.000000 0.000000 0.000000
# 3 -0.002060 0.000368 0.017826 0.000000 0.000000 0.000000
# 4 0.000000 0.000000 0.000000 0.048329 0.000000 0.000000
# 5 0.000000 0.000000 0.000000 0.000000 0.054274 0.000000
# 6 0.000000 0.000000 0.000000 0.000000 0.000000 0.033785
#
#
# Mechanical properties :
#
#
# Convention : Reuss Voigt Hill
#
# Bulk Modulus (GPa) = 30.34447 41.68968 36.01707
# Shear Modulus (GPa) = 21.15484 24.89267 23.02376
#
# Velocity S-wave (km/s) = 3.31832 3.59956 3.46180
# Velocity P-wave (km/s) = 5.52053 6.24305 5.89287
#
# Compressibility (1/GPa) = 0.03295494
#
# Stress axis : x y z
#
# Youngs Moduli (GPa) = 75.01330 33.54536 56.09829
#
# Poissons Ratio (x) = 0.41310 0.11554
# Poissons Ratio (y) = 0.92376 -0.02064
# Poissons Ratio (z) = 0.15450 -0.01235
#
# Static dielectric constant tensor:
#      x y z
#    x 1.692700 0.000000 0.000000 
#    y 0.000000 1.686310 0.000000 
#    z 0.000000 0.000000 1.721120 
# 
# From -- ./inp_files/22388.got.cif
#   From: 2010.05.17/outbox.cif.g08.bks.cpg/sg53_12_cif.got.tgz:22388.got - 2010.06.03 12:45:16.
