data_PCOD9418448
_publ_section_title
;
Structure prediction by ZEFSAII (Michael W. Deem and Ramdas Pophale) SiO2 
 PCOD9418448
Probable space group: P M N A
;
_chemical_formula_sum "Si O2"
_cell_formula_units_Z 64
_cell_length_a 17.850635
_cell_length_b 6.035665
_cell_length_c 30.637481
_cell_angle_alpha 90.000000
_cell_angle_beta 90.000000
_cell_angle_gamma 90.000000
_cell_volume 3300.896079
_symmetry_space_group_name_H-M "P M N A"
_symmetry_group_IT_number 53
_symmetry_cell_setting 'orthorhombic'
loop_
_space_group_symop_operation_xyz
x,y,z
1/2-x,-y,1/2+z
x,-y,-z
1/2-x,y,1/2-z
-x,-y,-z
1/2+x,y,1/2-z
-x,y,z
1/2+x,-y,1/2+z
loop_
_atom_site_type_symbol
_atom_site_label
_atom_site_fract_x
_atom_site_fract_y
_atom_site_fract_z
Si Si1 0.671534 0.812020 0.129655
Si Si2 0.584149 0.819779 0.825245
Si Si3 0.205618 0.533821 0.169372
Si Si4 0.410590 0.917787 0.339021
Si Si5 0.707151 0.751196 0.978224
Si Si6 0.912577 0.555815 0.584970
Si Si7 0.699527 0.850291 0.599538
Si Si8 0.327063 0.826924 0.738479
O O1 0.719090 0.674324 0.164914
O O2 0.633714 0.670799 0.091176
O O3 0.608010 0.946393 0.154469
O O4 0.734289 0.976759 0.110800
O O5 0.500000 0.823549 0.809250
O O6 0.589546 0.654645 0.866042
O O7 0.635279 0.772126 0.784124
O O8 0.132451 0.684395 0.162806
O O9 0.211709 0.363298 0.129416
O O10 0.196711 0.392121 0.212572
O O11 0.500000 0.904690 0.339451
O O12 0.376680 0.042137 0.381844
O O13 0.380071 0.044252 0.295645
O O14 0.634247 0.713271 0.947135
O O15 0.783203 0.780274 0.949633
O O16 0.712497 0.500000 0.000000
O O17 0.698410 0.000000 0.000000
O O18 0.000000 0.529161 0.572445
O O19 0.250000 0.954606 0.750000
#
# Coordination Sequence:
#
# PCOD9418448 Si02
#       8
#     8   8   8   8   8   8   8   8
#     4  11  18  39  63  86 123 176 230 265 327 398
#     4  11  23  37  58  84 127 175 214 268 327 387
#     4  10  21  36  66  88 124 170 222 271 330 396
#     4  10  23  40  65  96 131 172 221 281 342 405
#     4  12  26  44  73 105 135 176 231 295 352 423
#     4  11  24  41  63  93 134 181 223 274 340 407
#     4  10  21  41  67  94 126 170 213 274 336 419
#     4  11  22  38  57  92 127 172 224 277 321 390
#
# _framework density 19.388674000000002
#
# number of rings (size 3 to 8) (size 9 to 14) (size 15 to 20)
#    0.000    1.250    2.500    4.500    1.750    5.500 
#    0.000    2.500    0.000    0.750    0.000    0.000 
#    0.000    0.000    0.000    0.000    0.000    0.000 
#
# Total GULP energy -356895.176422 kJ/mol
# GULP energy per Si atom -5576.487132 kJ/mol
# Density = 1.934454 g / cm^3
# Si number density = 19.388674 Si / 1000 Ang^3
#
#
#
# Elastic Constant Matrix: (Units=GPa)
#
#
# Indices 1 2 3 4 5 6 
#
# 1 117.0185 25.9946 33.3314 0.0000 0.0000 0.0000
# 2 25.9946 92.1980 34.4392 0.0000 0.0000 0.0000
# 3 33.3314 34.4392 75.9543 0.0000 0.0000 0.0000
# 4 0.0000 0.0000 0.0000 18.1619 0.0000 0.0000
# 5 0.0000 0.0000 0.0000 0.0000 5.1178 0.0000
# 6 0.0000 0.0000 0.0000 0.0000 0.0000 9.4856
#
#
#
# Elastic Compliance Matrix: (Units=1/GPa)
#
#
# Indices 1 2 3 4 5 6 
#
# 1 0.009916 -0.001409 -0.003713 0.000000 0.000000 0.000000
# 2 -0.001409 0.013258 -0.005393 0.000000 0.000000 0.000000
# 3 -0.003713 -0.005393 0.017240 0.000000 0.000000 0.000000
# 4 0.000000 0.000000 0.000000 0.055060 0.000000 0.000000
# 5 0.000000 0.000000 0.000000 0.000000 0.195396 0.000000
# 6 0.000000 0.000000 0.000000 0.000000 0.000000 0.105422
#
#
# Mechanical properties :
#
#
# Convention : Reuss Voigt Hill
#
# Bulk Modulus (GPa) = 51.58634 52.52235 52.05435
# Shear Modulus (GPa) = 11.79843 19.31344 15.55593
#
# Velocity S-wave (km/s) = 2.46950 3.15956 2.83560
# Velocity P-wave (km/s) = 5.89877 6.36069 6.13408
#
# Compressibility (1/GPa) = 0.01938498
#
# Stress axis : x y z
#
# Youngs Moduli (GPa) = 100.84537 75.42612 58.00316
#
# Poissons Ratio (x) = 0.10627 0.21535
# Poissons Ratio (y) = 0.14209 0.31282
# Poissons Ratio (z) = 0.37441 0.40678
#
# Static dielectric constant tensor:
#      x y z
#    x 1.664750 0.000000 0.000000 
#    y 0.000000 1.742680 0.000000 
#    z 0.000000 0.000000 1.707040 
# 
# From -- ./inp_files/39053.got.cif
#   From: 2010.05.17/outbox.cif.g08.bks.cpg/sg53_20_cif.got.tgz:39053.got - 2010.06.03 12:45:16.
