data_PCOD9418330
_publ_section_title
;
Structure prediction by ZEFSAII (Michael W. Deem and Ramdas Pophale) SiO2 
 PCOD9418330
Probable space group: P M N A
;
_chemical_formula_sum "Si O2"
_cell_formula_units_Z 32
_cell_length_a 33.013022
_cell_length_b 5.602280
_cell_length_c 7.431738
_cell_angle_alpha 90.000000
_cell_angle_beta 90.000000
_cell_angle_gamma 90.000000
_cell_volume 1374.486513
_symmetry_space_group_name_H-M "P M N A"
_symmetry_group_IT_number 53
_symmetry_cell_setting 'orthorhombic'
loop_
_space_group_symop_operation_xyz
x,y,z
1/2-x,-y,1/2+z
x,-y,-z
1/2-x,y,1/2-z
-x,-y,-z
1/2+x,y,1/2-z
-x,y,z
1/2+x,-y,1/2+z
loop_
_atom_site_type_symbol
_atom_site_label
_atom_site_fract_x
_atom_site_fract_y
_atom_site_fract_z
Si Si1 0.790938 0.000000 0.000000
Si Si2 0.080056 0.520556 0.704745
Si Si3 0.452407 0.020436 0.783412
Si Si4 0.250000 0.365532 0.750000
Si Si5 0.830782 0.378123 0.197442
O O1 0.762534 0.798680 0.082642
O O2 0.819680 0.104699 0.155073
O O3 0.064129 0.500000 0.500000
O O4 0.070739 0.258117 0.783490
O O5 0.127836 0.573409 0.702679
O O6 0.060557 0.759614 0.788772
O O7 0.500000 0.056657 0.753676
O O8 0.445025 0.000000 0.000000
O O9 0.209576 0.514922 0.715655
O O10 0.835570 0.500000 0.000000
#
# Coordination Sequence:
#
# PCOD9418330 Si02
#       5
#     4   8   8   4   8
#     4  10  22  40  62  82 115 164 195 254 304 354
#     4  10  21  35  60  91 117 154 199 248 296 355
#     4   9  18  35  58  88 120 151 193 248 304 353
#     4  10  22  40  60  86 114 158 202 244 302 360
#     4  10  23  39  57  85 118 159 195 241 299 355
#
# _framework density 23.281420000000001
#
# number of rings (size 3 to 8) (size 9 to 14) (size 15 to 20)
#    0.000    2.250    0.000    1.500    7.000    8.000 
#    2.250    0.000    0.000    4.500    0.000    0.000 
#    0.000    0.000    0.000    0.000    0.000    0.000 
#
# Total GULP energy -178701.416927 kJ/mol
# GULP energy per Si atom -5584.419279 kJ/mol
# Density = 2.322843 g / cm^3
# Si number density = 23.281420 Si / 1000 Ang^3
#
#
#
# Elastic Constant Matrix: (Units=GPa)
#
#
# Indices 1 2 3 4 5 6 
#
# 1 103.2354 78.1031 -11.8145 0.0000 0.0000 0.0000
# 2 78.1031 189.6615 6.3957 0.0000 0.0000 0.0000
# 3 -11.8145 6.3957 53.8456 0.0000 0.0000 0.0000
# 4 0.0000 0.0000 0.0000 5.7639 0.0000 0.0000
# 5 0.0000 0.0000 0.0000 0.0000 4.7160 0.0000
# 6 0.0000 0.0000 0.0000 0.0000 0.0000 27.4478
#
#
#
# Elastic Compliance Matrix: (Units=1/GPa)
#
#
# Indices 1 2 3 4 5 6 
#
# 1 0.014885 -0.006265 0.004010 0.000000 0.000000 0.000000
# 2 -0.006265 0.007931 -0.002317 0.000000 0.000000 0.000000
# 3 0.004010 -0.002317 0.019727 0.000000 0.000000 0.000000
# 4 0.000000 0.000000 0.000000 0.173492 0.000000 0.000000
# 5 0.000000 0.000000 0.000000 0.000000 0.212043 0.000000
# 6 0.000000 0.000000 0.000000 0.000000 0.000000 0.036433
#
#
# Mechanical properties :
#
#
# Convention : Reuss Voigt Hill
#
# Bulk Modulus (GPa) = 29.94033 54.67902 42.30967
# Shear Modulus (GPa) = 10.31380 25.85610 18.08495
#
# Velocity S-wave (km/s) = 2.10705 3.33617 2.79013
# Velocity P-wave (km/s) = 4.33678 6.19493 5.34718
#
# Compressibility (1/GPa) = 0.03339976
#
# Stress axis : x y z
#
# Youngs Moduli (GPa) = 67.17982 126.09305 50.69277
#
# Poissons Ratio (x) = 0.78998 -0.20329
# Poissons Ratio (y) = 0.42089 0.11744
# Poissons Ratio (z) = -0.26941 0.29211
#
# Static dielectric constant tensor:
#      x y z
#    x 1.804490 0.000000 0.000000 
#    y 0.000000 1.956580 0.000000 
#    z 0.000000 0.000000 1.921280 
# 
# From -- ./inp_files/12699.got.cif
#   From: 2010.05.17/outbox.cif.g08.bks.cpg/sg53_7_cif.got.tgz:12699.got - 2010.06.03 12:45:16.
