data_PCOD9418945
_publ_section_title
;
Structure prediction by ZEFSAII (Michael W. Deem and Ramdas Pophale) SiO2 
 PCOD9418945
Probable space group: P M N A
;
_chemical_formula_sum "Si O2"
_cell_formula_units_Z 32
_cell_length_a 15.417177
_cell_length_b 17.188869
_cell_length_c 5.332189
_cell_angle_alpha 90.000000
_cell_angle_beta 90.000000
_cell_angle_gamma 90.000000
_cell_volume 1413.050538
_symmetry_space_group_name_H-M "P M N A"
_symmetry_group_IT_number 53
_symmetry_cell_setting 'orthorhombic'
loop_
_space_group_symop_operation_xyz
x,y,z
1/2-x,-y,1/2+z
x,-y,-z
1/2-x,y,1/2-z
-x,-y,-z
1/2+x,y,1/2-z
-x,y,z
1/2+x,-y,1/2+z
loop_
_atom_site_type_symbol
_atom_site_label
_atom_site_fract_x
_atom_site_fract_y
_atom_site_fract_z
Si Si1 0.856821 0.816851 0.749644
Si Si2 0.673962 0.590230 0.930034
Si Si3 0.850724 0.269308 0.750494
Si Si4 0.500000 0.051792 0.251505
Si Si5 0.000000 0.448936 0.244598
O O1 0.750000 0.827163 0.750000
O O2 0.885838 0.773366 0.495362
O O3 0.913162 0.895032 0.759004
O O4 0.883429 0.763835 0.988697
O O5 0.750000 0.621412 0.750000
O O6 0.588629 0.596160 0.762664
O O7 0.692236 0.500000 0.000000
O O8 0.652403 0.639266 0.179163
O O9 0.750000 0.247292 0.750000
O O10 0.500000 0.000000 0.500000
O O11 0.500000 0.000000 0.000000
O O12 0.000000 0.500000 0.500000
O O13 0.000000 0.500000 0.000000
#
# Coordination Sequence:
#
# PCOD9418945 Si02
#       5
#     8   8   8   4   4
#     4  10  23  43  66  94 136 175 210 261 321 391
#     4  11  22  38  64  93 130 176 231 296 343 377
#     4  10  21  40  64  93 128 176 226 265 322 396
#     4  12  26  44  72 108 133 162 215 262 318 403
#     4  10  24  40  54  82 120 160 214 278 349 411
#
# _framework density 22.646042999999999
#
# number of rings (size 3 to 8) (size 9 to 14) (size 15 to 20)
#    0.000    1.500    0.000    5.250    0.000    9.000 
#    0.000    0.000    0.000    6.000    0.000    0.000 
#    0.000    0.000    0.000    0.000    0.000    0.000 
#
# Total GULP energy -178781.220875 kJ/mol
# GULP energy per Si atom -5586.913152 kJ/mol
# Density = 2.259450 g / cm^3
# Si number density = 22.646043 Si / 1000 Ang^3
#
#
#
# Elastic Constant Matrix: (Units=GPa)
#
#
# Indices 1 2 3 4 5 6 
#
# 1 125.4784 29.9224 45.8531 0.0000 0.0000 0.0000
# 2 29.9224 156.3567 98.6775 0.0000 0.0000 0.0000
# 3 45.8531 98.6775 216.1460 0.0000 0.0000 0.0000
# 4 0.0000 0.0000 0.0000 56.5336 0.0000 0.0000
# 5 0.0000 0.0000 0.0000 0.0000 17.8084 0.0000
# 6 0.0000 0.0000 0.0000 0.0000 0.0000 -22.5651
#
#
#
# Elastic Compliance Matrix: (Units=1/GPa)
#
#
# Indices 1 2 3 4 5 6 
#
# 1 0.008694 -0.000702 -0.001524 0.000000 0.000000 0.000000
# 2 -0.000702 0.009041 -0.003978 0.000000 0.000000 0.000000
# 3 -0.001524 -0.003978 0.006766 0.000000 0.000000 0.000000
# 4 0.000000 0.000000 0.000000 0.017689 0.000000 0.000000
# 5 0.000000 0.000000 0.000000 0.000000 0.056153 0.000000
# 6 0.000000 0.000000 0.000000 0.000000 0.000000 -0.044316
#
#
# Mechanical properties :
#
#
# Convention : Reuss Voigt Hill
#
# Bulk Modulus (GPa) = 82.69955 94.09857 88.39906
# Shear Modulus (GPa) = 70.95666 31.92393 51.44029
#
# Velocity S-wave (km/s) = 5.60365 3.75866 4.77119
# Velocity P-wave (km/s) = 8.85808 7.77681 8.33500
#
# Compressibility (1/GPa) = 0.01209196
#
# Stress axis : x y z
#
# Youngs Moduli (GPa) = 115.02518 110.60921 147.79656
#
# Poissons Ratio (x) = 0.07766 0.22521
# Poissons Ratio (y) = 0.08076 0.58801
# Poissons Ratio (z) = 0.17527 0.44006
#
# Static dielectric constant tensor:
#      x y z
#    x 1.884840 0.000000 0.000000 
#    y 0.000000 1.877490 0.000000 
#    z 0.000000 0.000000 1.864010 
# 
# From -- ./inp_files/1985.got.cif
#   From: 2010.05.17/outbox.cif.g08.bks.cpg/sg53_1_cif.got.tgz:1985.got - 2010.06.03 12:45:16.
