data_PCOD9418016
_publ_section_title
;
Structure prediction by ZEFSAII (Michael W. Deem and Ramdas Pophale) SiO2 
 PCOD9418016
Probable space group: P M N A
;
_chemical_formula_sum "Si O2"
_cell_formula_units_Z 48
_cell_length_a 29.533907
_cell_length_b 10.424829
_cell_length_c 7.901001
_cell_angle_alpha 90.000000
_cell_angle_beta 90.000000
_cell_angle_gamma 90.000000
_cell_volume 2432.607042
_symmetry_space_group_name_H-M "P M N A"
_symmetry_group_IT_number 53
_symmetry_cell_setting 'orthorhombic'
loop_
_space_group_symop_operation_xyz
x,y,z
1/2-x,-y,1/2+z
x,-y,-z
1/2-x,y,1/2-z
-x,-y,-z
1/2+x,y,1/2-z
-x,y,z
1/2+x,-y,1/2+z
loop_
_atom_site_type_symbol
_atom_site_label
_atom_site_fract_x
_atom_site_fract_y
_atom_site_fract_z
Si Si1 0.699059 0.500000 0.500000
Si Si2 0.212266 0.000000 0.500000
Si Si3 0.449731 0.105514 0.647697
Si Si4 0.949537 0.595968 0.156075
Si Si5 0.356989 0.421437 0.834540
Si Si6 0.149303 0.864479 0.256435
Si Si7 0.227570 0.229701 0.939473
O O1 0.669499 0.528273 0.331761
O O2 0.727314 0.369717 0.480028
O O3 0.180215 0.969747 0.343058
O O4 0.243570 0.877675 0.531214
O O5 0.500000 0.092941 0.730946
O O6 0.446613 0.255775 0.593611
O O7 0.402322 0.090430 0.744959
O O8 0.449069 0.000000 0.500000
O O9 0.910024 0.570207 0.288485
O O10 0.000000 0.578094 0.226715
O O11 0.943826 0.500000 0.000000
O O12 0.348583 0.269684 0.859058
O O13 0.345022 0.500000 0.000000
O O14 0.175936 0.822051 0.085584
O O15 0.250000 0.240124 0.750000
#
# Coordination Sequence:
#
# PCOD9418016 Si02
#       7
#     4   4   8   8   8   8   8
#     4  10  20  42  65  84 120 162 197 260 308 360
#     4  10  20  42  57  80 117 160 198 258 304 362
#     4   9  18  34  60  87 116 157 203 251 304 361
#     4   9  17  33  58  88 123 160 204 254 301 363
#     4  10  20  38  60  92 125 161 205 248 308 374
#     4   9  20  39  57  83 126 156 200 258 301 362
#     4   9  20  40  61  84 118 155 210 251 302 371
#
# _framework density 19.731916999999999
#
# number of rings (size 3 to 8) (size 9 to 14) (size 15 to 20)
#    0.000    2.667    0.833    0.000    1.167    0.333 
#   25.500    0.417    0.000    0.000    0.000    0.000 
#    0.000    0.000    0.000    0.000    0.000    0.000 
#
# Total GULP energy -267478.072573 kJ/mol
# GULP energy per Si atom -5572.459845 kJ/mol
# Density = 1.968701 g / cm^3
# Si number density = 19.731917 Si / 1000 Ang^3
#
#
#
# Elastic Constant Matrix: (Units=GPa)
#
#
# Indices 1 2 3 4 5 6 
#
# 1 131.7060 63.6394 22.7277 0.0000 0.0000 0.0000
# 2 63.6394 116.2862 43.0369 0.0000 0.0000 0.0000
# 3 22.7277 43.0369 52.6318 0.0000 0.0000 0.0000
# 4 0.0000 0.0000 0.0000 30.9123 0.0000 0.0000
# 5 0.0000 0.0000 0.0000 0.0000 -5.8318 0.0000
# 6 0.0000 0.0000 0.0000 0.0000 0.0000 30.2754
#
#
#
# Elastic Compliance Matrix: (Units=1/GPa)
#
#
# Indices 1 2 3 4 5 6 
#
# 1 0.010324 -0.005736 0.000232 0.000000 0.000000 0.000000
# 2 -0.005736 0.015518 -0.010212 0.000000 0.000000 0.000000
# 3 0.000232 -0.010212 0.027250 0.000000 0.000000 0.000000
# 4 0.000000 0.000000 0.000000 0.032350 0.000000 0.000000
# 5 0.000000 0.000000 0.000000 0.000000 -0.171474 0.000000
# 6 0.000000 0.000000 0.000000 0.000000 0.000000 0.033030
#
#
# Mechanical properties :
#
#
# Convention : Reuss Voigt Hill
#
# Bulk Modulus (GPa) = 46.16743 62.15910 54.16327
# Shear Modulus (GPa) = -348.44616 22.48585 -162.98016
#
# Velocity S-wave (km/s) = -13.30314 3.37941 -9.09816
# Velocity P-wave (km/s) = 14.57795 6.84086 9.10272
#
# Compressibility (1/GPa) = 0.02166029
#
# Stress axis : x y z
#
# Youngs Moduli (GPa) = 96.85975 64.44126 36.69705
#
# Poissons Ratio (x) = 0.36963 -0.00851
# Poissons Ratio (y) = 0.55558 0.37475
# Poissons Ratio (z) = -0.02247 0.65808
#
# Static dielectric constant tensor:
#      x y z
#    x 1.765890 0.000000 0.000000 
#    y 0.000000 1.703770 0.000000 
#    z 0.000000 0.000000 1.684130 
# 
# From -- ./inp_files/13101.got.cif
#   From: 2010.05.17/outbox.cif.g08.bks.cpg/sg53_7_cif.got.tgz:13101.got - 2010.06.03 12:45:16.
