data_PCOD9418913
_publ_section_title
;
Structure prediction by ZEFSAII (Michael W. Deem and Ramdas Pophale) SiO2 
 PCOD9418913
Probable space group: P M N A
;
_chemical_formula_sum "Si O2"
_cell_formula_units_Z 40
_cell_length_a 9.064330
_cell_length_b 12.547916
_cell_length_c 18.227963
_cell_angle_alpha 90.000000
_cell_angle_beta 90.000000
_cell_angle_gamma 90.000000
_cell_volume 2073.220284
_symmetry_space_group_name_H-M "P M N A"
_symmetry_group_IT_number 53
_symmetry_cell_setting 'orthorhombic'
loop_
_space_group_symop_operation_xyz
x,y,z
1/2-x,-y,1/2+z
x,-y,-z
1/2-x,y,1/2-z
-x,-y,-z
1/2+x,y,1/2-z
-x,y,z
1/2+x,-y,1/2+z
loop_
_atom_site_type_symbol
_atom_site_label
_atom_site_fract_x
_atom_site_fract_y
_atom_site_fract_z
Si Si1 0.674381 0.342539 0.061731
Si Si2 0.175866 0.713610 0.089658
Si Si3 0.325480 0.146956 0.173022
Si Si4 0.175931 0.530792 0.325663
Si Si5 0.323173 0.036740 0.582570
O O1 0.500000 0.346112 0.041811
O O2 0.699126 0.241207 0.114418
O O3 0.708449 0.447138 0.109268
O O4 0.769620 0.329237 0.989060
O O5 0.257526 0.643927 0.150652
O O6 0.212393 0.839048 0.093053
O O7 0.000000 0.701801 0.096506
O O8 0.250000 0.173129 0.250000
O O9 0.500000 0.135652 0.183619
O O10 0.257658 0.039460 0.139636
O O11 0.250000 0.494822 0.250000
O O12 0.000000 0.535957 0.317076
O O13 0.500000 0.023631 0.590050
O O14 0.283095 0.000000 0.500000
#
# Coordination Sequence:
#
# PCOD9418913 Si02
#       5
#     8   8   8   8   8
#     4  10  22  40  62  90 122 158 199 249 302 357
#     4  11  23  39  64  92 120 158 203 249 299 359
#     4  11  23  38  61  91 123 159 201 248 302 359
#     4  11  24  42  62  87 123 161 201 249 302 358
#     4  10  21  40  62  87 120 158 199 247 298 352
#
# _framework density 19.293655999999999
#
# number of rings (size 3 to 8) (size 9 to 14) (size 15 to 20)
#    0.000    1.400    2.000    3.000    0.000    7.600 
#    0.000    0.000    0.000    0.000    0.000    0.000 
#    0.000    0.000    0.000    0.000    0.000    0.000 
#
# Total GULP energy -223716.653833 kJ/mol
# GULP energy per Si atom -5592.916346 kJ/mol
# Density = 1.924974 g / cm^3
# Si number density = 19.293656 Si / 1000 Ang^3
#
#
#
# Elastic Constant Matrix: (Units=GPa)
#
#
# Indices 1 2 3 4 5 6 
#
# 1 40.3785 32.9703 19.5213 0.0000 0.0000 0.0000
# 2 32.9703 91.1538 -5.2340 0.0000 0.0000 0.0000
# 3 19.5213 -5.2340 29.9043 0.0000 0.0000 0.0000
# 4 0.0000 0.0000 0.0000 12.0897 0.0000 0.0000
# 5 0.0000 0.0000 0.0000 0.0000 36.8552 0.0000
# 6 0.0000 0.0000 0.0000 0.0000 0.0000 38.3148
#
#
#
# Elastic Compliance Matrix: (Units=1/GPa)
#
#
# Indices 1 2 3 4 5 6 
#
# 1 0.077145 -0.031108 -0.055804 0.000000 0.000000 0.000000
# 2 -0.031108 0.023626 0.024442 0.000000 0.000000 0.000000
# 3 -0.055804 0.024442 0.074147 0.000000 0.000000 0.000000
# 4 0.000000 0.000000 0.000000 0.082715 0.000000 0.000000
# 5 0.000000 0.000000 0.000000 0.000000 0.027133 0.000000
# 6 0.000000 0.000000 0.000000 0.000000 0.000000 0.026100
#
#
# Mechanical properties :
#
#
# Convention : Reuss Voigt Hill
#
# Bulk Modulus (GPa) = 20.00919 28.43909 24.22414
# Shear Modulus (GPa) = 11.05058 25.06387 18.05722
#
# Velocity S-wave (km/s) = 2.39583 3.60818 3.06259
# Velocity P-wave (km/s) = 4.24814 5.66839 5.00886
#
# Compressibility (1/GPa) = 0.04997705
#
# Stress axis : x y z
#
# Youngs Moduli (GPa) = 12.96257 42.32702 13.48678
#
# Poissons Ratio (x) = 1.31670 0.75262
# Poissons Ratio (y) = 0.40324 -0.32964
# Poissons Ratio (z) = 0.72337 -1.03455
#
# Static dielectric constant tensor:
#      x y z
#    x 1.638130 0.000000 0.000000 
#    y 0.000000 1.664360 0.000000 
#    z 0.000000 0.000000 1.650440 
# 
# From -- ./inp_files/19901.got.cif
#   From: 2010.05.17/outbox.cif.g08.bks.cpg/sg53_10_cif.got.tgz:19901.got - 2010.06.03 12:45:16.
