data_PCOD9418656
_publ_section_title
;
Structure prediction by ZEFSAII (Michael W. Deem and Ramdas Pophale) SiO2 
 PCOD9418656
Probable space group: P M N A
;
_chemical_formula_sum "Si O2"
_cell_formula_units_Z 32
_cell_length_a 8.943276
_cell_length_b 7.147374
_cell_length_c 28.885205
_cell_angle_alpha 90.000000
_cell_angle_beta 90.000000
_cell_angle_gamma 90.000000
_cell_volume 1846.369408
_symmetry_space_group_name_H-M "P M N A"
_symmetry_group_IT_number 53
_symmetry_cell_setting 'orthorhombic'
loop_
_space_group_symop_operation_xyz
x,y,z
1/2-x,-y,1/2+z
x,-y,-z
1/2-x,y,1/2-z
-x,-y,-z
1/2+x,y,1/2-z
-x,y,z
1/2+x,-y,1/2+z
loop_
_atom_site_type_symbol
_atom_site_label
_atom_site_fract_x
_atom_site_fract_y
_atom_site_fract_z
Si Si1 0.679140 0.985655 0.053868
Si Si2 0.822570 0.689978 0.625537
Si Si3 0.177775 0.713375 0.126388
Si Si4 0.321378 0.009338 0.800446
O O1 0.500000 0.953095 0.057950
O O2 0.710939 0.177733 0.081449
O O3 0.763119 0.821135 0.080843
O O4 0.717520 0.000000 0.000000
O O5 0.730964 0.500142 0.625751
O O6 0.792145 0.820370 0.670143
O O7 0.000000 0.647059 0.624816
O O8 0.000000 0.726845 0.129372
O O9 0.252010 0.822592 0.169490
O O10 0.250000 0.000718 0.750000
O O11 0.500000 0.033099 0.797679
#
# Coordination Sequence:
#
# PCOD9418656 Si02
#       4
#     8   8   8   8
#     4   9  19  37  59  80 105 141 183 225 268 316
#     4   9  19  36  56  78 107 142 180 221 263 314
#     4  11  22  35  54  80 112 145 177 219 267 318
#     4  10  21  38  59  81 107 140 179 223 268 316
#
# _framework density 17.331309999999998
#
# number of rings (size 3 to 8) (size 9 to 14) (size 15 to 20)
#    0.000    2.250    0.000    4.500    0.000    7.500 
#    0.000    7.500    0.000    0.000    0.000    0.000 
#    0.000    0.000    0.000    0.000    0.000    0.000 
#
# Total GULP energy -178659.955882 kJ/mol
# GULP energy per Si atom -5583.123621 kJ/mol
# Density = 1.729186 g / cm^3
# Si number density = 17.331310 Si / 1000 Ang^3
#
#
#
# Elastic Constant Matrix: (Units=GPa)
#
#
# Indices 1 2 3 4 5 6 
#
# 1 100.6413 92.1456 86.3058 0.0000 0.0000 0.0000
# 2 92.1456 142.7567 85.9230 0.0000 0.0000 0.0000
# 3 86.3058 85.9230 184.0656 0.0000 0.0000 0.0000
# 4 0.0000 0.0000 0.0000 3.4648 0.0000 0.0000
# 5 0.0000 0.0000 0.0000 0.0000 30.4932 0.0000
# 6 0.0000 0.0000 0.0000 0.0000 0.0000 6.5833
#
#
#
# Elastic Compliance Matrix: (Units=1/GPa)
#
#
# Indices 1 2 3 4 5 6 
#
# 1 0.029433 -0.014870 -0.006860 0.000000 0.000000 0.000000
# 2 -0.014870 0.017254 -0.001082 0.000000 0.000000 0.000000
# 3 -0.006860 -0.001082 0.009154 0.000000 0.000000 0.000000
# 4 0.000000 0.000000 0.000000 0.288615 0.000000 0.000000
# 5 0.000000 0.000000 0.000000 0.000000 0.032794 0.000000
# 6 0.000000 0.000000 0.000000 0.000000 0.000000 0.151899
#
#
# Mechanical properties :
#
#
# Convention : Reuss Voigt Hill
#
# Bulk Modulus (GPa) = 97.85748 106.24582 102.05165
# Shear Modulus (GPa) = 8.64783 18.98088 13.81436
#
# Velocity S-wave (km/s) = 2.23619 3.31294 2.82631
# Velocity P-wave (km/s) = 7.95316 8.72181 8.34634
#
# Compressibility (1/GPa) = 0.01021894
#
# Stress axis : x y z
#
# Youngs Moduli (GPa) = 33.97533 57.95671 109.23734
#
# Poissons Ratio (x) = 0.86180 0.74932
# Poissons Ratio (y) = 0.50520 0.11822
# Poissons Ratio (z) = 0.23305 0.06272
#
# Static dielectric constant tensor:
#      x y z
#    x 1.574820 0.000000 0.000000 
#    y 0.000000 1.558530 0.000000 
#    z 0.000000 0.000000 1.571510 
# 
# From -- ./inp_files/37394.got.cif
#   From: 2010.05.17/outbox.cif.g08.bks.cpg/sg53_19_cif.got.tgz:37394.got - 2010.06.03 12:45:16.
