data_PCOD9418741
_publ_section_title
;
Structure prediction by ZEFSAII (Michael W. Deem and Ramdas Pophale) SiO2 
 PCOD9418741
Probable space group: P M N A
;
_chemical_formula_sum "Si O2"
_cell_formula_units_Z 48
_cell_length_a 24.456144
_cell_length_b 5.453362
_cell_length_c 15.880558
_cell_angle_alpha 90.000000
_cell_angle_beta 90.000000
_cell_angle_gamma 90.000000
_cell_volume 2117.961536
_symmetry_space_group_name_H-M "P M N A"
_symmetry_group_IT_number 53
_symmetry_cell_setting 'orthorhombic'
loop_
_space_group_symop_operation_xyz
x,y,z
1/2-x,-y,1/2+z
x,-y,-z
1/2-x,y,1/2-z
-x,-y,-z
1/2+x,y,1/2-z
-x,y,z
1/2+x,-y,1/2+z
loop_
_atom_site_type_symbol
_atom_site_label
_atom_site_fract_x
_atom_site_fract_y
_atom_site_fract_z
Si Si1 0.934803 0.492953 0.905599
Si Si2 0.933303 0.000202 0.197243
Si Si3 0.611919 0.359434 0.912352
Si Si4 0.250000 0.605065 0.250000
Si Si5 0.342281 0.266846 0.207812
Si Si6 0.721971 0.940655 0.091296
Si Si7 0.500000 0.242928 0.946574
O O1 0.926764 0.753654 0.859985
O O2 0.000000 0.465074 0.914356
O O3 0.919935 0.252093 0.851673
O O4 0.910690 0.500000 0.000000
O O5 0.881023 0.049536 0.259293
O O6 0.000000 0.996258 0.220579
O O7 0.617440 0.548222 0.837505
O O8 0.665013 0.198308 0.925580
O O9 0.555446 0.225376 0.895440
O O10 0.606505 0.500000 0.000000
O O11 0.302917 0.431683 0.265211
O O12 0.247642 0.778317 0.333235
O O13 0.298690 0.184705 0.136951
O O14 0.748288 0.000000 0.000000
O O15 0.500000 0.500000 0.000000
O O16 0.500000 0.000000 0.000000
#
# Coordination Sequence:
#
# PCOD9418741 Si02
#       7
#     8   8   8   4   8   8   4
#     4   9  18  37  65  95 131 183 237 284 347 429
#     4  10  22  38  65 102 142 182 229 290 361 430
#     4  10  21  38  62  97 136 185 237 280 337 420
#     4  10  26  44  72 102 130 186 236 310 362 428
#     4  11  24  42  66  99 139 181 234 293 362 431
#     4  11  22  44  75  99 131 183 239 294 364 437
#     4  10  22  36  56  92 146 190 236 287 332 397
#
# _framework density 22.663301000000001
#
# number of rings (size 3 to 8) (size 9 to 14) (size 15 to 20)
#    0.000    1.833    1.667    1.500    8.167    2.000 
#    1.500    0.000    7.333    0.000    0.000    0.000 
#    0.000    0.000    0.000    0.000    0.000    0.000 
#
# Total GULP energy -267490.713552 kJ/mol
# GULP energy per Si atom -5572.723199 kJ/mol
# Density = 2.261172 g / cm^3
# Si number density = 22.663301 Si / 1000 Ang^3
#
#
#
# Elastic Constant Matrix: (Units=GPa)
#
#
# Indices 1 2 3 4 5 6 
#
# 1 65.5529 22.0140 45.5061 0.0000 0.0000 0.0000
# 2 22.0140 113.1241 39.4537 0.0000 0.0000 0.0000
# 3 45.5061 39.4537 100.8809 0.0000 0.0000 0.0000
# 4 0.0000 0.0000 0.0000 37.6317 0.0000 0.0000
# 5 0.0000 0.0000 0.0000 0.0000 24.9201 0.0000
# 6 0.0000 0.0000 0.0000 0.0000 0.0000 55.4606
#
#
#
# Elastic Compliance Matrix: (Units=1/GPa)
#
#
# Indices 1 2 3 4 5 6 
#
# 1 0.022300 -0.000963 -0.009683 0.000000 0.000000 0.000000
# 2 -0.000963 0.010278 -0.003585 0.000000 0.000000 0.000000
# 3 -0.009683 -0.003585 0.015683 0.000000 0.000000 0.000000
# 4 0.000000 0.000000 0.000000 0.026573 0.000000 0.000000
# 5 0.000000 0.000000 0.000000 0.000000 0.040128 0.000000
# 6 0.000000 0.000000 0.000000 0.000000 0.000000 0.018031
#
#
# Mechanical properties :
#
#
# Convention : Reuss Voigt Hill
#
# Bulk Modulus (GPa) = 50.50796 54.83393 52.67094
# Shear Modulus (GPa) = 29.75253 35.10808 32.43031
#
# Velocity S-wave (km/s) = 3.62720 3.94015 3.78691
# Velocity P-wave (km/s) = 6.31480 6.70427 6.51245
#
# Compressibility (1/GPa) = 0.01979886
#
# Stress axis : x y z
#
# Youngs Moduli (GPa) = 44.84361 97.29911 63.76500
#
# Poissons Ratio (x) = 0.09366 0.61742
# Poissons Ratio (y) = 0.04317 0.22861
# Poissons Ratio (z) = 0.43421 0.34884
#
# Static dielectric constant tensor:
#      x y z
#    x 1.874370 0.000000 0.000000 
#    y 0.000000 1.868340 0.000000 
#    z 0.000000 0.000000 1.801690 
# 
# From -- ./inp_files/24950.got.cif
#   From: 2010.05.17/outbox.cif.g08.bks.cpg/sg53_13_cif.got.tgz:24950.got - 2010.06.03 12:45:16.
