data_PCOD9418075
_publ_section_title
;
Structure prediction by ZEFSAII (Michael W. Deem and Ramdas Pophale) SiO2 
 PCOD9418075
Probable space group: P M N A
;
_chemical_formula_sum "Si O2"
_cell_formula_units_Z 58
_cell_length_a 7.675906
_cell_length_b 17.964034
_cell_length_c 19.803696
_cell_angle_alpha 90.000000
_cell_angle_beta 90.000000
_cell_angle_gamma 90.000000
_cell_volume 2730.736322
_symmetry_space_group_name_H-M "P M N A"
_symmetry_group_IT_number 53
_symmetry_cell_setting 'orthorhombic'
loop_
_space_group_symop_operation_xyz
x,y,z
1/2-x,-y,1/2+z
x,-y,-z
1/2-x,y,1/2-z
-x,-y,-z
1/2+x,y,1/2-z
-x,y,z
1/2+x,-y,1/2+z
loop_
_atom_site_type_symbol
_atom_site_label
_atom_site_fract_x
_atom_site_fract_y
_atom_site_fract_z
Si Si1 0.790381 0.814477 0.827032
Si Si2 0.704940 0.257306 0.923266
Si Si3 0.288260 0.687682 0.571226
Si Si4 0.797828 0.089776 0.946802
Si Si5 0.206323 0.613804 0.328596
Si Si6 0.500000 0.000000 0.000000
Si Si7 0.791574 0.522390 0.925657
Si Si8 0.791936 0.982734 0.826387
O O1 0.750000 0.792680 0.750000
O O2 0.725620 0.753702 0.880043
O O3 0.722621 0.898863 0.836491
O O4 0.000000 0.818046 0.834035
O O5 0.500000 0.244665 0.911503
O O6 0.789335 0.176469 0.929384
O O7 0.777949 0.312315 0.865767
O O8 0.730000 0.297953 0.994872
O O9 0.500000 0.689887 0.571926
O O10 0.229781 0.605261 0.592954
O O11 0.000000 0.073097 0.963991
O O12 0.656480 0.064568 0.001450
O O13 0.733717 0.041690 0.881965
O O14 0.250000 0.609119 0.250000
O O15 0.257088 0.540772 0.370748
O O16 0.000000 0.619413 0.334439
O O17 0.000000 0.527751 0.932013
O O18 0.722947 0.500000 0.000000
O O19 0.750000 0.005609 0.750000
O O20 0.000000 0.979826 0.832498
#
# Coordination Sequence:
#
# PCOD9418075 Si02
#       8
#     8   8   8   8   8   2   8   8
#     4   9  19  36  55  82 117 155 202 252 311 378
#     4  11  24  42  62  95 129 166 219 272 330 399
#     4  10  21  37  62  90 125 167 208 262 321 394
#     4  11  25  43  65  95 132 176 219 278 339 397
#     4  11  25  43  67  95 132 173 221 278 336 399
#     4  12  26  44  64  98 136 166 226 274 330 402
#     4  10  20  38  64  94 126 166 215 263 325 398
#     4   9  20  37  60  86 117 162 212 262 326 393
#
# _framework density 21.239692999999999
#
# number of rings (size 3 to 8) (size 9 to 14) (size 15 to 20)
#    0.000    1.793    2.069    1.034    2.897    4.138 
#    0.000    4.138    0.000    0.000    0.000    0.000 
#    0.000    0.000    0.000    0.000    0.000    0.000 
#
# Total GULP energy -323544.339387 kJ/mol
# GULP energy per Si atom -5578.350679 kJ/mol
# Density = 2.119135 g / cm^3
# Si number density = 21.239693 Si / 1000 Ang^3
#
#
#
# Elastic Constant Matrix: (Units=GPa)
#
#
# Indices 1 2 3 4 5 6 
#
# 1 69.1100 13.8991 -1.5379 0.0000 0.0000 0.0000
# 2 13.8991 146.9914 61.9615 0.0000 0.0000 0.0000
# 3 -1.5379 61.9615 113.3728 0.0000 0.0000 0.0000
# 4 0.0000 0.0000 0.0000 35.2764 0.0000 0.0000
# 5 0.0000 0.0000 0.0000 0.0000 14.5907 0.0000
# 6 0.0000 0.0000 0.0000 0.0000 0.0000 32.4595
#
#
#
# Elastic Compliance Matrix: (Units=1/GPa)
#
#
# Indices 1 2 3 4 5 6 
#
# 1 0.014888 -0.001940 0.001262 0.000000 0.000000 0.000000
# 2 -0.001940 0.009092 -0.004996 0.000000 0.000000 0.000000
# 3 0.001262 -0.004996 0.011568 0.000000 0.000000 0.000000
# 4 0.000000 0.000000 0.000000 0.028348 0.000000 0.000000
# 5 0.000000 0.000000 0.000000 0.000000 0.068537 0.000000
# 6 0.000000 0.000000 0.000000 0.000000 0.000000 0.030808
#
#
# Mechanical properties :
#
#
# Convention : Reuss Voigt Hill
#
# Bulk Modulus (GPa) = 41.31962 53.12439 47.22200
# Shear Modulus (GPa) = 27.37421 33.47542 30.42482
#
# Velocity S-wave (km/s) = 3.59391 3.97429 3.78888
# Velocity P-wave (km/s) = 6.05952 6.79162 6.43599
#
# Compressibility (1/GPa) = 0.02420158
#
# Stress axis : x y z
#
# Youngs Moduli (GPa) = 67.16869 109.98308 86.44707
#
# Poissons Ratio (x) = 0.21334 -0.10910
# Poissons Ratio (y) = 0.13029 0.43185
# Poissons Ratio (z) = -0.08477 0.54942
#
# Static dielectric constant tensor:
#      x y z
#    x 1.810820 0.000000 0.000000 
#    y 0.000000 1.777700 0.000000 
#    z 0.000000 0.000000 1.562420 
# 
# From -- ./inp_files/26616.got.cif
#   From: 2010.05.17/outbox.cif.g08.bks.cpg/sg53_14_cif.got.tgz:26616.got - 2010.06.03 12:45:16.
