data_PCOD9418050
_publ_section_title
;
Structure prediction by ZEFSAII (Michael W. Deem and Ramdas Pophale) SiO2 
 PCOD9418050
Probable space group: P M N A
;
_chemical_formula_sum "Si O2"
_cell_formula_units_Z 40
_cell_length_a 15.476918
_cell_length_b 8.946791
_cell_length_c 14.760046
_cell_angle_alpha 90.000000
_cell_angle_beta 90.000000
_cell_angle_gamma 90.000000
_cell_volume 2043.805129
_symmetry_space_group_name_H-M "P M N A"
_symmetry_group_IT_number 53
_symmetry_cell_setting 'orthorhombic'
loop_
_space_group_symop_operation_xyz
x,y,z
1/2-x,-y,1/2+z
x,-y,-z
1/2-x,y,1/2-z
-x,-y,-z
1/2+x,y,1/2-z
-x,y,z
1/2+x,-y,1/2+z
loop_
_atom_site_type_symbol
_atom_site_label
_atom_site_fract_x
_atom_site_fract_y
_atom_site_fract_z
Si Si1 0.158106 0.243990 0.714623
Si Si2 0.329411 0.351227 0.439882
Si Si3 0.750000 0.537381 0.750000
Si Si4 0.500000 0.123507 0.080031
Si Si5 0.500000 0.145791 0.434897
Si Si6 0.000000 0.061121 0.765347
Si Si7 0.666409 0.824808 0.008327
O O1 0.250000 0.180278 0.750000
O O2 0.173866 0.421483 0.720612
O O3 0.082607 0.169320 0.771791
O O4 0.139043 0.205412 0.611043
O O5 0.345596 0.500000 0.500000
O O6 0.291352 0.380962 0.337717
O O7 0.414888 0.249163 0.442288
O O8 0.251486 0.267140 0.489296
O O9 0.588503 0.211434 0.061158
O O10 0.500000 0.030819 0.171549
O O11 0.500000 0.000000 0.000000
O O12 0.500000 0.000000 0.500000
O O13 0.500000 0.067536 0.338166
O O14 0.686394 0.000000 0.000000
#
# Coordination Sequence:
#
# PCOD9418050 Si02
#       7
#     8   8   4   4   4   4   8
#     4  10  22  41  66 101 135 179 231 276 353 413
#     4  12  26  49  70  97 144 183 234 288 345 427
#     4  10  26  42  68 100 132 190 220 278 354 398
#     4  10  20  38  63 104 132 167 211 288 352 396
#     4  12  33  46  70 105 136 193 241 283 349 408
#     4  12  24  42  68 101 139 174 226 295 344 408
#     4  11  21  41  71  98 138 178 228 288 347 410
#
# _framework density 19.571337
#
# number of rings (size 3 to 8) (size 9 to 14) (size 15 to 20)
#    0.600    0.400    6.000    0.900   11.200    0.800 
#    0.000    1.500    0.000    0.000    0.000    0.000 
#    0.000    0.000    0.000    0.000    0.000    0.000 
#
# Total GULP energy -223007.661287 kJ/mol
# GULP energy per Si atom -5575.191532 kJ/mol
# Density = 1.952679 g / cm^3
# Si number density = 19.571337 Si / 1000 Ang^3
#
#
#
# Elastic Constant Matrix: (Units=GPa)
#
#
# Indices 1 2 3 4 5 6 
#
# 1 170.8913 64.8190 17.9613 0.0000 0.0000 0.0000
# 2 64.8190 102.6997 37.1530 0.0000 0.0000 0.0000
# 3 17.9613 37.1530 86.3873 0.0000 0.0000 0.0000
# 4 0.0000 0.0000 0.0000 40.0854 0.0000 0.0000
# 5 0.0000 0.0000 0.0000 0.0000 27.8316 0.0000
# 6 0.0000 0.0000 0.0000 0.0000 0.0000 -1.9278
#
#
#
# Elastic Compliance Matrix: (Units=1/GPa)
#
#
# Indices 1 2 3 4 5 6 
#
# 1 0.007718 -0.005081 0.000581 0.000000 0.000000 0.000000
# 2 -0.005081 0.014877 -0.005342 0.000000 0.000000 0.000000
# 3 0.000581 -0.005342 0.013752 0.000000 0.000000 0.000000
# 4 0.000000 0.000000 0.000000 0.024947 0.000000 0.000000
# 5 0.000000 0.000000 0.000000 0.000000 0.035930 0.000000
# 6 0.000000 0.000000 0.000000 0.000000 0.000000 -0.518716
#
#
# Mechanical properties :
#
#
# Convention : Reuss Voigt Hill
#
# Bulk Modulus (GPa) = 60.01507 66.64942 63.33225
# Shear Modulus (GPa) = -12.61819 29.20082 8.29132
#
# Velocity S-wave (km/s) = -2.54190 3.86686 2.06050
# Velocity P-wave (km/s) = 4.70280 7.35291 6.17178
#
# Compressibility (1/GPa) = 0.01666248
#
# Stress axis : x y z
#
# Youngs Moduli (GPa) = 129.56790 67.21990 72.71497
#
# Poissons Ratio (x) = 0.34156 -0.04222
# Poissons Ratio (y) = 0.65837 0.38841
# Poissons Ratio (z) = -0.07523 0.35906
#
# Static dielectric constant tensor:
#      x y z
#    x 1.714390 0.000000 0.000000 
#    y 0.000000 1.685990 0.000000 
#    z 0.000000 0.000000 1.721300 
# 
# From -- ./inp_files/22514.got.cif
#   From: 2010.05.17/outbox.cif.g08.bks.cpg/sg53_12_cif.got.tgz:22514.got - 2010.06.03 12:45:16.
