data_PCOD9418758
_publ_section_title
;
Structure prediction by ZEFSAII (Michael W. Deem and Ramdas Pophale) SiO2 
 PCOD9418758
Probable space group: P M N A
;
_chemical_formula_sum "Si O2"
_cell_formula_units_Z 28
_cell_length_a 20.251434
_cell_length_b 8.236534
_cell_length_c 7.851158
_cell_angle_alpha 90.000000
_cell_angle_beta 90.000000
_cell_angle_gamma 90.000000
_cell_volume 1309.585910
_symmetry_space_group_name_H-M "P M N A"
_symmetry_group_IT_number 53
_symmetry_cell_setting 'orthorhombic'
loop_
_space_group_symop_operation_xyz
x,y,z
1/2-x,-y,1/2+z
x,-y,-z
1/2-x,y,1/2-z
-x,-y,-z
1/2+x,y,1/2-z
-x,y,z
1/2+x,-y,1/2+z
loop_
_atom_site_type_symbol
_atom_site_label
_atom_site_fract_x
_atom_site_fract_y
_atom_site_fract_z
Si Si1 0.121181 0.000000 0.500000
Si Si2 0.424488 0.308493 0.473998
Si Si3 0.186111 0.110300 0.834570
Si Si4 0.422975 0.340092 0.093714
O O1 0.162032 0.996233 0.325319
O O2 0.082587 0.829271 0.494323
O O3 0.428907 0.500000 0.500000
O O4 0.500000 0.240739 0.487822
O O5 0.373613 0.224139 0.601739
O O6 0.397452 0.300343 0.281833
O O7 0.250000 0.197148 0.750000
O O8 0.202062 0.000000 0.000000
O O9 0.500000 0.378321 0.122903
O O10 0.394446 0.500000 0.000000
#
# Coordination Sequence:
#
# PCOD9418758 Si02
#       4
#     4   8   8   8
#     4  12  23  40  68  94 133 186 234 288 344 422
#     4  10  22  43  71 105 143 178 229 298 355 419
#     4  12  25  45  68  98 138 186 238 287 349 421
#     4  10  21  38  64 102 143 180 227 289 356 424
#
# _framework density 21.380807000000001
#
# number of rings (size 3 to 8) (size 9 to 14) (size 15 to 20)
#    0.000    1.143    4.286    2.143    0.000    5.143 
#    0.000    5.714    0.000    0.000    0.000    0.000 
#    0.000    0.000    0.000    0.000    0.000    0.000 
#
# Total GULP energy -155978.785624 kJ/mol
# GULP energy per Si atom -5570.670915 kJ/mol
# Density = 2.133214 g / cm^3
# Si number density = 21.380807 Si / 1000 Ang^3
#
#
#
# Elastic Constant Matrix: (Units=GPa)
#
#
# Indices 1 2 3 4 5 6 
#
# 1 94.6633 43.9975 57.3067 0.0000 0.0000 0.0000
# 2 43.9975 105.3685 42.1127 0.0000 0.0000 0.0000
# 3 57.3067 42.1127 163.9624 0.0000 0.0000 0.0000
# 4 0.0000 0.0000 0.0000 29.7404 0.0000 0.0000
# 5 0.0000 0.0000 0.0000 0.0000 -19.8563 0.0000
# 6 0.0000 0.0000 0.0000 0.0000 0.0000 -62.2227
#
#
#
# Elastic Compliance Matrix: (Units=1/GPa)
#
#
# Indices 1 2 3 4 5 6 
#
# 1 0.015251 -0.004723 -0.004118 0.000000 0.000000 0.000000
# 2 -0.004723 0.012039 -0.001441 0.000000 0.000000 0.000000
# 3 -0.004118 -0.001441 0.007908 0.000000 0.000000 0.000000
# 4 0.000000 0.000000 0.000000 0.033624 0.000000 0.000000
# 5 0.000000 0.000000 0.000000 0.000000 -0.050362 0.000000
# 6 0.000000 0.000000 0.000000 0.000000 0.000000 -0.016071
#
#
# Mechanical properties :
#
#
# Convention : Reuss Voigt Hill
#
# Bulk Modulus (GPa) = 68.32924 72.31423 70.32174
# Shear Modulus (GPa) = 179.65514 4.23743 91.94629
#
# Velocity S-wave (km/s) = 9.17653 1.40932 6.56487
# Velocity P-wave (km/s) = 12.01274 6.04514 9.50920
#
# Compressibility (1/GPa) = 0.01463502
#
# Stress axis : x y z
#
# Youngs Moduli (GPa) = 65.56762 83.06615 126.44934
#
# Poissons Ratio (x) = 0.39230 0.52066
# Poissons Ratio (y) = 0.30966 0.18226
# Poissons Ratio (z) = 0.26998 0.11973
#
# Static dielectric constant tensor:
#      x y z
#    x 1.854470 0.000000 0.000000 
#    y 0.000000 1.837180 0.000000 
#    z 0.000000 0.000000 1.797100 
# 
# From -- ./inp_files/10345.got.cif
#   From: 2010.05.17/outbox.cif.g08.bks.cpg/sg53_6_cif.got.tgz:10345.got - 2010.06.03 12:45:16.
