data_PCOD9418818
_publ_section_title
;
Structure prediction by ZEFSAII (Michael W. Deem and Ramdas Pophale) SiO2 
 PCOD9418818
Probable space group: P M N A
;
_chemical_formula_sum "Si O2"
_cell_formula_units_Z 40
_cell_length_a 26.711532
_cell_length_b 5.026149
_cell_length_c 13.816968
_cell_angle_alpha 90.000000
_cell_angle_beta 90.000000
_cell_angle_gamma 90.000000
_cell_volume 1855.012788
_symmetry_space_group_name_H-M "P M N A"
_symmetry_group_IT_number 53
_symmetry_cell_setting 'orthorhombic'
loop_
_space_group_symop_operation_xyz
x,y,z
1/2-x,-y,1/2+z
x,-y,-z
1/2-x,y,1/2-z
-x,-y,-z
1/2+x,y,1/2-z
-x,y,z
1/2+x,-y,1/2+z
loop_
_atom_site_type_symbol
_atom_site_label
_atom_site_fract_x
_atom_site_fract_y
_atom_site_fract_z
Si Si1 0.555721 0.966281 0.116476
Si Si2 0.411627 0.573218 0.268690
Si Si3 0.557758 0.068782 0.395026
Si Si4 0.697882 0.637579 0.201341
Si Si5 0.335605 0.140783 0.103606
O O1 0.500000 0.048337 0.152010
O O2 0.567450 0.672204 0.161780
O O3 0.606602 0.127825 0.140587
O O4 0.553200 0.000000 0.000000
O O5 0.422782 0.305691 0.327381
O O6 0.351601 0.602930 0.266148
O O7 0.436258 0.803456 0.333255
O O8 0.500000 0.137238 0.413047
O O9 0.581251 0.000000 0.500000
O O10 0.750000 0.568820 0.250000
O O11 0.696954 0.942692 0.168798
O O12 0.685739 0.434638 0.113638
O O13 0.335924 0.000000 0.000000
#
# Coordination Sequence:
#
# PCOD9418818 Si02
#       5
#     8   8   8   8   8
#     4   9  18  34  59  92 126 158 193 237 295 369
#     4  11  22  39  62  88 122 162 204 252 304 361
#     4  11  23  40  62  89 123 162 204 251 305 363
#     4  11  23  41  61  85 117 155 200 252 305 351
#     4  10  21  39  62  88 120 156 196 240 294 363
#
# _framework density 21.563193999999999
#
# number of rings (size 3 to 8) (size 9 to 14) (size 15 to 20)
#    0.000    1.600    0.000    6.000    0.000    1.600 
#    0.000   14.000    0.000   28.800    0.000    0.000 
#    0.000    0.000    0.000    0.000    0.000    0.000 
#
# Total GULP energy -222969.859687 kJ/mol
# GULP energy per Si atom -5574.246492 kJ/mol
# Density = 2.151412 g / cm^3
# Si number density = 21.563194 Si / 1000 Ang^3
#
#
#
# Elastic Constant Matrix: (Units=GPa)
#
#
# Indices 1 2 3 4 5 6 
#
# 1 117.7042 -1.0776 26.3613 0.0000 0.0000 0.0000
# 2 -1.0776 90.6006 41.9771 0.0000 0.0000 0.0000
# 3 26.3613 41.9771 125.5207 0.0000 0.0000 0.0000
# 4 0.0000 0.0000 0.0000 26.8820 0.0000 0.0000
# 5 0.0000 0.0000 0.0000 0.0000 18.8616 0.0000
# 6 0.0000 0.0000 0.0000 0.0000 0.0000 20.1640
#
#
#
# Elastic Compliance Matrix: (Units=1/GPa)
#
#
# Indices 1 2 3 4 5 6 
#
# 1 0.009018 0.001165 -0.002284 0.000000 0.000000 0.000000
# 2 0.001165 0.013212 -0.004663 0.000000 0.000000 0.000000
# 3 -0.002284 -0.004663 0.010006 0.000000 0.000000 0.000000
# 4 0.000000 0.000000 0.000000 0.037200 0.000000 0.000000
# 5 0.000000 0.000000 0.000000 0.000000 0.053018 0.000000
# 6 0.000000 0.000000 0.000000 0.000000 0.000000 0.049593
#
#
# Mechanical properties :
#
#
# Convention : Reuss Voigt Hill
#
# Bulk Modulus (GPa) = 48.37257 52.03856 50.20557
# Shear Modulus (GPa) = 26.24671 30.95250 28.59961
#
# Velocity S-wave (km/s) = 3.49262 3.79282 3.64581
# Velocity P-wave (km/s) = 6.22464 6.58529 6.40751
#
# Compressibility (1/GPa) = 0.02067287
#
# Stress axis : x y z
#
# Youngs Moduli (GPa) = 110.88946 75.68981 99.94148
#
# Poissons Ratio (x) = -0.08820 0.22823
# Poissons Ratio (y) = -0.12922 0.46603
# Poissons Ratio (z) = 0.25323 0.35295
#
# Static dielectric constant tensor:
#      x y z
#    x 1.756300 0.000000 0.000000 
#    y 0.000000 1.840060 0.000000 
#    z 0.000000 0.000000 1.890950 
# 
# From -- ./inp_files/24542.got.cif
#   From: 2010.05.17/outbox.cif.g08.bks.cpg/sg53_13_cif.got.tgz:24542.got - 2010.06.03 12:45:16.
