data_PCOD9418922
_publ_section_title
;
Structure prediction by ZEFSAII (Michael W. Deem and Ramdas Pophale) SiO2 
 PCOD9418922
Probable space group: P M N A
;
_chemical_formula_sum "Si O2"
_cell_formula_units_Z 64
_cell_length_a 14.638065
_cell_length_b 11.379796
_cell_length_c 18.501970
_cell_angle_alpha 90.000000
_cell_angle_beta 90.000000
_cell_angle_gamma 90.000000
_cell_volume 3082.024739
_symmetry_space_group_name_H-M "P M N A"
_symmetry_group_IT_number 53
_symmetry_cell_setting 'orthorhombic'
loop_
_space_group_symop_operation_xyz
x,y,z
1/2-x,-y,1/2+z
x,-y,-z
1/2-x,y,1/2-z
-x,-y,-z
1/2+x,y,1/2-z
-x,y,z
1/2+x,-y,1/2+z
loop_
_atom_site_type_symbol
_atom_site_label
_atom_site_fract_x
_atom_site_fract_y
_atom_site_fract_z
Si Si1 0.783668 0.551344 0.074753
Si Si2 0.251119 0.820628 0.077604
Si Si3 0.803005 0.833510 0.582958
Si Si4 0.399580 0.933942 0.150564
Si Si5 0.897333 0.545416 0.790429
Si Si6 0.099187 0.796490 0.861796
Si Si7 0.391028 0.417697 0.121521
Si Si8 0.842335 0.034103 0.797979
O O1 0.785779 0.690870 0.068526
O O2 0.834290 0.513875 0.148750
O O3 0.680446 0.500880 0.080006
O O4 0.824818 0.500000 0.000000
O O5 0.344057 0.822828 0.122614
O O6 0.182686 0.898035 0.127945
O O7 0.288158 0.865522 0.000759
O O8 0.697889 0.799155 0.600838
O O9 0.862104 0.717044 0.601506
O O10 0.845432 0.945902 0.625575
O O11 0.500000 0.944746 0.119777
O O12 0.402777 0.909816 0.235984
O O13 0.900849 0.681674 0.813151
O O14 0.872376 0.550638 0.706020
O O15 0.000000 0.495758 0.796352
O O16 0.000000 0.797875 0.901630
O O17 0.107514 0.914039 0.815766
O O18 0.500000 0.432735 0.108294
O O19 0.750000 0.015652 0.750000
#
# Coordination Sequence:
#
# PCOD9418922 Si02
#       8
#     8   8   8   8   8   8   8   8
#     4  12  24  45  66  92 135 185 224 282 337 396
#     4  11  25  42  65  94 136 181 227 271 340 403
#     4  12  22  43  67  99 138 176 220 280 343 412
#     4  11  24  41  68  99 134 180 222 271 339 415
#     4  10  23  41  67 101 129 169 229 283 339 402
#     4  11  21  37  66  98 129 165 214 274 336 397
#     4  11  24  40  67 101 133 173 225 284 343 397
#     4  10  21  40  62  92 136 173 212 271 335 406
#
# _framework density 20.765568999999999
#
# number of rings (size 3 to 8) (size 9 to 14) (size 15 to 20)
#    0.000    1.000    5.000    2.250    0.000    6.500 
#    0.000    5.000    0.000    0.000    0.000    0.000 
#    0.000    0.000    0.000    0.000    0.000    0.000 
#
# Total GULP energy -356295.972147 kJ/mol
# GULP energy per Si atom -5567.124565 kJ/mol
# Density = 2.071831 g / cm^3
# Si number density = 20.765569 Si / 1000 Ang^3
#
#
#
# Elastic Constant Matrix: (Units=GPa)
#
#
# Indices 1 2 3 4 5 6 
#
# 1 93.3643 -7.4255 6.4614 0.0000 0.0000 0.0000
# 2 -7.4255 40.7854 -9.0379 0.0000 0.0000 0.0000
# 3 6.4614 -9.0379 92.0907 0.0000 0.0000 0.0000
# 4 0.0000 0.0000 0.0000 10.2469 0.0000 0.0000
# 5 0.0000 0.0000 0.0000 0.0000 0.2266 0.0000
# 6 0.0000 0.0000 0.0000 0.0000 0.0000 15.1170
#
#
#
# Elastic Compliance Matrix: (Units=1/GPa)
#
#
# Indices 1 2 3 4 5 6 
#
# 1 0.010899 0.001855 -0.000583 0.000000 0.000000 0.000000
# 2 0.001855 0.025379 0.002361 0.000000 0.000000 0.000000
# 3 -0.000583 0.002361 0.011131 0.000000 0.000000 0.000000
# 4 0.000000 0.000000 0.000000 0.097591 0.000000 0.000000
# 5 0.000000 0.000000 0.000000 0.000000 4.413405 0.000000
# 6 0.000000 0.000000 0.000000 0.000000 0.000000 0.066151
#
#
# Mechanical properties :
#
#
# Convention : Reuss Voigt Hill
#
# Bulk Modulus (GPa) = 18.28966 22.91514 20.60240
# Shear Modulus (GPa) = 1.07863 20.86760 10.97311
#
# Velocity S-wave (km/s) = 0.72150 3.17348 2.30125
# Velocity P-wave (km/s) = 3.08559 4.94844 4.12359
#
# Compressibility (1/GPa) = 0.05467570
#
# Stress axis : x y z
#
# Youngs Moduli (GPa) = 91.75493 39.40196 89.83589
#
# Poissons Ratio (x) = -0.07310 0.05234
# Poissons Ratio (y) = -0.17022 -0.21207
# Poissons Ratio (z) = 0.05346 -0.09301
#
# Static dielectric constant tensor:
#      x y z
#    x 1.867790 0.000000 0.000000 
#    y 0.000000 1.745930 0.000000 
#    z 0.000000 0.000000 2.081000 
# 
# From -- ./inp_files/28566.got.cif
#   From: 2010.05.17/outbox.cif.g08.bks.cpg/sg53_15_cif.got.tgz:28566.got - 2010.06.03 12:45:16.
