data_PCOD9418678
_publ_section_title
;
Structure prediction by ZEFSAII (Michael W. Deem and Ramdas Pophale) SiO2 
 PCOD9418678
Probable space group: P M N A
;
_chemical_formula_sum "Si O2"
_cell_formula_units_Z 48
_cell_length_a 9.070965
_cell_length_b 7.554631
_cell_length_c 34.746562
_cell_angle_alpha 90.000000
_cell_angle_beta 90.000000
_cell_angle_gamma 90.000000
_cell_volume 2381.105222
_symmetry_space_group_name_H-M "P M N A"
_symmetry_group_IT_number 53
_symmetry_cell_setting 'orthorhombic'
loop_
_space_group_symop_operation_xyz
x,y,z
1/2-x,-y,1/2+z
x,-y,-z
1/2-x,y,1/2-z
-x,-y,-z
1/2+x,y,1/2-z
-x,y,z
1/2+x,-y,1/2+z
loop_
_atom_site_type_symbol
_atom_site_label
_atom_site_fract_x
_atom_site_fract_y
_atom_site_fract_z
Si Si1 0.162931 0.707646 0.493392
Si Si2 0.334368 0.788061 0.570135
Si Si3 0.323600 0.556536 0.210128
Si Si4 0.664719 0.791726 0.417677
Si Si5 0.178172 0.868795 0.166519
Si Si6 0.823947 0.752716 0.648130
O O1 0.152428 0.500000 0.500000
O O2 0.263950 0.775036 0.528060
O O3 0.229367 0.731391 0.451262
O O4 0.000000 0.787434 0.495870
O O5 0.500000 0.714532 0.570246
O O6 0.239571 0.711031 0.605445
O O7 0.343493 0.996201 0.578748
O O8 0.250000 0.497685 0.250000
O O9 0.500000 0.576084 0.213954
O O10 0.250162 0.743702 0.198426
O O11 0.295331 0.407585 0.177556
O O12 0.500000 0.719630 0.423743
O O13 0.711596 0.766916 0.373781
O O14 0.000000 0.881439 0.169951
O O15 0.247403 0.065326 0.163131
O O16 0.000000 0.780858 0.645391
#
# Coordination Sequence:
#
# PCOD9418678 Si02
#       6
#     8   8   8   8   8   8
#     4  11  24  36  50  80 118 156 199 247 299 354
#     4  10  21  38  60  84 113 153 201 250 301 360
#     4  11  25  43  66  95 127 163 203 251 307 369
#     4   9  20  38  58  83 112 151 199 245 296 355
#     4  10  22  41  66  95 127 164 207 254 307 369
#     4  10  22  41  65  94 127 164 207 255 310 368
#
# _framework density 20.158705000000001
#
# number of rings (size 3 to 8) (size 9 to 14) (size 15 to 20)
#    0.000    1.833    0.000    4.000    2.333   10.667 
#    0.000    1.667    0.000    0.000    0.000    0.000 
#    0.000    0.000    0.000    0.000    0.000    0.000 
#
# Total GULP energy -268058.566313 kJ/mol
# GULP energy per Si atom -5584.553465 kJ/mol
# Density = 2.011282 g / cm^3
# Si number density = 20.158705 Si / 1000 Ang^3
#
#
#
# Elastic Constant Matrix: (Units=GPa)
#
#
# Indices 1 2 3 4 5 6 
#
# 1 96.6066 18.4079 43.4410 0.0000 0.0000 0.0000
# 2 18.4079 44.2050 0.4399 0.0000 0.0000 0.0000
# 3 43.4410 0.4399 65.4078 0.0000 0.0000 0.0000
# 4 0.0000 0.0000 0.0000 35.8288 0.0000 0.0000
# 5 0.0000 0.0000 0.0000 0.0000 44.0026 0.0000
# 6 0.0000 0.0000 0.0000 0.0000 0.0000 51.7468
#
#
#
# Elastic Compliance Matrix: (Units=1/GPa)
#
#
# Indices 1 2 3 4 5 6 
#
# 1 0.016575 -0.006793 -0.010963 0.000000 0.000000 0.000000
# 2 -0.006793 0.025408 0.004341 0.000000 0.000000 0.000000
# 3 -0.010963 0.004341 0.022541 0.000000 0.000000 0.000000
# 4 0.000000 0.000000 0.000000 0.027910 0.000000 0.000000
# 5 0.000000 0.000000 0.000000 0.000000 0.022726 0.000000
# 6 0.000000 0.000000 0.000000 0.000000 0.000000 0.019325
#
#
# Mechanical properties :
#
#
# Convention : Reuss Voigt Hill
#
# Bulk Modulus (GPa) = 26.53014 36.75520 31.64267
# Shear Modulus (GPa) = 28.75551 35.91104 32.33327
#
# Velocity S-wave (km/s) = 3.78094 4.22526 4.00926
# Velocity P-wave (km/s) = 5.67890 6.48662 6.09615
#
# Compressibility (1/GPa) = 0.03769297
#
# Stress axis : x y z
#
# Youngs Moduli (GPa) = 60.33045 39.35838 44.36433
#
# Poissons Ratio (x) = 0.26737 0.48636
# Poissons Ratio (y) = 0.40984 -0.19258
# Poissons Ratio (z) = 0.66140 -0.17085
#
# Static dielectric constant tensor:
#      x y z
#    x 1.732100 0.000000 0.000000 
#    y 0.000000 1.724020 0.000000 
#    z 0.000000 0.000000 1.818250 
# 
# From -- ./inp_files/37699.got.cif
#   From: 2010.05.17/outbox.cif.g08.bks.cpg/sg53_19_cif.got.tgz:37699.got - 2010.06.03 12:45:16.
