data_PCOD9418566
_publ_section_title
;
Structure prediction by ZEFSAII (Michael W. Deem and Ramdas Pophale) SiO2 
 PCOD9418566
Probable space group: P M N A
;
_chemical_formula_sum "Si O2"
_cell_formula_units_Z 40
_cell_length_a 16.133474
_cell_length_b 13.970697
_cell_length_c 8.566419
_cell_angle_alpha 90.000000
_cell_angle_beta 90.000000
_cell_angle_gamma 90.000000
_cell_volume 1930.835522
_symmetry_space_group_name_H-M "P M N A"
_symmetry_group_IT_number 53
_symmetry_cell_setting 'orthorhombic'
loop_
_space_group_symop_operation_xyz
x,y,z
1/2-x,-y,1/2+z
x,-y,-z
1/2-x,y,1/2-z
-x,-y,-z
1/2+x,y,1/2-z
-x,y,z
1/2+x,-y,1/2+z
loop_
_atom_site_type_symbol
_atom_site_label
_atom_site_fract_x
_atom_site_fract_y
_atom_site_fract_z
Si Si1 0.597539 0.097995 0.841195
Si Si2 0.656582 0.493130 0.684070
Si Si3 0.154956 0.309216 0.309585
Si Si4 0.096630 0.694387 0.344550
Si Si5 0.655571 0.898565 0.804650
O O1 0.500000 0.093762 0.878274
O O2 0.614998 0.201950 0.766976
O O3 0.618349 0.000271 0.751653
O O4 0.645216 0.099665 0.007004
O O5 0.660008 0.500000 0.500000
O O6 0.750000 0.487132 0.750000
O O7 0.617216 0.591927 0.747580
O O8 0.612165 0.396942 0.738751
O O9 0.250000 0.309022 0.250000
O O10 0.149631 0.314113 0.497073
O O11 0.118683 0.205584 0.259278
O O12 0.000000 0.696088 0.391877
O O13 0.750000 0.898736 0.750000
#
# Coordination Sequence:
#
# PCOD9418566 Si02
#       5
#     8   8   8   8   8
#     4   9  18  34  54  78 110 145 180 221 275 331
#     4  11  22  37  57  80 112 150 187 232 284 336
#     4   9  18  34  54  80 113 146 183 226 275 331
#     4  10  21  37  59  85 112 147 190 233 277 330
#     4   9  16  28  50  79 106 135 179 227 265 316
#
# _framework density 20.716418999999998
#
# number of rings (size 3 to 8) (size 9 to 14) (size 15 to 20)
#    0.000    2.400    0.000    4.200    0.000    3.600 
#    0.000    6.000    0.000    0.000    0.000   14.000 
#    0.000    0.000    0.000    0.000    0.000    0.000 
#
# Total GULP energy -222823.579614 kJ/mol
# GULP energy per Si atom -5570.589490 kJ/mol
# Density = 2.066927 g / cm^3
# Si number density = 20.716419 Si / 1000 Ang^3
#
#
#
# Elastic Constant Matrix: (Units=GPa)
#
#
# Indices 1 2 3 4 5 6 
#
# 1 53.6133 27.0062 14.6175 0.0000 0.0000 0.0000
# 2 27.0062 261.1869 46.2300 0.0000 0.0000 0.0000
# 3 14.6175 46.2300 49.2886 0.0000 0.0000 0.0000
# 4 0.0000 0.0000 0.0000 48.5852 0.0000 0.0000
# 5 0.0000 0.0000 0.0000 0.0000 20.2021 0.0000
# 6 0.0000 0.0000 0.0000 0.0000 0.0000 27.9695
#
#
#
# Elastic Compliance Matrix: (Units=1/GPa)
#
#
# Indices 1 2 3 4 5 6 
#
# 1 0.020633 -0.001259 -0.004938 0.000000 0.000000 0.000000
# 2 -0.001259 0.004668 -0.004005 0.000000 0.000000 0.000000
# 3 -0.004938 -0.004005 0.025509 0.000000 0.000000 0.000000
# 4 0.000000 0.000000 0.000000 0.020582 0.000000 0.000000
# 5 0.000000 0.000000 0.000000 0.000000 0.049500 0.000000
# 6 0.000000 0.000000 0.000000 0.000000 0.000000 0.035753
#
#
# Mechanical properties :
#
#
# Convention : Reuss Voigt Hill
#
# Bulk Modulus (GPa) = 32.88814 59.97734 46.43274
# Shear Modulus (GPa) = 26.71171 37.76705 32.23938
#
# Velocity S-wave (km/s) = 3.59471 4.27435 3.94918
# Velocity P-wave (km/s) = 5.75666 7.30579 6.57699
#
# Compressibility (1/GPa) = 0.03040609
#
# Stress axis : x y z
#
# Youngs Moduli (GPa) = 48.46666 214.23842 39.20164
#
# Poissons Ratio (x) = 0.26981 0.19357
# Poissons Ratio (y) = 0.06104 0.15698
# Poissons Ratio (z) = 0.23932 0.85793
#
# Static dielectric constant tensor:
#      x y z
#    x 1.735810 0.000000 0.000000 
#    y 0.000000 1.863670 0.000000 
#    z 0.000000 0.000000 1.686970 
# 
# From -- ./inp_files/8379.got.cif
#   From: 2010.05.17/outbox.cif.g08.bks.cpg/sg53_5_cif.got.tgz:8379.got - 2010.06.03 12:45:16.
