data_PCOD9418888
_publ_section_title
;
Structure prediction by ZEFSAII (Michael W. Deem and Ramdas Pophale) SiO2 
 PCOD9418888
Probable space group: P M N A
;
_chemical_formula_sum "Si O2"
_cell_formula_units_Z 40
_cell_length_a 14.625403
_cell_length_b 9.191540
_cell_length_c 15.081049
_cell_angle_alpha 90.000000
_cell_angle_beta 90.000000
_cell_angle_gamma 90.000000
_cell_volume 2027.345066
_symmetry_space_group_name_H-M "P M N A"
_symmetry_group_IT_number 53
_symmetry_cell_setting 'orthorhombic'
loop_
_space_group_symop_operation_xyz
x,y,z
1/2-x,-y,1/2+z
x,-y,-z
1/2-x,y,1/2-z
-x,-y,-z
1/2+x,y,1/2-z
-x,y,z
1/2+x,-y,1/2+z
loop_
_atom_site_type_symbol
_atom_site_label
_atom_site_fract_x
_atom_site_fract_y
_atom_site_fract_z
Si Si1 0.639814 0.785983 0.371608
Si Si2 0.500000 0.660005 0.045307
Si Si3 0.500000 0.609808 0.255991
Si Si4 0.163202 0.131096 0.567776
Si Si5 0.000000 0.172370 0.016261
Si Si6 0.500000 0.730510 0.718123
Si Si7 0.642311 0.957343 0.758573
O O1 0.590461 0.676066 0.303742
O O2 0.747421 0.786690 0.392901
O O3 0.588040 0.769778 0.463943
O O4 0.618403 0.942396 0.326166
O O5 0.500000 0.641557 0.151863
O O6 0.409854 0.757942 0.025647
O O7 0.500000 0.500000 0.000000
O O8 0.500000 0.438829 0.269261
O O9 0.189237 0.000000 0.500000
O O10 0.121498 0.050252 0.653694
O O11 0.000000 0.225965 0.115365
O O12 0.000000 0.000000 0.000000
O O13 0.587391 0.809531 0.759681
O O14 0.750000 0.931904 0.750000
#
# Coordination Sequence:
#
# PCOD9418888 Si02
#       7
#     8   4   4   8   4   4   8
#     4  10  21  43  69  94 127 172 214 272 348 392
#     4  12  27  46  63  96 139 187 222 268 332 405
#     4  11  25  45  66  93 141 185 208 260 355 425
#     4  11  24  43  72  97 126 170 232 282 320 387
#     4  11  19  36  69  97 124 155 214 285 333 367
#     4  12  24  40  64  99 135 167 222 275 322 409
#     4  10  21  39  66  97 123 169 220 272 330 384
#
# _framework density 19.730236999999999
#
# number of rings (size 3 to 8) (size 9 to 14) (size 15 to 20)
#    0.000    1.200    4.000    2.100    5.600    1.600 
#    7.200    0.000    0.000    0.000    0.000    0.000 
#    0.000    0.000    0.000    0.000    0.000    0.000 
#
# Total GULP energy -223351.789866 kJ/mol
# GULP energy per Si atom -5583.794747 kJ/mol
# Density = 1.968533 g / cm^3
# Si number density = 19.730237 Si / 1000 Ang^3
#
#
#
# Elastic Constant Matrix: (Units=GPa)
#
#
# Indices 1 2 3 4 5 6 
#
# 1 110.8490 69.1313 20.5697 0.0000 0.0000 0.0000
# 2 69.1313 134.2955 11.9171 0.0000 0.0000 0.0000
# 3 20.5697 11.9171 68.8448 0.0000 0.0000 0.0000
# 4 0.0000 0.0000 0.0000 29.4719 0.0000 0.0000
# 5 0.0000 0.0000 0.0000 0.0000 8.9563 0.0000
# 6 0.0000 0.0000 0.0000 0.0000 0.0000 -15.0649
#
#
#
# Elastic Compliance Matrix: (Units=1/GPa)
#
#
# Indices 1 2 3 4 5 6 
#
# 1 0.013853 -0.006869 -0.002950 0.000000 0.000000 0.000000
# 2 -0.006869 0.010969 0.000154 0.000000 0.000000 0.000000
# 3 -0.002950 0.000154 0.015380 0.000000 0.000000 0.000000
# 4 0.000000 0.000000 0.000000 0.033931 0.000000 0.000000
# 5 0.000000 0.000000 0.000000 0.000000 0.111653 0.000000
# 6 0.000000 0.000000 0.000000 0.000000 0.000000 -0.066379
#
#
# Mechanical properties :
#
#
# Convention : Reuss Voigt Hill
#
# Bulk Modulus (GPa) = 47.91377 57.46951 52.69164
# Shear Modulus (GPa) = 34.31865 18.83073 26.57469
#
# Velocity S-wave (km/s) = 4.17513 3.09270 3.67400
# Velocity P-wave (km/s) = 6.89778 6.47642 6.69042
#
# Compressibility (1/GPa) = 0.02087083
#
# Stress axis : x y z
#
# Youngs Moduli (GPa) = 72.18838 91.16880 65.01869
#
# Poissons Ratio (x) = 0.62625 0.19180
# Poissons Ratio (y) = 0.49587 -0.00999
# Poissons Ratio (z) = 0.21295 -0.01401
#
# Static dielectric constant tensor:
#      x y z
#    x 1.724810 0.000000 0.000000 
#    y 0.000000 1.661070 0.000000 
#    z 0.000000 0.000000 1.708480 
# 
# From -- ./inp_files/22502.got.cif
#   From: 2010.05.17/outbox.cif.g08.bks.cpg/sg53_12_cif.got.tgz:22502.got - 2010.06.03 12:45:16.
