data_PCOD9418602
_publ_section_title
;
Structure prediction by ZEFSAII (Michael W. Deem and Ramdas Pophale) SiO2 
 PCOD9418602
Probable space group: P M N A
;
_chemical_formula_sum "Si O2"
_cell_formula_units_Z 36
_cell_length_a 24.971408
_cell_length_b 11.311421
_cell_length_c 5.692234
_cell_angle_alpha 90.000000
_cell_angle_beta 90.000000
_cell_angle_gamma 90.000000
_cell_volume 1607.840420
_symmetry_space_group_name_H-M "P M N A"
_symmetry_group_IT_number 53
_symmetry_cell_setting 'orthorhombic'
loop_
_space_group_symop_operation_xyz
x,y,z
1/2-x,-y,1/2+z
x,-y,-z
1/2-x,y,1/2-z
-x,-y,-z
1/2+x,y,1/2-z
-x,y,z
1/2+x,-y,1/2+z
loop_
_atom_site_type_symbol
_atom_site_label
_atom_site_fract_x
_atom_site_fract_y
_atom_site_fract_z
Si Si1 0.718676 0.135038 0.997545
Si Si2 0.439516 0.346877 0.827583
Si Si3 0.939714 0.140422 0.004701
Si Si4 0.362627 0.500000 0.500000
Si Si5 0.862639 0.702473 0.704301
O O1 0.750000 0.147025 0.250000
O O2 0.674023 0.235365 0.012626
O O3 0.750000 0.147732 0.750000
O O4 0.697467 0.000000 0.000000
O O5 0.500000 0.389226 0.813108
O O6 0.439233 0.209569 0.743321
O O7 0.401037 0.417386 0.654659
O O8 0.414056 0.356133 0.082168
O O9 0.889110 0.194987 0.139525
O O10 0.000000 0.167569 0.105009
O O11 0.935017 0.000000 0.000000
O O12 0.332815 0.597468 0.657520
#
# Coordination Sequence:
#
# PCOD9418602 Si02
#       5
#     8   8   8   4   8
#     4  10  25  46  73 104 133 168 222 288 355 420
#     4  10  21  37  60  91 131 176 223 270 323 394
#     4   9  20  35  55  93 139 177 217 268 332 405
#     4  10  23  40  60  92 128 178 222 270 323 402
#     4  11  23  38  68  91 130 172 224 273 340 401
#
# _framework density 22.390281999999999
#
# number of rings (size 3 to 8) (size 9 to 14) (size 15 to 20)
#    0.000    2.000    0.000    1.667    9.333    4.444 
#    0.000    3.333    4.889    0.000    0.000    0.000 
#    0.000    0.000    0.000    0.000    0.000    0.000 
#
# Total GULP energy -200815.302950 kJ/mol
# GULP energy per Si atom -5578.202860 kJ/mol
# Density = 2.233932 g / cm^3
# Si number density = 22.390282 Si / 1000 Ang^3
#
#
#
# Elastic Constant Matrix: (Units=GPa)
#
#
# Indices 1 2 3 4 5 6 
#
# 1 31.8935 30.8292 12.1713 0.0000 0.0000 0.0000
# 2 30.8292 137.8573 34.8239 0.0000 0.0000 0.0000
# 3 12.1713 34.8239 73.1003 0.0000 0.0000 0.0000
# 4 0.0000 0.0000 0.0000 33.2583 0.0000 0.0000
# 5 0.0000 0.0000 0.0000 0.0000 15.2774 0.0000
# 6 0.0000 0.0000 0.0000 0.0000 0.0000 9.1794
#
#
#
# Elastic Compliance Matrix: (Units=1/GPa)
#
#
# Indices 1 2 3 4 5 6 
#
# 1 0.040485 -0.008357 -0.002760 0.000000 0.000000 0.000000
# 2 -0.008357 0.009971 -0.003359 0.000000 0.000000 0.000000
# 3 -0.002760 -0.003359 0.015739 0.000000 0.000000 0.000000
# 4 0.000000 0.000000 0.000000 0.030068 0.000000 0.000000
# 5 0.000000 0.000000 0.000000 0.000000 0.065456 0.000000
# 6 0.000000 0.000000 0.000000 0.000000 0.000000 0.108939
#
#
# Mechanical properties :
#
#
# Convention : Reuss Voigt Hill
#
# Bulk Modulus (GPa) = 26.84897 44.27778 35.56337
# Shear Modulus (GPa) = 16.02439 22.54481 19.28460
#
# Velocity S-wave (km/s) = 2.67813 3.17661 2.93796
# Velocity P-wave (km/s) = 4.64549 5.76826 5.23705
#
# Compressibility (1/GPa) = 0.03724537
#
# Stress axis : x y z
#
# Youngs Moduli (GPa) = 24.70032 100.28969 63.53480
#
# Poissons Ratio (x) = 0.83808 0.17535
# Poissons Ratio (y) = 0.20641 0.21339
# Poissons Ratio (z) = 0.06817 0.33684
#
# Static dielectric constant tensor:
#      x y z
#    x 1.836340 0.000000 0.000000 
#    y 0.000000 1.839740 0.000000 
#    z 0.000000 0.000000 1.903970 
# 
# From -- ./inp_files/3479.got.cif
#   From: 2010.05.17/outbox.cif.g08.bks.cpg/sg53_2_cif.got.tgz:3479.got - 2010.06.03 12:45:16.
