data_PCOD9418121
_publ_section_title
;
Structure prediction by ZEFSAII (Michael W. Deem and Ramdas Pophale) SiO2 
 PCOD9418121
Probable space group: P M N A
;
_chemical_formula_sum "Si O2"
_cell_formula_units_Z 64
_cell_length_a 9.118841
_cell_length_b 24.194924
_cell_length_c 15.473916
_cell_angle_alpha 90.000000
_cell_angle_beta 90.000000
_cell_angle_gamma 90.000000
_cell_volume 3414.004903
_symmetry_space_group_name_H-M "P M N A"
_symmetry_group_IT_number 53
_symmetry_cell_setting 'orthorhombic'
loop_
_space_group_symop_operation_xyz
x,y,z
1/2-x,-y,1/2+z
x,-y,-z
1/2-x,y,1/2-z
-x,-y,-z
1/2+x,y,1/2-z
-x,y,z
1/2+x,-y,1/2+z
loop_
_atom_site_type_symbol
_atom_site_label
_atom_site_fract_x
_atom_site_fract_y
_atom_site_fract_z
Si Si1 0.331588 0.104583 0.055702
Si Si2 0.677065 0.709132 0.517411
Si Si3 0.829024 0.785532 0.659597
Si Si4 0.172783 0.885414 0.116624
Si Si5 0.828053 0.998634 0.333948
Si Si6 0.675439 0.237320 0.665466
Si Si7 0.321660 0.490300 0.653420
Si Si8 0.822532 0.418033 0.011826
O O1 0.500000 0.107867 0.021087
O O2 0.319736 0.150481 0.129805
O O3 0.308832 0.042761 0.089941
O O4 0.213309 0.118553 0.983858
O O5 0.500000 0.712664 0.526990
O O6 0.753342 0.747637 0.587613
O O7 0.714888 0.731672 0.422369
O O8 0.722221 0.645209 0.524139
O O9 0.750000 0.777763 0.750000
O O10 0.000000 0.771391 0.666134
O O11 0.257621 0.939213 0.148887
O O12 0.219852 0.827025 0.156270
O O13 0.000000 0.892615 0.130538
O O14 0.750000 0.022802 0.250000
O O15 0.000000 0.992139 0.318704
O O16 0.750000 0.261597 0.750000
O O17 0.500000 0.238922 0.674153
O O18 0.250000 0.487949 0.750000
O O19 0.500000 0.489430 0.663778
O O20 0.279590 0.442389 0.582910
O O21 0.280476 0.544289 0.594761
O O22 0.000000 0.420140 0.010431
#
# Coordination Sequence:
#
# PCOD9418121 Si02
#       8
#     8   8   8   8   8   8   8   8
#     4  10  22  39  58  80 108 142 182 230 287 342
#     4  10  20  39  60  82 113 152 195 241 283 333
#     4  11  23  39  60  85 113 150 190 237 290 343
#     4  11  22  37  57  82 108 142 184 230 284 344
#     4  11  23  38  55  79 108 140 180 228 282 344
#     4  10  22  37  56  81 110 146 188 232 284 339
#     4   9  17  33  56  85 115 152 192 230 277 331
#     4   8  17  34  57  80 113 155 192 228 279 336
#
# _framework density 18.746310999999999
#
# number of rings (size 3 to 8) (size 9 to 14) (size 15 to 20)
#    0.000    2.000    1.250    3.000    0.000    6.500 
#    0.000    3.750    0.000    0.000    0.000    0.000 
#    0.000    0.000    0.000    0.000    0.000    0.000 
#
# Total GULP energy -357068.748688 kJ/mol
# GULP energy per Si atom -5579.199198 kJ/mol
# Density = 1.870364 g / cm^3
# Si number density = 18.746311 Si / 1000 Ang^3
#
#
#
# Elastic Constant Matrix: (Units=GPa)
#
#
# Indices 1 2 3 4 5 6 
#
# 1 30.6093 21.9188 37.2093 0.0000 0.0000 0.0000
# 2 21.9188 84.4252 24.8634 0.0000 0.0000 0.0000
# 3 37.2093 24.8634 119.1813 0.0000 0.0000 0.0000
# 4 0.0000 0.0000 0.0000 21.9574 0.0000 0.0000
# 5 0.0000 0.0000 0.0000 0.0000 38.2370 0.0000
# 6 0.0000 0.0000 0.0000 0.0000 0.0000 15.5473
#
#
#
# Elastic Compliance Matrix: (Units=1/GPa)
#
#
# Indices 1 2 3 4 5 6 
#
# 1 0.060741 -0.010852 -0.016700 0.000000 0.000000 0.000000
# 2 -0.010852 0.014559 0.000351 0.000000 0.000000 0.000000
# 3 -0.016700 0.000351 0.013531 0.000000 0.000000 0.000000
# 4 0.000000 0.000000 0.000000 0.045543 0.000000 0.000000
# 5 0.000000 0.000000 0.000000 0.000000 0.026153 0.000000
# 6 0.000000 0.000000 0.000000 0.000000 0.000000 0.064320
#
#
# Mechanical properties :
#
#
# Convention : Reuss Voigt Hill
#
# Bulk Modulus (GPa) = 29.04487 44.68876 36.86682
# Shear Modulus (GPa) = 17.19838 25.16330 21.18084
#
# Velocity S-wave (km/s) = 3.03219 3.66773 3.36500
# Velocity P-wave (km/s) = 5.27126 6.46736 5.89970
#
# Compressibility (1/GPa) = 0.03442948
#
# Stress axis : x y z
#
# Youngs Moduli (GPa) = 16.46327 68.68658 73.90292
#
# Poissons Ratio (x) = 0.74537 1.23418
# Poissons Ratio (y) = 0.17865 -0.02592
# Poissons Ratio (z) = 0.27494 -0.02409
#
# Static dielectric constant tensor:
#      x y z
#    x 1.629550 0.000000 0.000000 
#    y 0.000000 1.658110 0.000000 
#    z 0.000000 0.000000 1.667310 
# 
# From -- ./inp_files/20813.got.cif
#   From: 2010.05.17/outbox.cif.g08.bks.cpg/sg53_11_cif.got.tgz:20813.got - 2010.06.03 12:45:16.
