data_PCOD9418512
_publ_section_title
;
Structure prediction by ZEFSAII (Michael W. Deem and Ramdas Pophale) SiO2 
 PCOD9418512
Probable space group: P M N A
;
_chemical_formula_sum "Si O2"
_cell_formula_units_Z 40
_cell_length_a 15.176943
_cell_length_b 10.126184
_cell_length_c 12.476603
_cell_angle_alpha 90.000000
_cell_angle_beta 90.000000
_cell_angle_gamma 90.000000
_cell_volume 1917.460711
_symmetry_space_group_name_H-M "P M N A"
_symmetry_group_IT_number 53
_symmetry_cell_setting 'orthorhombic'
loop_
_space_group_symop_operation_xyz
x,y,z
1/2-x,-y,1/2+z
x,-y,-z
1/2-x,y,1/2-z
-x,-y,-z
1/2+x,y,1/2-z
-x,y,z
1/2+x,-y,1/2+z
loop_
_atom_site_type_symbol
_atom_site_label
_atom_site_fract_x
_atom_site_fract_y
_atom_site_fract_z
Si Si1 0.774199 0.244080 0.919203
Si Si2 0.902287 0.980794 0.162290
Si Si3 0.600175 0.104854 0.906394
Si Si4 0.098240 0.531203 0.128097
Si Si5 0.323057 0.260499 0.339570
O O1 0.827676 0.109625 0.891585
O O2 0.672444 0.218601 0.896487
O O3 0.827250 0.358341 0.857844
O O4 0.778929 0.277497 0.044615
O O5 0.898660 0.962665 0.290298
O O6 0.000000 0.940560 0.124766
O O7 0.885426 0.134708 0.144798
O O8 0.500000 0.148952 0.928840
O O9 0.624812 0.000000 0.000000
O O10 0.124577 0.394742 0.184485
O O11 0.000000 0.576654 0.159414
O O12 0.094784 0.500000 0.000000
O O13 0.250000 0.232872 0.250000
#
# Coordination Sequence:
#
# PCOD9418512 Si02
#       5
#     8   8   8   8   8
#     4  11  21  37  60  86 117 152 195 245 297 353
#     4  11  22  35  58  89 116 150 197 245 297 353
#     4  10  21  37  57  84 119 156 195 244 298 353
#     4   9  20  38  58  81 113 151 190 240 301 355
#     4  11  22  36  57  84 118 158 195 237 295 357
#
# _framework density 20.860925000000002
#
# number of rings (size 3 to 8) (size 9 to 14) (size 15 to 20)
#    0.000    1.600    0.000    6.000    0.000    4.800 
#    0.000    1.000    0.000    6.600    0.000    0.000 
#    0.000    0.000    0.000    0.000    0.000    0.000 
#
# Total GULP energy -223504.581625 kJ/mol
# GULP energy per Si atom -5587.614541 kJ/mol
# Density = 2.081344 g / cm^3
# Si number density = 20.860925 Si / 1000 Ang^3
#
#
#
# Elastic Constant Matrix: (Units=GPa)
#
#
# Indices 1 2 3 4 5 6 
#
# 1 116.5460 49.4561 2.2191 0.0000 0.0000 0.0000
# 2 49.4561 107.8804 -9.3284 0.0000 0.0000 0.0000
# 3 2.2191 -9.3284 63.1141 0.0000 0.0000 0.0000
# 4 0.0000 0.0000 0.0000 16.5553 0.0000 0.0000
# 5 0.0000 0.0000 0.0000 0.0000 0.2723 0.0000
# 6 0.0000 0.0000 0.0000 0.0000 0.0000 33.1909
#
#
#
# Elastic Compliance Matrix: (Units=1/GPa)
#
#
# Indices 1 2 3 4 5 6 
#
# 1 0.010730 -0.005016 -0.001119 0.000000 0.000000 0.000000
# 2 -0.005016 0.011734 0.001911 0.000000 0.000000 0.000000
# 3 -0.001119 0.001911 0.016166 0.000000 0.000000 0.000000
# 4 0.000000 0.000000 0.000000 0.060404 0.000000 0.000000
# 5 0.000000 0.000000 0.000000 0.000000 3.672769 0.000000
# 6 0.000000 0.000000 0.000000 0.000000 0.000000 0.030129
#
#
# Mechanical properties :
#
#
# Convention : Reuss Voigt Hill
#
# Bulk Modulus (GPa) = 33.13139 41.35936 37.24537
# Shear Modulus (GPa) = 1.30875 26.34994 13.82934
#
# Velocity S-wave (km/s) = 0.79293 3.55790 2.57754
# Velocity P-wave (km/s) = 4.09327 6.06197 5.17215
#
# Compressibility (1/GPa) = 0.03018286
#
# Stress axis : x y z
#
# Youngs Moduli (GPa) = 93.19652 85.22158 61.85806
#
# Poissons Ratio (x) = 0.42745 0.06919
# Poissons Ratio (y) = 0.46745 -0.11819
# Poissons Ratio (z) = 0.10425 -0.16283
#
# Static dielectric constant tensor:
#      x y z
#    x 1.761040 0.000000 0.000000 
#    y 0.000000 1.749420 0.000000 
#    z 0.000000 0.000000 1.751860 
# 
# From -- ./inp_files/15782.got.cif
#   From: 2010.05.17/outbox.cif.g08.bks.cpg/sg53_8_cif.got.tgz:15782.got - 2010.06.03 12:45:16.
