data_PCOD9418290
_publ_section_title
;
Structure prediction by ZEFSAII (Michael W. Deem and Ramdas Pophale) SiO2 
 PCOD9418290
Probable space group: P M N A
;
_chemical_formula_sum "Si O2"
_cell_formula_units_Z 48
_cell_length_a 8.366934
_cell_length_b 31.828207
_cell_length_c 9.352166
_cell_angle_alpha 90.000000
_cell_angle_beta 90.000000
_cell_angle_gamma 90.000000
_cell_volume 2490.523959
_symmetry_space_group_name_H-M "P M N A"
_symmetry_group_IT_number 53
_symmetry_cell_setting 'orthorhombic'
loop_
_space_group_symop_operation_xyz
x,y,z
1/2-x,-y,1/2+z
x,-y,-z
1/2-x,y,1/2-z
-x,-y,-z
1/2+x,y,1/2-z
-x,y,z
1/2+x,-y,1/2+z
loop_
_atom_site_type_symbol
_atom_site_label
_atom_site_fract_x
_atom_site_fract_y
_atom_site_fract_z
Si Si1 0.806862 0.284384 0.588268
Si Si2 0.806806 0.459220 0.411569
Si Si3 0.693105 0.378903 0.911407
Si Si4 0.193215 0.958729 0.913266
Si Si5 0.308343 0.876323 0.412857
Si Si6 0.308425 0.204080 0.088184
O O1 0.750000 0.276013 0.750000
O O2 0.753667 0.331659 0.548252
O O3 0.751188 0.247858 0.482329
O O4 0.000000 0.284110 0.588681
O O5 0.752387 0.500000 0.500000
O O6 0.750000 0.461812 0.250000
O O7 0.750536 0.416161 0.486220
O O8 0.000000 0.459040 0.413741
O O9 0.750000 0.386858 0.750000
O O10 0.500000 0.379075 0.912125
O O11 0.250000 0.959160 0.750000
O O12 0.000000 0.958773 0.912428
O O13 0.247154 0.916964 0.997013
O O14 0.247031 0.000000 0.000000
O O15 0.250000 0.878273 0.250000
O O16 0.500000 0.876304 0.412420
O O17 0.249360 0.834425 0.491154
O O18 0.250000 0.199464 0.250000
O O19 0.500000 0.204225 0.088191
#
# Coordination Sequence:
#
# PCOD9418290 Si02
#       6
#     8   8   8   8   8   8
#     4   9  19  35  55  78 105 139 177 219 265 316
#     4  10  21  35  52  76 105 136 172 215 261 312
#     4   9  18  34  54  77 105 136 174 217 262 314
#     4  10  22  39  59  85 115 147 184 225 270 321
#     4  11  23  39  60  85 113 146 185 227 274 326
#     4  11  23  38  56  80 111 145 183 227 274 323
#
# _framework density 19.273053000000001
#
# number of rings (size 3 to 8) (size 9 to 14) (size 15 to 20)
#    0.000    2.000    0.000    3.000    0.000    7.333 
#    0.000    0.000    0.000    0.000    0.000    0.000 
#    0.000    0.000    0.000    0.000    0.000    0.000 
#
# Total GULP energy -268148.733272 kJ/mol
# GULP energy per Si atom -5586.431943 kJ/mol
# Density = 1.922919 g / cm^3
# Si number density = 19.273053 Si / 1000 Ang^3
#
#
#
# Elastic Constant Matrix: (Units=GPa)
#
#
# Indices 1 2 3 4 5 6 
#
# 1 16.4126 27.9556 20.2915 0.0000 0.0000 0.0000
# 2 27.9556 188.9524 134.5291 0.0000 0.0000 0.0000
# 3 20.2915 134.5291 188.8737 0.0000 0.0000 0.0000
# 4 0.0000 0.0000 0.0000 44.7018 0.0000 0.0000
# 5 0.0000 0.0000 0.0000 0.0000 37.6613 0.0000
# 6 0.0000 0.0000 0.0000 0.0000 0.0000 48.7970
#
#
#
# Elastic Compliance Matrix: (Units=1/GPa)
#
#
# Indices 1 2 3 4 5 6 
#
# 1 0.081467 -0.011811 -0.000339 0.000000 0.000000 0.000000
# 2 -0.011811 0.012450 -0.007599 0.000000 0.000000 0.000000
# 3 -0.000339 -0.007599 0.010743 0.000000 0.000000 0.000000
# 4 0.000000 0.000000 0.000000 0.022370 0.000000 0.000000
# 5 0.000000 0.000000 0.000000 0.000000 0.026552 0.000000
# 6 0.000000 0.000000 0.000000 0.000000 0.000000 0.020493
#
#
# Mechanical properties :
#
#
# Convention : Reuss Voigt Hill
#
# Bulk Modulus (GPa) = 15.34658 84.42122 49.88390
# Shear Modulus (GPa) = 21.24983 40.32952 30.78967
#
# Velocity S-wave (km/s) = 3.32409 4.57939 4.00127
# Velocity P-wave (km/s) = 4.76580 8.47696 6.87647
#
# Compressibility (1/GPa) = 0.06516110
#
# Stress axis : x y z
#
# Youngs Moduli (GPa) = 12.27491 80.32127 93.08030
#
# Poissons Ratio (x) = 0.94871 0.03159
# Poissons Ratio (y) = 0.14498 0.70730
# Poissons Ratio (z) = 0.00417 0.61035
#
# Static dielectric constant tensor:
#      x y z
#    x 1.668800 0.000000 0.000000 
#    y 0.000000 1.686350 0.000000 
#    z 0.000000 0.000000 1.615060 
# 
# From -- ./inp_files/6605.got.cif
#   From: 2010.05.17/outbox.cif.g08.bks.cpg/sg53_4_cif.got.tgz:6605.got - 2010.06.03 12:45:16.
