data_PCOD9418347
_publ_section_title
;
Structure prediction by ZEFSAII (Michael W. Deem and Ramdas Pophale) SiO2 
 PCOD9418347
Probable space group: P M N A
;
_chemical_formula_sum "Si O2"
_cell_formula_units_Z 40
_cell_length_a 8.617556
_cell_length_b 26.923980
_cell_length_c 9.282222
_cell_angle_alpha 90.000000
_cell_angle_beta 90.000000
_cell_angle_gamma 90.000000
_cell_volume 2153.650988
_symmetry_space_group_name_H-M "P M N A"
_symmetry_group_IT_number 53
_symmetry_cell_setting 'orthorhombic'
loop_
_space_group_symop_operation_xyz
x,y,z
1/2-x,-y,1/2+z
x,-y,-z
1/2-x,y,1/2-z
-x,-y,-z
1/2+x,y,1/2-z
-x,y,z
1/2+x,-y,1/2+z
loop_
_atom_site_type_symbol
_atom_site_label
_atom_site_fract_x
_atom_site_fract_y
_atom_site_fract_z
Si Si1 0.315039 0.857280 0.913295
Si Si2 0.186263 0.049479 0.911451
Si Si3 0.687606 0.548630 0.410893
Si Si4 0.686240 0.754044 0.586522
Si Si5 0.187184 0.355156 0.087575
O O1 0.250000 0.861820 0.750000
O O2 0.500000 0.857685 0.906522
O O3 0.257928 0.804286 0.976207
O O4 0.253394 0.902627 0.007525
O O5 0.250000 0.046420 0.750000
O O6 0.000000 0.052802 0.908254
O O7 0.229798 0.000000 0.000000
O O8 0.736804 0.500000 0.500000
O O9 0.750000 0.546427 0.250000
O O10 0.500000 0.549030 0.407284
O O11 0.740216 0.598852 0.491100
O O12 0.750000 0.752712 0.750000
O O13 0.500000 0.758622 0.588107
O O14 0.729340 0.699595 0.526942
O O15 0.250000 0.359989 0.250000
O O16 0.000000 0.356504 0.095623
#
# Coordination Sequence:
#
# PCOD9418347 Si02
#       5
#     8   8   8   8   8
#     4  11  21  35  57  84 114 147 185 226 270 319
#     4  11  24  41  61  85 113 145 182 224 271 323
#     4  10  21  36  53  76 105 136 174 218 265 318
#     4   9  16  29  50  76 107 140 178 221 265 314
#     4   9  18  32  52  78 106 138 176 220 265 314
#
# _framework density 18.573111000000001
#
# number of rings (size 3 to 8) (size 9 to 14) (size 15 to 20)
#    0.000    2.000    0.000    5.400    0.000    5.200 
#    0.000    1.000    0.000    2.400    0.000    0.000 
#    0.000    0.000    0.000    0.000    0.000    0.000 
#
# Total GULP energy -223260.566833 kJ/mol
# GULP energy per Si atom -5581.514171 kJ/mol
# Density = 1.853084 g / cm^3
# Si number density = 18.573111 Si / 1000 Ang^3
#
#
#
# Elastic Constant Matrix: (Units=GPa)
#
#
# Indices 1 2 3 4 5 6 
#
# 1 62.3809 63.0996 34.3474 0.0000 0.0000 0.0000
# 2 63.0996 236.6060 100.3806 0.0000 0.0000 0.0000
# 3 34.3474 100.3806 111.3386 0.0000 0.0000 0.0000
# 4 0.0000 0.0000 0.0000 34.5527 0.0000 0.0000
# 5 0.0000 0.0000 0.0000 0.0000 27.7052 0.0000
# 6 0.0000 0.0000 0.0000 0.0000 0.0000 125.3605
#
#
#
# Elastic Compliance Matrix: (Units=1/GPa)
#
#
# Indices 1 2 3 4 5 6 
#
# 1 0.022362 -0.004918 -0.002465 0.000000 0.000000 0.000000
# 2 -0.004918 0.007926 -0.005629 0.000000 0.000000 0.000000
# 3 -0.002465 -0.005629 0.014817 0.000000 0.000000 0.000000
# 4 0.000000 0.000000 0.000000 0.028941 0.000000 0.000000
# 5 0.000000 0.000000 0.000000 0.000000 0.036094 0.000000
# 6 0.000000 0.000000 0.000000 0.000000 0.000000 0.007977
#
#
# Mechanical properties :
#
#
# Convention : Reuss Voigt Hill
#
# Bulk Modulus (GPa) = 52.40495 89.55342 70.97918
# Shear Modulus (GPa) = 33.22228 51.69019 42.45623
#
# Velocity S-wave (km/s) = 4.23393 5.28120 4.78629
# Velocity P-wave (km/s) = 7.22345 9.24713 8.29722
#
# Compressibility (1/GPa) = 0.01908217
#
# Stress axis : x y z
#
# Youngs Moduli (GPa) = 44.71794 126.16652 67.49154
#
# Poissons Ratio (x) = 0.62050 0.16634
# Poissons Ratio (y) = 0.21993 0.37989
# Poissons Ratio (z) = 0.11021 0.71016
#
# Static dielectric constant tensor:
#      x y z
#    x 1.622740 0.000000 0.000000 
#    y 0.000000 1.681970 0.000000 
#    z 0.000000 0.000000 1.179360 
# 
# From -- ./inp_files/6452.got.cif
#   From: 2010.05.17/outbox.cif.g08.bks.cpg/sg53_4_cif.got.tgz:6452.got - 2010.06.03 12:45:16.
