data_PCOD9418375
_publ_section_title
;
Structure prediction by ZEFSAII (Michael W. Deem and Ramdas Pophale) SiO2 
 PCOD9418375
Probable space group: P M N A
;
_chemical_formula_sum "Si O2"
_cell_formula_units_Z 64
_cell_length_a 8.885162
_cell_length_b 19.682262
_cell_length_c 19.361817
_cell_angle_alpha 90.000000
_cell_angle_beta 90.000000
_cell_angle_gamma 90.000000
_cell_volume 3385.996230
_symmetry_space_group_name_H-M "P M N A"
_symmetry_group_IT_number 53
_symmetry_cell_setting 'orthorhombic'
loop_
_space_group_symop_operation_xyz
x,y,z
1/2-x,-y,1/2+z
x,-y,-z
1/2-x,y,1/2-z
-x,-y,-z
1/2+x,y,1/2-z
-x,y,z
1/2+x,-y,1/2+z
loop_
_atom_site_type_symbol
_atom_site_label
_atom_site_fract_x
_atom_site_fract_y
_atom_site_fract_z
Si Si1 0.319610 0.781998 0.675508
Si Si2 0.319574 0.914578 0.586018
Si Si3 0.679365 0.864772 0.050436
Si Si4 0.180663 0.284610 0.948732
Si Si5 0.818876 0.351963 0.094132
Si Si6 0.820301 0.036777 0.674196
Si Si7 0.819860 0.369166 0.675279
Si Si8 0.320790 0.472367 0.175293
O O1 0.250000 0.794775 0.750000
O O2 0.500000 0.780453 0.681792
O O3 0.283331 0.842596 0.622756
O O4 0.270812 0.709633 0.644585
O O5 0.500000 0.921591 0.581780
O O6 0.249242 0.911327 0.509886
O O7 0.251000 0.973205 0.633592
O O8 0.500000 0.860574 0.040695
O O9 0.752712 0.790759 0.045228
O O10 0.708474 0.898473 0.124952
O O11 0.247839 0.321872 0.882444
O O12 0.000000 0.280182 0.944827
O O13 0.219367 0.328036 0.017006
O O14 0.744527 0.421273 0.118939
O O15 0.000000 0.358245 0.098490
O O16 0.750000 0.043372 0.750000
O O17 0.000000 0.027406 0.679905
O O18 0.750000 0.353797 0.750000
O O19 0.785824 0.448663 0.660201
O O20 0.000000 0.361064 0.677106
O O21 0.250000 0.455758 0.250000
O O22 0.500000 0.465188 0.179701
#
# Coordination Sequence:
#
# PCOD9418375 Si02
#       8
#     8   8   8   8   8   8   8   8
#     4  10  21  36  54  83 119 156 199 242 289 349
#     4  11  22  40  64  90 123 162 203 248 302 362
#     4  11  24  42  64  90 124 162 205 254 305 364
#     4  11  23  41  64  90 122 159 203 252 304 364
#     4  10  21  38  57  83 121 159 201 247 296 359
#     4  11  25  43  63  92 124 158 203 252 304 362
#     4  10  22  41  63  89 120 156 202 252 305 363
#     4  10  21  37  59  87 120 159 203 250 301 360
#
# _framework density 18.901381000000001
#
# number of rings (size 3 to 8) (size 9 to 14) (size 15 to 20)
#    0.000    1.500    1.250    3.375    0.000   10.500 
#    0.000    3.750    0.000    0.000    0.000    0.000 
#    0.000    0.000    0.000    0.000    0.000    0.000 
#
# Total GULP energy -357824.690547 kJ/mol
# GULP energy per Si atom -5591.010790 kJ/mol
# Density = 1.885836 g / cm^3
# Si number density = 18.901381 Si / 1000 Ang^3
#
#
#
# Elastic Constant Matrix: (Units=GPa)
#
#
# Indices 1 2 3 4 5 6 
#
# 1 58.9810 37.4107 66.8897 0.0000 0.0000 0.0000
# 2 37.4107 60.0966 67.9985 0.0000 0.0000 0.0000
# 3 66.8897 67.9985 153.7668 0.0000 0.0000 0.0000
# 4 0.0000 0.0000 0.0000 31.9462 0.0000 0.0000
# 5 0.0000 0.0000 0.0000 0.0000 34.1190 0.0000
# 6 0.0000 0.0000 0.0000 0.0000 0.0000 42.3278
#
#
#
# Elastic Compliance Matrix: (Units=1/GPa)
#
#
# Indices 1 2 3 4 5 6 
#
# 1 0.035918 -0.009367 -0.011482 0.000000 0.000000 0.000000
# 2 -0.009367 0.035747 -0.011733 0.000000 0.000000 0.000000
# 3 -0.011482 -0.011733 0.016687 0.000000 0.000000 0.000000
# 4 0.000000 0.000000 0.000000 0.031303 0.000000 0.000000
# 5 0.000000 0.000000 0.000000 0.000000 0.029309 0.000000
# 6 0.000000 0.000000 0.000000 0.000000 0.000000 0.023625
#
#
# Mechanical properties :
#
#
# Convention : Reuss Voigt Hill
#
# Bulk Modulus (GPa) = 43.12853 68.60468 55.86660
# Shear Modulus (GPa) = 20.36803 28.38164 24.37483
#
# Velocity S-wave (km/s) = 3.28624 3.87921 3.59497
# Velocity P-wave (km/s) = 6.10461 7.51261 6.84491
#
# Compressibility (1/GPa) = 0.02318651
#
# Stress axis : x y z
#
# Youngs Moduli (GPa) = 27.84128 27.97433 59.92759
#
# Poissons Ratio (x) = 0.26204 0.68810
# Poissons Ratio (y) = 0.26080 0.70314
# Poissons Ratio (z) = 0.31968 0.32823
#
# Static dielectric constant tensor:
#      x y z
#    x 1.629140 0.000000 0.000000 
#    y 0.000000 1.641320 0.000000 
#    z 0.000000 0.000000 1.631230 
# 
# From -- ./inp_files/26859.got.cif
#   From: 2010.05.17/outbox.cif.g08.bks.cpg/sg53_14_cif.got.tgz:26859.got - 2010.06.03 12:45:16.
