data_PCOD9418068
_publ_section_title
;
Structure prediction by ZEFSAII (Michael W. Deem and Ramdas Pophale) SiO2 
 PCOD9418068
Probable space group: P M N A
;
_chemical_formula_sum "Si O2"
_cell_formula_units_Z 40
_cell_length_a 8.906048
_cell_length_b 12.581079
_cell_length_c 19.117015
_cell_angle_alpha 90.000000
_cell_angle_beta 90.000000
_cell_angle_gamma 90.000000
_cell_volume 2142.017437
_symmetry_space_group_name_H-M "P M N A"
_symmetry_group_IT_number 53
_symmetry_cell_setting 'orthorhombic'
loop_
_space_group_symop_operation_xyz
x,y,z
1/2-x,-y,1/2+z
x,-y,-z
1/2-x,y,1/2-z
-x,-y,-z
1/2+x,y,1/2-z
-x,y,z
1/2+x,-y,1/2+z
loop_
_atom_site_type_symbol
_atom_site_label
_atom_site_fract_x
_atom_site_fract_y
_atom_site_fract_z
Si Si1 0.320701 0.888972 0.826324
Si Si2 0.820359 0.669164 0.596965
Si Si3 0.679803 0.469802 0.674639
Si Si4 0.680272 0.303010 0.552851
Si Si5 0.819778 0.057118 0.926815
O O1 0.250000 0.878085 0.750000
O O2 0.500000 0.893840 0.820807
O O3 0.281020 0.785521 0.872736
O O4 0.258944 0.992862 0.865176
O O5 0.745329 0.579682 0.644867
O O6 0.760298 0.660615 0.518073
O O7 0.000000 0.657501 0.598506
O O8 0.750000 0.446617 0.750000
O O9 0.500000 0.477229 0.680479
O O10 0.716319 0.379011 0.617775
O O11 0.500000 0.307112 0.541429
O O12 0.721363 0.180934 0.568935
O O13 0.000000 0.049886 0.918090
O O14 0.780652 0.000000 0.000000
#
# Coordination Sequence:
#
# PCOD9418068 Si02
#       5
#     8   8   8   8   8
#     4  11  24  39  59  89 123 158 200 250 302 356
#     4  11  23  39  62  91 121 157 202 250 300 356
#     4  11  24  41  61  86 121 159 200 248 302 359
#     4  10  22  40  63  91 121 158 201 246 300 359
#     4  10  20  38  64  89 119 159 199 243 296 356
#
# _framework density 18.673984999999998
#
# number of rings (size 3 to 8) (size 9 to 14) (size 15 to 20)
#    0.000    1.400    2.000    3.000    0.000   10.000 
#    0.000    2.000    0.000    0.000    0.000    0.000 
#    0.000    0.000    0.000    0.000    0.000    0.000 
#
# Total GULP energy -223678.065026 kJ/mol
# GULP energy per Si atom -5591.951626 kJ/mol
# Density = 1.863148 g / cm^3
# Si number density = 18.673985 Si / 1000 Ang^3
#
#
#
# Elastic Constant Matrix: (Units=GPa)
#
#
# Indices 1 2 3 4 5 6 
#
# 1 27.2068 7.7117 41.5420 0.0000 0.0000 0.0000
# 2 7.7117 19.1101 10.5947 0.0000 0.0000 0.0000
# 3 41.5420 10.5947 137.1978 0.0000 0.0000 0.0000
# 4 0.0000 0.0000 0.0000 29.2309 0.0000 0.0000
# 5 0.0000 0.0000 0.0000 0.0000 31.2487 0.0000
# 6 0.0000 0.0000 0.0000 0.0000 0.0000 23.7327
#
#
#
# Elastic Compliance Matrix: (Units=1/GPa)
#
#
# Indices 1 2 3 4 5 6 
#
# 1 0.073967 -0.018212 -0.020990 0.000000 0.000000 0.000000
# 2 -0.018212 0.059153 0.000946 0.000000 0.000000 0.000000
# 3 -0.020990 0.000946 0.013571 0.000000 0.000000 0.000000
# 4 0.000000 0.000000 0.000000 0.034210 0.000000 0.000000
# 5 0.000000 0.000000 0.000000 0.000000 0.032001 0.000000
# 6 0.000000 0.000000 0.000000 0.000000 0.000000 0.042136
#
#
# Mechanical properties :
#
#
# Convention : Reuss Voigt Hill
#
# Bulk Modulus (GPa) = 14.24900 33.69016 23.96958
# Shear Modulus (GPa) = 14.08672 25.08686 19.58679
#
# Velocity S-wave (km/s) = 2.74952 3.66924 3.24216
# Velocity P-wave (km/s) = 4.21032 6.00262 5.18451
#
# Compressibility (1/GPa) = 0.07018035
#
# Stress axis : x y z
#
# Youngs Moduli (GPa) = 13.51946 16.90533 73.68523
#
# Poissons Ratio (x) = 0.30788 1.54666
# Poissons Ratio (y) = 0.24622 -0.06974
# Poissons Ratio (z) = 0.28378 -0.01600
#
# Static dielectric constant tensor:
#      x y z
#    x 1.623590 0.000000 0.000000 
#    y 0.000000 1.628300 0.000000 
#    z 0.000000 0.000000 1.607910 
# 
# From -- ./inp_files/25815.got.cif
#   From: 2010.05.17/outbox.cif.g08.bks.cpg/sg53_13_cif.got.tgz:25815.got - 2010.06.03 12:45:16.
