data_PCOD9418456
_publ_section_title
;
Structure prediction by ZEFSAII (Michael W. Deem and Ramdas Pophale) SiO2 
 PCOD9418456
Probable space group: P M N A
;
_chemical_formula_sum "Si O2"
_cell_formula_units_Z 64
_cell_length_a 8.501060
_cell_length_b 17.699798
_cell_length_c 26.324721
_cell_angle_alpha 90.000000
_cell_angle_beta 90.000000
_cell_angle_gamma 90.000000
_cell_volume 3961.002974
_symmetry_space_group_name_H-M "P M N A"
_symmetry_group_IT_number 53
_symmetry_cell_setting 'orthorhombic'
loop_
_space_group_symop_operation_xyz
x,y,z
1/2-x,-y,1/2+z
x,-y,-z
1/2-x,y,1/2-z
-x,-y,-z
1/2+x,y,1/2-z
-x,y,z
1/2+x,-y,1/2+z
loop_
_atom_site_type_symbol
_atom_site_label
_atom_site_fract_x
_atom_site_fract_y
_atom_site_fract_z
Si Si1 0.191800 0.412981 0.500000
Si Si2 0.811626 0.412959 0.194075
Si Si3 0.690678 0.835039 0.559212
Si Si4 0.817189 1.000000 0.061740
Si Si5 0.309322 0.835039 0.440788
Si Si6 0.188413 0.319723 0.400626
Si Si7 0.688374 0.412959 0.694075
Si Si8 0.811587 0.319723 0.599375
O O1 0.244010 0.500000 0.500000
O O2 0.243057 0.368786 0.449482
O O3 0.243057 0.368786 0.550518
O O4 0.000000 0.413250 0.500000
O O5 0.750000 0.392470 0.250000
O O6 0.748296 0.358869 0.150363
O O7 0.760776 0.500000 0.183985
O O8 0.000000 0.411052 0.194305
O O9 0.500000 0.836406 0.560165
O O10 0.749504 0.918185 0.576413
O O11 0.737661 0.823838 0.500000
O O12 0.751480 0.765202 0.591475
O O13 0.000000 1.000000 0.077892
O O14 0.750496 0.918185 0.076413
O O15 0.817260 0.000000 0.000000
O O16 0.500000 0.836406 0.439835
O O17 0.248520 0.765202 0.408525
O O18 0.000000 0.319715 0.400717
O O19 0.750000 0.392470 0.750000
O O20 0.500000 0.411052 0.694305
O O21 0.751703 0.358869 0.650363
O O22 0.000000 0.319715 0.599283
#
# Coordination Sequence:
#
# PCOD9418456 Si02
#       8
#     8   8   8   8   8   8   8   8
#     4   9  18  30  43  62  93 132 166 193 231 285
#     4  10  21  37  55  74  95 123 163 209 252 291
#     4   9  16  28  46  68  97 130 166 204 242 287
#     4   7  12  24  43  65  90 127 166 199 239 286
#     4   9  16  28  46  68  97 130 166 204 242 287
#     4  11  20  31  48  71 101 133 165 200 244 292
#     4  10  21  37  55  74  95 123 163 209 252 291
#     4  11  20  31  48  71 101 133 165 200 244 292
#
# _framework density 16.157523000000001
#
# number of rings (size 3 to 8) (size 9 to 14) (size 15 to 20)
#    0.000    2.500    1.250    3.750    0.000    2.500 
#    0.000    0.625    0.000    5.250    0.000    0.875 
#    0.000    0.000    0.000    0.000    0.000    0.000 
#
# Total GULP energy -356775.874534 kJ/mol
# GULP energy per Si atom -5574.623040 kJ/mol
# Density = 1.612075 g / cm^3
# Si number density = 16.157523 Si / 1000 Ang^3
#
#
#
# Elastic Constant Matrix: (Units=GPa)
#
#
# Indices 1 2 3 4 5 6 
#
# 1 24.8297 29.2088 25.5316 0.0000 0.0000 0.0000
# 2 29.2088 173.7962 90.9950 0.0000 0.0000 0.0000
# 3 25.5316 90.9950 106.8576 0.0000 0.0000 0.0000
# 4 0.0000 0.0000 0.0000 17.8706 0.0000 0.0000
# 5 0.0000 0.0000 0.0000 0.0000 15.9204 0.0000
# 6 0.0000 0.0000 0.0000 0.0000 0.0000 18.0553
#
#
#
# Elastic Compliance Matrix: (Units=1/GPa)
#
#
# Indices 1 2 3 4 5 6 
#
# 1 0.055095 -0.004272 -0.009526 0.000000 0.000000 0.000000
# 2 -0.004272 0.010714 -0.008103 0.000000 0.000000 0.000000
# 3 -0.009526 -0.008103 0.018535 0.000000 0.000000 0.000000
# 4 0.000000 0.000000 0.000000 0.055958 0.000000 0.000000
# 5 0.000000 0.000000 0.000000 0.000000 0.062813 0.000000
# 6 0.000000 0.000000 0.000000 0.000000 0.000000 0.055386
#
#
# Mechanical properties :
#
#
# Convention : Reuss Voigt Hill
#
# Bulk Modulus (GPa) = 24.66598 66.32826 45.49712
# Shear Modulus (GPa) = 15.83196 21.01913 18.42555
#
# Velocity S-wave (km/s) = 3.13365 3.61070 3.38060
# Velocity P-wave (km/s) = 5.32843 7.65003 6.59223
#
# Compressibility (1/GPa) = 0.04054166
#
# Stress axis : x y z
#
# Youngs Moduli (GPa) = 18.15041 93.33199 53.95270
#
# Poissons Ratio (x) = 0.39869 0.51397
# Poissons Ratio (y) = 0.07753 0.43719
# Poissons Ratio (z) = 0.17291 0.75629
#
# Static dielectric constant tensor:
#      x y z
#    x 1.548070 0.000000 0.000000 
#    y 0.000000 1.564540 0.000000 
#    z 0.000000 0.000000 1.505690 
# 
# From -- ./inp_files/34451.got.cif
#   From: 2010.05.17/outbox.cif.g08.bks.cpg/sg53_18_cif.got.tgz:34451.got - 2010.06.03 12:45:16.
