data_PCOD9418209
_publ_section_title
;
Structure prediction by ZEFSAII (Michael W. Deem and Ramdas Pophale) SiO2 
 PCOD9418209
Probable space group: P M N A
;
_chemical_formula_sum "Si O2"
_cell_formula_units_Z 56
_cell_length_a 10.659400
_cell_length_b 14.644117
_cell_length_c 19.181591
_cell_angle_alpha 90.000000
_cell_angle_beta 90.000000
_cell_angle_gamma 90.000000
_cell_volume 2994.198416
_symmetry_space_group_name_H-M "P M N A"
_symmetry_group_IT_number 53
_symmetry_cell_setting 'orthorhombic'
loop_
_space_group_symop_operation_xyz
x,y,z
1/2-x,-y,1/2+z
x,-y,-z
1/2-x,y,1/2-z
-x,-y,-z
1/2+x,y,1/2-z
-x,y,z
1/2+x,-y,1/2+z
loop_
_atom_site_type_symbol
_atom_site_label
_atom_site_fract_x
_atom_site_fract_y
_atom_site_fract_z
Si Si1 0.647065 0.054210 0.071395
Si Si2 0.356511 0.632683 0.806274
Si Si3 0.243917 0.747363 0.569478
Si Si4 0.850179 0.100756 0.687517
Si Si5 0.765655 0.573740 0.328473
Si Si6 0.000000 0.562135 0.097559
Si Si7 0.500000 0.648483 0.550561
Si Si8 0.357291 0.736098 0.085178
O O1 0.500000 0.081589 0.065043
O O2 0.729214 0.144650 0.080579
O O3 0.658016 0.986892 0.136924
O O4 0.678582 0.000000 0.000000
O O5 0.250000 0.660583 0.750000
O O6 0.500000 0.637269 0.779599
O O7 0.342389 0.694270 0.875086
O O8 0.323207 0.527679 0.825094
O O9 0.379957 0.702869 0.577168
O O10 0.209302 0.731412 0.488804
O O11 0.750000 0.094069 0.750000
O O12 0.812169 0.186740 0.638926
O O13 0.000000 0.110879 0.707577
O O14 0.750000 0.608526 0.250000
O O15 0.626786 0.573843 0.359882
O O16 0.847119 0.640235 0.375664
O O17 0.000000 0.456106 0.075368
O O18 0.000000 0.632783 0.033064
O O19 0.500000 0.761298 0.069646
#
# Coordination Sequence:
#
# PCOD9418209 Si02
#       8
#     8   8   8   8   8   4   4   8
#     4  10  20  40  69  92 119 163 213 263 317 377
#     4  11  26  42  64  94 129 169 214 271 323 384
#     4  12  23  42  66  95 127 163 221 263 324 383
#     4  10  22  43  67  96 132 167 209 263 326 386
#     4  11  24  38  62  88 130 170 220 261 317 388
#     4  11  22  44  62  88 130 180 217 257 334 389
#     4  11  24  42  63  94 130 175 209 272 326 391
#     4  11  22  39  63  94 125 166 214 269 317 378
#
# _framework density 18.702836000000001
#
# number of rings (size 3 to 8) (size 9 to 14) (size 15 to 20)
#    0.000    1.143    4.286    2.143    6.000    1.143 
#    3.857    1.786    0.000    0.000    0.000    0.000 
#    0.000    0.000    0.000    0.000    0.000    0.000 
#
# Total GULP energy -312681.316145 kJ/mol
# GULP energy per Si atom -5583.594931 kJ/mol
# Density = 1.866027 g / cm^3
# Si number density = 18.702836 Si / 1000 Ang^3
#
#
#
# Elastic Constant Matrix: (Units=GPa)
#
#
# Indices 1 2 3 4 5 6 
#
# 1 95.3162 20.6305 34.7176 0.0000 0.0000 0.0000
# 2 20.6305 80.5338 31.0950 0.0000 0.0000 0.0000
# 3 34.7176 31.0950 96.5887 0.0000 0.0000 0.0000
# 4 0.0000 0.0000 0.0000 26.2206 0.0000 0.0000
# 5 0.0000 0.0000 0.0000 0.0000 34.4217 0.0000
# 6 0.0000 0.0000 0.0000 0.0000 0.0000 37.4754
#
#
#
# Elastic Compliance Matrix: (Units=1/GPa)
#
#
# Indices 1 2 3 4 5 6 
#
# 1 0.012259 -0.001643 -0.003877 0.000000 0.000000 0.000000
# 2 -0.001643 0.014400 -0.004045 0.000000 0.000000 0.000000
# 3 -0.003877 -0.004045 0.013049 0.000000 0.000000 0.000000
# 4 0.000000 0.000000 0.000000 0.038138 0.000000 0.000000
# 5 0.000000 0.000000 0.000000 0.000000 0.029051 0.000000
# 6 0.000000 0.000000 0.000000 0.000000 0.000000 0.026684
#
#
# Mechanical properties :
#
#
# Convention : Reuss Voigt Hill
#
# Bulk Modulus (GPa) = 48.59880 49.48053 49.03967
# Shear Modulus (GPa) = 31.33363 32.02323 31.67843
#
# Velocity S-wave (km/s) = 4.09753 4.14238 4.12002
# Velocity P-wave (km/s) = 6.95899 7.02799 6.99357
#
# Compressibility (1/GPa) = 0.02057664
#
# Stress axis : x y z
#
# Youngs Moduli (GPa) = 81.57010 69.44434 76.63347
#
# Poissons Ratio (x) = 0.11412 0.29714
# Poissons Ratio (y) = 0.13405 0.30999
# Poissons Ratio (z) = 0.31628 0.28091
#
# Static dielectric constant tensor:
#      x y z
#    x 1.635060 0.000000 0.000000 
#    y 0.000000 1.636620 0.000000 
#    z 0.000000 0.000000 1.659940 
# 
# From -- ./inp_files/30893.got.cif
#   From: 2010.05.17/outbox.cif.g08.bks.cpg/sg53_16_cif.got.tgz:30893.got - 2010.06.03 12:45:16.
