data_PCOD9418951
_publ_section_title
;
Structure prediction by ZEFSAII (Michael W. Deem and Ramdas Pophale) SiO2 
 PCOD9418951
Probable space group: P M N A
;
_chemical_formula_sum "Si O2"
_cell_formula_units_Z 64
_cell_length_a 35.698107
_cell_length_b 7.637560
_cell_length_c 11.957297
_cell_angle_alpha 90.000000
_cell_angle_beta 90.000000
_cell_angle_gamma 90.000000
_cell_volume 3260.114389
_symmetry_space_group_name_H-M "P M N A"
_symmetry_group_IT_number 53
_symmetry_cell_setting 'orthorhombic'
loop_
_space_group_symop_operation_xyz
x,y,z
1/2-x,-y,1/2+z
x,-y,-z
1/2-x,y,1/2-z
-x,-y,-z
1/2+x,y,1/2-z
-x,y,z
1/2+x,-y,1/2+z
loop_
_atom_site_type_symbol
_atom_site_label
_atom_site_fract_x
_atom_site_fract_y
_atom_site_fract_z
Si Si1 0.833133 0.068236 0.374283
Si Si2 0.339495 0.295475 0.471618
Si Si3 0.705916 0.634825 0.750293
Si Si4 0.956869 0.348496 0.242755
Si Si5 0.576610 0.799663 0.518854
Si Si6 0.413856 0.310828 0.730595
Si Si7 0.921948 0.967504 0.630249
Si Si8 0.174967 0.745532 0.218378
O O1 0.877954 0.082641 0.355504
O O2 0.817912 0.918435 0.290299
O O3 0.827391 0.000000 0.500000
O O4 0.813657 0.252217 0.347358
O O5 0.347704 0.500000 0.500000
O O6 0.312978 0.296885 0.364776
O O7 0.379296 0.205652 0.447106
O O8 0.321454 0.220736 0.585241
O O9 0.750000 0.664833 0.750000
O O10 0.697751 0.426626 0.754273
O O11 0.946518 0.289320 0.116830
O O12 0.930385 0.509598 0.275016
O O13 0.000000 0.399374 0.249858
O O14 0.947297 0.184899 0.320732
O O15 0.574525 0.706253 0.399162
O O16 0.565322 0.000000 0.500000
O O17 0.427922 0.144082 0.799296
O O18 0.368862 0.304444 0.734754
O O19 0.928594 0.000000 0.500000
#
# Coordination Sequence:
#
# PCOD9418951 Si02
#       8
#     8   8   8   8   8   8   8   8
#     4  10  22  41  63  92 114 154 210 252 296 348
#     4   9  19  37  62  90 115 154 212 248 292 355
#     4  11  23  39  57  89 127 161 190 244 306 364
#     4  12  25  39  59  91 131 164 191 243 314 377
#     4  11  20  36  64  95 118 155 204 258 303 357
#     4  10  21  40  65  93 118 157 207 254 302 357
#     4  10  22  43  68  88 117 156 214 262 289 341
#     4   9  20  40  65  88 116 156 207 254 292 346
#
# _framework density 19.631212999999999
#
# number of rings (size 3 to 8) (size 9 to 14) (size 15 to 20)
#    0.000    1.750    1.250    4.125    3.500    3.500 
#    9.000    4.375    0.000    0.000    0.000    0.000 
#    0.000    0.000    0.000    0.000    0.000    0.000 
#
# Total GULP energy -357757.096971 kJ/mol
# GULP energy per Si atom -5589.954640 kJ/mol
# Density = 1.958653 g / cm^3
# Si number density = 19.631213 Si / 1000 Ang^3
#
#
#
# Elastic Constant Matrix: (Units=GPa)
#
#
# Indices 1 2 3 4 5 6 
#
# 1 26.7270 12.2668 13.2734 0.0000 0.0000 0.0000
# 2 12.2668 52.9358 -2.0642 0.0000 0.0000 0.0000
# 3 13.2734 -2.0642 51.8707 0.0000 0.0000 0.0000
# 4 0.0000 0.0000 0.0000 14.2888 0.0000 0.0000
# 5 0.0000 0.0000 0.0000 0.0000 -16.5906 0.0000
# 6 0.0000 0.0000 0.0000 0.0000 0.0000 9.4864
#
#
#
# Elastic Compliance Matrix: (Units=1/GPa)
#
#
# Indices 1 2 3 4 5 6 
#
# 1 0.049424 -0.011965 -0.013123 0.000000 0.000000 0.000000
# 2 -0.011965 0.021817 0.003930 0.000000 0.000000 0.000000
# 3 -0.013123 0.003930 0.022793 0.000000 0.000000 0.000000
# 4 0.000000 0.000000 0.000000 0.069985 0.000000 0.000000
# 5 0.000000 0.000000 0.000000 0.000000 -0.060275 0.000000
# 6 0.000000 0.000000 0.000000 0.000000 0.000000 0.105414
#
#
# Mechanical properties :
#
#
# Convention : Reuss Voigt Hill
#
# Bulk Modulus (GPa) = 19.33584 19.83173 19.58379
# Shear Modulus (GPa) = 18.60719 8.64077 13.62398
#
# Velocity S-wave (km/s) = 3.08204 2.10026 2.63724
# Velocity P-wave (km/s) = 4.74723 4.00069 4.38986
#
# Compressibility (1/GPa) = 0.05171743
#
# Stress axis : x y z
#
# Youngs Moduli (GPa) = 20.23299 45.83653 43.87255
#
# Poissons Ratio (x) = 0.54842 0.57576
# Poissons Ratio (y) = 0.24208 -0.17241
# Poissons Ratio (z) = 0.26553 -0.18013
#
# Static dielectric constant tensor:
#      x y z
#    x 1.664930 0.000000 0.000000 
#    y 0.000000 1.682030 0.000000 
#    z 0.000000 0.000000 1.631270 
# 
# From -- ./inp_files/19055.got.cif
#   From: 2010.05.17/outbox.cif.g08.bks.cpg/sg53_10_cif.got.tgz:19055.got - 2010.06.03 12:45:16.
