data_PCOD9418115
_publ_section_title
;
Structure prediction by ZEFSAII (Michael W. Deem and Ramdas Pophale) SiO2 
 PCOD9418115
Probable space group: P M N A
;
_chemical_formula_sum "Si O2"
_cell_formula_units_Z 48
_cell_length_a 9.654292
_cell_length_b 27.180554
_cell_length_c 8.798028
_cell_angle_alpha 90.000000
_cell_angle_beta 90.000000
_cell_angle_gamma 90.000000
_cell_volume 2308.681774
_symmetry_space_group_name_H-M "P M N A"
_symmetry_group_IT_number 53
_symmetry_cell_setting 'orthorhombic'
loop_
_space_group_symop_operation_xyz
x,y,z
1/2-x,-y,1/2+z
x,-y,-z
1/2-x,y,1/2-z
-x,-y,-z
1/2+x,y,1/2-z
-x,y,z
1/2+x,-y,1/2+z
loop_
_atom_site_type_symbol
_atom_site_label
_atom_site_fract_x
_atom_site_fract_y
_atom_site_fract_z
Si Si1 0.000000 0.271903 0.501981
Si Si2 0.000000 0.374443 0.648029
Si Si3 0.500000 0.407036 0.499084
Si Si4 0.837780 0.950239 0.598010
Si Si5 0.500000 0.696665 0.651065
Si Si6 0.277053 0.224589 0.426287
Si Si7 0.160097 0.872919 0.097320
Si Si8 0.721581 0.451634 0.927097
O O1 0.000000 0.295303 0.332087
O O2 0.135157 0.238550 0.508971
O O3 0.000000 0.316876 0.617818
O O4 0.869667 0.402374 0.574297
O O5 0.000000 0.386370 0.827239
O O6 0.500000 0.360099 0.390966
O O7 0.636755 0.439608 0.485709
O O8 0.750000 0.959519 0.750000
O O9 0.749784 0.909475 0.507613
O O10 0.000000 0.935844 0.625939
O O11 0.840442 0.000000 0.500000
O O12 0.369176 0.726204 0.583967
O O13 0.250000 0.210262 0.250000
O O14 0.344700 0.179558 0.513078
O O15 0.250000 0.868425 0.250000
O O16 0.000000 0.889432 0.123294
O O17 0.750000 0.462171 0.750000
O O18 0.656565 0.500000 0.000000
#
# Coordination Sequence:
#
# PCOD9418115 Si02
#       8
#     4   4   4   8   4   8   8   8
#     4  10  22  35  61  88 116 151 206 248 303 374
#     4  10  21  37  53  82 110 149 185 242 299 360
#     4  10  21  35  57  76 114 147 189 234 301 366
#     4  11  25  45  72 104 140 183 228 279 337 394
#     4  10  20  39  57  86 116 155 200 250 303 370
#     4  10  22  40  62  88 122 163 206 259 317 379
#     4  12  26  43  66  97 134 175 224 276 331 395
#     4  10  21  36  54  79 108 144 187 236 294 360
#
# _framework density 20.791084999999999
#
# number of rings (size 3 to 8) (size 9 to 14) (size 15 to 20)
#    0.000    1.500    0.833    3.500    2.333    5.333 
#    0.000    0.000    0.000    0.000    0.000    0.000 
#    0.000    0.000    0.000    0.000    0.000    0.000 
#
# Total GULP energy -268288.198091 kJ/mol
# GULP energy per Si atom -5589.337460 kJ/mol
# Density = 2.074376 g / cm^3
# Si number density = 20.791085 Si / 1000 Ang^3
#
#
#
# Elastic Constant Matrix: (Units=GPa)
#
#
# Indices 1 2 3 4 5 6 
#
# 1 150.8397 26.6364 29.8059 0.0000 0.0000 0.0000
# 2 26.6364 75.0682 25.7802 0.0000 0.0000 0.0000
# 3 29.8059 25.7802 53.6783 0.0000 0.0000 0.0000
# 4 0.0000 0.0000 0.0000 34.6350 0.0000 0.0000
# 5 0.0000 0.0000 0.0000 0.0000 13.1703 0.0000
# 6 0.0000 0.0000 0.0000 0.0000 0.0000 39.4868
#
#
#
# Elastic Compliance Matrix: (Units=1/GPa)
#
#
# Indices 1 2 3 4 5 6 
#
# 1 0.007583 -0.001491 -0.003495 0.000000 0.000000 0.000000
# 2 -0.001491 0.016245 -0.006975 0.000000 0.000000 0.000000
# 3 -0.003495 -0.006975 0.023920 0.000000 0.000000 0.000000
# 4 0.000000 0.000000 0.000000 0.028873 0.000000 0.000000
# 5 0.000000 0.000000 0.000000 0.000000 0.075928 0.000000
# 6 0.000000 0.000000 0.000000 0.000000 0.000000 0.025325
#
#
# Mechanical properties :
#
#
# Convention : Reuss Voigt Hill
#
# Bulk Modulus (GPa) = 41.96660 49.33679 45.65169
# Shear Modulus (GPa) = 23.83937 30.61601 27.22769
#
# Velocity S-wave (km/s) = 3.38984 3.84155 3.62274
# Velocity P-wave (km/s) = 5.96239 6.59227 6.28522
#
# Compressibility (1/GPa) = 0.02382848
#
# Stress axis : x y z
#
# Youngs Moduli (GPa) = 131.86755 61.55620 41.80635
#
# Poissons Ratio (x) = 0.09175 0.14611
# Poissons Ratio (y) = 0.19656 0.29158
# Poissons Ratio (z) = 0.46087 0.42932
#
# Static dielectric constant tensor:
#      x y z
#    x 1.549860 0.000000 0.000000 
#    y 0.000000 1.679640 0.000000 
#    z 0.000000 0.000000 1.743690 
# 
# From -- ./inp_files/6871.got.cif
#   From: 2010.05.17/outbox.cif.g08.bks.cpg/sg53_4_cif.got.tgz:6871.got - 2010.06.03 12:45:16.
