data_PCOD9418017
_publ_section_title
;
Structure prediction by ZEFSAII (Michael W. Deem and Ramdas Pophale) SiO2 
 PCOD9418017
Probable space group: P M N A
;
_chemical_formula_sum "Si O2"
_cell_formula_units_Z 48
_cell_length_a 18.507572
_cell_length_b 15.570128
_cell_length_c 8.619877
_cell_angle_alpha 90.000000
_cell_angle_beta 90.000000
_cell_angle_gamma 90.000000
_cell_volume 2483.949140
_symmetry_space_group_name_H-M "P M N A"
_symmetry_group_IT_number 53
_symmetry_cell_setting 'orthorhombic'
loop_
_space_group_symop_operation_xyz
x,y,z
1/2-x,-y,1/2+z
x,-y,-z
1/2-x,y,1/2-z
-x,-y,-z
1/2+x,y,1/2-z
-x,y,z
1/2+x,-y,1/2+z
loop_
_atom_site_type_symbol
_atom_site_label
_atom_site_fract_x
_atom_site_fract_y
_atom_site_fract_z
Si Si1 0.415306 0.814072 0.353342
Si Si2 0.915778 0.673641 0.610350
Si Si3 0.329417 0.983195 0.314558
Si Si4 0.582065 0.506818 0.685380
Si Si5 0.417323 0.852673 0.717953
Si Si6 0.666642 0.345571 0.796706
O O1 0.500000 0.812044 0.315345
O O2 0.377829 0.899236 0.285327
O O3 0.407817 0.823272 0.539305
O O4 0.377453 0.728368 0.293279
O O5 0.906056 0.601327 0.743423
O O6 0.908061 0.768650 0.678899
O O7 0.857156 0.662719 0.475726
O O8 0.000000 0.664594 0.555005
O O9 0.250000 0.968978 0.250000
O O10 0.327361 0.000000 0.500000
O O11 0.364538 0.069194 0.244654
O O12 0.585286 0.500000 0.500000
O O13 0.500000 0.481558 0.731999
O O14 0.638652 0.439289 0.749682
O O15 0.500000 0.883865 0.731777
O O16 0.750000 0.335892 0.750000
#
# Coordination Sequence:
#
# PCOD9418017 Si02
#       6
#     8   8   8   8   8   8
#     4  10  20  38  61  82 110 151 199 243 284 339
#     4  10  21  39  63  88 116 151 194 242 288 340
#     4  10  21  36  56  84 118 152 187 233 290 348
#     4  10  21  40  65  89 114 151 198 242 286 341
#     4   9  19  37  61  86 110 146 196 244 288 337
#     4  12  25  38  55  85 122 156 190 235 293 350
#
# _framework density 19.324068
#
# number of rings (size 3 to 8) (size 9 to 14) (size 15 to 20)
#    0.000    1.833    0.000    4.000    0.000   11.333 
#    0.000    2.500    0.000    4.000    0.000    0.000 
#    0.000    0.000    0.000    0.000    0.000    0.000 
#
# Total GULP energy -268118.346860 kJ/mol
# GULP energy per Si atom -5585.798893 kJ/mol
# Density = 1.928009 g / cm^3
# Si number density = 19.324068 Si / 1000 Ang^3
#
#
#
# Elastic Constant Matrix: (Units=GPa)
#
#
# Indices 1 2 3 4 5 6 
#
# 1 111.5810 29.4882 35.9843 0.0000 0.0000 0.0000
# 2 29.4882 46.8684 1.8172 0.0000 0.0000 0.0000
# 3 35.9843 1.8172 40.9310 0.0000 0.0000 0.0000
# 4 0.0000 0.0000 0.0000 8.7521 0.0000 0.0000
# 5 0.0000 0.0000 0.0000 0.0000 11.0995 0.0000
# 6 0.0000 0.0000 0.0000 0.0000 0.0000 4.6921
#
#
#
# Elastic Compliance Matrix: (Units=1/GPa)
#
#
# Indices 1 2 3 4 5 6 
#
# 1 0.015793 -0.009414 -0.013466 0.000000 0.000000 0.000000
# 2 -0.009414 0.026985 0.007078 0.000000 0.000000 0.000000
# 3 -0.013466 0.007078 0.035956 0.000000 0.000000 0.000000
# 4 0.000000 0.000000 0.000000 0.114258 0.000000 0.000000
# 5 0.000000 0.000000 0.000000 0.000000 0.090094 0.000000
# 6 0.000000 0.000000 0.000000 0.000000 0.000000 0.213125
#
#
# Mechanical properties :
#
#
# Convention : Reuss Voigt Hill
#
# Bulk Modulus (GPa) = 21.21807 37.10663 29.16235
# Shear Modulus (GPa) = 9.19921 13.71479 11.45700
#
# Velocity S-wave (km/s) = 2.18422 2.66696 2.43757
# Velocity P-wave (km/s) = 4.16714 5.35981 4.80066
#
# Compressibility (1/GPa) = 0.04712963
#
# Stress axis : x y z
#
# Youngs Moduli (GPa) = 63.31977 37.05760 27.81188
#
# Poissons Ratio (x) = 0.34887 0.37452
# Poissons Ratio (y) = 0.59611 -0.19686
# Poissons Ratio (z) = 0.85268 -0.26231
#
# Static dielectric constant tensor:
#      x y z
#    x 1.652300 0.000000 0.000000 
#    y 0.000000 1.639850 0.000000 
#    z 0.000000 0.000000 1.692800 
# 
# From -- ./inp_files/9931.got.cif
#   From: 2010.05.17/outbox.cif.g08.bks.cpg/sg53_5_cif.got.tgz:9931.got - 2010.06.03 12:45:16.
