data_PCOD9418051
_publ_section_title
;
Structure prediction by ZEFSAII (Michael W. Deem and Ramdas Pophale) SiO2 
 PCOD9418051
Probable space group: P M N A
;
_chemical_formula_sum "Si O2"
_cell_formula_units_Z 40
_cell_length_a 16.874733
_cell_length_b 11.792562
_cell_length_c 10.227854
_cell_angle_alpha 90.000000
_cell_angle_beta 90.000000
_cell_angle_gamma 90.000000
_cell_volume 2035.305462
_symmetry_space_group_name_H-M "P M N A"
_symmetry_group_IT_number 53
_symmetry_cell_setting 'orthorhombic'
loop_
_space_group_symop_operation_xyz
x,y,z
1/2-x,-y,1/2+z
x,-y,-z
1/2-x,y,1/2-z
-x,-y,-z
1/2+x,y,1/2-z
-x,y,z
1/2+x,-y,1/2+z
loop_
_atom_site_type_symbol
_atom_site_label
_atom_site_fract_x
_atom_site_fract_y
_atom_site_fract_z
Si Si1 0.134355 0.868290 0.011271
Si Si2 0.155279 0.261753 0.730618
Si Si3 0.904710 0.500816 0.652369
Si Si4 0.824743 0.871081 0.524231
Si Si5 0.591549 0.747619 0.748725
O O1 0.097812 0.789456 0.899414
O O2 0.119421 0.813960 0.153188
O O3 0.229513 0.866173 0.987263
O O4 0.109036 0.000000 0.000000
O O5 0.250000 0.259082 0.750000
O O6 0.127441 0.390966 0.726498
O O7 0.138909 0.206961 0.589462
O O8 0.877732 0.500000 0.500000
O O9 0.882767 0.618324 0.723160
O O10 0.000000 0.493594 0.651043
O O11 0.854141 0.827910 0.663090
O O12 0.848878 0.000000 0.500000
O O13 0.500000 0.757045 0.791901
#
# Coordination Sequence:
#
# PCOD9418051 Si02
#       5
#     8   8   8   8   8
#     4  10  22  40  60  87 123 154 185 240 300 345
#     4  10  21  37  60  90 115 149 200 243 288 344
#     4  10  21  40  61  82 116 156 195 242 289 338
#     4  10  20  38  63  86 114 155 199 238 286 346
#     4  11  23  38  59  87 117 155 197 236 289 347
#
# _framework density 19.65307
#
# number of rings (size 3 to 8) (size 9 to 14) (size 15 to 20)
#    0.000    1.800    2.000    1.800    0.000    7.200 
#    0.000    4.000    0.000    0.000    0.000    0.000 
#    0.000    0.000    0.000    0.000    0.000    0.000 
#
# Total GULP energy -223444.699973 kJ/mol
# GULP energy per Si atom -5586.117499 kJ/mol
# Density = 1.960834 g / cm^3
# Si number density = 19.653070 Si / 1000 Ang^3
#
#
#
# Elastic Constant Matrix: (Units=GPa)
#
#
# Indices 1 2 3 4 5 6 
#
# 1 9.4639 12.9435 4.1329 0.0000 0.0000 0.0000
# 2 12.9435 134.3180 21.1912 0.0000 0.0000 0.0000
# 3 4.1329 21.1912 76.2179 0.0000 0.0000 0.0000
# 4 0.0000 0.0000 0.0000 39.6131 0.0000 0.0000
# 5 0.0000 0.0000 0.0000 0.0000 13.3995 0.0000
# 6 0.0000 0.0000 0.0000 0.0000 0.0000 68.7611
#
#
#
# Elastic Compliance Matrix: (Units=1/GPa)
#
#
# Indices 1 2 3 4 5 6 
#
# 1 0.122600 -0.011259 -0.003517 0.000000 0.000000 0.000000
# 2 -0.011259 0.008821 -0.001842 0.000000 0.000000 0.000000
# 3 -0.003517 -0.001842 0.013823 0.000000 0.000000 0.000000
# 4 0.000000 0.000000 0.000000 0.025244 0.000000 0.000000
# 5 0.000000 0.000000 0.000000 0.000000 0.074630 0.000000
# 6 0.000000 0.000000 0.000000 0.000000 0.000000 0.014543
#
#
# Mechanical properties :
#
#
# Convention : Reuss Voigt Hill
#
# Bulk Modulus (GPa) = 8.92807 32.94831 20.93819
# Shear Modulus (GPa) = 15.14080 36.47022 25.80551
#
# Velocity S-wave (km/s) = 2.77863 4.31246 3.62754
# Velocity P-wave (km/s) = 3.85319 6.44963 5.31248
#
# Compressibility (1/GPa) = 0.11200631
#
# Stress axis : x y z
#
# Youngs Moduli (GPa) = 8.15661 113.37083 72.34254
#
# Poissons Ratio (x) = 1.27648 0.25446
# Poissons Ratio (y) = 0.09184 0.13325
# Poissons Ratio (z) = 0.02869 0.20882
#
# Static dielectric constant tensor:
#      x y z
#    x 1.694480 0.000000 0.000000 
#    y 0.000000 1.667460 0.000000 
#    z 0.000000 0.000000 1.666920 
# 
# From -- ./inp_files/9603.got.cif
#   From: 2010.05.17/outbox.cif.g08.bks.cpg/sg53_5_cif.got.tgz:9603.got - 2010.06.03 12:45:16.
