data_PCOD9418054
_publ_section_title
;
Structure prediction by ZEFSAII (Michael W. Deem and Ramdas Pophale) SiO2 
 PCOD9418054
Probable space group: P M N A
;
_chemical_formula_sum "Si O2"
_cell_formula_units_Z 48
_cell_length_a 17.421769
_cell_length_b 9.515810
_cell_length_c 14.821564
_cell_angle_alpha 90.000000
_cell_angle_beta 90.000000
_cell_angle_gamma 90.000000
_cell_volume 2457.152135
_symmetry_space_group_name_H-M "P M N A"
_symmetry_group_IT_number 53
_symmetry_cell_setting 'orthorhombic'
loop_
_space_group_symop_operation_xyz
x,y,z
1/2-x,-y,1/2+z
x,-y,-z
1/2-x,y,1/2-z
-x,-y,-z
1/2+x,y,1/2-z
-x,y,z
1/2+x,-y,1/2+z
loop_
_atom_site_type_symbol
_atom_site_label
_atom_site_fract_x
_atom_site_fract_y
_atom_site_fract_z
Si Si1 0.413065 0.145157 0.550890
Si Si2 0.586185 0.614954 0.577227
Si Si3 0.658081 0.459931 0.748027
Si Si4 0.341587 0.868123 0.253787
Si Si5 0.907665 0.607248 0.578304
Si Si6 0.407490 0.069215 0.096296
O O1 0.500000 0.198177 0.572577
O O2 0.378293 0.254060 0.477882
O O3 0.369761 0.114080 0.643519
O O4 0.419510 0.000000 0.500000
O O5 0.578790 0.500000 0.500000
O O6 0.500000 0.656738 0.609255
O O7 0.630285 0.537897 0.657444
O O8 0.750000 0.467941 0.750000
O O9 0.636845 0.295807 0.761438
O O10 0.618153 0.539815 0.828969
O O11 0.250000 0.880372 0.250000
O O12 0.375354 0.977323 0.180201
O O13 0.879483 0.500000 0.500000
O O14 0.880754 0.769196 0.584426
O O15 0.000000 0.612905 0.569802
O O16 0.500000 0.069810 0.106953
O O17 0.388865 0.000000 0.000000
#
# Coordination Sequence:
#
# PCOD9418054 Si02
#       6
#     8   8   8   8   8   8
#     4  10  22  40  63  90 122 160 207 262 311 366
#     4  10  20  38  63  88 117 161 209 254 308 369
#     4  11  24  40  59  90 127 165 204 254 314 374
#     4  11  24  41  60  90 128 166 206 251 315 377
#     4  10  22  41  65  92 120 158 208 257 305 363
#     4  10  22  41  65  90 119 159 206 256 308 363
#
# _framework density 19.534811000000001
#
# number of rings (size 3 to 8) (size 9 to 14) (size 15 to 20)
#    0.000    1.667    1.667    2.000    2.333    5.333 
#    3.000    0.000    0.000    0.000    0.000    0.000 
#    0.000    0.000    0.000    0.000    0.000    0.000 
#
# Total GULP energy -267559.553161 kJ/mol
# GULP energy per Si atom -5574.157358 kJ/mol
# Density = 1.949035 g / cm^3
# Si number density = 19.534811 Si / 1000 Ang^3
#
#
#
# Elastic Constant Matrix: (Units=GPa)
#
#
# Indices 1 2 3 4 5 6 
#
# 1 32.0837 33.4860 44.6247 0.0000 0.0000 0.0000
# 2 33.4860 175.1981 104.5602 0.0000 0.0000 0.0000
# 3 44.6247 104.5602 164.4494 0.0000 0.0000 0.0000
# 4 0.0000 0.0000 0.0000 54.2704 0.0000 0.0000
# 5 0.0000 0.0000 0.0000 0.0000 -40.0028 0.0000
# 6 0.0000 0.0000 0.0000 0.0000 0.0000 27.0109
#
#
#
# Elastic Compliance Matrix: (Units=1/GPa)
#
#
# Indices 1 2 3 4 5 6 
#
# 1 0.050674 -0.002383 -0.012236 0.000000 0.000000 0.000000
# 2 -0.002383 0.009310 -0.005273 0.000000 0.000000 0.000000
# 3 -0.012236 -0.005273 0.012754 0.000000 0.000000 0.000000
# 4 0.000000 0.000000 0.000000 0.018426 0.000000 0.000000
# 5 0.000000 0.000000 0.000000 0.000000 -0.024998 0.000000
# 6 0.000000 0.000000 0.000000 0.000000 0.000000 0.037022
#
#
# Mechanical properties :
#
#
# Convention : Reuss Voigt Hill
#
# Bulk Modulus (GPa) = 30.34468 81.89701 56.12084
# Shear Modulus (GPa) = 32.47674 20.85973 26.66823
#
# Velocity S-wave (km/s) = 4.08181 3.27130 3.69882
# Velocity P-wave (km/s) = 6.14673 7.50221 6.85804
#
# Compressibility (1/GPa) = 0.03295471
#
# Stress axis : x y z
#
# Youngs Moduli (GPa) = 19.73400 107.40792 78.40807
#
# Poissons Ratio (x) = 0.25597 0.95937
# Poissons Ratio (y) = 0.04703 0.41345
# Poissons Ratio (z) = 0.24146 0.56636
#
# Static dielectric constant tensor:
#      x y z
#    x 1.699180 0.000000 0.000000 
#    y 0.000000 1.751310 0.000000 
#    z 0.000000 0.000000 1.737210 
# 
# From -- ./inp_files/23673.got.cif
#   From: 2010.05.17/outbox.cif.g08.bks.cpg/sg53_12_cif.got.tgz:23673.got - 2010.06.03 12:45:16.
