data_PCOD9418967
_publ_section_title
;
Structure prediction by ZEFSAII (Michael W. Deem and Ramdas Pophale) SiO2 
 PCOD9418967
Probable space group: P M N A
;
_chemical_formula_sum "Si O2"
_cell_formula_units_Z 48
_cell_length_a 15.103164
_cell_length_b 5.543647
_cell_length_c 23.705863
_cell_angle_alpha 90.000000
_cell_angle_beta 90.000000
_cell_angle_gamma 90.000000
_cell_volume 1984.811541
_symmetry_space_group_name_H-M "P M N A"
_symmetry_group_IT_number 53
_symmetry_cell_setting 'orthorhombic'
loop_
_space_group_symop_operation_xyz
x,y,z
1/2-x,-y,1/2+z
x,-y,-z
1/2-x,y,1/2-z
-x,-y,-z
1/2+x,y,1/2-z
-x,y,z
1/2+x,-y,1/2+z
loop_
_atom_site_type_symbol
_atom_site_label
_atom_site_fract_x
_atom_site_fract_y
_atom_site_fract_z
Si Si1 0.672381 0.037797 0.742603
Si Si2 0.406049 0.342576 0.340528
Si Si3 0.500000 0.718563 0.205980
Si Si4 0.500000 0.787767 0.866690
Si Si5 0.666941 0.109903 0.442289
Si Si6 0.752770 0.283728 0.859046
Si Si7 0.652097 0.401425 0.059823
O O1 0.750000 0.814758 0.750000
O O2 0.593564 0.230070 0.762213
O O3 0.758322 0.147110 0.700471
O O4 0.608696 0.877627 0.701792
O O5 0.500000 0.461023 0.328185
O O6 0.403606 0.245593 0.404700
O O7 0.323313 0.517742 0.342507
O O8 0.500000 0.450535 0.175411
O O9 0.500000 0.956358 0.164462
O O10 0.584916 0.771586 0.907675
O O11 0.753506 0.276867 0.453180
O O12 0.633850 0.000000 0.500000
O O13 0.703543 0.899366 0.402437
O O14 0.671545 0.394554 0.893031
O O15 0.617698 0.500000 0.000000
#
# Coordination Sequence:
#
# PCOD9418967 Si02
#       7
#     8   8   4   4   8   8   8
#     4  11  25  43  68  95 135 189 242 303 371 428
#     4  10  23  40  63  96 132 177 234 292 365 433
#     4  12  30  50  73 108 150 194 251 314 367 437
#     4  12  31  46  72 110 152 187 251 305 363 443
#     4  10  21  40  67  98 133 180 232 288 358 435
#     4  10  23  40  69  94 136 181 237 291 358 441
#     4  11  23  45  73 104 142 190 235 301 372 440
#
# _framework density 24.183657
#
# number of rings (size 3 to 8) (size 9 to 14) (size 15 to 20)
#    0.000    1.333    2.500    1.250   12.833    1.667 
#    0.000    2.083    0.000    0.000    0.000    0.000 
#    0.000    0.000    0.000    0.000    0.000    0.000 
#
# Total GULP energy -267241.482403 kJ/mol
# GULP energy per Si atom -5567.530883 kJ/mol
# Density = 2.412861 g / cm^3
# Si number density = 24.183657 Si / 1000 Ang^3
#
#
#
# Elastic Constant Matrix: (Units=GPa)
#
#
# Indices 1 2 3 4 5 6 
#
# 1 100.6493 0.2757 5.5645 0.0000 0.0000 0.0000
# 2 0.2757 73.9926 41.1307 0.0000 0.0000 0.0000
# 3 5.5645 41.1307 135.9403 0.0000 0.0000 0.0000
# 4 0.0000 0.0000 0.0000 77.9687 0.0000 0.0000
# 5 0.0000 0.0000 0.0000 0.0000 15.6710 0.0000
# 6 0.0000 0.0000 0.0000 0.0000 0.0000 19.6368
#
#
#
# Elastic Compliance Matrix: (Units=1/GPa)
#
#
# Indices 1 2 3 4 5 6 
#
# 1 0.009961 0.000228 -0.000477 0.000000 0.000000 0.000000
# 2 0.000228 0.016253 -0.004927 0.000000 0.000000 0.000000
# 3 -0.000477 -0.004927 0.008866 0.000000 0.000000 0.000000
# 4 0.000000 0.000000 0.000000 0.012826 0.000000 0.000000
# 5 0.000000 0.000000 0.000000 0.000000 0.063812 0.000000
# 6 0.000000 0.000000 0.000000 0.000000 0.000000 0.050925
#
#
# Mechanical properties :
#
#
# Convention : Reuss Voigt Hill
#
# Bulk Modulus (GPa) = 40.43837 44.94713 42.69275
# Shear Modulus (GPa) = 27.58818 40.22940 33.90879
#
# Velocity S-wave (km/s) = 3.38120 4.08302 3.74857
# Velocity P-wave (km/s) = 5.65695 6.39173 6.03553
#
# Compressibility (1/GPa) = 0.02472899
#
# Stress axis : x y z
#
# Youngs Moduli (GPa) = 100.38932 61.52819 112.78581
#
# Poissons Ratio (x) = -0.01402 0.05376
# Poissons Ratio (y) = -0.02287 0.55568
# Poissons Ratio (z) = 0.04785 0.30314
#
# Static dielectric constant tensor:
#      x y z
#    x 1.889420 0.000000 0.000000 
#    y 0.000000 1.951170 0.000000 
#    z 0.000000 0.000000 1.888810 
# 
# From -- ./inp_files/37007.got.cif
#   From: 2010.05.17/outbox.cif.g08.bks.cpg/sg53_19_cif.got.tgz:37007.got - 2010.06.03 12:45:16.
