data_PCOD9418970
_publ_section_title
;
Structure prediction by ZEFSAII (Michael W. Deem and Ramdas Pophale) SiO2 
 PCOD9418970
Probable space group: P M N A
;
_chemical_formula_sum "Si O2"
_cell_formula_units_Z 56
_cell_length_a 26.752359
_cell_length_b 15.753419
_cell_length_c 5.981062
_cell_angle_alpha 90.000000
_cell_angle_beta 90.000000
_cell_angle_gamma 90.000000
_cell_volume 2520.665471
_symmetry_space_group_name_H-M "P M N A"
_symmetry_group_IT_number 53
_symmetry_cell_setting 'orthorhombic'
loop_
_space_group_symop_operation_xyz
x,y,z
1/2-x,-y,1/2+z
x,-y,-z
1/2-x,y,1/2-z
-x,-y,-z
1/2+x,y,1/2-z
-x,y,z
1/2+x,-y,1/2+z
loop_
_atom_site_type_symbol
_atom_site_label
_atom_site_fract_x
_atom_site_fract_y
_atom_site_fract_z
Si Si1 0.839695 0.083961 0.618084
Si Si2 0.906116 0.542183 0.244847
Si Si3 0.695906 0.757348 0.860744
Si Si4 0.300049 0.588229 0.124669
Si Si5 0.054655 0.726320 0.294423
Si Si6 0.121917 0.161663 0.009714
Si Si7 0.556497 0.870948 0.891341
O O1 0.809502 0.167205 0.541017
O O2 0.844995 0.092283 0.882523
O O3 0.897956 0.090955 0.535604
O O4 0.819257 0.000000 0.500000
O O5 0.908793 0.500000 0.500000
O O6 0.847747 0.568145 0.222698
O O7 0.938083 0.626939 0.279472
O O8 0.919613 0.500000 0.000000
O O9 0.750000 0.755031 0.750000
O O10 0.655749 0.786189 0.679017
O O11 0.684785 0.665060 0.961832
O O12 0.250000 0.616354 0.250000
O O13 0.287983 0.500000 0.000000
O O14 0.098398 0.771322 0.159562
O O15 0.056379 0.770944 0.537528
O O16 0.000000 0.749318 0.200598
O O17 0.075981 0.119809 0.141145
O O18 0.500000 0.901740 0.927936
#
# Coordination Sequence:
#
# PCOD9418970 Si02
#       7
#     8   8   8   8   8   8   8
#     4  10  23  44  64  95 136 178 224 283 350 420
#     4  11  26  42  64  95 139 184 234 295 358 424
#     4  11  26  42  66 100 128 176 231 286 354 429
#     4  11  24  42  67 101 134 179 228 291 358 427
#     4  10  22  39  64  93 130 182 232 284 345 415
#     4  10  21  40  68  91 133 172 220 287 347 415
#     4   9  19  37  63  97 128 171 228 277 340 413
#
# _framework density 22.216355
#
# number of rings (size 3 to 8) (size 9 to 14) (size 15 to 20)
#    0.000    1.714    0.000    3.857   10.000    3.714 
#    2.571    0.714    0.000    0.000    0.000    0.000 
#    0.000    0.000    0.000    0.000    0.000    0.000 
#
# Total GULP energy -312330.467345 kJ/mol
# GULP energy per Si atom -5577.329774 kJ/mol
# Density = 2.216579 g / cm^3
# Si number density = 22.216355 Si / 1000 Ang^3
#
#
#
# Elastic Constant Matrix: (Units=GPa)
#
#
# Indices 1 2 3 4 5 6 
#
# 1 32.7596 5.5143 -0.1816 0.0000 0.0000 0.0000
# 2 5.5143 124.8834 46.1317 0.0000 0.0000 0.0000
# 3 -0.1816 46.1317 87.5164 0.0000 0.0000 0.0000
# 4 0.0000 0.0000 0.0000 23.0002 0.0000 0.0000
# 5 0.0000 0.0000 0.0000 0.0000 20.5361 0.0000
# 6 0.0000 0.0000 0.0000 0.0000 0.0000 5.2343
#
#
#
# Elastic Compliance Matrix: (Units=1/GPa)
#
#
# Indices 1 2 3 4 5 6 
#
# 1 0.030820 -0.001719 0.000970 0.000000 0.000000 0.000000
# 2 -0.001719 0.010040 -0.005296 0.000000 0.000000 0.000000
# 3 0.000970 -0.005296 0.014220 0.000000 0.000000 0.000000
# 4 0.000000 0.000000 0.000000 0.043478 0.000000 0.000000
# 5 0.000000 0.000000 0.000000 0.000000 0.048695 0.000000
# 6 0.000000 0.000000 0.000000 0.000000 0.000000 0.191049
#
#
# Mechanical properties :
#
#
# Convention : Reuss Voigt Hill
#
# Bulk Modulus (GPa) = 23.26108 38.67649 30.96878
# Shear Modulus (GPa) = 13.70913 22.66711 18.18812
#
# Velocity S-wave (km/s) = 2.48679 3.19766 2.86437
# Velocity P-wave (km/s) = 4.32880 5.57496 4.99093
#
# Compressibility (1/GPa) = 0.04299026
#
# Stress axis : x y z
#
# Youngs Moduli (GPa) = 32.44623 99.60570 70.32404
#
# Poissons Ratio (x) = 0.17125 -0.06823
# Poissons Ratio (y) = 0.05578 0.37241
# Poissons Ratio (z) = -0.03148 0.52748
#
# Static dielectric constant tensor:
#      x y z
#    x 1.817470 0.000000 0.000000 
#    y 0.000000 1.836150 0.000000 
#    z 0.000000 0.000000 1.940610 
# 
# From -- ./inp_files/5363.got.cif
#   From: 2010.05.17/outbox.cif.g08.bks.cpg/sg53_3_cif.got.tgz:5363.got - 2010.06.03 12:45:16.
