data_PCOD9418111
_publ_section_title
;
Structure prediction by ZEFSAII (Michael W. Deem and Ramdas Pophale) SiO2 
 PCOD9418111
Probable space group: P M N A
;
_chemical_formula_sum "Si O2"
_cell_formula_units_Z 32
_cell_length_a 8.288696
_cell_length_b 5.126120
_cell_length_c 28.841500
_cell_angle_alpha 90.000000
_cell_angle_beta 90.000000
_cell_angle_gamma 90.000000
_cell_volume 1225.442177
_symmetry_space_group_name_H-M "P M N A"
_symmetry_group_IT_number 53
_symmetry_cell_setting 'orthorhombic'
loop_
_space_group_symop_operation_xyz
x,y,z
1/2-x,-y,1/2+z
x,-y,-z
1/2-x,y,1/2-z
-x,-y,-z
1/2+x,y,1/2-z
-x,y,z
1/2+x,-y,1/2+z
loop_
_atom_site_type_symbol
_atom_site_label
_atom_site_fract_x
_atom_site_fract_y
_atom_site_fract_z
Si Si1 0.000000 0.765093 0.177080
Si Si2 0.500000 0.748093 0.614577
Si Si3 0.175889 0.385372 0.401910
Si Si4 0.194349 0.759803 0.031074
Si Si5 0.684624 0.506176 0.205507
O O1 0.000000 0.539106 0.137385
O O2 0.828749 0.717427 0.201922
O O3 0.000000 0.045394 0.154916
O O4 0.336962 0.773514 0.585697
O O5 0.209963 0.674905 0.422304
O O6 0.178831 0.380019 0.345647
O O7 0.000000 0.297304 0.417291
O O8 0.000000 0.778956 0.039078
O O9 0.219799 0.500000 0.000000
O O10 0.252357 0.000000 0.000000
O O11 0.750000 0.343602 0.250000
O O12 0.500000 0.591984 0.213239
#
# Coordination Sequence:
#
# PCOD9418111 Si02
#       5
#     4   4   8   8   8
#     4  10  22  40  64  91 130 174 210 271 322 386
#     4  10  22  42  64  93 130 170 214 265 334 382
#     4  10  22  41  68 102 135 179 226 280 334 404
#     4  10  22  41  66  97 133 175 223 275 336 402
#     4  10  20  38  68  99 135 174 225 271 333 398
#
# _framework density 26.113021
#
# number of rings (size 3 to 8) (size 9 to 14) (size 15 to 20)
#    0.000    2.000    2.500    0.000    0.000    6.000 
#    0.000   10.000    0.000    0.000    0.000    0.000 
#    0.000    0.000    0.000    0.000    0.000    0.000 
#
# Total GULP energy -178733.518551 kJ/mol
# GULP energy per Si atom -5585.422455 kJ/mol
# Density = 2.605359 g / cm^3
# Si number density = 26.113021 Si / 1000 Ang^3
#
#
#
# Elastic Constant Matrix: (Units=GPa)
#
#
# Indices 1 2 3 4 5 6 
#
# 1 255.5997 22.9562 19.9399 0.0000 0.0000 0.0000
# 2 22.9562 72.6091 19.7098 0.0000 0.0000 0.0000
# 3 19.9399 19.7098 129.7278 0.0000 0.0000 0.0000
# 4 0.0000 0.0000 0.0000 28.1894 0.0000 0.0000
# 5 0.0000 0.0000 0.0000 0.0000 23.9682 0.0000
# 6 0.0000 0.0000 0.0000 0.0000 0.0000 15.0653
#
#
#
# Elastic Compliance Matrix: (Units=1/GPa)
#
#
# Indices 1 2 3 4 5 6 
#
# 1 0.004051 -0.001160 -0.000447 0.000000 0.000000 0.000000
# 2 -0.001160 0.014697 -0.002055 0.000000 0.000000 0.000000
# 3 -0.000447 -0.002055 0.008089 0.000000 0.000000 0.000000
# 4 0.000000 0.000000 0.000000 0.035474 0.000000 0.000000
# 5 0.000000 0.000000 0.000000 0.000000 0.041722 0.000000
# 6 0.000000 0.000000 0.000000 0.000000 0.000000 0.066378
#
#
# Mechanical properties :
#
#
# Convention : Reuss Voigt Hill
#
# Bulk Modulus (GPa) = 51.24090 64.79425 58.01757
# Shear Modulus (GPa) = 27.13875 39.79995 33.46935
#
# Velocity S-wave (km/s) = 3.22728 3.90826 3.58398
# Velocity P-wave (km/s) = 5.79245 6.72554 6.27636
#
# Compressibility (1/GPa) = 0.01951566
#
# Stress axis : x y z
#
# Youngs Moduli (GPa) = 246.83092 68.04219 123.62085
#
# Poissons Ratio (x) = 0.07891 0.05520
# Poissons Ratio (y) = 0.28624 0.25400
# Poissons Ratio (z) = 0.11022 0.13980
#
# Static dielectric constant tensor:
#      x y z
#    x 2.088540 0.000000 0.000000 
#    y 0.000000 2.087540 0.000000 
#    z 0.000000 0.000000 2.209140 
# 
# From -- ./inp_files/37416.got.cif
#   From: 2010.05.17/outbox.cif.g08.bks.cpg/sg53_19_cif.got.tgz:37416.got - 2010.06.03 12:45:16.
