data_PCOD9418203
_publ_section_title
;
Structure prediction by ZEFSAII (Michael W. Deem and Ramdas Pophale) SiO2 
 PCOD9418203
Probable space group: P M N A
;
_chemical_formula_sum "Si O2"
_cell_formula_units_Z 56
_cell_length_a 15.785995
_cell_length_b 11.280743
_cell_length_c 14.423669
_cell_angle_alpha 90.000000
_cell_angle_beta 90.000000
_cell_angle_gamma 90.000000
_cell_volume 2568.534560
_symmetry_space_group_name_H-M "P M N A"
_symmetry_group_IT_number 53
_symmetry_cell_setting 'orthorhombic'
loop_
_space_group_symop_operation_xyz
x,y,z
1/2-x,-y,1/2+z
x,-y,-z
1/2-x,y,1/2-z
-x,-y,-z
1/2+x,y,1/2-z
-x,y,z
1/2+x,-y,1/2+z
loop_
_atom_site_type_symbol
_atom_site_label
_atom_site_fract_x
_atom_site_fract_y
_atom_site_fract_z
Si Si1 0.398909 0.625572 0.954426
Si Si2 0.768908 0.043573 0.849090
Si Si3 0.598833 0.501277 0.394360
Si Si4 0.404131 0.122781 0.941436
Si Si5 0.345590 0.311348 0.254369
Si Si6 0.594097 0.772423 0.388945
Si Si7 0.094547 0.861643 0.904730
O O1 0.500000 0.613584 0.954179
O O2 0.372670 0.648382 0.847840
O O3 0.365992 0.500000 0.000000
O O4 0.382931 0.751787 0.007075
O O5 0.750000 0.989616 0.750000
O O6 0.679323 0.091378 0.883765
O O7 0.833119 0.152953 0.842181
O O8 0.825255 0.949187 0.905773
O O9 0.629999 0.500000 0.500000
O O10 0.500000 0.460196 0.395581
O O11 0.649977 0.421829 0.324232
O O12 0.599951 0.636234 0.362804
O O13 0.500000 0.138682 0.900388
O O14 0.411177 0.000000 0.000000
O O15 0.250000 0.269284 0.250000
O O16 0.399448 0.212990 0.309800
O O17 0.500000 0.815244 0.364221
O O18 0.601638 0.784345 0.501310
O O19 0.000000 0.916645 0.908385
#
# Coordination Sequence:
#
# PCOD9418203 Si02
#       7
#     8   8   8   8   8   8   8
#     4  10  24  47  72  99 137 189 241 290 341 412
#     4  12  27  42  64  97 139 175 227 292 353 417
#     4  10  20  40  67  97 133 174 223 282 347 417
#     4  10  24  45  71  98 137 191 238 286 350 421
#     4  12  26  39  67 106 138 179 231 286 353 422
#     4  10  22  41  69  98 132 178 220 280 356 414
#     4  11  23  44  71  98 131 177 234 293 351 418
#
# _framework density 21.802315
#
# number of rings (size 3 to 8) (size 9 to 14) (size 15 to 20)
#    0.000    1.286    1.429    3.429    6.000    5.714 
#    0.000    2.857    0.000    0.000    0.000    0.000 
#    0.000    0.000    0.000    0.000    0.000    0.000 
#
# Total GULP energy -312442.734555 kJ/mol
# GULP energy per Si atom -5579.334546 kJ/mol
# Density = 2.175269 g / cm^3
# Si number density = 21.802315 Si / 1000 Ang^3
#
#
#
# Elastic Constant Matrix: (Units=GPa)
#
#
# Indices 1 2 3 4 5 6 
#
# 1 128.4558 52.9241 50.2984 0.0000 0.0000 0.0000
# 2 52.9241 133.1720 51.5414 0.0000 0.0000 0.0000
# 3 50.2984 51.5414 97.1983 0.0000 0.0000 0.0000
# 4 0.0000 0.0000 0.0000 49.1307 0.0000 0.0000
# 5 0.0000 0.0000 0.0000 0.0000 28.6004 0.0000
# 6 0.0000 0.0000 0.0000 0.0000 0.0000 62.9854
#
#
#
# Elastic Compliance Matrix: (Units=1/GPa)
#
#
# Indices 1 2 3 4 5 6 
#
# 1 0.010426 -0.002586 -0.004024 0.000000 0.000000 0.000000
# 2 -0.002586 0.010090 -0.004012 0.000000 0.000000 0.000000
# 3 -0.004024 -0.004012 0.014498 0.000000 0.000000 0.000000
# 4 0.000000 0.000000 0.000000 0.020354 0.000000 0.000000
# 5 0.000000 0.000000 0.000000 0.000000 0.034965 0.000000
# 6 0.000000 0.000000 0.000000 0.000000 0.000000 0.015877
#
#
# Mechanical properties :
#
#
# Convention : Reuss Voigt Hill
#
# Bulk Modulus (GPa) = 72.62374 74.26152 73.44263
# Shear Modulus (GPa) = 37.86672 41.74744 39.80708
#
# Velocity S-wave (km/s) = 4.17204 4.38061 4.27760
# Velocity P-wave (km/s) = 7.52265 7.72797 7.62600
#
# Compressibility (1/GPa) = 0.01376960
#
# Stress axis : x y z
#
# Youngs Moduli (GPa) = 95.91577 99.11265 68.97509
#
# Poissons Ratio (x) = 0.25630 0.27755
# Poissons Ratio (y) = 0.24804 0.27673
# Poissons Ratio (z) = 0.38596 0.39764
#
# Static dielectric constant tensor:
#      x y z
#    x 1.874770 0.000000 0.000000 
#    y 0.000000 1.829670 0.000000 
#    z 0.000000 0.000000 1.796230 
# 
# From -- ./inp_files/22842.got.cif
#   From: 2010.05.17/outbox.cif.g08.bks.cpg/sg53_12_cif.got.tgz:22842.got - 2010.06.03 12:45:16.
