data_PCOD9418058
_publ_section_title
;
Structure prediction by ZEFSAII (Michael W. Deem and Ramdas Pophale) SiO2 
 PCOD9418058
Probable space group: P M N A
;
_chemical_formula_sum "Si O2"
_cell_formula_units_Z 40
_cell_length_a 24.177180
_cell_length_b 11.916852
_cell_length_c 6.089930
_cell_angle_alpha 90.000000
_cell_angle_beta 90.000000
_cell_angle_gamma 90.000000
_cell_volume 1754.605516
_symmetry_space_group_name_H-M "P M N A"
_symmetry_group_IT_number 53
_symmetry_cell_setting 'orthorhombic'
loop_
_space_group_symop_operation_xyz
x,y,z
1/2-x,-y,1/2+z
x,-y,-z
1/2-x,y,1/2-z
-x,-y,-z
1/2+x,y,1/2-z
-x,y,z
1/2+x,-y,1/2+z
loop_
_atom_site_type_symbol
_atom_site_label
_atom_site_fract_x
_atom_site_fract_y
_atom_site_fract_z
Si Si1 0.938609 0.899088 0.824389
Si Si2 0.309853 0.653404 0.748200
Si Si3 0.665758 0.881758 0.994157
Si Si4 0.624313 0.251468 0.624580
Si Si5 0.913115 0.483509 0.738744
O O1 0.888680 0.904620 0.653726
O O2 0.000000 0.894397 0.724297
O O3 0.924039 0.787329 0.961162
O O4 0.938062 0.000000 0.000000
O O5 0.250000 0.598094 0.750000
O O6 0.309157 0.764979 0.902340
O O7 0.323997 0.703648 0.511155
O O8 0.359415 0.564996 0.780251
O O9 0.644623 0.852091 0.234715
O O10 0.698360 0.000000 0.000000
O O11 0.602611 0.353044 0.767356
O O12 0.942298 0.500000 0.500000
O O13 0.932724 0.500000 0.000000
#
# Coordination Sequence:
#
# PCOD9418058 Si02
#       5
#     8   8   8   8   8
#     4  10  21  37  62  93 124 162 213 263 317 391
#     4  10  23  40  59  89 120 165 218 264 313 378
#     4  11  21  38  59  87 126 166 203 254 328 384
#     4  10  21  39  61  88 126 161 203 265 324 376
#     4  10  20  38  63  90 119 166 212 265 318 372
#
# _framework density 22.797145
#
# number of rings (size 3 to 8) (size 9 to 14) (size 15 to 20)
#    0.000    1.800    4.000    0.000    0.000    4.400 
#    3.600    0.000    0.000   15.600    0.000    0.000 
#    0.000    0.000    0.000    0.000    0.000    0.000 
#
# Total GULP energy -222835.565718 kJ/mol
# GULP energy per Si atom -5570.889143 kJ/mol
# Density = 2.274526 g / cm^3
# Si number density = 22.797145 Si / 1000 Ang^3
#
#
#
# Elastic Constant Matrix: (Units=GPa)
#
#
# Indices 1 2 3 4 5 6 
#
# 1 88.7521 4.2843 11.8410 0.0000 0.0000 0.0000
# 2 4.2843 111.2906 3.7739 0.0000 0.0000 0.0000
# 3 11.8410 3.7739 99.9101 0.0000 0.0000 0.0000
# 4 0.0000 0.0000 0.0000 53.2215 0.0000 0.0000
# 5 0.0000 0.0000 0.0000 0.0000 -11.9984 0.0000
# 6 0.0000 0.0000 0.0000 0.0000 0.0000 30.4125
#
#
#
# Elastic Compliance Matrix: (Units=1/GPa)
#
#
# Indices 1 2 3 4 5 6 
#
# 1 0.011466 -0.000396 -0.001344 0.000000 0.000000 0.000000
# 2 -0.000396 0.009011 -0.000293 0.000000 0.000000 0.000000
# 3 -0.001344 -0.000293 0.010179 0.000000 0.000000 0.000000
# 4 0.000000 0.000000 0.000000 0.018789 0.000000 0.000000
# 5 0.000000 0.000000 0.000000 0.000000 -0.083345 0.000000
# 6 0.000000 0.000000 0.000000 0.000000 0.000000 0.032881
#
#
# Mechanical properties :
#
#
# Convention : Reuss Voigt Hill
#
# Bulk Modulus (GPa) = 37.60900 37.75015 37.67957
# Shear Modulus (GPa) = 419.77361 32.99737 226.38549
#
# Velocity S-wave (km/s) = 13.58433 3.80864 9.97597
# Velocity P-wave (km/s) = 16.20427 5.99467 12.21709
#
# Compressibility (1/GPa) = 0.02658938
#
# Stress axis : x y z
#
# Youngs Moduli (GPa) = 87.21629 110.97949 98.23802
#
# Poissons Ratio (x) = 0.04393 0.13203
# Poissons Ratio (y) = 0.03452 0.02883
# Poissons Ratio (z) = 0.11721 0.03257
#
# Static dielectric constant tensor:
#      x y z
#    x 1.841220 0.000000 0.000000 
#    y 0.000000 1.882640 0.000000 
#    z 0.000000 0.000000 0.871820 
# 
# From -- ./inp_files/4275.got.cif
#   From: 2010.05.17/outbox.cif.g08.bks.cpg/sg53_3_cif.got.tgz:4275.got - 2010.06.03 12:45:16.
