data_PCOD9418723
_publ_section_title
;
Structure prediction by ZEFSAII (Michael W. Deem and Ramdas Pophale) SiO2 
 PCOD9418723
Probable space group: P M N A
;
_chemical_formula_sum "Si O2"
_cell_formula_units_Z 64
_cell_length_a 24.776631
_cell_length_b 14.882310
_cell_length_c 9.401599
_cell_angle_alpha 90.000000
_cell_angle_beta 90.000000
_cell_angle_gamma 90.000000
_cell_volume 3466.684536
_symmetry_space_group_name_H-M "P M N A"
_symmetry_group_IT_number 53
_symmetry_cell_setting 'orthorhombic'
loop_
_space_group_symop_operation_xyz
x,y,z
1/2-x,-y,1/2+z
x,-y,-z
1/2-x,y,1/2-z
-x,-y,-z
1/2+x,y,1/2-z
-x,y,z
1/2+x,-y,1/2+z
loop_
_atom_site_type_symbol
_atom_site_label
_atom_site_fract_x
_atom_site_fract_y
_atom_site_fract_z
Si Si1 0.441373 0.291089 0.208244
Si Si2 0.644186 0.731707 0.557929
Si Si3 0.096792 0.509774 0.668958
Si Si4 0.560176 0.814064 0.085934
Si Si5 0.200680 0.557212 0.856445
Si Si6 0.940348 0.666002 0.171456
Si Si7 0.675270 0.911978 0.098519
Si Si8 0.795912 0.098151 0.929630
O O1 0.500000 0.267931 0.269377
O O2 0.393614 0.253921 0.305412
O O3 0.435750 0.398295 0.193635
O O4 0.438342 0.249122 0.052235
O O5 0.690052 0.660530 0.600459
O O6 0.606090 0.680257 0.444128
O O7 0.667118 0.824332 0.496912
O O8 0.107498 0.500000 0.500000
O O9 0.149721 0.522806 0.765456
O O10 0.068393 0.421713 0.731587
O O11 0.500000 0.859770 0.084436
O O12 0.561445 0.751583 0.224840
O O13 0.616249 0.868125 0.082119
O O14 0.250000 0.549077 0.750000
O O15 0.207292 0.500000 0.000000
O O16 0.000000 0.659886 0.105246
O O17 0.685746 0.920109 0.267446
O O18 0.733402 0.868086 0.055995
O O19 0.673561 0.000000 0.000000
O O20 0.799425 0.000000 0.000000
#
# Coordination Sequence:
#
# PCOD9418723 Si02
#       8
#     8   8   8   8   8   8   8   8
#     4  10  22  36  58  90 125 162 206 257 304 362
#     4  11  23  42  63  89 124 163 209 252 317 373
#     4  11  21  37  59  87 122 163 210 259 304 359
#     4  10  21  38  61  92 125 162 202 247 310 371
#     4  11  24  43  58  88 125 167 208 254 308 375
#     4  11  21  37  63  88 121 165 209 256 305 367
#     4  10  22  42  67  92 120 153 200 255 309 369
#     4  10  23  43  65  93 121 157 206 258 312 370
#
# _framework density 18.461444
#
# number of rings (size 3 to 8) (size 9 to 14) (size 15 to 20)
#    0.000    1.500    3.750    1.125    1.750    2.750 
#    6.750    1.875    0.000    1.875    0.000    0.000 
#    0.000    0.000    0.000    0.000    0.000    0.000 
#
# Total GULP energy -356790.967450 kJ/mol
# GULP energy per Si atom -5574.858866 kJ/mol
# Density = 1.841942 g / cm^3
# Si number density = 18.461444 Si / 1000 Ang^3
#
#
#
# Elastic Constant Matrix: (Units=GPa)
#
#
# Indices 1 2 3 4 5 6 
#
# 1 125.0464 44.6898 29.7065 0.0000 0.0000 0.0000
# 2 44.6898 47.1553 -4.3151 0.0000 0.0000 0.0000
# 3 29.7065 -4.3151 50.8060 0.0000 0.0000 0.0000
# 4 0.0000 0.0000 0.0000 29.2905 0.0000 0.0000
# 5 0.0000 0.0000 0.0000 0.0000 16.5325 0.0000
# 6 0.0000 0.0000 0.0000 0.0000 0.0000 20.1962
#
#
#
# Elastic Compliance Matrix: (Units=1/GPa)
#
#
# Indices 1 2 3 4 5 6 
#
# 1 0.016657 -0.016808 -0.011167 0.000000 0.000000 0.000000
# 2 -0.016808 0.038333 0.013083 0.000000 0.000000 0.000000
# 3 -0.011167 0.013083 0.027323 0.000000 0.000000 0.000000
# 4 0.000000 0.000000 0.000000 0.034141 0.000000 0.000000
# 5 0.000000 0.000000 0.000000 0.000000 0.060487 0.000000
# 6 0.000000 0.000000 0.000000 0.000000 0.000000 0.049514
#
#
# Mechanical properties :
#
#
# Convention : Reuss Voigt Hill
#
# Bulk Modulus (GPa) = 19.03672 40.35225 29.69449
# Shear Modulus (GPa) = 18.26505 23.39893 20.83199
#
# Velocity S-wave (km/s) = 3.14882 3.56399 3.36282
# Velocity P-wave (km/s) = 4.85326 6.23226 5.58548
#
# Compressibility (1/GPa) = 0.05253005
#
# Stress axis : x y z
#
# Youngs Moduli (GPa) = 60.03604 26.08747 36.59899
#
# Poissons Ratio (x) = 0.43847 0.40869
# Poissons Ratio (y) = 1.00906 -0.47883
# Poissons Ratio (z) = 0.67041 -0.34131
#
# Static dielectric constant tensor:
#      x y z
#    x 1.676850 0.000000 0.000000 
#    y 0.000000 1.606850 0.000000 
#    z 0.000000 0.000000 1.621720 
# 
# From -- ./inp_files/11931.got.cif
#   From: 2010.05.17/outbox.cif.g08.bks.cpg/sg53_6_cif.got.tgz:11931.got - 2010.06.03 12:45:16.
