data_PCOD9418431
_publ_section_title
;
Structure prediction by ZEFSAII (Michael W. Deem and Ramdas Pophale) SiO2 
 PCOD9418431
Probable space group: P M N A
;
_chemical_formula_sum "Si O2"
_cell_formula_units_Z 56
_cell_length_a 9.725734
_cell_length_b 15.276108
_cell_length_c 18.182407
_cell_angle_alpha 90.000000
_cell_angle_beta 90.000000
_cell_angle_gamma 90.000000
_cell_volume 2701.384990
_symmetry_space_group_name_H-M "P M N A"
_symmetry_group_IT_number 53
_symmetry_cell_setting 'orthorhombic'
loop_
_space_group_symop_operation_xyz
x,y,z
1/2-x,-y,1/2+z
x,-y,-z
1/2-x,y,1/2-z
-x,-y,-z
1/2+x,y,1/2-z
-x,y,z
1/2+x,-y,1/2+z
loop_
_atom_site_type_symbol
_atom_site_label
_atom_site_fract_x
_atom_site_fract_y
_atom_site_fract_z
Si Si1 0.140527 0.551441 0.187975
Si Si2 0.840657 0.713205 0.078312
Si Si3 0.662904 0.994903 0.587539
Si Si4 0.348809 0.398295 0.020166
Si Si5 0.654025 0.174234 0.320677
Si Si6 0.725476 0.368338 0.337389
Si Si7 0.670980 0.856447 0.170595
O O1 0.250000 0.557676 0.250000
O O2 0.150339 0.630871 0.132995
O O3 0.144686 0.458040 0.148026
O O4 0.000000 0.557440 0.231106
O O5 0.739465 0.782832 0.117274
O O6 0.000000 0.744135 0.065664
O O7 0.765131 0.668917 0.009244
O O8 0.500000 0.018708 0.601292
O O9 0.769072 0.054985 0.633098
O O10 0.685165 0.000000 0.500000
O O11 0.683155 0.896297 0.616506
O O12 0.500000 0.379263 0.988270
O O13 0.351064 0.382517 0.107626
O O14 0.318848 0.500000 0.000000
O O15 0.750000 0.164084 0.250000
O O16 0.500000 0.158056 0.294169
O O17 0.663412 0.273109 0.349959
O O18 0.750000 0.369755 0.250000
O O19 0.750000 0.847787 0.250000
O O20 0.500000 0.853368 0.175750
#
# Coordination Sequence:
#
# PCOD9418431 Si02
#       7
#     8   8   8   8   8   8   8
#     4  10  21  36  58  89 127 170 218 266 319 383
#     4  11  24  42  65  97 135 179 224 278 336 399
#     4  10  23  44  69 101 138 178 221 275 341 406
#     4  11  24  43  66  96 135 181 229 283 339 398
#     4  10  22  40  66  97 130 171 217 271 332 394
#     4  10  22  40  62  94 129 174 220 271 327 394
#     4  12  26  46  72 103 136 180 230 284 346 411
#
# _framework density 20.730108000000001
#
# number of rings (size 3 to 8) (size 9 to 14) (size 15 to 20)
#    0.000    1.429    1.429    3.000    2.000   10.286 
#    0.000    0.000    0.000    0.000    0.000    0.000 
#    0.000    0.000    0.000    0.000    0.000    0.000 
#
# Total GULP energy -311938.495794 kJ/mol
# GULP energy per Si atom -5570.330282 kJ/mol
# Density = 2.068293 g / cm^3
# Si number density = 20.730108 Si / 1000 Ang^3
#
#
#
# Elastic Constant Matrix: (Units=GPa)
#
#
# Indices 1 2 3 4 5 6 
#
# 1 140.7847 21.5197 48.0916 0.0000 0.0000 0.0000
# 2 21.5197 83.1013 9.9922 0.0000 0.0000 0.0000
# 3 48.0916 9.9922 84.4221 0.0000 0.0000 0.0000
# 4 0.0000 0.0000 0.0000 23.2404 0.0000 0.0000
# 5 0.0000 0.0000 0.0000 0.0000 28.1897 0.0000
# 6 0.0000 0.0000 0.0000 0.0000 0.0000 58.8074
#
#
#
# Elastic Compliance Matrix: (Units=1/GPa)
#
#
# Indices 1 2 3 4 5 6 
#
# 1 0.009064 -0.001751 -0.004956 0.000000 0.000000 0.000000
# 2 -0.001751 0.012546 -0.000487 0.000000 0.000000 0.000000
# 3 -0.004956 -0.000487 0.014726 0.000000 0.000000 0.000000
# 4 0.000000 0.000000 0.000000 0.043028 0.000000 0.000000
# 5 0.000000 0.000000 0.000000 0.000000 0.035474 0.000000
# 6 0.000000 0.000000 0.000000 0.000000 0.000000 0.017005
#
#
# Mechanical properties :
#
#
# Convention : Reuss Voigt Hill
#
# Bulk Modulus (GPa) = 45.56537 51.94613 48.75575
# Shear Modulus (GPa) = 32.56339 37.29447 34.92893
#
# Velocity S-wave (km/s) = 3.96766 4.24612 4.10925
# Velocity P-wave (km/s) = 6.55880 7.01086 6.78859
#
# Compressibility (1/GPa) = 0.02194649
#
# Stress axis : x y z
#
# Youngs Moduli (GPa) = 110.33098 79.70928 67.90680
#
# Poissons Ratio (x) = 0.13959 0.33654
# Poissons Ratio (y) = 0.19321 0.03309
# Poissons Ratio (z) = 0.54679 0.03884
#
# Static dielectric constant tensor:
#      x y z
#    x 1.758470 0.000000 0.000000 
#    y 0.000000 1.765930 0.000000 
#    z 0.000000 0.000000 1.709850 
# 
# From -- ./inp_files/30755.got.cif
#   From: 2010.05.17/outbox.cif.g08.bks.cpg/sg53_16_cif.got.tgz:30755.got - 2010.06.03 12:45:16.
