data_PCOD9418317
_publ_section_title
;
Structure prediction by ZEFSAII (Michael W. Deem and Ramdas Pophale) SiO2 
 PCOD9418317
Probable space group: P M N A
;
_chemical_formula_sum "Si O2"
_cell_formula_units_Z 52
_cell_length_a 8.753299
_cell_length_b 18.510124
_cell_length_c 16.827828
_cell_angle_alpha 90.000000
_cell_angle_beta 90.000000
_cell_angle_gamma 90.000000
_cell_volume 2726.522940
_symmetry_space_group_name_H-M "P M N A"
_symmetry_group_IT_number 53
_symmetry_cell_setting 'orthorhombic'
loop_
_space_group_symop_operation_xyz
x,y,z
1/2-x,-y,1/2+z
x,-y,-z
1/2-x,y,1/2-z
-x,-y,-z
1/2+x,y,1/2-z
-x,y,z
1/2+x,-y,1/2+z
loop_
_atom_site_type_symbol
_atom_site_label
_atom_site_fract_x
_atom_site_fract_y
_atom_site_fract_z
Si Si1 0.500000 0.049563 0.632771
Si Si2 0.250000 0.886224 0.250000
Si Si3 0.176656 0.185597 0.446597
Si Si4 0.825084 0.626982 0.096179
Si Si5 0.000000 0.894466 0.953067
Si Si6 0.180375 0.513331 0.664439
Si Si7 0.165123 0.763792 0.370050
Si Si8 0.179991 0.345544 0.429243
O O1 0.357877 0.067616 0.691226
O O2 0.500000 0.096366 0.550302
O O3 0.500000 0.969609 0.595678
O O4 0.169518 0.830090 0.309913
O O5 0.335004 0.142270 0.432354
O O6 0.180383 0.204470 0.540966
O O7 0.188891 0.262613 0.401561
O O8 0.000000 0.156882 0.431832
O O9 0.729060 0.555858 0.114086
O O10 0.784890 0.699896 0.144639
O O11 0.000000 0.608718 0.107765
O O12 0.784782 0.648051 0.006375
O O13 0.250000 0.502845 0.750000
O O14 0.228525 0.590523 0.628781
O O15 0.000000 0.515090 0.669961
O O16 0.000000 0.727026 0.366190
O O17 0.000000 0.357083 0.450445
#
# Coordination Sequence:
#
# PCOD9418317 Si02
#       8
#     4   4   8   8   4   8   8   8
#     4  11  26  42  66  97 135 164 212 249 327 384
#     4  12  22  40  62  90 128 164 196 256 306 382
#     4   9  19  38  65  96 125 158 211 263 313 372
#     4  11  23  35  56  88 120 160 205 253 303 370
#     4  11  22  44  68 100 126 173 210 263 308 393
#     4  11  23  40  56  77 119 162 206 259 313 363
#     4  10  21  35  57  87 122 161 203 248 310 369
#     4   9  20  38  62  86 115 156 204 259 311 361
#
# _framework density 19.071909999999999
#
# number of rings (size 3 to 8) (size 9 to 14) (size 15 to 20)
#    0.000    1.692    2.308    3.231    6.462    3.077 
#    1.385    0.769    1.692    0.000    0.000    0.000 
#    0.000    0.000    0.000    0.000    0.000    0.000 
#
# Total GULP energy -289617.568830 kJ/mol
# GULP energy per Si atom -5569.568631 kJ/mol
# Density = 1.902850 g / cm^3
# Si number density = 19.071910 Si / 1000 Ang^3
#
#
#
# Elastic Constant Matrix: (Units=GPa)
#
#
# Indices 1 2 3 4 5 6 
#
# 1 95.9382 63.9243 37.3192 0.0000 0.0000 0.0000
# 2 63.9243 120.8069 73.5328 0.0000 0.0000 0.0000
# 3 37.3192 73.5328 105.2382 0.0000 0.0000 0.0000
# 4 0.0000 0.0000 0.0000 26.8678 0.0000 0.0000
# 5 0.0000 0.0000 0.0000 0.0000 -0.8234 0.0000
# 6 0.0000 0.0000 0.0000 0.0000 0.0000 29.5599
#
#
#
# Elastic Compliance Matrix: (Units=1/GPa)
#
#
# Indices 1 2 3 4 5 6 
#
# 1 0.016111 -0.008783 0.000424 0.000000 0.000000 0.000000
# 2 -0.008783 0.019191 -0.010295 0.000000 0.000000 0.000000
# 3 0.000424 -0.010295 0.016545 0.000000 0.000000 0.000000
# 4 0.000000 0.000000 0.000000 0.037219 0.000000 0.000000
# 5 0.000000 0.000000 0.000000 0.000000 -1.214464 0.000000
# 6 0.000000 0.000000 0.000000 0.000000 0.000000 0.033830
#
#
# Mechanical properties :
#
#
# Convention : Reuss Voigt Hill
#
# Bulk Modulus (GPa) = 68.77966 74.61510 71.69738
# Shear Modulus (GPa) = -4.76457 20.93466 8.08505
#
# Velocity S-wave (km/s) = -1.58229 3.31670 2.06118
# Velocity P-wave (km/s) = 5.72743 7.33998 6.58327
#
# Compressibility (1/GPa) = 0.01453918
#
# Stress axis : x y z
#
# Youngs Moduli (GPa) = 62.07125 52.10682 60.43958
#
# Poissons Ratio (x) = 0.45764 -0.02560
# Poissons Ratio (y) = 0.54515 0.62223
# Poissons Ratio (z) = -0.02629 0.53644
#
# Static dielectric constant tensor:
#      x y z
#    x 1.695280 0.000000 0.000000 
#    y 0.000000 1.684830 0.000000 
#    z 0.000000 0.000000 1.660840 
# 
# From -- ./inp_files/26541.got.cif
#   From: 2010.05.17/outbox.cif.g08.bks.cpg/sg53_14_cif.got.tgz:26541.got - 2010.06.03 12:45:16.
