data_PCOD9418487
_publ_section_title
;
Structure prediction by ZEFSAII (Michael W. Deem and Ramdas Pophale) SiO2 
 PCOD9418487
Probable space group: P M N A
;
_chemical_formula_sum "Si O2"
_cell_formula_units_Z 58
_cell_length_a 16.731465
_cell_length_b 6.720879
_cell_length_c 25.491984
_cell_angle_alpha 90.000000
_cell_angle_beta 90.000000
_cell_angle_gamma 90.000000
_cell_volume 2866.577469
_symmetry_space_group_name_H-M "P M N A"
_symmetry_group_IT_number 53
_symmetry_cell_setting 'orthorhombic'
loop_
_space_group_symop_operation_xyz
x,y,z
1/2-x,-y,1/2+z
x,-y,-z
1/2-x,y,1/2-z
-x,-y,-z
1/2+x,y,1/2-z
-x,y,z
1/2+x,-y,1/2+z
loop_
_atom_site_type_symbol
_atom_site_label
_atom_site_fract_x
_atom_site_fract_y
_atom_site_fract_z
Si Si1 0.632080 0.700497 0.068067
Si Si2 0.907138 0.657923 0.248374
Si Si3 0.590725 0.031160 0.835007
Si Si4 0.092269 0.942735 0.151598
Si Si5 0.200547 0.687959 0.621800
Si Si6 0.214759 0.028120 0.942445
Si Si7 0.815659 0.285245 0.211864
Si Si8 0.500000 0.500000 0.000000
O O1 0.592566 0.842317 0.111593
O O2 0.653625 0.492615 0.096237
O O3 0.714533 0.809219 0.052798
O O4 0.570486 0.651422 0.022275
O O5 0.876613 0.820094 0.290309
O O6 0.858985 0.455172 0.245015
O O7 0.000000 0.619382 0.262112
O O8 0.904174 0.757109 0.191075
O O9 0.500000 0.977442 0.820313
O O10 0.641968 0.836947 0.846926
O O11 0.124294 0.128060 0.186239
O O12 0.000000 0.974623 0.136376
O O13 0.150412 0.917303 0.102052
O O14 0.267447 0.619590 0.663126
O O15 0.243665 0.825678 0.578427
O O16 0.178786 0.000000 0.000000
O O17 0.750000 0.186818 0.250000
#
# Coordination Sequence:
#
# PCOD9418487 Si02
#       8
#     8   8   8   8   8   8   8   2
#     4  11  22  40  57  89 122 168 215 263 317 384
#     4  10  21  37  59  86 121 158 196 251 308 372
#     4  10  21  37  56  87 125 161 205 257 311 370
#     4  10  22  40  63  91 121 159 212 260 318 386
#     4  10  22  37  59  84 119 163 208 254 313 377
#     4  10  22  41  61  87 123 157 207 270 329 383
#     4  11  21  35  58  89 119 162 201 247 311 374
#     4  12  24  36  62  88 118 170 224 256 324 382
#
# _framework density 20.233188999999999
#
# number of rings (size 3 to 8) (size 9 to 14) (size 15 to 20)
#    0.000    1.655    0.690    3.724    0.966    3.034 
#    0.000    5.172    0.000    0.000    0.000    8.207 
#    0.000    0.000    0.000    0.000    0.000    0.000 
#
# Total GULP energy -323590.991679 kJ/mol
# GULP energy per Si atom -5579.155029 kJ/mol
# Density = 2.018714 g / cm^3
# Si number density = 20.233189 Si / 1000 Ang^3
#
#
#
# Elastic Constant Matrix: (Units=GPa)
#
#
# Indices 1 2 3 4 5 6 
#
# 1 75.1996 16.4787 7.1082 0.0000 0.0000 0.0000
# 2 16.4787 50.4699 0.3746 0.0000 0.0000 0.0000
# 3 7.1082 0.3746 62.0270 0.0000 0.0000 0.0000
# 4 0.0000 0.0000 0.0000 25.1737 0.0000 0.0000
# 5 0.0000 0.0000 0.0000 0.0000 20.4125 0.0000
# 6 0.0000 0.0000 0.0000 0.0000 0.0000 26.8246
#
#
#
# Elastic Compliance Matrix: (Units=1/GPa)
#
#
# Indices 1 2 3 4 5 6 
#
# 1 0.014486 -0.004718 -0.001632 0.000000 0.000000 0.000000
# 2 -0.004718 0.021351 0.000412 0.000000 0.000000 0.000000
# 3 -0.001632 0.000412 0.016306 0.000000 0.000000 0.000000
# 4 0.000000 0.000000 0.000000 0.039724 0.000000 0.000000
# 5 0.000000 0.000000 0.000000 0.000000 0.048990 0.000000
# 6 0.000000 0.000000 0.000000 0.000000 0.000000 0.037279
#
#
# Mechanical properties :
#
#
# Convention : Reuss Voigt Hill
#
# Bulk Modulus (GPa) = 24.83334 26.17996 25.50665
# Shear Modulus (GPa) = 24.57797 25.39783 24.98790
#
# Velocity S-wave (km/s) = 3.48909 3.54680 3.51806
# Velocity P-wave (km/s) = 5.34152 5.45347 5.39778
#
# Compressibility (1/GPa) = 0.04026844
#
# Stress axis : x y z
#
# Youngs Moduli (GPa) = 69.03238 46.83608 61.32525
#
# Poissons Ratio (x) = 0.22096 0.10006
# Poissons Ratio (y) = 0.32567 -0.02525
# Poissons Ratio (z) = 0.11263 -0.01928
#
# Static dielectric constant tensor:
#      x y z
#    x 1.727550 0.000000 0.000000 
#    y 0.000000 1.695400 0.000000 
#    z 0.000000 0.000000 1.735060 
# 
# From -- ./inp_files/37153.got.cif
#   From: 2010.05.17/outbox.cif.g08.bks.cpg/sg53_19_cif.got.tgz:37153.got - 2010.06.03 12:45:16.
