data_PCOD9418821
_publ_section_title
;
Structure prediction by ZEFSAII (Michael W. Deem and Ramdas Pophale) SiO2 
 PCOD9418821
Probable space group: P M N A
;
_chemical_formula_sum "Si O2"
_cell_formula_units_Z 32
_cell_length_a 10.194571
_cell_length_b 19.646208
_cell_length_c 8.795622
_cell_angle_alpha 90.000000
_cell_angle_beta 90.000000
_cell_angle_gamma 90.000000
_cell_volume 1761.628182
_symmetry_space_group_name_H-M "P M N A"
_symmetry_group_IT_number 53
_symmetry_cell_setting 'orthorhombic'
loop_
_space_group_symop_operation_xyz
x,y,z
1/2-x,-y,1/2+z
x,-y,-z
1/2-x,y,1/2-z
-x,-y,-z
1/2+x,y,1/2-z
-x,y,z
1/2+x,-y,1/2+z
loop_
_atom_site_type_symbol
_atom_site_label
_atom_site_fract_x
_atom_site_fract_y
_atom_site_fract_z
Si Si1 0.000000 0.922449 0.563728
Si Si2 0.254109 0.847162 0.431542
Si Si3 0.000000 0.925600 0.929192
Si Si4 0.149671 0.437895 0.113894
Si Si5 0.342810 0.716685 0.600191
O O1 0.124708 0.880457 0.503352
O O2 0.000000 0.925870 0.746619
O O3 0.000000 0.000000 0.500000
O O4 0.250000 0.854034 0.250000
O O5 0.373541 0.887957 0.505901
O O6 0.282835 0.769676 0.480913
O O7 0.000000 0.000000 0.000000
O O8 0.250000 0.444310 0.250000
O O9 0.165824 0.361825 0.046987
O O10 0.000000 0.441292 0.171025
O O11 0.169016 0.500000 0.000000
O O12 0.250000 0.722972 0.750000
O O13 0.500000 0.730837 0.628601
#
# Coordination Sequence:
#
# PCOD9418821 Si02
#       5
#     4   8   4   8   8
#     4  12  26  44  66  92 121 160 203 250 308 368
#     4  12  25  41  62  92 124 158 202 256 304 362
#     4  12  24  44  66  88 121 160 201 248 306 366
#     4   9  19  36  59  87 122 162 204 251 300 358
#     4  10  21  39  62  89 121 163 208 252 306 366
#
# _framework density 18.165013999999999
#
# number of rings (size 3 to 8) (size 9 to 14) (size 15 to 20)
#    0.000    1.250    1.250    5.250    1.750    1.500 
#    0.000    0.000    0.000    0.000    0.000    0.000 
#    0.000    0.000    0.000    0.000    0.000    0.000 
#
# Total GULP energy -178658.600715 kJ/mol
# GULP energy per Si atom -5583.081272 kJ/mol
# Density = 1.812367 g / cm^3
# Si number density = 18.165014 Si / 1000 Ang^3
#
#
#
# Elastic Constant Matrix: (Units=GPa)
#
#
# Indices 1 2 3 4 5 6 
#
# 1 162.5345 99.0037 79.2696 0.0000 0.0000 0.0000
# 2 99.0037 149.7925 85.0337 0.0000 0.0000 0.0000
# 3 79.2696 85.0337 163.5379 0.0000 0.0000 0.0000
# 4 0.0000 0.0000 0.0000 -247.1815 0.0000 0.0000
# 5 0.0000 0.0000 0.0000 0.0000 27.7599 0.0000
# 6 0.0000 0.0000 0.0000 0.0000 0.0000 55.0317
#
#
#
# Elastic Compliance Matrix: (Units=1/GPa)
#
#
# Indices 1 2 3 4 5 6 
#
# 1 0.010813 -0.005918 -0.002164 0.000000 0.000000 0.000000
# 2 -0.005918 0.012711 -0.003741 0.000000 0.000000 0.000000
# 3 -0.002164 -0.003741 0.009109 0.000000 0.000000 0.000000
# 4 0.000000 0.000000 0.000000 -0.004046 0.000000 0.000000
# 5 0.000000 0.000000 0.000000 0.000000 0.036023 0.000000
# 6 0.000000 0.000000 0.000000 0.000000 0.000000 0.018171
#
#
# Mechanical properties :
#
#
# Convention : Reuss Voigt Hill
#
# Bulk Modulus (GPa) = 111.27167 111.38656 111.32912
# Shear Modulus (GPa) = 45.69452 -18.70746 13.49353
#
# Velocity S-wave (km/s) = 5.02094 -3.21263 2.72845
# Velocity P-wave (km/s) = 9.74690 6.90587 8.44669
#
# Compressibility (1/GPa) = 0.00898701
#
# Stress axis : x y z
#
# Youngs Moduli (GPa) = 92.48274 78.67261 109.78611
#
# Poissons Ratio (x) = 0.46560 0.23757
# Poissons Ratio (y) = 0.54733 0.41066
# Poissons Ratio (z) = 0.20012 0.29428
#
# Static dielectric constant tensor:
#      x y z
#    x 1.560910 0.000000 0.000000 
#    y 0.000000 1.665040 0.000000 
#    z 0.000000 0.000000 1.579140 
# 
# From -- ./inp_files/6052.got.cif
#   From: 2010.05.17/outbox.cif.g08.bks.cpg/sg53_4_cif.got.tgz:6052.got - 2010.06.03 12:45:16.
