data_PCOD9418657
_publ_section_title
;
Structure prediction by ZEFSAII (Michael W. Deem and Ramdas Pophale) SiO2 
 PCOD9418657
Probable space group: P M N A
;
_chemical_formula_sum "Si O2"
_cell_formula_units_Z 40
_cell_length_a 8.952536
_cell_length_b 16.049942
_cell_length_c 14.247637
_cell_angle_alpha 90.000000
_cell_angle_beta 90.000000
_cell_angle_gamma 90.000000
_cell_volume 2047.209957
_symmetry_space_group_name_H-M "P M N A"
_symmetry_group_IT_number 53
_symmetry_cell_setting 'orthorhombic'
loop_
_space_group_symop_operation_xyz
x,y,z
1/2-x,-y,1/2+z
x,-y,-z
1/2-x,y,1/2-z
-x,-y,-z
1/2+x,y,1/2-z
-x,y,z
1/2+x,-y,1/2+z
loop_
_atom_site_type_symbol
_atom_site_label
_atom_site_fract_x
_atom_site_fract_y
_atom_site_fract_z
Si Si1 0.322712 0.945197 0.352354
Si Si2 0.679725 0.373256 0.548007
Si Si3 0.679251 0.544706 0.649497
Si Si4 0.323058 0.861413 0.648236
Si Si5 0.322481 0.202876 0.968610
O O1 0.250000 0.938795 0.250000
O O2 0.500000 0.929241 0.349407
O O3 0.243498 0.877270 0.416069
O O4 0.302839 0.041618 0.381997
O O5 0.500000 0.362563 0.549589
O O6 0.716700 0.450378 0.616300
O O7 0.722003 0.399549 0.441086
O O8 0.760388 0.288231 0.574624
O O9 0.750000 0.565324 0.750000
O O10 0.500000 0.549999 0.657700
O O11 0.250000 0.852294 0.750000
O O12 0.500000 0.844807 0.651284
O O13 0.241735 0.803764 0.573643
O O14 0.500000 0.201038 0.967703
#
# Coordination Sequence:
#
# PCOD9418657 Si02
#       5
#     8   8   8   8   8
#     4  10  21  38  59  82 110 147 190 235 282 331
#     4   9  20  39  57  79 112 146 181 222 273 332
#     4   9  19  37  62  84 106 141 179 221 275 330
#     4  10  21  38  59  82 110 147 190 235 282 331
#     4  12  24  36  55  84 116 151 188 229 278 329
#
# _framework density 19.538786999999999
#
# number of rings (size 3 to 8) (size 9 to 14) (size 15 to 20)
#    0.000    2.000    0.000    4.800    0.000    8.000 
#    0.000    6.000    0.000    0.000    0.000    0.000 
#    0.000    0.000    0.000    0.000    0.000    0.000 
#
# Total GULP energy -223473.355885 kJ/mol
# GULP energy per Si atom -5586.833897 kJ/mol
# Density = 1.949432 g / cm^3
# Si number density = 19.538787 Si / 1000 Ang^3
#
#
#
# Elastic Constant Matrix: (Units=GPa)
#
#
# Indices 1 2 3 4 5 6 
#
# 1 72.8909 31.0171 3.1330 0.0000 0.0000 0.0000
# 2 31.0171 37.2324 -5.8496 0.0000 0.0000 0.0000
# 3 3.1330 -5.8496 36.3710 0.0000 0.0000 0.0000
# 4 0.0000 0.0000 0.0000 12.9613 0.0000 0.0000
# 5 0.0000 0.0000 0.0000 0.0000 30.0001 0.0000
# 6 0.0000 0.0000 0.0000 0.0000 0.0000 32.6908
#
#
#
# Elastic Compliance Matrix: (Units=1/GPa)
#
#
# Indices 1 2 3 4 5 6 
#
# 1 0.022103 -0.019197 -0.004991 0.000000 0.000000 0.000000
# 2 -0.019197 0.044228 0.008767 0.000000 0.000000 0.000000
# 3 -0.004991 0.008767 0.029334 0.000000 0.000000 0.000000
# 4 0.000000 0.000000 0.000000 0.077153 0.000000 0.000000
# 5 0.000000 0.000000 0.000000 0.000000 0.033333 0.000000
# 6 0.000000 0.000000 0.000000 0.000000 0.000000 0.030590
#
#
# Mechanical properties :
#
#
# Convention : Reuss Voigt Hill
#
# Bulk Modulus (GPa) = 15.42691 22.56616 18.99653
# Shear Modulus (GPa) = 17.28960 23.01003 20.14981
#
# Velocity S-wave (km/s) = 2.97793 3.43543 3.21483
# Velocity P-wave (km/s) = 4.44261 5.22596 4.85013
#
# Compressibility (1/GPa) = 0.06482181
#
# Stress axis : x y z
#
# Youngs Moduli (GPa) = 45.24359 22.61000 34.08973
#
# Poissons Ratio (x) = 0.43405 0.17016
# Poissons Ratio (y) = 0.86855 -0.29886
# Poissons Ratio (z) = 0.22583 -0.19822
#
# Static dielectric constant tensor:
#      x y z
#    x 1.637220 0.000000 0.000000 
#    y 0.000000 1.690790 0.000000 
#    z 0.000000 0.000000 1.665380 
# 
# From -- ./inp_files/19835.got.cif
#   From: 2010.05.17/outbox.cif.g08.bks.cpg/sg53_10_cif.got.tgz:19835.got - 2010.06.03 12:45:16.
