data_PCOD9418676
_publ_section_title
;
Structure prediction by ZEFSAII (Michael W. Deem and Ramdas Pophale) SiO2 
 PCOD9418676
Probable space group: P M N A
;
_chemical_formula_sum "Si O2"
_cell_formula_units_Z 64
_cell_length_a 9.038523
_cell_length_b 22.022958
_cell_length_c 17.748214
_cell_angle_alpha 90.000000
_cell_angle_beta 90.000000
_cell_angle_gamma 90.000000
_cell_volume 3532.870958
_symmetry_space_group_name_H-M "P M N A"
_symmetry_group_IT_number 53
_symmetry_cell_setting 'orthorhombic'
loop_
_space_group_symop_operation_xyz
x,y,z
1/2-x,-y,1/2+z
x,-y,-z
1/2-x,y,1/2-z
-x,-y,-z
1/2+x,y,1/2-z
-x,y,z
1/2+x,-y,1/2+z
loop_
_atom_site_type_symbol
_atom_site_label
_atom_site_fract_x
_atom_site_fract_y
_atom_site_fract_z
Si Si1 0.175507 0.377576 0.173090
Si Si2 0.676306 0.997787 0.170139
Si Si3 0.176901 0.897146 0.068650
Si Si4 0.676723 0.876034 0.907168
Si Si5 0.823103 0.567998 0.526707
Si Si6 0.325458 0.259766 0.113753
Si Si7 0.673935 0.310549 0.945445
Si Si8 0.175967 0.778050 0.168394
O O1 0.250000 0.399257 0.250000
O O2 0.236537 0.415175 0.102199
O O3 0.229476 0.308548 0.158159
O O4 0.000000 0.380412 0.177619
O O5 0.750000 0.983178 0.250000
O O6 0.500000 0.988595 0.173894
O O7 0.705721 0.067604 0.147588
O O8 0.745502 0.954931 0.106385
O O9 0.211805 0.838672 0.120535
O O10 0.000000 0.905197 0.067039
O O11 0.238125 0.886151 0.985178
O O12 0.500000 0.874787 0.923200
O O13 0.714990 0.810163 0.873738
O O14 0.792975 0.500000 0.500000
O O15 0.786571 0.619849 0.465069
O O16 0.000000 0.574111 0.541064
O O17 0.500000 0.269156 0.130885
O O18 0.306283 0.274717 0.024693
O O19 0.500000 0.307561 0.926261
O O20 0.766201 0.278522 0.880593
O O21 0.250000 0.780293 0.250000
O O22 0.000000 0.774965 0.176784
#
# Coordination Sequence:
#
# PCOD9418676 Si02
#       8
#     8   8   8   8   8   8   8   8
#     4  11  22  36  57  86 121 156 196 241 284 334
#     4  11  24  40  57  78 108 146 188 235 290 343
#     4  11  23  38  58  83 110 144 188 235 284 341
#     4  10  21  38  60  84 111 146 186 231 285 348
#     4   9  19  38  63  89 118 154 193 233 282 338
#     4   9  18  35  58  83 112 147 185 227 283 341
#     4   9  17  33  58  83 111 145 179 222 273 330
#     4  11  23  36  54  81 111 144 185 232 282 334
#
# _framework density 18.115579
#
# number of rings (size 3 to 8) (size 9 to 14) (size 15 to 20)
#    0.000    1.875    1.250    3.750    0.000    8.250 
#    0.000    1.875    0.000    0.000    0.000    0.000 
#    0.000    0.000    0.000    0.000    0.000    0.000 
#
# Total GULP energy -357538.370984 kJ/mol
# GULP energy per Si atom -5586.537047 kJ/mol
# Density = 1.807435 g / cm^3
# Si number density = 18.115579 Si / 1000 Ang^3
#
#
#
# Elastic Constant Matrix: (Units=GPa)
#
#
# Indices 1 2 3 4 5 6 
#
# 1 55.9834 35.6734 33.5478 0.0000 0.0000 0.0000
# 2 35.6734 98.2157 5.2216 0.0000 0.0000 0.0000
# 3 33.5478 5.2216 47.9330 0.0000 0.0000 0.0000
# 4 0.0000 0.0000 0.0000 11.4061 0.0000 0.0000
# 5 0.0000 0.0000 0.0000 0.0000 30.6096 0.0000
# 6 0.0000 0.0000 0.0000 0.0000 0.0000 71.8187
#
#
#
# Elastic Compliance Matrix: (Units=1/GPa)
#
#
# Indices 1 2 3 4 5 6 
#
# 1 0.045445 -0.014902 -0.030183 0.000000 0.000000 0.000000
# 2 -0.014902 0.015127 0.008782 0.000000 0.000000 0.000000
# 3 -0.030183 0.008782 0.041031 0.000000 0.000000 0.000000
# 4 0.000000 0.000000 0.000000 0.087672 0.000000 0.000000
# 5 0.000000 0.000000 0.000000 0.000000 0.032670 0.000000
# 6 0.000000 0.000000 0.000000 0.000000 0.000000 0.013924
#
#
# Mechanical properties :
#
#
# Convention : Reuss Voigt Hill
#
# Bulk Modulus (GPa) = 34.48680 39.00197 36.74438
# Shear Modulus (GPa) = 15.71630 31.27949 23.49790
#
# Velocity S-wave (km/s) = 2.94863 4.15982 3.60545
# Velocity P-wave (km/s) = 5.53814 6.68195 6.13675
#
# Compressibility (1/GPa) = 0.02899660
#
# Stress axis : x y z
#
# Youngs Moduli (GPa) = 22.00454 66.10573 24.37194
#
# Poissons Ratio (x) = 0.98508 0.73563
# Poissons Ratio (y) = 0.32790 -0.21402
# Poissons Ratio (z) = 0.66417 -0.58051
#
# Static dielectric constant tensor:
#      x y z
#    x 1.601790 0.000000 0.000000 
#    y 0.000000 1.625550 0.000000 
#    z 0.000000 0.000000 1.588460 
# 
# From -- ./inp_files/20908.got.cif
#   From: 2010.05.17/outbox.cif.g08.bks.cpg/sg53_11_cif.got.tgz:20908.got - 2010.06.03 12:45:16.
