data_PCOD9418336
_publ_section_title
;
Structure prediction by ZEFSAII (Michael W. Deem and Ramdas Pophale) SiO2 
 PCOD9418336
Probable space group: P M N A
;
_chemical_formula_sum "Si O2"
_cell_formula_units_Z 30
_cell_length_a 14.656396
_cell_length_b 8.941466
_cell_length_c 11.500637
_cell_angle_alpha 90.000000
_cell_angle_beta 90.000000
_cell_angle_gamma 90.000000
_cell_volume 1507.154644
_symmetry_space_group_name_H-M "P M N A"
_symmetry_group_IT_number 53
_symmetry_cell_setting 'orthorhombic'
loop_
_space_group_symop_operation_xyz
x,y,z
1/2-x,-y,1/2+z
x,-y,-z
1/2-x,y,1/2-z
-x,-y,-z
1/2+x,y,1/2-z
-x,y,z
1/2+x,-y,1/2+z
loop_
_atom_site_type_symbol
_atom_site_label
_atom_site_fract_x
_atom_site_fract_y
_atom_site_fract_z
Si Si1 0.335713 0.499666 0.374004
Si Si2 0.394280 0.000189 0.139477
Si Si3 0.500000 0.500000 0.000000
Si Si4 0.750000 0.224559 0.250000
Si Si5 0.143904 0.660632 0.351125
O O1 0.381000 0.500000 0.500000
O O2 0.298093 0.336202 0.341413
O O3 0.246357 0.607510 0.379731
O O4 0.387208 0.561529 0.260473
O O5 0.500000 0.027432 0.171587
O O6 0.364625 0.834117 0.178248
O O7 0.326799 0.122481 0.191776
O O8 0.387709 0.000000 0.000000
O O9 0.420805 0.381830 0.957165
#
# Coordination Sequence:
#
# PCOD9418336 Si02
#       5
#     8   8   2   4   8
#     4  10  21  40  61  87 117 165 201 246 301 363
#     4  11  23  37  61  92 121 155 201 252 309 362
#     4  12  20  36  64  92 118 152 196 274 282 356
#     4  10  22  38  60  92 122 158 202 256 308 362
#     4  10  21  35  62  88 121 150 204 248 300 348
#
# _framework density 19.905059000000001
#
# number of rings (size 3 to 8) (size 9 to 14) (size 15 to 20)
#    0.000    1.867    2.667    3.200    3.733    0.000 
#    0.000    0.667    0.000    2.400    0.000    0.000 
#    0.000    0.000    0.000    0.000    0.000    0.000 
#
# Total GULP energy -167021.360118 kJ/mol
# GULP energy per Si atom -5567.378671 kJ/mol
# Density = 1.985975 g / cm^3
# Si number density = 19.905059 Si / 1000 Ang^3
#
#
#
# Elastic Constant Matrix: (Units=GPa)
#
#
# Indices 1 2 3 4 5 6 
#
# 1 95.3824 48.7618 -0.1155 0.0000 0.0000 0.0000
# 2 48.7618 161.1075 36.1900 0.0000 0.0000 0.0000
# 3 -0.1155 36.1900 49.9274 0.0000 0.0000 0.0000
# 4 0.0000 0.0000 0.0000 20.1432 0.0000 0.0000
# 5 0.0000 0.0000 0.0000 0.0000 2.4299 0.0000
# 6 0.0000 0.0000 0.0000 0.0000 0.0000 1.6976
#
#
#
# Elastic Compliance Matrix: (Units=1/GPa)
#
#
# Indices 1 2 3 4 5 6 
#
# 1 0.012871 -0.004661 0.003409 0.000000 0.000000 0.000000
# 2 -0.004661 0.009102 -0.006609 0.000000 0.000000 0.000000
# 3 0.003409 -0.006609 0.024827 0.000000 0.000000 0.000000
# 4 0.000000 0.000000 0.000000 0.049644 0.000000 0.000000
# 5 0.000000 0.000000 0.000000 0.000000 0.411547 0.000000
# 6 0.000000 0.000000 0.000000 0.000000 0.000000 0.589056
#
#
# Mechanical properties :
#
#
# Convention : Reuss Voigt Hill
#
# Bulk Modulus (GPa) = 32.17712 52.89886 42.53799
# Shear Modulus (GPa) = 4.45184 19.62623 12.03903
#
# Velocity S-wave (km/s) = 1.49713 3.14346 2.46198
# Velocity P-wave (km/s) = 4.38052 6.30939 5.43127
#
# Compressibility (1/GPa) = 0.03107798
#
# Stress axis : x y z
#
# Youngs Moduli (GPa) = 77.69261 109.86125 40.27832
#
# Poissons Ratio (x) = 0.51210 -0.13729
# Poissons Ratio (y) = 0.36215 0.26619
# Poissons Ratio (z) = -0.26482 0.72604
#
# Static dielectric constant tensor:
#      x y z
#    x 2.121680 0.000000 0.000000 
#    y 0.000000 1.694600 0.000000 
#    z 0.000000 0.000000 1.773640 
# 
# From -- ./inp_files/15462.got.cif
#   From: 2010.05.17/outbox.cif.g08.bks.cpg/sg53_8_cif.got.tgz:15462.got - 2010.06.03 12:45:16.
