data_PCOD9418433
_publ_section_title
;
Structure prediction by ZEFSAII (Michael W. Deem and Ramdas Pophale) SiO2 
 PCOD9418433
Probable space group: P M N A
;
_chemical_formula_sum "Si O2"
_cell_formula_units_Z 48
_cell_length_a 19.156835
_cell_length_b 11.617244
_cell_length_c 11.673623
_cell_angle_alpha 90.000000
_cell_angle_beta 90.000000
_cell_angle_gamma 90.000000
_cell_volume 2597.960438
_symmetry_space_group_name_H-M "P M N A"
_symmetry_group_IT_number 53
_symmetry_cell_setting 'orthorhombic'
loop_
_space_group_symop_operation_xyz
x,y,z
1/2-x,-y,1/2+z
x,-y,-z
1/2-x,y,1/2-z
-x,-y,-z
1/2+x,y,1/2-z
-x,y,z
1/2+x,-y,1/2+z
loop_
_atom_site_type_symbol
_atom_site_label
_atom_site_fract_x
_atom_site_fract_y
_atom_site_fract_z
Si Si1 0.330111 0.228048 0.446947
Si Si2 0.207514 0.473678 0.131761
Si Si3 0.669492 0.950688 0.745000
Si Si4 0.919932 0.350995 0.870809
Si Si5 0.919653 0.164956 0.674528
Si Si6 0.314839 0.862199 0.982000
O O1 0.310071 0.338476 0.370596
O O2 0.345218 0.116501 0.371191
O O3 0.391930 0.267414 0.528865
O O4 0.258393 0.196134 0.512703
O O5 0.250000 0.500118 0.250000
O O6 0.135783 0.546422 0.134690
O O7 0.236998 0.500000 0.000000
O O8 0.750000 0.993131 0.750000
O O9 0.667611 0.857089 0.847767
O O10 0.617915 0.055721 0.766473
O O11 0.916545 0.274860 0.756264
O O12 0.000000 0.387215 0.889749
O O13 0.876247 0.184946 0.559523
O O14 0.000000 0.137011 0.650599
O O15 0.309254 0.000000 0.000000
#
# Coordination Sequence:
#
# PCOD9418433 Si02
#       6
#     8   8   8   8   8   8
#     4  10  21  36  59  85 114 148 191 236 286 341
#     4  10  22  39  63  91 113 151 197 246 289 345
#     4   9  19  34  55  84 117 151 188 238 287 335
#     4  10  24  39  56  84 116 152 191 236 286 341
#     4  10  22  36  54  83 118 153 191 231 281 345
#     4   9  19  33  57  86 115 150 187 241 284 341
#
# _framework density 18.476030999999999
#
# number of rings (size 3 to 8) (size 9 to 14) (size 15 to 20)
#    0.000    2.333    0.000    1.500   11.667    6.667 
#    0.000    1.667    0.000    3.500    0.000    0.000 
#    0.000    0.000    0.000    0.000    0.000    0.000 
#
# Total GULP energy -267557.456324 kJ/mol
# GULP energy per Si atom -5574.113673 kJ/mol
# Density = 1.843398 g / cm^3
# Si number density = 18.476031 Si / 1000 Ang^3
#
#
#
# Elastic Constant Matrix: (Units=GPa)
#
#
# Indices 1 2 3 4 5 6 
#
# 1 121.8344 25.7348 59.8896 0.0000 0.0000 0.0000
# 2 25.7348 30.6617 6.8718 0.0000 0.0000 0.0000
# 3 59.8896 6.8718 82.8466 0.0000 0.0000 0.0000
# 4 0.0000 0.0000 0.0000 18.7722 0.0000 0.0000
# 5 0.0000 0.0000 0.0000 0.0000 8.8892 0.0000
# 6 0.0000 0.0000 0.0000 0.0000 0.0000 14.2502
#
#
#
# Elastic Compliance Matrix: (Units=1/GPa)
#
#
# Indices 1 2 3 4 5 6 
#
# 1 0.015574 -0.010748 -0.010367 0.000000 0.000000 0.000000
# 2 -0.010748 0.040650 0.004398 0.000000 0.000000 0.000000
# 3 -0.010367 0.004398 0.019200 0.000000 0.000000 0.000000
# 4 0.000000 0.000000 0.000000 0.053270 0.000000 0.000000
# 5 0.000000 0.000000 0.000000 0.000000 0.112497 0.000000
# 6 0.000000 0.000000 0.000000 0.000000 0.000000 0.070175
#
#
# Mechanical properties :
#
#
# Convention : Reuss Voigt Hill
#
# Bulk Modulus (GPa) = 23.81550 46.70390 35.25970
# Shear Modulus (GPa) = 13.93548 17.90541 15.92044
#
# Velocity S-wave (km/s) = 2.74933 3.11644 2.93862
# Velocity P-wave (km/s) = 4.79545 6.18729 5.53529
#
# Compressibility (1/GPa) = 0.04198946
#
# Stress axis : x y z
#
# Youngs Moduli (GPa) = 64.20829 24.60055 52.08326
#
# Poissons Ratio (x) = 0.26441 0.53995
# Poissons Ratio (y) = 0.69013 -0.22907
# Poissons Ratio (z) = 0.66565 -0.10820
#
# Static dielectric constant tensor:
#      x y z
#    x 1.621820 0.000000 0.000000 
#    y 0.000000 1.619170 0.000000 
#    z 0.000000 0.000000 1.656640 
# 
# From -- ./inp_files/16906.got.cif
#   From: 2010.05.17/outbox.cif.g08.bks.cpg/sg53_9_cif.got.tgz:16906.got - 2010.06.03 12:45:16.
