data_PCOD9418816
_publ_section_title
;
Structure prediction by ZEFSAII (Michael W. Deem and Ramdas Pophale) SiO2 
 PCOD9418816
Probable space group: P M N A
;
_chemical_formula_sum "Si O2"
_cell_formula_units_Z 48
_cell_length_a 8.926349
_cell_length_b 16.884316
_cell_length_c 15.985347
_cell_angle_alpha 90.000000
_cell_angle_beta 90.000000
_cell_angle_gamma 90.000000
_cell_volume 2409.236325
_symmetry_space_group_name_H-M "P M N A"
_symmetry_group_IT_number 53
_symmetry_cell_setting 'orthorhombic'
loop_
_space_group_symop_operation_xyz
x,y,z
1/2-x,-y,1/2+z
x,-y,-z
1/2-x,y,1/2-z
-x,-y,-z
1/2+x,y,1/2-z
-x,y,z
1/2+x,-y,1/2+z
loop_
_atom_site_type_symbol
_atom_site_label
_atom_site_fract_x
_atom_site_fract_y
_atom_site_fract_z
Si Si1 0.325783 0.355394 0.921329
Si Si2 0.177768 0.496772 0.836868
Si Si3 0.680195 0.809445 0.160950
Si Si4 0.674705 0.335828 0.118526
Si Si5 0.177790 0.827854 0.834647
Si Si6 0.823757 0.094464 0.495937
O O1 0.500000 0.375371 0.902874
O O2 0.225615 0.431872 0.904927
O O3 0.279525 0.280571 0.865129
O O4 0.319007 0.329917 0.017883
O O5 0.250000 0.467995 0.750000
O O6 0.250800 0.581547 0.856113
O O7 0.000000 0.503432 0.830463
O O8 0.750000 0.830554 0.250000
O O9 0.500000 0.812925 0.167230
O O10 0.724800 0.865617 0.083414
O O11 0.500000 0.334524 0.144012
O O12 0.761601 0.261605 0.155761
O O13 0.250000 0.862107 0.750000
O O14 0.232988 0.872874 0.917320
O O15 0.000000 0.828716 0.828318
O O16 0.000000 0.115678 0.483786
O O17 0.811782 0.000000 0.500000
#
# Coordination Sequence:
#
# PCOD9418816 Si02
#       6
#     8   8   8   8   8   8
#     4  10  21  39  62  87 120 163 210 260 316 373
#     4  12  25  39  56  85 123 163 213 262 314 371
#     4  10  21  39  63  94 127 166 210 258 315 376
#     4  11  22  41  65  89 123 164 212 262 320 378
#     4  12  25  42  67  97 132 171 217 266 321 383
#     4  10  22  44  70  96 130 170 212 263 322 383
#
# _framework density 19.923325999999999
#
# number of rings (size 3 to 8) (size 9 to 14) (size 15 to 20)
#    0.000    1.167    1.667    5.000    0.000    7.000 
#    0.000    1.667    0.000    0.000    0.000    0.000 
#    0.000    0.000    0.000    0.000    0.000    0.000 
#
# Total GULP energy -268552.225895 kJ/mol
# GULP energy per Si atom -5594.838039 kJ/mol
# Density = 1.987798 g / cm^3
# Si number density = 19.923326 Si / 1000 Ang^3
#
#
#
# Elastic Constant Matrix: (Units=GPa)
#
#
# Indices 1 2 3 4 5 6 
#
# 1 134.9787 49.8493 65.1225 0.0000 0.0000 0.0000
# 2 49.8493 71.0997 39.0528 0.0000 0.0000 0.0000
# 3 65.1225 39.0528 129.7331 0.0000 0.0000 0.0000
# 4 0.0000 0.0000 0.0000 4.1132 0.0000 0.0000
# 5 0.0000 0.0000 0.0000 0.0000 37.6071 0.0000
# 6 0.0000 0.0000 0.0000 0.0000 0.0000 35.1511
#
#
#
# Elastic Compliance Matrix: (Units=1/GPa)
#
#
# Indices 1 2 3 4 5 6 
#
# 1 0.011511 -0.005867 -0.004012 0.000000 0.000000 0.000000
# 2 -0.005867 0.019841 -0.003028 0.000000 0.000000 0.000000
# 3 -0.004012 -0.003028 0.010634 0.000000 0.000000 0.000000
# 4 0.000000 0.000000 0.000000 0.243117 0.000000 0.000000
# 5 0.000000 0.000000 0.000000 0.000000 0.026591 0.000000
# 6 0.000000 0.000000 0.000000 0.000000 0.000000 0.028449
#
#
# Mechanical properties :
#
#
# Convention : Reuss Voigt Hill
#
# Bulk Modulus (GPa) = 61.83400 71.54010 66.68705
# Shear Modulus (GPa) = 13.46452 27.49341 20.47896
#
# Velocity S-wave (km/s) = 2.60247 3.71881 3.20955
# Velocity P-wave (km/s) = 6.33513 7.37734 6.87601
#
# Compressibility (1/GPa) = 0.01617233
#
# Stress axis : x y z
#
# Youngs Moduli (GPa) = 86.87352 50.40048 94.04224
#
# Poissons Ratio (x) = 0.29569 0.37731
# Poissons Ratio (y) = 0.50967 0.28473
# Poissons Ratio (z) = 0.34855 0.15260
#
# Static dielectric constant tensor:
#      x y z
#    x 1.670850 0.000000 0.000000 
#    y 0.000000 1.682220 0.000000 
#    z 0.000000 0.000000 1.722830 
# 
# From -- ./inp_files/20160.got.cif
#   From: 2010.05.17/outbox.cif.g08.bks.cpg/sg53_11_cif.got.tgz:20160.got - 2010.06.03 12:45:16.
