data_PCOD9418442
_publ_section_title
;
Structure prediction by ZEFSAII (Michael W. Deem and Ramdas Pophale) SiO2 
 PCOD9418442
Probable space group: P M N A
;
_chemical_formula_sum "Si O2"
_cell_formula_units_Z 56
_cell_length_a 14.347802
_cell_length_b 20.336206
_cell_length_c 9.313793
_cell_angle_alpha 90.000000
_cell_angle_beta 90.000000
_cell_angle_gamma 90.000000
_cell_volume 2717.577191
_symmetry_space_group_name_H-M "P M N A"
_symmetry_group_IT_number 53
_symmetry_cell_setting 'orthorhombic'
loop_
_space_group_symop_operation_xyz
x,y,z
1/2-x,-y,1/2+z
x,-y,-z
1/2-x,y,1/2-z
-x,-y,-z
1/2+x,y,1/2-z
-x,y,z
1/2+x,-y,1/2+z
loop_
_atom_site_type_symbol
_atom_site_label
_atom_site_fract_x
_atom_site_fract_y
_atom_site_fract_z
Si Si1 0.894223 0.404972 0.888116
Si Si2 0.605575 0.066689 0.094739
Si Si3 0.609884 0.521156 0.833007
Si Si4 0.109484 0.140864 0.662751
Si Si5 0.230381 0.645456 0.603085
Si Si6 0.614520 0.019267 0.654183
Si Si7 0.849478 0.708163 0.324527
O O1 0.863574 0.468031 0.790728
O O2 0.900492 0.346705 0.770147
O O3 0.000000 0.416313 0.944915
O O4 0.818630 0.383320 0.009243
O O5 0.500000 0.089278 0.130119
O O6 0.645521 0.038725 0.240267
O O7 0.651859 0.119833 0.990932
O O8 0.598950 0.000000 0.000000
O O9 0.500000 0.532647 0.812853
O O10 0.669185 0.586684 0.830495
O O11 0.622204 0.500000 0.000000
O O12 0.143448 0.090686 0.785487
O O13 0.114822 0.217918 0.687146
O O14 0.000000 0.124478 0.650080
O O15 0.250000 0.685918 0.750000
O O16 0.167386 0.683797 0.486590
O O17 0.500000 0.019012 0.650364
O O18 0.650944 0.000000 0.500000
O O19 0.750000 0.710377 0.250000
#
# Coordination Sequence:
#
# PCOD9418442 Si02
#       7
#     8   8   8   8   8   8   8
#     4  10  22  41  63  89 119 156 201 249 298 356
#     4   7  11  21  38  64  96 126 162 207 257 318
#     4  10  21  36  61  94 120 149 194 246 302 361
#     4   9  16  28  50  75 100 137 179 222 276 344
#     4  11  25  39  62  86 120 159 200 250 306 356
#     4   8  13  23  43  74 105 130 166 221 280 333
#     4  10  21  37  56  77 107 151 193 237 289 351
#
# _framework density 20.606591000000002
#
# number of rings (size 3 to 8) (size 9 to 14) (size 15 to 20)
#    0.000    2.714    1.429    2.143    2.000    1.143 
#    0.000    4.286    0.000    4.286    0.000    0.000 
#    0.000    0.000    0.000    0.000    0.000    0.000 
#
# Total GULP energy -311918.359826 kJ/mol
# GULP energy per Si atom -5569.970711 kJ/mol
# Density = 2.055969 g / cm^3
# Si number density = 20.606591 Si / 1000 Ang^3
#
#
#
# Elastic Constant Matrix: (Units=GPa)
#
#
# Indices 1 2 3 4 5 6 
#
# 1 39.4432 -6.9022 11.1574 0.0000 0.0000 0.0000
# 2 -6.9022 97.0643 40.8568 0.0000 0.0000 0.0000
# 3 11.1574 40.8568 157.0776 0.0000 0.0000 0.0000
# 4 0.0000 0.0000 0.0000 12.9367 0.0000 0.0000
# 5 0.0000 0.0000 0.0000 0.0000 14.5491 0.0000
# 6 0.0000 0.0000 0.0000 0.0000 0.0000 29.8531
#
#
#
# Elastic Compliance Matrix: (Units=1/GPa)
#
#
# Indices 1 2 3 4 5 6 
#
# 1 0.026639 0.003022 -0.002678 0.000000 0.000000 0.000000
# 2 0.003022 0.011912 -0.003313 0.000000 0.000000 0.000000
# 3 -0.002678 -0.003313 0.007418 0.000000 0.000000 0.000000
# 4 0.000000 0.000000 0.000000 0.077300 0.000000 0.000000
# 5 0.000000 0.000000 0.000000 0.000000 0.068733 0.000000
# 6 0.000000 0.000000 0.000000 0.000000 0.000000 0.033497
#
#
# Mechanical properties :
#
#
# Convention : Reuss Voigt Hill
#
# Bulk Modulus (GPa) = 24.98108 42.64545 33.81327
# Shear Modulus (GPa) = 20.42639 28.03266 24.22952
#
# Velocity S-wave (km/s) = 3.15184 3.69233 3.43273
# Velocity P-wave (km/s) = 5.03931 6.23840 5.67064
#
# Compressibility (1/GPa) = 0.04003029
#
# Stress axis : x y z
#
# Youngs Moduli (GPa) = 37.53861 83.95020 134.80293
#
# Poissons Ratio (x) = -0.25367 0.36102
# Poissons Ratio (y) = -0.11343 0.44660
# Poissons Ratio (z) = 0.10053 0.27812
#
# Static dielectric constant tensor:
#      x y z
#    x 1.829040 0.000000 0.000000 
#    y 0.000000 1.792720 0.000000 
#    z 0.000000 0.000000 1.751810 
# 
# From -- ./inp_files/8830.got.cif
#   From: 2010.05.17/outbox.cif.g08.bks.cpg/sg53_5_cif.got.tgz:8830.got - 2010.06.03 12:45:16.
