data_PCOD9418326
_publ_section_title
;
Structure prediction by ZEFSAII (Michael W. Deem and Ramdas Pophale) SiO2 
 PCOD9418326
Probable space group: P M N A
;
_chemical_formula_sum "Si O2"
_cell_formula_units_Z 32
_cell_length_a 29.767603
_cell_length_b 10.619517
_cell_length_c 5.225864
_cell_angle_alpha 90.000000
_cell_angle_beta 90.000000
_cell_angle_gamma 90.000000
_cell_volume 1651.987408
_symmetry_space_group_name_H-M "P M N A"
_symmetry_group_IT_number 53
_symmetry_cell_setting 'orthorhombic'
loop_
_space_group_symop_operation_xyz
x,y,z
1/2-x,-y,1/2+z
x,-y,-z
1/2-x,y,1/2-z
-x,-y,-z
1/2+x,y,1/2-z
-x,y,z
1/2+x,-y,1/2+z
loop_
_atom_site_type_symbol
_atom_site_label
_atom_site_fract_x
_atom_site_fract_y
_atom_site_fract_z
Si Si1 0.623864 0.266465 0.933867
Si Si2 0.278923 0.151059 0.000471
Si Si3 0.583882 0.636366 0.554479
Si Si4 0.449726 0.880791 0.322452
O O1 0.621699 0.341861 0.665883
O O2 0.588900 0.150812 0.882777
O O3 0.672997 0.217258 0.995620
O O4 0.603963 0.347795 0.164948
O O5 0.250000 0.183157 0.250000
O O6 0.250000 0.182668 0.750000
O O7 0.286232 0.000000 0.000000
O O8 0.563514 0.500000 0.500000
O O9 0.551798 0.754563 0.497077
O O10 0.500000 0.895119 0.216656
O O11 0.439109 0.000000 0.500000
#
# Coordination Sequence:
#
# PCOD9418326 Si02
#       4
#     8   8   8   8
#     4  10  22  37  64  85 124 160 199 252 313 351
#     4  10  21  35  59  92 122 153 199 251 306 371
#     4  10  22  39  61  87 119 166 209 248 297 365
#     4   9  22  39  61  94 126 159 203 252 309 371
#
# _framework density 19.370607
#
# number of rings (size 3 to 8) (size 9 to 14) (size 15 to 20)
#    1.500    0.750    0.000    2.250    3.500    2.500 
#    0.000    3.750    0.000   15.000    0.000    0.000 
#    0.000    0.000    0.000    0.000    0.000    0.000 
#
# Total GULP energy -178289.418880 kJ/mol
# GULP energy per Si atom -5571.544340 kJ/mol
# Density = 1.932652 g / cm^3
# Si number density = 19.370607 Si / 1000 Ang^3
#
#
#
# Elastic Constant Matrix: (Units=GPa)
#
#
# Indices 1 2 3 4 5 6 
#
# 1 82.9605 29.1787 26.9256 0.0000 0.0000 0.0000
# 2 29.1787 119.4878 25.9986 0.0000 0.0000 0.0000
# 3 26.9256 25.9986 104.8144 0.0000 0.0000 0.0000
# 4 0.0000 0.0000 0.0000 18.3430 0.0000 0.0000
# 5 0.0000 0.0000 0.0000 0.0000 26.4718 0.0000
# 6 0.0000 0.0000 0.0000 0.0000 0.0000 -1.4146
#
#
#
# Elastic Compliance Matrix: (Units=1/GPa)
#
#
# Indices 1 2 3 4 5 6 
#
# 1 0.013973 -0.002781 -0.002900 0.000000 0.000000 0.000000
# 2 -0.002781 0.009400 -0.001617 0.000000 0.000000 0.000000
# 3 -0.002900 -0.001617 0.010687 0.000000 0.000000 0.000000
# 4 0.000000 0.000000 0.000000 0.054517 0.000000 0.000000
# 5 0.000000 0.000000 0.000000 0.000000 0.037776 0.000000
# 6 0.000000 0.000000 0.000000 0.000000 0.000000 -0.706914
#
#
# Mechanical properties :
#
#
# Convention : Reuss Voigt Hill
#
# Bulk Modulus (GPa) = 51.37748 52.38537 51.88143
# Shear Modulus (GPa) = -8.93691 23.69069 7.37689
#
# Velocity S-wave (km/s) = -2.15027 3.50097 1.95360
# Velocity P-wave (km/s) = 4.51842 6.59127 5.65071
#
# Compressibility (1/GPa) = 0.01946378
#
# Stress axis : x y z
#
# Youngs Moduli (GPa) = 71.56509 106.38172 93.57428
#
# Poissons Ratio (x) = 0.29588 0.27134
# Poissons Ratio (y) = 0.19905 0.15132
# Poissons Ratio (z) = 0.20752 0.17204
#
# Static dielectric constant tensor:
#      x y z
#    x 1.633610 0.000000 0.000000 
#    y 0.000000 1.697420 0.000000 
#    z 0.000000 0.000000 1.654200 
# 
# From -- ./inp_files/2615.got.cif
#   From: 2010.05.17/outbox.cif.g08.bks.cpg/sg53_2_cif.got.tgz:2615.got - 2010.06.03 12:45:16.
