data_PCOD9418089
_publ_section_title
;
Structure prediction by ZEFSAII (Michael W. Deem and Ramdas Pophale) SiO2 
 PCOD9418089
Probable space group: P M N A
;
_chemical_formula_sum "Si O2"
_cell_formula_units_Z 64
_cell_length_a 14.242998
_cell_length_b 11.162127
_cell_length_c 17.866792
_cell_angle_alpha 90.000000
_cell_angle_beta 90.000000
_cell_angle_gamma 90.000000
_cell_volume 2840.501051
_symmetry_space_group_name_H-M "P M N A"
_symmetry_group_IT_number 53
_symmetry_cell_setting 'orthorhombic'
loop_
_space_group_symop_operation_xyz
x,y,z
1/2-x,-y,1/2+z
x,-y,-z
1/2-x,y,1/2-z
-x,-y,-z
1/2+x,y,1/2-z
-x,y,z
1/2+x,-y,1/2+z
loop_
_atom_site_type_symbol
_atom_site_label
_atom_site_fract_x
_atom_site_fract_y
_atom_site_fract_z
Si Si1 0.796289 0.564446 0.072784
Si Si2 0.268685 0.836234 0.063436
Si Si3 0.813191 0.805012 0.600821
Si Si4 0.386997 0.961887 0.183274
Si Si5 0.855870 0.550139 0.776847
Si Si6 0.099319 0.765087 0.870102
Si Si7 0.399217 0.451447 0.116195
Si Si8 0.895523 0.046469 0.853039
O O1 0.776981 0.704554 0.065924
O O2 0.851295 0.530977 0.148955
O O3 0.692041 0.509174 0.080374
O O4 0.840222 0.500000 0.000000
O O5 0.345332 0.863362 0.127006
O O6 0.180366 0.920004 0.084808
O O7 0.317796 0.854959 0.983532
O O8 0.706132 0.753086 0.601372
O O9 0.879881 0.691549 0.614790
O O10 0.837220 0.912235 0.658506
O O11 0.500000 0.976007 0.177268
O O12 0.366053 0.921736 0.268457
O O13 0.750000 0.575224 0.750000
O O14 0.900630 0.674895 0.801025
O O15 0.900803 0.502032 0.701710
O O16 0.000000 0.741539 0.912945
O O17 0.096969 0.903563 0.849719
O O18 0.500000 0.477827 0.082146
O O19 0.000000 0.095058 0.869479
#
# Coordination Sequence:
#
# PCOD9418089 Si02
#       8
#     8   8   8   8   8   8   8   8
#     4  11  23  45  64  93 133 182 225 277 338 396
#     4  12  25  42  68  93 136 182 224 275 339 406
#     4  12  23  42  66 101 136 178 218 278 346 407
#     4  11  25  42  65  99 136 178 224 272 338 413
#     4  10  20  38  65  95 131 168 224 279 336 392
#     4  11  21  37  66  98 129 165 215 271 333 400
#     4  11  23  40  68  99 133 173 225 284 339 398
#     4  10  24  43  66  98 136 175 219 275 341 412
#
# _framework density 22.531237000000001
#
# number of rings (size 3 to 8) (size 9 to 14) (size 15 to 20)
#    0.000    1.000    5.000    2.250    0.000    6.750 
#    0.000    3.750    0.000    2.625    0.000    0.000 
#    0.000    0.000    0.000    0.000    0.000    0.000 
#
# Total GULP energy -357260.339861 kJ/mol
# GULP energy per Si atom -5582.192810 kJ/mol
# Density = 2.247996 g / cm^3
# Si number density = 22.531237 Si / 1000 Ang^3
#
#
#
# Elastic Constant Matrix: (Units=GPa)
#
#
# Indices 1 2 3 4 5 6 
#
# 1 101.2142 -11.7688 14.0240 0.0000 0.0000 0.0000
# 2 -11.7688 42.0172 7.4445 0.0000 0.0000 0.0000
# 3 14.0240 7.4445 108.8942 0.0000 0.0000 0.0000
# 4 0.0000 0.0000 0.0000 18.7414 0.0000 0.0000
# 5 0.0000 0.0000 0.0000 0.0000 -34.8970 0.0000
# 6 0.0000 0.0000 0.0000 0.0000 0.0000 22.4773
#
#
#
# Elastic Compliance Matrix: (Units=1/GPa)
#
#
# Indices 1 2 3 4 5 6 
#
# 1 0.010471 0.003211 -0.001568 0.000000 0.000000 0.000000
# 2 0.003211 0.025076 -0.002128 0.000000 0.000000 0.000000
# 3 -0.001568 -0.002128 0.009531 0.000000 0.000000 0.000000
# 4 0.000000 0.000000 0.000000 0.053358 0.000000 0.000000
# 5 0.000000 0.000000 0.000000 0.000000 -0.028656 0.000000
# 6 0.000000 0.000000 0.000000 0.000000 0.000000 0.044489
#
#
# Mechanical properties :
#
#
# Convention : Reuss Voigt Hill
#
# Bulk Modulus (GPa) = 22.67218 30.16943 26.42081
# Shear Modulus (GPa) = 38.47892 17.42607 27.95249
#
# Velocity S-wave (km/s) = 4.13704 2.78406 3.52605
# Velocity P-wave (km/s) = 5.73625 4.87378 5.32251
#
# Compressibility (1/GPa) = 0.04410692
#
# Stress axis : x y z
#
# Youngs Moduli (GPa) = 95.50544 39.87874 104.92500
#
# Poissons Ratio (x) = -0.12803 0.16452
# Poissons Ratio (y) = -0.30663 0.22326
# Poissons Ratio (z) = 0.14975 0.08485
#
# Static dielectric constant tensor:
#      x y z
#    x 1.919090 0.000000 0.000000 
#    y 0.000000 1.829440 0.000000 
#    z 0.000000 0.000000 1.871800 
# 
# From -- ./inp_files/28565.got.cif
#   From: 2010.05.17/outbox.cif.g08.bks.cpg/sg53_15_cif.got.tgz:28565.got - 2010.06.03 12:45:16.
