data_PCOD9418053
_publ_section_title
;
Structure prediction by ZEFSAII (Michael W. Deem and Ramdas Pophale) SiO2 
 PCOD9418053
Probable space group: P M N A
;
_chemical_formula_sum "Si O2"
_cell_formula_units_Z 48
_cell_length_a 14.761890
_cell_length_b 9.650979
_cell_length_c 15.035434
_cell_angle_alpha 90.000000
_cell_angle_beta 90.000000
_cell_angle_gamma 90.000000
_cell_volume 2142.048521
_symmetry_space_group_name_H-M "P M N A"
_symmetry_group_IT_number 53
_symmetry_cell_setting 'orthorhombic'
loop_
_space_group_symop_operation_xyz
x,y,z
1/2-x,-y,1/2+z
x,-y,-z
1/2-x,y,1/2-z
-x,-y,-z
1/2+x,y,1/2-z
-x,y,z
1/2+x,-y,1/2+z
loop_
_atom_site_type_symbol
_atom_site_label
_atom_site_fract_x
_atom_site_fract_y
_atom_site_fract_z
Si Si1 0.610049 0.724509 0.746954
Si Si2 0.604387 0.970679 0.198773
Si Si3 0.108777 0.363245 0.440063
Si Si4 0.835257 0.716079 0.185969
Si Si5 0.396072 0.453804 0.405856
Si Si6 0.726631 0.862365 0.039565
O O1 0.500000 0.723917 0.739302
O O2 0.629462 0.631059 0.834332
O O3 0.647343 0.667028 0.653623
O O4 0.638226 0.882514 0.764020
O O5 0.500000 0.989275 0.175065
O O6 0.615336 0.844990 0.267943
O O7 0.659070 0.924697 0.113164
O O8 0.127389 0.500000 0.500000
O O9 0.166604 0.234908 0.476758
O O10 0.000000 0.336863 0.448265
O O11 0.750000 0.680606 0.250000
O O12 0.893681 0.583099 0.161947
O O13 0.796969 0.769732 0.092621
O O14 0.354581 0.500000 0.500000
O O15 0.500000 0.413799 0.426038
O O16 0.771276 0.000000 0.000000
#
# Coordination Sequence:
#
# PCOD9418053 Si02
#       6
#     8   8   8   8   8   8
#     4   9  19  36  61  92 118 147 198 255 304 352
#     4  10  20  38  63  88 117 158 206 251 300 359
#     4  10  21  35  58  94 127 156 197 248 306 372
#     4  10  24  40  56  87 122 160 200 240 301 367
#     4  10  22  43  66  86 114 157 209 259 300 349
#     4  11  22  38  59  87 130 164 194 245 311 381
#
# _framework density 22.408456000000001
#
# number of rings (size 3 to 8) (size 9 to 14) (size 15 to 20)
#    0.000    2.000    1.667    1.000    4.667    2.667 
#    0.000    2.500    0.000    5.000    0.000    0.000 
#    0.000    0.000    0.000    0.000    0.000    0.000 
#
# Total GULP energy -268156.889709 kJ/mol
# GULP energy per Si atom -5586.601869 kJ/mol
# Density = 2.235745 g / cm^3
# Si number density = 22.408456 Si / 1000 Ang^3
#
#
#
# Elastic Constant Matrix: (Units=GPa)
#
#
# Indices 1 2 3 4 5 6 
#
# 1 41.8968 -11.5459 -18.0790 0.0000 0.0000 0.0000
# 2 -11.5459 84.7390 31.5787 0.0000 0.0000 0.0000
# 3 -18.0790 31.5787 98.2175 0.0000 0.0000 0.0000
# 4 0.0000 0.0000 0.0000 33.7819 0.0000 0.0000
# 5 0.0000 0.0000 0.0000 0.0000 -3.6848 0.0000
# 6 0.0000 0.0000 0.0000 0.0000 0.0000 461.3346
#
#
#
# Elastic Compliance Matrix: (Units=1/GPa)
#
#
# Indices 1 2 3 4 5 6 
#
# 1 0.026227 0.002016 0.004179 0.000000 0.000000 0.000000
# 2 0.002016 0.013562 -0.003989 0.000000 0.000000 0.000000
# 3 0.004179 -0.003989 0.012233 0.000000 0.000000 0.000000
# 4 0.000000 0.000000 0.000000 0.029602 0.000000 0.000000
# 5 0.000000 0.000000 0.000000 0.000000 -0.271385 0.000000
# 6 0.000000 0.000000 0.000000 0.000000 0.000000 0.002168
#
#
# Mechanical properties :
#
#
# Convention : Reuss Voigt Hill
#
# Bulk Modulus (GPa) = 17.71942 25.41787 21.56865
# Shear Modulus (GPa) = -28.86958 113.14629 42.13835
#
# Velocity S-wave (km/s) = -3.59323 7.11353 4.34114
# Velocity P-wave (km/s) = 3.04802 8.87904 5.89690
#
# Compressibility (1/GPa) = 0.05643524
#
# Stress axis : x y z
#
# Youngs Moduli (GPa) = 38.12824 73.73365 81.74279
#
# Poissons Ratio (x) = -0.14865 -0.34164
# Poissons Ratio (y) = -0.07687 0.32611
# Poissons Ratio (z) = -0.15936 0.29416
#
# Static dielectric constant tensor:
#      x y z
#    x 1.805540 0.000000 0.000000 
#    y 0.000000 1.805910 0.000000 
#    z 0.000000 0.000000 1.847760 
# 
# From -- ./inp_files/23603.got.cif
#   From: 2010.05.17/outbox.cif.g08.bks.cpg/sg53_12_cif.got.tgz:23603.got - 2010.06.03 12:45:16.
