data_PCOD9418684
_publ_section_title
;
Structure prediction by ZEFSAII (Michael W. Deem and Ramdas Pophale) SiO2 
 PCOD9418684
Probable space group: P M N A
;
_chemical_formula_sum "Si O2"
_cell_formula_units_Z 64
_cell_length_a 8.933668
_cell_length_b 21.041561
_cell_length_c 19.069105
_cell_angle_alpha 90.000000
_cell_angle_beta 90.000000
_cell_angle_gamma 90.000000
_cell_volume 3584.578325
_symmetry_space_group_name_H-M "P M N A"
_symmetry_group_IT_number 53
_symmetry_cell_setting 'orthorhombic'
loop_
_space_group_symop_operation_xyz
x,y,z
1/2-x,-y,1/2+z
x,-y,-z
1/2-x,y,1/2-z
-x,-y,-z
1/2+x,y,1/2-z
-x,y,z
1/2+x,-y,1/2+z
loop_
_atom_site_type_symbol
_atom_site_label
_atom_site_fract_x
_atom_site_fract_y
_atom_site_fract_z
Si Si1 0.178724 0.874369 0.324289
Si Si2 0.821466 0.194670 0.034147
Si Si3 0.678792 0.503095 0.582296
Si Si4 0.175531 0.395192 0.323760
Si Si5 0.179890 0.255851 0.598925
Si Si6 0.175928 0.242780 0.323984
Si Si7 0.180329 0.931092 0.470125
Si Si8 0.679800 0.610340 0.172586
O O1 0.250000 0.889287 0.250000
O O2 0.221844 0.803636 0.351157
O O3 0.218653 0.921445 0.388096
O O4 0.000000 0.874975 0.316744
O O5 0.757438 0.212126 0.109957
O O6 0.000000 0.195908 0.033997
O O7 0.758602 0.243363 0.975331
O O8 0.760452 0.125741 0.011086
O O9 0.714183 0.500000 0.500000
O O10 0.500000 0.499463 0.590928
O O11 0.740764 0.568111 0.614887
O O12 0.755432 0.446202 0.625247
O O13 0.250000 0.414379 0.250000
O O14 0.189974 0.319312 0.330521
O O15 0.000000 0.411468 0.323365
O O16 0.216434 0.322358 0.635474
O O17 0.000000 0.252923 0.588223
O O18 0.250000 0.224460 0.250000
O O19 0.000000 0.227143 0.324172
O O20 0.000000 0.922405 0.476414
O O21 0.218899 0.000000 0.500000
O O22 0.750000 0.607956 0.250000
O O23 0.500000 0.605129 0.177442
#
# Coordination Sequence:
#
# PCOD9418684 Si02
#       8
#     8   8   8   8   8   8   8   8
#     4   9  17  31  53  81 111 142 182 226 274 326
#     4  11  22  35  57  87 118 150 184 231 283 333
#     4  11  25  41  56  78 110 146 186 234 282 335
#     4  10  21  38  61  83 106 141 183 231 283 339
#     4   9  20  37  56  81 112 149 187 226 274 335
#     4  10  21  38  60  86 114 146 187 235 285 338
#     4   9  19  38  60  80 110 155 198 233 276 331
#     4  11  23  39  60  83 112 147 186 231 282 338
#
# _framework density 17.854261999999999
#
# number of rings (size 3 to 8) (size 9 to 14) (size 15 to 20)
#    0.000    2.000    0.000    4.125    1.750    5.750 
#    0.000    0.625    0.000    1.500    0.000    0.000 
#    0.000    0.000    0.000    0.000    0.000    0.000 
#
# Total GULP energy -357484.687789 kJ/mol
# GULP energy per Si atom -5585.698247 kJ/mol
# Density = 1.781363 g / cm^3
# Si number density = 17.854262 Si / 1000 Ang^3
#
#
#
# Elastic Constant Matrix: (Units=GPa)
#
#
# Indices 1 2 3 4 5 6 
#
# 1 79.1877 46.7858 81.4473 0.0000 0.0000 0.0000
# 2 46.7858 59.2290 65.2897 0.0000 0.0000 0.0000
# 3 81.4473 65.2897 185.3471 0.0000 0.0000 0.0000
# 4 0.0000 0.0000 0.0000 22.3810 0.0000 0.0000
# 5 0.0000 0.0000 0.0000 0.0000 34.3231 0.0000
# 6 0.0000 0.0000 0.0000 0.0000 0.0000 13.6104
#
#
#
# Elastic Compliance Matrix: (Units=1/GPa)
#
#
# Indices 1 2 3 4 5 6 
#
# 1 0.029104 -0.014536 -0.007669 0.000000 0.000000 0.000000
# 2 -0.014536 0.034861 -0.005892 0.000000 0.000000 0.000000
# 3 -0.007669 -0.005892 0.010841 0.000000 0.000000 0.000000
# 4 0.000000 0.000000 0.000000 0.044681 0.000000 0.000000
# 5 0.000000 0.000000 0.000000 0.000000 0.029135 0.000000
# 6 0.000000 0.000000 0.000000 0.000000 0.000000 0.073473
#
#
# Mechanical properties :
#
#
# Convention : Reuss Voigt Hill
#
# Bulk Modulus (GPa) = 53.73053 78.97881 66.35467
# Shear Modulus (GPa) = 17.57505 22.74563 20.16034
#
# Velocity S-wave (km/s) = 3.14086 3.57313 3.36395
# Velocity P-wave (km/s) = 6.58123 7.83290 7.23419
#
# Compressibility (1/GPa) = 0.01861139
#
# Stress axis : x y z
#
# Youngs Moduli (GPa) = 34.35927 28.68499 92.24370
#
# Poissons Ratio (x) = 0.41697 0.70740
# Poissons Ratio (y) = 0.49946 0.54354
# Poissons Ratio (z) = 0.26349 0.16903
#
# Static dielectric constant tensor:
#      x y z
#    x 1.595880 0.000000 0.000000 
#    y 0.000000 1.596950 0.000000 
#    z 0.000000 0.000000 1.550920 
# 
# From -- ./inp_files/26842.got.cif
#   From: 2010.05.17/outbox.cif.g08.bks.cpg/sg53_14_cif.got.tgz:26842.got - 2010.06.03 12:45:16.
