data_PCOD9418840
_publ_section_title
;
Structure prediction by ZEFSAII (Michael W. Deem and Ramdas Pophale) SiO2 
 PCOD9418840
Probable space group: P M N A
;
_chemical_formula_sum "Si O2"
_cell_formula_units_Z 48
_cell_length_a 21.449754
_cell_length_b 14.162913
_cell_length_c 7.785132
_cell_angle_alpha 90.000000
_cell_angle_beta 90.000000
_cell_angle_gamma 90.000000
_cell_volume 2365.053034
_symmetry_space_group_name_H-M "P M N A"
_symmetry_group_IT_number 53
_symmetry_cell_setting 'orthorhombic'
loop_
_space_group_symop_operation_xyz
x,y,z
1/2-x,-y,1/2+z
x,-y,-z
1/2-x,y,1/2-z
-x,-y,-z
1/2+x,y,1/2-z
-x,y,z
1/2+x,-y,1/2+z
loop_
_atom_site_type_symbol
_atom_site_label
_atom_site_fract_x
_atom_site_fract_y
_atom_site_fract_z
Si Si1 0.067552 0.254058 0.947495
Si Si2 0.322468 0.391601 0.455346
Si Si3 0.180580 0.038713 0.690256
Si Si4 0.179658 0.391311 0.455430
Si Si5 0.428540 0.902501 0.743254
Si Si6 0.388871 0.210797 0.910511
O O1 0.066374 0.218603 0.752094
O O2 0.000000 0.298765 0.988014
O O3 0.125532 0.324245 0.966461
O O4 0.076143 0.170000 0.084801
O O5 0.336072 0.500000 0.500000
O O6 0.251220 0.372955 0.513041
O O7 0.323130 0.380388 0.249834
O O8 0.250000 0.017892 0.750000
O O9 0.167274 0.149117 0.670728
O O10 0.177023 0.000000 0.500000
O O11 0.123490 0.983675 0.780563
O O12 0.164709 0.500000 0.500000
O O13 0.134440 0.313729 0.534944
O O14 0.500000 0.938657 0.751325
O O15 0.414507 0.844964 0.921521
#
# Coordination Sequence:
#
# PCOD9418840 Si02
#       6
#     8   8   8   8   8   8
#     4  11  24  39  64  93 125 173 215 260 320 381
#     4  10  21  39  63  92 128 165 214 266 316 389
#     4  10  25  41  64  96 128 170 213 270 327 379
#     4  10  21  39  65  97 127 166 209 263 330 378
#     4  10  23  45  66  90 128 172 220 270 318 382
#     4  11  23  40  65  95 127 168 210 269 319 385
#
# _framework density 20.295525999999999
#
# number of rings (size 3 to 8) (size 9 to 14) (size 15 to 20)
#    0.000    1.667    1.667    1.500    4.667    6.667 
#    0.000    1.667    0.000    2.500    0.000    0.000 
#    0.000    0.000    0.000    0.000    0.000    0.000 
#
# Total GULP energy -267965.141513 kJ/mol
# GULP energy per Si atom -5582.607115 kJ/mol
# Density = 2.024933 g / cm^3
# Si number density = 20.295526 Si / 1000 Ang^3
#
#
#
# Elastic Constant Matrix: (Units=GPa)
#
#
# Indices 1 2 3 4 5 6 
#
# 1 117.4000 54.8345 31.9123 0.0000 0.0000 0.0000
# 2 54.8345 76.1918 28.4387 0.0000 0.0000 0.0000
# 3 31.9123 28.4387 100.2443 0.0000 0.0000 0.0000
# 4 0.0000 0.0000 0.0000 2.4594 0.0000 0.0000
# 5 0.0000 0.0000 0.0000 0.0000 6.7170 0.0000
# 6 0.0000 0.0000 0.0000 0.0000 0.0000 39.2922
#
#
#
# Elastic Compliance Matrix: (Units=1/GPa)
#
#
# Indices 1 2 3 4 5 6 
#
# 1 0.013076 -0.008788 -0.001670 0.000000 0.000000 0.000000
# 2 -0.008788 0.020585 -0.003042 0.000000 0.000000 0.000000
# 3 -0.001670 -0.003042 0.011370 0.000000 0.000000 0.000000
# 4 0.000000 0.000000 0.000000 0.406600 0.000000 0.000000
# 5 0.000000 0.000000 0.000000 0.000000 0.148877 0.000000
# 6 0.000000 0.000000 0.000000 0.000000 0.000000 0.025450
#
#
# Mechanical properties :
#
#
# Convention : Reuss Voigt Hill
#
# Bulk Modulus (GPa) = 55.45727 58.24526 56.85126
# Shear Modulus (GPa) = 7.58762 21.60374 14.59568
#
# Velocity S-wave (km/s) = 1.93564 3.26614 2.68462
# Velocity P-wave (km/s) = 5.69032 6.55625 6.13858
#
# Compressibility (1/GPa) = 0.01803190
#
# Stress axis : x y z
#
# Youngs Moduli (GPa) = 76.47463 48.57989 87.94868
#
# Poissons Ratio (x) = 0.42690 0.14685
# Poissons Ratio (y) = 0.67203 0.26756
# Poissons Ratio (z) = 0.12769 0.14779
#
# Static dielectric constant tensor:
#      x y z
#    x 2.051050 0.000000 0.000000 
#    y 0.000000 1.721490 0.000000 
#    z 0.000000 0.000000 1.740060 
# 
# From -- ./inp_files/9957.got.cif
#   From: 2010.05.17/outbox.cif.g08.bks.cpg/sg53_5_cif.got.tgz:9957.got - 2010.06.03 12:45:16.
