data_PCOD9418398
_publ_section_title
;
Structure prediction by ZEFSAII (Michael W. Deem and Ramdas Pophale) SiO2 
 PCOD9418398
Probable space group: P M N A
;
_chemical_formula_sum "Si O2"
_cell_formula_units_Z 48
_cell_length_a 24.751860
_cell_length_b 11.447631
_cell_length_c 9.630785
_cell_angle_alpha 90.000000
_cell_angle_beta 90.000000
_cell_angle_gamma 90.000000
_cell_volume 2728.884469
_symmetry_space_group_name_H-M "P M N A"
_symmetry_group_IT_number 53
_symmetry_cell_setting 'orthorhombic'
loop_
_space_group_symop_operation_xyz
x,y,z
1/2-x,-y,1/2+z
x,-y,-z
1/2-x,y,1/2-z
-x,-y,-z
1/2+x,y,1/2-z
-x,y,z
1/2+x,-y,1/2+z
loop_
_atom_site_type_symbol
_atom_site_label
_atom_site_fract_x
_atom_site_fract_y
_atom_site_fract_z
Si Si1 0.156777 0.638063 0.493991
Si Si2 0.784416 0.641483 0.008322
Si Si3 0.935909 0.861043 0.990951
Si Si4 0.196437 0.011204 0.664525
Si Si5 0.648087 0.768817 0.727883
Si Si6 0.636092 0.763638 0.271384
O O1 0.154748 0.500000 0.500000
O O2 0.220810 0.670476 0.479454
O O3 0.136010 0.693916 0.635994
O O4 0.125137 0.682102 0.359577
O O5 0.810055 0.698611 0.870239
O O6 0.790042 0.500000 0.000000
O O7 0.818038 0.699132 0.134797
O O8 0.912621 0.796811 0.126988
O O9 0.000000 0.849016 0.978086
O O10 0.903602 0.803699 0.863510
O O11 0.922890 0.000000 0.000000
O O12 0.250000 0.038062 0.750000
O O13 0.174480 0.888844 0.720788
O O14 0.205812 0.000000 0.500000
O O15 0.156664 0.115982 0.703487
#
# Coordination Sequence:
#
# PCOD9418398 Si02
#       6
#     8   8   8   8   8   8
#     4  11  21  36  57  84 120 158 190 228 276 337
#     4  10  21  36  55  83 121 164 198 221 263 340
#     4  10  22  42  63  82 108 145 194 242 294 349
#     4  12  24  34  54  87 127 159 181 224 282 343
#     4  11  22  36  57  85 116 151 194 237 282 337
#     4  11  22  36  57  85 116 151 194 237 282 337
#
# _framework density 17.589603
#
# number of rings (size 3 to 8) (size 9 to 14) (size 15 to 20)
#    0.000    1.167    3.333    4.000    4.667    2.667 
#    0.000    0.833    0.000   22.000    0.000    0.000 
#    0.000    0.000    0.000    0.000    0.000    0.000 
#
# Total GULP energy -268194.558020 kJ/mol
# GULP energy per Si atom -5587.386625 kJ/mol
# Density = 1.754957 g / cm^3
# Si number density = 17.589603 Si / 1000 Ang^3
#
#
#
# Elastic Constant Matrix: (Units=GPa)
#
#
# Indices 1 2 3 4 5 6 
#
# 1 58.5609 18.2772 22.2271 0.0000 0.0000 0.0000
# 2 18.2772 84.0100 25.4965 0.0000 0.0000 0.0000
# 3 22.2271 25.4965 120.9239 0.0000 0.0000 0.0000
# 4 0.0000 0.0000 0.0000 29.8030 0.0000 0.0000
# 5 0.0000 0.0000 0.0000 0.0000 11.4817 0.0000
# 6 0.0000 0.0000 0.0000 0.0000 0.0000 23.0634
#
#
#
# Elastic Compliance Matrix: (Units=1/GPa)
#
#
# Indices 1 2 3 4 5 6 
#
# 1 0.019184 -0.003316 -0.002827 0.000000 0.000000 0.000000
# 2 -0.003316 0.013290 -0.002193 0.000000 0.000000 0.000000
# 3 -0.002827 -0.002193 0.009252 0.000000 0.000000 0.000000
# 4 0.000000 0.000000 0.000000 0.033554 0.000000 0.000000
# 5 0.000000 0.000000 0.000000 0.000000 0.087095 0.000000
# 6 0.000000 0.000000 0.000000 0.000000 0.000000 0.043359
#
#
# Mechanical properties :
#
#
# Convention : Reuss Voigt Hill
#
# Bulk Modulus (GPa) = 39.91245 43.94404 41.92824
# Shear Modulus (GPa) = 21.66787 26.03588 23.85188
#
# Velocity S-wave (km/s) = 3.51359 3.85149 3.68641
# Velocity P-wave (km/s) = 6.26104 6.69446 6.48138
#
# Compressibility (1/GPa) = 0.02505484
#
# Stress axis : x y z
#
# Youngs Moduli (GPa) = 52.12644 75.24347 108.08878
#
# Poissons Ratio (x) = 0.24948 0.30558
# Poissons Ratio (y) = 0.17283 0.23701
# Poissons Ratio (z) = 0.14737 0.16499
#
# Static dielectric constant tensor:
#      x y z
#    x 1.566540 0.000000 0.000000 
#    y 0.000000 1.635730 0.000000 
#    z 0.000000 0.000000 1.599090 
# 
# From -- ./inp_files/11744.got.cif
#   From: 2010.05.17/outbox.cif.g08.bks.cpg/sg53_6_cif.got.tgz:11744.got - 2010.06.03 12:45:16.
