data_PCOD9418911
_publ_section_title
;
Structure prediction by ZEFSAII (Michael W. Deem and Ramdas Pophale) SiO2 
 PCOD9418911
Probable space group: P M N A
;
_chemical_formula_sum "Si O2"
_cell_formula_units_Z 64
_cell_length_a 28.795540
_cell_length_b 9.615657
_cell_length_c 10.849982
_cell_angle_alpha 90.000000
_cell_angle_beta 90.000000
_cell_angle_gamma 90.000000
_cell_volume 3004.230204
_symmetry_space_group_name_H-M "P M N A"
_symmetry_group_IT_number 53
_symmetry_cell_setting 'orthorhombic'
loop_
_space_group_symop_operation_xyz
x,y,z
1/2-x,-y,1/2+z
x,-y,-z
1/2-x,y,1/2-z
-x,-y,-z
1/2+x,y,1/2-z
-x,y,z
1/2+x,-y,1/2+z
loop_
_atom_site_type_symbol
_atom_site_label
_atom_site_fract_x
_atom_site_fract_y
_atom_site_fract_z
Si Si1 0.447712 0.645687 0.778606
Si Si2 0.643640 0.709296 0.342911
Si Si3 0.784258 0.640446 0.945626
Si Si4 0.191732 0.207988 0.439056
Si Si5 0.552620 0.322534 0.753034
Si Si6 0.695980 0.065301 0.797328
Si Si7 0.151680 0.419007 0.273093
Si Si8 0.944683 0.845958 0.486200
O O1 0.500000 0.677464 0.726024
O O2 0.449653 0.479926 0.805467
O O3 0.396456 0.644684 0.717126
O O4 0.441411 0.746545 0.895615
O O5 0.673499 0.667906 0.461106
O O6 0.588309 0.698792 0.358351
O O7 0.663458 0.856818 0.300264
O O8 0.650853 0.586208 0.240286
O O9 0.746122 0.757275 0.939540
O O10 0.805156 0.619582 0.812048
O O11 0.761439 0.500000 0.000000
O O12 0.185786 0.146581 0.574813
O O13 0.161965 0.343746 0.402374
O O14 0.183547 0.092166 0.333734
O O15 0.500000 0.284990 0.719442
O O16 0.571972 0.227777 0.862924
O O17 0.750000 0.075857 0.750000
O O18 0.000000 0.861518 0.466081
O O19 0.924205 0.000000 0.500000
#
# Coordination Sequence:
#
# PCOD9418911 Si02
#       8
#     8   8   8   8   8   8   8   8
#     4   9  18  34  53  77 113 151 187 234 287 337
#     4  10  22  38  60  85 118 153 193 239 288 345
#     4  10  21  40  62  85 117 154 194 242 294 343
#     4  11  24  39  61  84 116 151 190 241 288 350
#     4   9  18  34  55  79 110 150 192 233 283 345
#     4  11  23  40  59  85 116 150 190 235 296 349
#     4  10  22  37  59  88 113 151 201 235 282 348
#     4   9  17  29  48  74 106 142 181 232 287 332
#
# _framework density 21.303294000000001
#
# number of rings (size 3 to 8) (size 9 to 14) (size 15 to 20)
#    0.000    2.125    1.250    1.500    3.500    2.500 
#    0.000    0.625    0.000    3.750    0.000    0.000 
#    0.000    7.000    0.000    0.000    0.000    0.000 
#
# Total GULP energy -356507.853602 kJ/mol
# GULP energy per Si atom -5570.435213 kJ/mol
# Density = 2.125481 g / cm^3
# Si number density = 21.303294 Si / 1000 Ang^3
#
#
#
# Elastic Constant Matrix: (Units=GPa)
#
#
# Indices 1 2 3 4 5 6 
#
# 1 92.2437 26.6840 -0.6825 0.0000 0.0000 0.0000
# 2 26.6840 53.4703 12.0207 0.0000 0.0000 0.0000
# 3 -0.6825 12.0207 16.8336 0.0000 0.0000 0.0000
# 4 0.0000 0.0000 0.0000 16.6258 0.0000 0.0000
# 5 0.0000 0.0000 0.0000 0.0000 16.6943 0.0000
# 6 0.0000 0.0000 0.0000 0.0000 0.0000 13.4839
#
#
#
# Elastic Compliance Matrix: (Units=1/GPa)
#
#
# Indices 1 2 3 4 5 6 
#
# 1 0.013198 -0.007989 0.006240 0.000000 0.000000 0.000000
# 2 -0.007989 0.027115 -0.019686 0.000000 0.000000 0.000000
# 3 0.006240 -0.019686 0.073716 0.000000 0.000000 0.000000
# 4 0.000000 0.000000 0.000000 0.060148 0.000000 0.000000
# 5 0.000000 0.000000 0.000000 0.000000 0.059901 0.000000
# 6 0.000000 0.000000 0.000000 0.000000 0.000000 0.074162
#
#
# Mechanical properties :
#
#
# Convention : Reuss Voigt Hill
#
# Bulk Modulus (GPa) = 14.05328 26.51024 20.28176
# Shear Modulus (GPa) = 13.33942 17.66249 15.50096
#
# Velocity S-wave (km/s) = 2.50505 2.88253 2.70039
# Velocity P-wave (km/s) = 3.87016 4.85282 4.38907
#
# Compressibility (1/GPa) = 0.07115776
#
# Stress axis : x y z
#
# Youngs Moduli (GPa) = 75.76820 36.88045 13.56565
#
# Poissons Ratio (x) = 0.29465 -0.08465
# Poissons Ratio (y) = 0.60534 0.26706
# Poissons Ratio (z) = -0.47280 0.72603
#
# Static dielectric constant tensor:
#      x y z
#    x 1.832700 0.000000 0.000000 
#    y 0.000000 1.800670 0.000000 
#    z 0.000000 0.000000 1.746890 
# 
# From -- ./inp_files/19024.got.cif
#   From: 2010.05.17/outbox.cif.g08.bks.cpg/sg53_10_cif.got.tgz:19024.got - 2010.06.03 12:45:16.
