data_PCOD9418077
_publ_section_title
;
Structure prediction by ZEFSAII (Michael W. Deem and Ramdas Pophale) SiO2 
 PCOD9418077
Probable space group: P M N A
;
_chemical_formula_sum "Si O2"
_cell_formula_units_Z 48
_cell_length_a 15.571394
_cell_length_b 15.612481
_cell_length_c 9.249813
_cell_angle_alpha 90.000000
_cell_angle_beta 90.000000
_cell_angle_gamma 90.000000
_cell_volume 2248.704399
_symmetry_space_group_name_H-M "P M N A"
_symmetry_group_IT_number 53
_symmetry_cell_setting 'orthorhombic'
loop_
_space_group_symop_operation_xyz
x,y,z
1/2-x,-y,1/2+z
x,-y,-z
1/2-x,y,1/2-z
-x,-y,-z
1/2+x,y,1/2-z
-x,y,z
1/2+x,-y,1/2+z
loop_
_atom_site_type_symbol
_atom_site_label
_atom_site_fract_x
_atom_site_fract_y
_atom_site_fract_z
Si Si1 0.500000 0.000442 0.247062
Si Si2 0.656281 0.220041 0.560055
Si Si3 0.399572 0.580422 0.094210
Si Si4 0.649189 0.233321 0.887730
Si Si5 0.100897 0.587870 0.061420
Si Si6 0.000000 0.135570 0.487399
Si Si7 0.676106 0.941836 0.626556
O O1 0.591974 0.002313 0.326646
O O2 0.500000 0.929819 0.121842
O O3 0.500000 0.089277 0.162616
O O4 0.615895 0.217804 0.722826
O O5 0.755611 0.201072 0.592771
O O6 0.640623 0.319872 0.519148
O O7 0.638042 0.147331 0.440758
O O8 0.500000 0.595822 0.056458
O O9 0.347768 0.666892 0.073057
O O10 0.395610 0.571244 0.266687
O O11 0.370506 0.500000 0.000000
O O12 0.584556 0.190353 0.995841
O O13 0.000000 0.593239 0.019394
O O14 0.139350 0.500000 0.000000
O O15 0.750000 0.929137 0.750000
O O16 0.717622 0.000000 0.500000
#
# Coordination Sequence:
#
# PCOD9418077 Si02
#       7
#     4   8   8   8   8   4   8
#     4  11  27  44  68 100 132 173 227 279 342 416
#     4  10  23  39  65  92 134 166 226 262 336 403
#     4   9  17  33  55  88 120 159 216 260 307 385
#     4  10  20  38  64  95 122 176 210 272 327 394
#     4   9  19  38  61  88 125 174 213 263 330 388
#     4  11  22  42  69  92 132 164 228 270 337 401
#     4  12  28  47  71 101 139 178 227 287 349 409
#
# _framework density 21.345624000000001
#
# number of rings (size 3 to 8) (size 9 to 14) (size 15 to 20)
#    0.000    1.833    0.833    2.250    9.333    0.667 
#    6.000    0.000    0.000    0.000    0.000    0.000 
#    0.000    0.000    0.000    0.000    0.000    0.000 
#
# Total GULP energy -267575.493516 kJ/mol
# GULP energy per Si atom -5574.489448 kJ/mol
# Density = 2.129704 g / cm^3
# Si number density = 21.345624 Si / 1000 Ang^3
#
#
#
# Elastic Constant Matrix: (Units=GPa)
#
#
# Indices 1 2 3 4 5 6 
#
# 1 53.9886 0.1421 10.5589 0.0000 0.0000 0.0000
# 2 0.1421 89.9826 34.4314 0.0000 0.0000 0.0000
# 3 10.5589 34.4314 47.3713 0.0000 0.0000 0.0000
# 4 0.0000 0.0000 0.0000 43.0325 0.0000 0.0000
# 5 0.0000 0.0000 0.0000 0.0000 28.4117 0.0000
# 6 0.0000 0.0000 0.0000 0.0000 0.0000 42.2177
#
#
#
# Elastic Compliance Matrix: (Units=1/GPa)
#
#
# Indices 1 2 3 4 5 6 
#
# 1 0.019700 0.002284 -0.006052 0.000000 0.000000 0.000000
# 2 0.002284 0.015660 -0.011891 0.000000 0.000000 0.000000
# 3 -0.006052 -0.011891 0.031102 0.000000 0.000000 0.000000
# 4 0.000000 0.000000 0.000000 0.023238 0.000000 0.000000
# 5 0.000000 0.000000 0.000000 0.000000 0.035197 0.000000
# 6 0.000000 0.000000 0.000000 0.000000 0.000000 0.023687
#
#
# Mechanical properties :
#
#
# Convention : Reuss Voigt Hill
#
# Bulk Modulus (GPa) = 28.45374 31.28970 29.87172
# Shear Modulus (GPa) = 26.09393 32.47970 29.28682
#
# Velocity S-wave (km/s) = 3.50015 3.90501 3.70811
# Velocity P-wave (km/s) = 5.44919 5.91799 5.68842
#
# Compressibility (1/GPa) = 0.03514476
#
# Stress axis : x y z
#
# Youngs Moduli (GPa) = 50.76151 63.85753 32.15238
#
# Poissons Ratio (x) = -0.14588 0.19457
# Poissons Ratio (y) = -0.11596 0.38234
# Poissons Ratio (z) = 0.30718 0.75936
#
# Static dielectric constant tensor:
#      x y z
#    x 1.706520 0.000000 0.000000 
#    y 0.000000 1.789630 0.000000 
#    z 0.000000 0.000000 1.801120 
# 
# From -- ./inp_files/10032.got.cif
#   From: 2010.05.17/outbox.cif.g08.bks.cpg/sg53_6_cif.got.tgz:10032.got - 2010.06.03 12:45:16.
