data_PCOD9418879
_publ_section_title
;
Structure prediction by ZEFSAII (Michael W. Deem and Ramdas Pophale) SiO2 
 PCOD9418879
Probable space group: P M N A
;
_chemical_formula_sum "Si O2"
_cell_formula_units_Z 48
_cell_length_a 8.761247
_cell_length_b 15.364658
_cell_length_c 19.325424
_cell_angle_alpha 90.000000
_cell_angle_beta 90.000000
_cell_angle_gamma 90.000000
_cell_volume 2601.464197
_symmetry_space_group_name_H-M "P M N A"
_symmetry_group_IT_number 53
_symmetry_cell_setting 'orthorhombic'
loop_
_space_group_symop_operation_xyz
x,y,z
1/2-x,-y,1/2+z
x,-y,-z
1/2-x,y,1/2-z
-x,-y,-z
1/2+x,y,1/2-z
-x,y,z
1/2+x,-y,1/2+z
loop_
_atom_site_type_symbol
_atom_site_label
_atom_site_fract_x
_atom_site_fract_y
_atom_site_fract_z
Si Si1 0.682306 0.124377 0.673504
Si Si2 0.317723 0.528339 0.079510
Si Si3 0.682456 0.375718 0.326740
Si Si4 0.816440 0.718217 0.071456
Si Si5 0.683352 0.975120 0.921740
Si Si6 0.683286 0.772783 0.922695
O O1 0.750000 0.128494 0.750000
O O2 0.500000 0.121396 0.677681
O O3 0.725235 0.209013 0.628081
O O4 0.741178 0.039943 0.632507
O O5 0.500000 0.528780 0.089986
O O6 0.241176 0.458363 0.129665
O O7 0.249764 0.624054 0.090142
O O8 0.288666 0.500000 0.000000
O O9 0.750000 0.378909 0.250000
O O10 0.500000 0.375025 0.324740
O O11 0.743763 0.290544 0.366348
O O12 0.000000 0.713921 0.066053
O O13 0.747259 0.746476 0.997772
O O14 0.500000 0.985708 0.917929
O O15 0.719042 0.873971 0.909313
O O16 0.730757 0.000000 0.000000
O O17 0.500000 0.761965 0.922995
#
# Coordination Sequence:
#
# PCOD9418879 Si02
#       6
#     8   8   8   8   8   8
#     4  11  25  42  63  92 129 167 209 260 315 372
#     4  11  23  40  66  96 127 166 211 257 311 374
#     4  12  26  44  66  93 130 167 208 261 317 374
#     4  11  23  39  63  95 126 165 212 261 313 371
#     4  10  21  39  65  94 125 165 209 257 312 373
#     4  11  22  39  65  95 126 164 211 259 312 375
#
# _framework density 18.451146999999999
#
# number of rings (size 3 to 8) (size 9 to 14) (size 15 to 20)
#    0.000    1.000    3.333    3.500    0.000    5.667 
#    0.000    1.667    0.000    0.000    0.000    0.000 
#    0.000    0.000    0.000    0.000    0.000    0.000 
#
# Total GULP energy -268522.445072 kJ/mol
# GULP energy per Si atom -5594.217606 kJ/mol
# Density = 1.840915 g / cm^3
# Si number density = 18.451147 Si / 1000 Ang^3
#
#
#
# Elastic Constant Matrix: (Units=GPa)
#
#
# Indices 1 2 3 4 5 6 
#
# 1 100.0832 95.2877 87.3424 0.0000 0.0000 0.0000
# 2 95.2877 200.4905 113.9348 0.0000 0.0000 0.0000
# 3 87.3424 113.9348 184.3791 0.0000 0.0000 0.0000
# 4 0.0000 0.0000 0.0000 29.1468 0.0000 0.0000
# 5 0.0000 0.0000 0.0000 0.0000 21.2407 0.0000
# 6 0.0000 0.0000 0.0000 0.0000 0.0000 38.0670
#
#
#
# Elastic Compliance Matrix: (Units=1/GPa)
#
#
# Indices 1 2 3 4 5 6 
#
# 1 0.021936 -0.006967 -0.006086 0.000000 0.000000 0.000000
# 2 -0.006967 0.009900 -0.002817 0.000000 0.000000 0.000000
# 3 -0.006086 -0.002817 0.010048 0.000000 0.000000 0.000000
# 4 0.000000 0.000000 0.000000 0.034309 0.000000 0.000000
# 5 0.000000 0.000000 0.000000 0.000000 0.047079 0.000000
# 6 0.000000 0.000000 0.000000 0.000000 0.000000 0.026269
#
#
# Mechanical properties :
#
#
# Convention : Reuss Voigt Hill
#
# Bulk Modulus (GPa) = 98.59132 119.78696 109.18914
# Shear Modulus (GPa) = 27.07618 30.25010 28.66314
#
# Velocity S-wave (km/s) = 3.83489 4.05343 3.94567
# Velocity P-wave (km/s) = 8.55326 9.32572 8.94783
#
# Compressibility (1/GPa) = 0.01014288
#
# Stress axis : x y z
#
# Youngs Moduli (GPa) = 45.58618 101.01023 99.52606
#
# Poissons Ratio (x) = 0.70375 0.60575
# Poissons Ratio (y) = 0.31760 0.28038
# Poissons Ratio (z) = 0.27745 0.28457
#
# Static dielectric constant tensor:
#      x y z
#    x 1.617010 0.000000 0.000000 
#    y 0.000000 1.614270 0.000000 
#    z 0.000000 0.000000 1.598940 
# 
# From -- ./inp_files/26193.got.cif
#   From: 2010.05.17/outbox.cif.g08.bks.cpg/sg53_14_cif.got.tgz:26193.got - 2010.06.03 12:45:16.
