data_PCOD9418609
_publ_section_title
;
Structure prediction by ZEFSAII (Michael W. Deem and Ramdas Pophale) SiO2 
 PCOD9418609
Probable space group: P M N A
;
_chemical_formula_sum "Si O2"
_cell_formula_units_Z 48
_cell_length_a 8.779633
_cell_length_b 9.848907
_cell_length_c 28.469233
_cell_angle_alpha 90.000000
_cell_angle_beta 90.000000
_cell_angle_gamma 90.000000
_cell_volume 2461.728568
_symmetry_space_group_name_H-M "P M N A"
_symmetry_group_IT_number 53
_symmetry_cell_setting 'orthorhombic'
loop_
_space_group_symop_operation_xyz
x,y,z
1/2-x,-y,1/2+z
x,-y,-z
1/2-x,y,1/2-z
-x,-y,-z
1/2+x,y,1/2-z
-x,y,z
1/2+x,-y,1/2+z
loop_
_atom_site_type_symbol
_atom_site_label
_atom_site_fract_x
_atom_site_fract_y
_atom_site_fract_z
Si Si1 0.823703 0.710872 0.701658
Si Si2 0.317397 0.593954 0.545231
Si Si3 0.321860 0.017531 0.145176
Si Si4 0.315731 0.100885 0.042369
Si Si5 0.684160 0.534029 0.140125
Si Si6 0.819579 0.774760 0.198052
O O1 0.750000 0.752580 0.750000
O O2 0.812616 0.829483 0.663926
O O3 0.760426 0.574455 0.679060
O O4 0.000000 0.685648 0.711472
O O5 0.282772 0.500000 0.500000
O O6 0.500000 0.600677 0.550639
O O7 0.254420 0.747905 0.539947
O O8 0.245373 0.519785 0.590510
O O9 0.500000 0.974388 0.147936
O O10 0.273504 0.026012 0.091062
O O11 0.223385 0.923367 0.178866
O O12 0.500000 0.116743 0.042677
O O13 0.273826 0.000000 0.000000
O O14 0.500000 0.535896 0.138543
O O15 0.747046 0.675598 0.159025
O O16 0.750000 0.752807 0.250000
O O17 0.000000 0.755852 0.200578
#
# Coordination Sequence:
#
# PCOD9418609 Si02
#       6
#     8   8   8   8   8   8
#     4  10  21  37  61  90 121 155 202 254 308 370
#     4  11  25  43  64  96 133 167 208 261 321 385
#     4  10  21  41  63  92 128 164 212 263 312 377
#     4  10  22  42  68  97 126 166 216 262 317 384
#     4  11  23  43  67  92 124 167 213 264 317 376
#     4  12  26  43  63  94 131 172 217 261 317 378
#
# _framework density 19.498494000000001
#
# number of rings (size 3 to 8) (size 9 to 14) (size 15 to 20)
#    0.000    1.333    1.667    3.500    2.333    7.000 
#    0.000    0.000    0.000    0.000    0.000    0.000 
#    0.000    0.000    0.000    0.000    0.000    0.000 
#
# Total GULP energy -268149.610369 kJ/mol
# GULP energy per Si atom -5586.450216 kJ/mol
# Density = 1.945411 g / cm^3
# Si number density = 19.498494 Si / 1000 Ang^3
#
#
#
# Elastic Constant Matrix: (Units=GPa)
#
#
# Indices 1 2 3 4 5 6 
#
# 1 58.5867 21.7310 24.8219 0.0000 0.0000 0.0000
# 2 21.7310 54.8033 -0.9740 0.0000 0.0000 0.0000
# 3 24.8219 -0.9740 85.4186 0.0000 0.0000 0.0000
# 4 0.0000 0.0000 0.0000 29.1033 0.0000 0.0000
# 5 0.0000 0.0000 0.0000 0.0000 28.5027 0.0000
# 6 0.0000 0.0000 0.0000 0.0000 0.0000 31.8812
#
#
#
# Elastic Compliance Matrix: (Units=1/GPa)
#
#
# Indices 1 2 3 4 5 6 
#
# 1 0.023513 -0.009447 -0.006940 0.000000 0.000000 0.000000
# 2 -0.009447 0.022046 0.002997 0.000000 0.000000 0.000000
# 3 -0.006940 0.002997 0.013758 0.000000 0.000000 0.000000
# 4 0.000000 0.000000 0.000000 0.034360 0.000000 0.000000
# 5 0.000000 0.000000 0.000000 0.000000 0.035084 0.000000
# 6 0.000000 0.000000 0.000000 0.000000 0.000000 0.031366
#
#
# Mechanical properties :
#
#
# Convention : Reuss Voigt Hill
#
# Bulk Modulus (GPa) = 30.73526 32.21848 31.47687
# Shear Modulus (GPa) = 25.28367 28.11276 26.69821
#
# Velocity S-wave (km/s) = 3.60488 3.80121 3.70435
# Velocity P-wave (km/s) = 5.75534 5.98540 5.87150
#
# Compressibility (1/GPa) = 0.03253592
#
# Stress axis : x y z
#
# Youngs Moduli (GPa) = 42.52900 45.35901 72.68465
#
# Poissons Ratio (x) = 0.42851 0.50447
# Poissons Ratio (y) = 0.40177 -0.21781
# Poissons Ratio (z) = 0.29517 -0.13592
#
# Static dielectric constant tensor:
#      x y z
#    x 1.669800 0.000000 0.000000 
#    y 0.000000 1.722250 0.000000 
#    z 0.000000 0.000000 1.702020 
# 
# From -- ./inp_files/37716.got.cif
#   From: 2010.05.17/outbox.cif.g08.bks.cpg/sg53_19_cif.got.tgz:37716.got - 2010.06.03 12:45:16.
