data_PCOD9419759
_publ_section_title
;
Structure prediction by ZEFSAII (Michael W. Deem and Ramdas Pophale) SiO2 
 PCOD9419759
Probable space group: P M N A
;
_chemical_formula_sum "Si O2"
_cell_formula_units_Z 26
_cell_length_a 7.790055
_cell_length_b 17.484789
_cell_length_c 9.337371
_cell_angle_alpha 90.000000
_cell_angle_beta 90.000000
_cell_angle_gamma 90.000000
_cell_volume 1271.819661
_symmetry_space_group_name_H-M "P M N A"
_symmetry_group_IT_number 53
_symmetry_cell_setting 'orthorhombic'
loop_
_space_group_symop_operation_xyz
x,y,z
1/2-x,-y,1/2+z
x,-y,-z
1/2-x,y,1/2-z
-x,-y,-z
1/2+x,y,1/2-z
-x,y,z
1/2+x,-y,1/2+z
loop_
_atom_site_type_symbol
_atom_site_label
_atom_site_fract_x
_atom_site_fract_y
_atom_site_fract_z
Si Si1 0.197019 0.609454 0.417737
Si Si2 0.794966 0.925186 0.584175
Si Si3 0.500000 0.500000 0.500000
Si Si4 0.197883 0.777697 0.090152
O O1 0.250000 0.599030 0.250000
O O2 0.345362 0.565697 0.503289
O O3 0.202409 0.700206 0.447045
O O4 0.000000 0.583054 0.437107
O O5 0.750000 0.931566 0.750000
O O6 0.723713 0.847440 0.516698
O O7 0.000000 0.922185 0.567679
O O8 0.730471 0.000000 0.500000
O O9 0.250000 0.803059 0.250000
O O10 0.000000 0.754985 0.095729
#
# Coordination Sequence:
#
# PCOD9419759 Si02
#       4
#     8   8   2   8
#     4  11  21  40  66  92 128 167 217 269 324 390
#     4  11  24  41  63  93 131 170 215 264 319 379
#     4  12  22  40  64  96 126 168 210 272 322 400
#     4  11  21  39  66  95 126 167 218 266 321 388
#
# _framework density 20.443148999999998
#
# number of rings (size 3 to 8) (size 9 to 14) (size 15 to 20)
#    0.000    0.923    3.077    6.923    0.000    4.923 
#    0.000    1.538    0.000    0.000    0.000    0.000 
#    0.000    0.000    0.000    0.000    0.000    0.000 
#
# Total GULP energy -144789.622896 kJ/mol
# GULP energy per Si atom -5568.831650 kJ/mol
# Density = 2.039662 g / cm^3
# Si number density = 20.443149 Si / 1000 Ang^3
#
#
#
# Elastic Constant Matrix: (Units=GPa)
#
#
# Indices 1 2 3 4 5 6 
#
# 1 177.8868 32.4221 10.7543 0.0000 0.0000 0.0000
# 2 32.4221 110.2924 58.4907 0.0000 0.0000 0.0000
# 3 10.7543 58.4907 72.5009 0.0000 0.0000 0.0000
# 4 0.0000 0.0000 0.0000 -28.7234 0.0000 0.0000
# 5 0.0000 0.0000 0.0000 0.0000 15.8640 0.0000
# 6 0.0000 0.0000 0.0000 0.0000 0.0000 37.7489
#
#
#
# Elastic Compliance Matrix: (Units=1/GPa)
#
#
# Indices 1 2 3 4 5 6 
#
# 1 0.005975 -0.002248 0.000928 0.000000 0.000000 0.000000
# 2 -0.002248 0.016693 -0.013134 0.000000 0.000000 0.000000
# 3 0.000928 -0.013134 0.024251 0.000000 0.000000 0.000000
# 4 0.000000 0.000000 0.000000 -0.034815 0.000000 0.000000
# 5 0.000000 0.000000 0.000000 0.000000 0.063036 0.000000
# 6 0.000000 0.000000 0.000000 0.000000 0.000000 0.026491
#
#
# Mechanical properties :
#
#
# Convention : Reuss Voigt Hill
#
# Bulk Modulus (GPa) = 55.52387 62.66826 59.09607
# Shear Modulus (GPa) = 36.61849 22.24542 29.43196
#
# Velocity S-wave (km/s) = 4.23689 3.30231 3.79845
# Velocity P-wave (km/s) = 7.15221 6.72769 6.94319
#
# Compressibility (1/GPa) = 0.01801027
#
# Stress axis : x y z
#
# Youngs Moduli (GPa) = 167.35605 59.90612 41.23560
#
# Poissons Ratio (x) = 0.13470 -0.03825
# Poissons Ratio (y) = 0.37630 0.54157
# Poissons Ratio (z) = -0.15525 0.78678
#
# Static dielectric constant tensor:
#      x y z
#    x 1.747210 0.000000 0.000000 
#    y 0.000000 1.712800 0.000000 
#    z 0.000000 0.000000 1.703690 
# 
# From -- ./inp_files/5913.got.cif
#   From: 2010.05.17/outbox.cif.g08.bks.cpg/sg53_3_cif.got.tgz:5913.got - 2010.06.03 12:45:16.
