data_PCOD9419355
_publ_section_title
;
Structure prediction by ZEFSAII (Michael W. Deem and Ramdas Pophale) SiO2 
 PCOD9419355
Probable space group: P M N A
;
_chemical_formula_sum "Si O2"
_cell_formula_units_Z 64
_cell_length_a 20.852097
_cell_length_b 14.836745
_cell_length_c 8.155794
_cell_angle_alpha 90.000000
_cell_angle_beta 90.000000
_cell_angle_gamma 90.000000
_cell_volume 2523.217086
_symmetry_space_group_name_H-M "P M N A"
_symmetry_group_IT_number 53
_symmetry_cell_setting 'orthorhombic'
loop_
_space_group_symop_operation_xyz
x,y,z
1/2-x,-y,1/2+z
x,-y,-z
1/2-x,y,1/2-z
-x,-y,-z
1/2+x,y,1/2-z
-x,y,z
1/2+x,-y,1/2+z
loop_
_atom_site_type_symbol
_atom_site_label
_atom_site_fract_x
_atom_site_fract_y
_atom_site_fract_z
Si Si1 0.243616 0.604727 0.047228
Si Si2 0.371162 0.689544 0.670002
Si Si3 0.573665 0.958541 0.202068
Si Si4 0.868939 0.330122 0.626942
Si Si5 0.928491 0.810877 0.573113
Si Si6 0.618927 0.202709 0.595971
Si Si7 0.810214 0.072449 0.136153
Si Si8 0.425223 0.502669 0.695684
O O1 0.250000 0.607395 0.250000
O O2 0.311877 0.647976 0.003246
O O3 0.239547 0.500000 0.000000
O O4 0.191455 0.655134 0.931706
O O5 0.415555 0.723712 0.516836
O O6 0.401763 0.600843 0.749285
O O7 0.377514 0.773914 0.795538
O O8 0.500000 0.991434 0.200697
O O9 0.585624 0.902242 0.031607
O O10 0.576772 0.877044 0.333500
O O11 0.628688 0.026821 0.267679
O O12 0.926957 0.273362 0.552076
O O13 0.889040 0.422039 0.714242
O O14 0.845961 0.256085 0.759975
O O15 0.000000 0.817530 0.642767
O O16 0.669201 0.155624 0.476154
O O17 0.750000 0.091670 0.250000
O O18 0.788669 0.000000 0.000000
O O19 0.413618 0.500000 0.500000
O O20 0.500000 0.492564 0.727220
#
# Coordination Sequence:
#
# PCOD9419355 Si02
#       8
#     8   8   8   8   8   8   8   8
#     4  12  26  44  69  98 148 199 260 322 379 462
#     4  12  24  44  63 103 147 195 249 308 384 447
#     4   9  21  46  77 110 147 196 250 309 383 465
#     4  11  23  45  67  99 141 199 254 317 383 446
#     4  10  24  44  68 104 148 190 245 309 375 459
#     4  10  22  43  68 104 141 190 243 310 380 454
#     4  10  23  46  75 110 149 195 245 313 391 478
#     4  11  22  39  67  97 139 192 251 314 377 442
#
# _framework density 25.364443999999999
#
# number of rings (size 3 to 8) (size 9 to 14) (size 15 to 20)
#    0.000    1.375    2.500    1.875    3.500    4.750 
#   15.750    1.250    0.000    1.875    0.000    0.000 
#    0.000    0.000    0.000    0.000    0.000    0.000 
#
# Total GULP energy -357406.451672 kJ/mol
# GULP energy per Si atom -5584.475807 kJ/mol
# Density = 2.530671 g / cm^3
# Si number density = 25.364444 Si / 1000 Ang^3
#
#
#
# Elastic Constant Matrix: (Units=GPa)
#
#
# Indices 1 2 3 4 5 6 
#
# 1 162.5511 71.7099 61.7785 0.0000 0.0000 0.0000
# 2 71.7099 180.3281 47.2438 0.0000 0.0000 0.0000
# 3 61.7785 47.2438 96.6294 0.0000 0.0000 0.0000
# 4 0.0000 0.0000 0.0000 51.1591 0.0000 0.0000
# 5 0.0000 0.0000 0.0000 0.0000 25.9095 0.0000
# 6 0.0000 0.0000 0.0000 0.0000 0.0000 12.4035
#
#
#
# Elastic Compliance Matrix: (Units=1/GPa)
#
#
# Indices 1 2 3 4 5 6 
#
# 1 0.008921 -0.002355 -0.004552 0.000000 0.000000 0.000000
# 2 -0.002355 0.006982 -0.001908 0.000000 0.000000 0.000000
# 3 -0.004552 -0.001908 0.014192 0.000000 0.000000 0.000000
# 4 0.000000 0.000000 0.000000 0.019547 0.000000 0.000000
# 5 0.000000 0.000000 0.000000 0.000000 0.038596 0.000000
# 6 0.000000 0.000000 0.000000 0.000000 0.000000 0.080623
#
#
# Mechanical properties :
#
#
# Convention : Reuss Voigt Hill
#
# Bulk Modulus (GPa) = 80.22626 88.99702 84.61164
# Shear Modulus (GPa) = 26.22681 35.14616 30.68648
#
# Velocity S-wave (km/s) = 3.21907 3.72647 3.48202
# Velocity P-wave (km/s) = 6.74646 7.32659 7.04250
#
# Compressibility (1/GPa) = 0.01246475
#
# Stress axis : x y z
#
# Youngs Moduli (GPa) = 112.09747 143.23026 70.46266
#
# Poissons Ratio (x) = 0.33729 0.32075
# Poissons Ratio (y) = 0.26398 0.13444
# Poissons Ratio (z) = 0.51027 0.27327
#
# Static dielectric constant tensor:
#      x y z
#    x 1.966800 0.000000 0.000000 
#    y 0.000000 2.037800 0.000000 
#    z 0.000000 0.000000 2.190110 
# 
# From -- ./inp_files/11912.got.cif
#   From: 2010.05.17/outbox.cif.g08.bks.cpg/sg53_6_cif.got.tgz:11912.got - 2010.06.03 12:45:16.
