data_PCOD9419580
_publ_section_title
;
Structure prediction by ZEFSAII (Michael W. Deem and Ramdas Pophale) SiO2 
 PCOD9419580
Probable space group: P M N A
;
_chemical_formula_sum "Si O2"
_cell_formula_units_Z 48
_cell_length_a 15.169183
_cell_length_b 15.641637
_cell_length_c 10.105336
_cell_angle_alpha 90.000000
_cell_angle_beta 90.000000
_cell_angle_gamma 90.000000
_cell_volume 2397.701703
_symmetry_space_group_name_H-M "P M N A"
_symmetry_group_IT_number 53
_symmetry_cell_setting 'orthorhombic'
loop_
_space_group_symop_operation_xyz
x,y,z
1/2-x,-y,1/2+z
x,-y,-z
1/2-x,y,1/2-z
-x,-y,-z
1/2+x,y,1/2-z
-x,y,z
1/2+x,-y,1/2+z
loop_
_atom_site_type_symbol
_atom_site_label
_atom_site_fract_x
_atom_site_fract_y
_atom_site_fract_z
Si Si1 0.856907 0.333798 0.737519
Si Si2 0.237798 0.921625 0.095053
Si Si3 0.104999 0.298335 0.265718
Si Si4 0.166107 0.486057 0.345190
Si Si5 0.102536 0.771793 0.015515
Si Si6 0.602896 0.191707 0.982662
O O1 0.750000 0.331040 0.750000
O O2 0.886324 0.428679 0.696638
O O3 0.885220 0.265491 0.627449
O O4 0.894130 0.303372 0.876804
O O5 0.250000 0.943430 0.250000
O O6 0.332288 0.884464 0.051988
O O7 0.165193 0.846982 0.070994
O O8 0.214190 0.000000 0.000000
O O9 0.125688 0.393788 0.315024
O O10 0.138001 0.267667 0.122421
O O11 0.132536 0.232539 0.378787
O O12 0.000000 0.293821 0.256098
O O13 0.187591 0.500000 0.500000
O O14 0.250000 0.487438 0.250000
O O15 0.000000 0.800042 0.001190
O O16 0.500000 0.167914 0.988478
#
# Coordination Sequence:
#
# PCOD9419580 Si02
#       6
#     8   8   8   8   8   8
#     4  11  21  40  65  96 130 180 224 260 326 384
#     4  12  28  47  70 102 129 166 213 267 338 404
#     4  10  25  41  63  97 131 178 225 267 326 378
#     4  11  25  38  61  95 134 177 225 277 319 371
#     4  11  24  45  70  96 133 175 217 268 326 393
#     4  11  22  43  70  96 130 174 217 264 322 390
#
# _framework density 20.019171
#
# number of rings (size 3 to 8) (size 9 to 14) (size 15 to 20)
#    0.000    1.000    5.000    0.500    9.333    2.333 
#    0.000    1.667    0.000    0.000    0.000    0.000 
#    0.000    0.000    0.000    0.000    0.000    0.000 
#
# Total GULP energy -268118.622366 kJ/mol
# GULP energy per Si atom -5585.804633 kJ/mol
# Density = 1.997361 g / cm^3
# Si number density = 20.019171 Si / 1000 Ang^3
#
#
#
# Elastic Constant Matrix: (Units=GPa)
#
#
# Indices 1 2 3 4 5 6 
#
# 1 73.9573 16.1828 17.4478 0.0000 0.0000 0.0000
# 2 16.1828 80.8809 48.2036 0.0000 0.0000 0.0000
# 3 17.4478 48.2036 192.4800 0.0000 0.0000 0.0000
# 4 0.0000 0.0000 0.0000 37.1331 0.0000 0.0000
# 5 0.0000 0.0000 0.0000 0.0000 40.1354 0.0000
# 6 0.0000 0.0000 0.0000 0.0000 0.0000 -82.2923
#
#
#
# Elastic Compliance Matrix: (Units=1/GPa)
#
#
# Indices 1 2 3 4 5 6 
#
# 1 0.014215 -0.002440 -0.000677 0.000000 0.000000 0.000000
# 2 -0.002440 0.014952 -0.003523 0.000000 0.000000 0.000000
# 3 -0.000677 -0.003523 0.006139 0.000000 0.000000 0.000000
# 4 0.000000 0.000000 0.000000 0.026930 0.000000 0.000000
# 5 0.000000 0.000000 0.000000 0.000000 0.024916 0.000000
# 6 0.000000 0.000000 0.000000 0.000000 0.000000 -0.012152
#
#
# Mechanical properties :
#
#
# Convention : Reuss Voigt Hill
#
# Bulk Modulus (GPa) = 45.40516 56.77630 51.09073
# Shear Modulus (GPa) = 52.28824 16.69416 34.49120
#
# Velocity S-wave (km/s) = 5.11623 2.89088 4.15530
# Velocity P-wave (km/s) = 7.59152 6.29011 6.97125
#
# Compressibility (1/GPa) = 0.02202393
#
# Stress axis : x y z
#
# Youngs Moduli (GPa) = 70.34754 66.88084 162.89048
#
# Poissons Ratio (x) = 0.16322 0.11034
# Poissons Ratio (y) = 0.17168 0.57391
# Poissons Ratio (z) = 0.04765 0.23564
#
# Static dielectric constant tensor:
#      x y z
#    x 1.741740 0.000000 0.000000 
#    y 0.000000 1.720710 0.000000 
#    z 0.000000 0.000000 1.643670 
# 
# From -- ./inp_files/8675.got.cif
#   From: 2010.05.17/outbox.cif.g08.bks.cpg/sg53_5_cif.got.tgz:8675.got - 2010.06.03 12:45:16.
