data_PCOD9419294
_publ_section_title
;
Structure prediction by ZEFSAII (Michael W. Deem and Ramdas Pophale) SiO2 
 PCOD9419294
Probable space group: P M N A
;
_chemical_formula_sum "Si O2"
_cell_formula_units_Z 40
_cell_length_a 17.396001
_cell_length_b 9.589007
_cell_length_c 12.599803
_cell_angle_alpha 90.000000
_cell_angle_beta 90.000000
_cell_angle_gamma 90.000000
_cell_volume 2101.777868
_symmetry_space_group_name_H-M "P M N A"
_symmetry_group_IT_number 53
_symmetry_cell_setting 'orthorhombic'
loop_
_space_group_symop_operation_xyz
x,y,z
1/2-x,-y,1/2+z
x,-y,-z
1/2-x,y,1/2-z
-x,-y,-z
1/2+x,y,1/2-z
-x,y,z
1/2+x,-y,1/2+z
loop_
_atom_site_type_symbol
_atom_site_label
_atom_site_fract_x
_atom_site_fract_y
_atom_site_fract_z
Si Si1 0.691980 0.161287 0.528923
Si Si2 0.090839 0.901858 0.229060
Si Si3 0.911087 0.405805 0.367422
Si Si4 0.646871 0.297240 0.915236
Si Si5 0.662512 0.204663 0.291120
O O1 0.630228 0.160767 0.623273
O O2 0.767234 0.242928 0.566297
O O3 0.661602 0.219786 0.417751
O O4 0.712469 0.000000 0.500000
O O5 0.107827 0.805163 0.330493
O O6 0.000000 0.918550 0.214763
O O7 0.130935 0.052452 0.241082
O O8 0.859424 0.544258 0.374026
O O9 0.893874 0.309164 0.469955
O O10 0.889529 0.318909 0.264881
O O11 0.000000 0.448734 0.369712
O O12 0.750000 0.217553 0.250000
#
# Coordination Sequence:
#
# PCOD9419294 Si02
#       5
#     8   8   8   8   8
#     4  10  22  41  66  92 125 165 211 258 306 373
#     4  11  23  39  64  94 125 162 206 259 315 363
#     4  11  24  41  64  92 128 164 202 259 313 361
#     4  11  22  42  63  90 128 162 208 254 309 374
#     4  11  22  41  63  91 125 163 210 254 307 375
#
# _framework density 19.031507000000001
#
# number of rings (size 3 to 8) (size 9 to 14) (size 15 to 20)
#    0.000    1.200    2.000    6.000    0.000    6.000 
#    0.000    2.000    0.000    2.400    0.000    0.000 
#    0.000    0.000    0.000    0.000    0.000    0.000 
#
# Total GULP energy -223550.020271 kJ/mol
# GULP energy per Si atom -5588.750507 kJ/mol
# Density = 1.898819 g / cm^3
# Si number density = 19.031507 Si / 1000 Ang^3
#
#
#
# Elastic Constant Matrix: (Units=GPa)
#
#
# Indices 1 2 3 4 5 6 
#
# 1 75.1574 29.6959 24.9287 0.0000 0.0000 0.0000
# 2 29.6959 34.4189 36.3997 0.0000 0.0000 0.0000
# 3 24.9287 36.3997 73.1956 0.0000 0.0000 0.0000
# 4 0.0000 0.0000 0.0000 16.3634 0.0000 0.0000
# 5 0.0000 0.0000 0.0000 0.0000 -35.2193 0.0000
# 6 0.0000 0.0000 0.0000 0.0000 0.0000 71.0699
#
#
#
# Elastic Compliance Matrix: (Units=1/GPa)
#
#
# Indices 1 2 3 4 5 6 
#
# 1 0.020692 -0.021937 0.003862 0.000000 0.000000 0.000000
# 2 -0.021937 0.084540 -0.034570 0.000000 0.000000 0.000000
# 3 0.003862 -0.034570 0.029538 0.000000 0.000000 0.000000
# 4 0.000000 0.000000 0.000000 0.061112 0.000000 0.000000
# 5 0.000000 0.000000 0.000000 0.000000 -0.028394 0.000000
# 6 0.000000 0.000000 0.000000 0.000000 0.000000 0.014071
#
#
# Mechanical properties :
#
#
# Convention : Reuss Voigt Hill
#
# Bulk Modulus (GPa) = 33.92099 40.53559 37.22829
# Shear Modulus (GPa) = 16.85344 16.55930 16.70637
#
# Velocity S-wave (km/s) = 2.97906 2.95294 2.96603
# Velocity P-wave (km/s) = 5.44934 5.74212 5.59765
#
# Compressibility (1/GPa) = 0.02948027
#
# Stress axis : x y z
#
# Youngs Moduli (GPa) = 48.32780 11.82878 33.85442
#
# Poissons Ratio (x) = 0.25948 -0.13074
# Poissons Ratio (y) = 1.06015 1.17035
# Poissons Ratio (z) = -0.18663 0.40892
#
# Static dielectric constant tensor:
#      x y z
#    x 1.640870 0.000000 0.000000 
#    y 0.000000 1.650940 0.000000 
#    z 0.000000 0.000000 1.662960 
# 
# From -- ./inp_files/16648.got.cif
#   From: 2010.05.17/outbox.cif.g08.bks.cpg/sg53_9_cif.got.tgz:16648.got - 2010.06.03 12:45:16.
