data_PCOD9419096
_publ_section_title
;
Structure prediction by ZEFSAII (Michael W. Deem and Ramdas Pophale) SiO2 
 PCOD9419096
Probable space group: P M N A
;
_chemical_formula_sum "Si O2"
_cell_formula_units_Z 28
_cell_length_a 16.869631
_cell_length_b 13.891925
_cell_length_c 5.262611
_cell_angle_alpha 90.000000
_cell_angle_beta 90.000000
_cell_angle_gamma 90.000000
_cell_volume 1233.301564
_symmetry_space_group_name_H-M "P M N A"
_symmetry_group_IT_number 53
_symmetry_cell_setting 'orthorhombic'
loop_
_space_group_symop_operation_xyz
x,y,z
1/2-x,-y,1/2+z
x,-y,-z
1/2-x,y,1/2-z
-x,-y,-z
1/2+x,y,1/2-z
-x,y,z
1/2+x,-y,1/2+z
loop_
_atom_site_type_symbol
_atom_site_label
_atom_site_fract_x
_atom_site_fract_y
_atom_site_fract_z
Si Si1 0.250000 0.062979 0.250000
Si Si2 0.596692 0.600115 0.638779
Si Si3 0.593410 0.697937 0.149959
Si Si4 0.086041 0.105677 0.372292
O O1 0.165719 0.113849 0.210397
O O2 0.239958 0.000000 0.500000
O O3 0.617864 0.500000 0.500000
O O4 0.500000 0.599921 0.661628
O O5 0.624791 0.676979 0.429265
O O6 0.625832 0.631389 0.918687
O O7 0.500000 0.672747 0.165182
O O8 0.596366 0.809191 0.074857
O O9 0.000000 0.121730 0.242492
O O10 0.081874 0.000000 0.500000
#
# Coordination Sequence:
#
# PCOD9419096 Si02
#       4
#     4   8   8   8
#     4  10  22  38  56  80 110 148 192 228 270 330
#     4   9  16  27  44  69 102 136 174 222 266 310
#     4   9  17  28  45  71 101 137 178 214 261 321
#     4   9  19  36  57  82 115 150 184 228 277 329
#
# _framework density 22.703288000000001
#
# number of rings (size 3 to 8) (size 9 to 14) (size 15 to 20)
#    0.000    2.857    0.000    0.857    0.000    8.571 
#    0.000    8.571    0.000    0.000    0.000    4.000 
#    0.000    0.000    0.000    0.000    0.000    0.286 
#
# Total GULP energy -155908.750022 kJ/mol
# GULP energy per Si atom -5568.169644 kJ/mol
# Density = 2.265161 g / cm^3
# Si number density = 22.703288 Si / 1000 Ang^3
#
#
#
# Elastic Constant Matrix: (Units=GPa)
#
#
# Indices 1 2 3 4 5 6 
#
# 1 118.0090 3.3837 4.4849 0.0000 0.0000 0.0000
# 2 3.3837 76.3216 1.5619 0.0000 0.0000 0.0000
# 3 4.4849 1.5619 61.8307 0.0000 0.0000 0.0000
# 4 0.0000 0.0000 0.0000 21.5512 0.0000 0.0000
# 5 0.0000 0.0000 0.0000 0.0000 24.9941 0.0000
# 6 0.0000 0.0000 0.0000 0.0000 0.0000 -11.4104
#
#
#
# Elastic Compliance Matrix: (Units=1/GPa)
#
#
# Indices 1 2 3 4 5 6 
#
# 1 0.008507 -0.000365 -0.000608 0.000000 0.000000 0.000000
# 2 -0.000365 0.013125 -0.000305 0.000000 0.000000 0.000000
# 3 -0.000608 -0.000305 0.016225 0.000000 0.000000 0.000000
# 4 0.000000 0.000000 0.000000 0.046401 0.000000 0.000000
# 5 0.000000 0.000000 0.000000 0.000000 0.040009 0.000000
# 6 0.000000 0.000000 0.000000 0.000000 0.000000 -0.087639
#
#
# Mechanical properties :
#
#
# Convention : Reuss Voigt Hill
#
# Bulk Modulus (GPa) = 28.32704 30.55803 29.44253
# Shear Modulus (GPa) = 98.13259 23.47571 60.80415
#
# Velocity S-wave (km/s) = 6.58163 3.21911 5.18076
# Velocity P-wave (km/s) = 8.38220 5.22550 6.98452
#
# Compressibility (1/GPa) = 0.03530196
#
# Stress axis : x y z
#
# Youngs Moduli (GPa) = 117.54350 76.19129 61.63326
#
# Poissons Ratio (x) = 0.02779 0.03747
# Poissons Ratio (y) = 0.04287 0.01880
# Poissons Ratio (z) = 0.07145 0.02324
#
# Static dielectric constant tensor:
#      x y z
#    x 1.930050 0.000000 0.000000 
#    y 0.000000 1.938800 0.000000 
#    z 0.000000 0.000000 1.884160 
# 
# From -- ./inp_files/1856.got.cif
#   From: 2010.05.17/outbox.cif.g08.bks.cpg/sg53_1_cif.got.tgz:1856.got - 2010.06.03 12:45:16.
