data_PCOD9419415
_publ_section_title
;
Structure prediction by ZEFSAII (Michael W. Deem and Ramdas Pophale) SiO2 
 PCOD9419415
Probable space group: P M N A
;
_chemical_formula_sum "Si O2"
_cell_formula_units_Z 64
_cell_length_a 15.752199
_cell_length_b 8.512771
_cell_length_c 24.396537
_cell_angle_alpha 90.000000
_cell_angle_beta 90.000000
_cell_angle_gamma 90.000000
_cell_volume 3271.450283
_symmetry_space_group_name_H-M "P M N A"
_symmetry_group_IT_number 53
_symmetry_cell_setting 'orthorhombic'
loop_
_space_group_symop_operation_xyz
x,y,z
1/2-x,-y,1/2+z
x,-y,-z
1/2-x,y,1/2-z
-x,-y,-z
1/2+x,y,1/2-z
-x,y,z
1/2+x,-y,1/2+z
loop_
_atom_site_type_symbol
_atom_site_label
_atom_site_fract_x
_atom_site_fract_y
_atom_site_fract_z
Si Si1 0.264276 0.939626 0.940119
Si Si2 0.902617 0.941774 0.648119
Si Si3 0.744996 0.564188 0.938680
Si Si4 0.403179 0.944171 0.384589
Si Si5 0.847470 0.462483 0.241048
Si Si6 0.101385 0.107244 0.231147
Si Si7 0.594833 0.429200 0.624216
Si Si8 0.593128 0.559587 0.860428
O O1 0.262778 0.751569 0.940052
O O2 0.333018 0.997210 0.895269
O O3 0.170189 0.994362 0.923842
O O4 0.287534 0.000000 0.000000
O O5 0.877614 0.975871 0.711170
O O6 0.000000 0.994581 0.638122
O O7 0.903407 0.750518 0.643784
O O8 0.833185 0.514793 0.910737
O O9 0.668501 0.505305 0.899746
O O10 0.739038 0.500000 0.000000
O O11 0.500000 0.995774 0.397811
O O12 0.383388 0.007440 0.323285
O O13 0.401562 0.756313 0.386112
O O14 0.750000 0.506645 0.250000
O O15 0.887286 0.543209 0.188340
O O16 0.894348 0.495586 0.298074
O O17 0.852454 0.274941 0.229096
O O18 0.000000 0.140993 0.234001
O O19 0.500000 0.487547 0.611195
O O20 0.500000 0.515079 0.880980
#
# Coordination Sequence:
#
# PCOD9419415 Si02
#       8
#     8   8   8   8   8   8   8   8
#     4  11  23  39  59  85 113 152 195 243 290 341
#     4   8  17  34  57  85 115 151 191 230 279 342
#     4  11  23  40  62  86 115 149 201 247 290 350
#     4  10  23  40  59  85 119 154 190 237 291 345
#     4  11  19  33  59  92 120 153 194 235 283 344
#     4   9  18  34  58  88 117 150 192 233 281 347
#     4  11  23  41  60  85 121 156 192 240 295 347
#     4   9  18  35  58  85 119 155 191 235 284 343
#
# _framework density 19.563189000000001
#
# number of rings (size 3 to 8) (size 9 to 14) (size 15 to 20)
#    0.000    2.000    1.250    3.375    3.500    2.500 
#    2.250    0.000    0.000    3.750    0.000    0.000 
#    0.000    0.000    0.000    0.000    0.000    0.000 
#
# Total GULP energy -357441.719396 kJ/mol
# GULP energy per Si atom -5585.026866 kJ/mol
# Density = 1.951866 g / cm^3
# Si number density = 19.563189 Si / 1000 Ang^3
#
#
#
# Elastic Constant Matrix: (Units=GPa)
#
#
# Indices 1 2 3 4 5 6 
#
# 1 73.7919 4.2147 2.4609 0.0000 0.0000 0.0000
# 2 4.2147 19.3621 -4.0457 0.0000 0.0000 0.0000
# 3 2.4609 -4.0457 45.0732 0.0000 0.0000 0.0000
# 4 0.0000 0.0000 0.0000 30.6071 0.0000 0.0000
# 5 0.0000 0.0000 0.0000 0.0000 7.9391 0.0000
# 6 0.0000 0.0000 0.0000 0.0000 0.0000 81.2424
#
#
#
# Elastic Compliance Matrix: (Units=1/GPa)
#
#
# Indices 1 2 3 4 5 6 
#
# 1 0.013770 -0.003215 -0.001040 0.000000 0.000000 0.000000
# 2 -0.003215 0.053385 0.004967 0.000000 0.000000 0.000000
# 3 -0.001040 0.004967 0.022689 0.000000 0.000000 0.000000
# 4 0.000000 0.000000 0.000000 0.032672 0.000000 0.000000
# 5 0.000000 0.000000 0.000000 0.000000 0.125959 0.000000
# 6 0.000000 0.000000 0.000000 0.000000 0.000000 0.012309
#
#
# Mechanical properties :
#
#
# Convention : Reuss Voigt Hill
#
# Bulk Modulus (GPa) = 10.95676 15.94302 13.44989
# Shear Modulus (GPa) = 17.25432 32.99754 25.12593
#
# Velocity S-wave (km/s) = 2.97303 4.11142 3.58767
# Velocity P-wave (km/s) = 4.17110 5.54126 4.90427
#
# Compressibility (1/GPa) = 0.09126784
#
# Stress axis : x y z
#
# Youngs Moduli (GPa) = 72.62199 18.73187 44.07462
#
# Poissons Ratio (x) = 0.06022 0.04585
# Poissons Ratio (y) = 0.23347 -0.21893
# Poissons Ratio (z) = 0.07555 -0.09305
#
# Static dielectric constant tensor:
#      x y z
#    x 1.691110 0.000000 0.000000 
#    y 0.000000 1.672840 0.000000 
#    z 0.000000 0.000000 1.666810 
# 
# From -- ./inp_files/35356.got.cif
#   From: 2010.05.17/outbox.cif.g08.bks.cpg/sg53_18_cif.got.tgz:35356.got - 2010.06.03 12:45:16.
