data_PCOD9419950
_publ_section_title
;
Structure prediction by ZEFSAII (Michael W. Deem and Ramdas Pophale) SiO2 
 PCOD9419950
Probable space group: P M N A
;
_chemical_formula_sum "Si O2"
_cell_formula_units_Z 32
_cell_length_a 14.353273
_cell_length_b 7.761218
_cell_length_c 11.661575
_cell_angle_alpha 90.000000
_cell_angle_beta 90.000000
_cell_angle_gamma 90.000000
_cell_volume 1299.086403
_symmetry_space_group_name_H-M "P M N A"
_symmetry_group_IT_number 53
_symmetry_cell_setting 'orthorhombic'
loop_
_space_group_symop_operation_xyz
x,y,z
1/2-x,-y,1/2+z
x,-y,-z
1/2-x,y,1/2-z
-x,-y,-z
1/2+x,y,1/2-z
-x,y,z
1/2+x,-y,1/2+z
loop_
_atom_site_type_symbol
_atom_site_label
_atom_site_fract_x
_atom_site_fract_y
_atom_site_fract_z
Si Si1 0.000000 0.085775 0.619396
Si Si2 0.175885 0.726545 0.448717
Si Si3 0.831327 0.000000 0.000000
Si Si4 0.500000 0.027201 0.651611
Si Si5 0.500000 0.453449 0.638546
Si Si6 0.838983 0.602605 0.693248
O O1 0.093991 0.193078 0.626692
O O2 0.000000 0.955825 0.721919
O O3 0.000000 0.000000 0.500000
O O4 0.264293 0.846323 0.464927
O O5 0.204402 0.561561 0.375451
O O6 0.130259 0.699360 0.575739
O O7 0.905663 0.957154 0.902335
O O8 0.500000 0.239868 0.644199
O O9 0.500000 0.500000 0.500000
O O10 0.587056 0.535357 0.712150
O O11 0.750000 0.695237 0.750000
#
# Coordination Sequence:
#
# PCOD9419950 Si02
#       6
#     4   8   4   4   4   8
#     4  12  24  45  69 101 135 190 232 288 362 418
#     4  11  24  46  73 102 141 185 240 293 355 426
#     4  11  26  47  72 106 144 189 238 289 360 430
#     4  11  26  48  71  99 149 193 234 292 362 427
#     4  12  26  47  77 104 146 188 238 298 360 430
#     4  11  25  44  74 105 140 184 239 295 357 419
#
# _framework density 24.632697
#
# number of rings (size 3 to 8) (size 9 to 14) (size 15 to 20)
#    0.000    0.750    3.750    2.250    7.000    4.000 
#    4.500    0.000    0.000    0.000    0.000    0.000 
#    0.000    0.000    0.000    0.000    0.000    0.000 
#
# Total GULP energy -178642.160374 kJ/mol
# GULP energy per Si atom -5582.567512 kJ/mol
# Density = 2.457663 g / cm^3
# Si number density = 24.632697 Si / 1000 Ang^3
#
#
#
# Elastic Constant Matrix: (Units=GPa)
#
#
# Indices 1 2 3 4 5 6 
#
# 1 163.4455 28.5249 48.1053 0.0000 0.0000 0.0000
# 2 28.5249 36.4037 -5.3533 0.0000 0.0000 0.0000
# 3 48.1053 -5.3533 171.6886 0.0000 0.0000 0.0000
# 4 0.0000 0.0000 0.0000 32.4926 0.0000 0.0000
# 5 0.0000 0.0000 0.0000 0.0000 39.3172 0.0000
# 6 0.0000 0.0000 0.0000 0.0000 0.0000 37.0007
#
#
#
# Elastic Compliance Matrix: (Units=1/GPa)
#
#
# Indices 1 2 3 4 5 6 
#
# 1 0.007994 -0.006624 -0.002446 0.000000 0.000000 0.000000
# 2 -0.006624 0.033085 0.002888 0.000000 0.000000 0.000000
# 3 -0.002446 0.002888 0.006600 0.000000 0.000000 0.000000
# 4 0.000000 0.000000 0.000000 0.030776 0.000000 0.000000
# 5 0.000000 0.000000 0.000000 0.000000 0.025434 0.000000
# 6 0.000000 0.000000 0.000000 0.000000 0.000000 0.027027
#
#
# Mechanical properties :
#
#
# Convention : Reuss Voigt Hill
#
# Bulk Modulus (GPa) = 28.31791 57.12130 42.71960
# Shear Modulus (GPa) = 32.24714 41.77950 37.01332
#
# Velocity S-wave (km/s) = 3.62210 4.12284 3.88056
# Velocity P-wave (km/s) = 5.38645 6.77520 6.12034
#
# Compressibility (1/GPa) = 0.03531334
#
# Stress axis : x y z
#
# Youngs Moduli (GPa) = 125.08909 30.22552 151.51509
#
# Poissons Ratio (x) = 0.20021 0.37067
# Poissons Ratio (y) = 0.82857 -0.43751
# Poissons Ratio (z) = 0.30602 -0.08728
#
# Static dielectric constant tensor:
#      x y z
#    x 2.466290 0.000000 0.000000 
#    y 0.000000 2.024320 0.000000 
#    z 0.000000 0.000000 2.005790 
# 
# From -- ./inp_files/15573.got.cif
#   From: 2010.05.17/outbox.cif.g08.bks.cpg/sg53_8_cif.got.tgz:15573.got - 2010.06.03 12:45:16.
