data_PCOD9419241
_publ_section_title
;
Structure prediction by ZEFSAII (Michael W. Deem and Ramdas Pophale) SiO2 
 PCOD9419241
Probable space group: P M N A
;
_chemical_formula_sum "Si O2"
_cell_formula_units_Z 32
_cell_length_a 9.604076
_cell_length_b 19.740124
_cell_length_c 8.791890
_cell_angle_alpha 90.000000
_cell_angle_beta 90.000000
_cell_angle_gamma 90.000000
_cell_volume 1666.816190
_symmetry_space_group_name_H-M "P M N A"
_symmetry_group_IT_number 53
_symmetry_cell_setting 'orthorhombic'
loop_
_space_group_symop_operation_xyz
x,y,z
1/2-x,-y,1/2+z
x,-y,-z
1/2-x,y,1/2-z
-x,-y,-z
1/2+x,y,1/2-z
-x,y,z
1/2+x,-y,1/2+z
loop_
_atom_site_type_symbol
_atom_site_label
_atom_site_fract_x
_atom_site_fract_y
_atom_site_fract_z
Si Si1 0.000000 0.922888 0.564281
Si Si2 0.255486 0.839634 0.431843
Si Si3 0.000000 0.926378 0.928439
Si Si4 0.334329 0.430833 0.093614
Si Si5 0.329025 0.699111 0.586236
O O1 0.124597 0.877046 0.503643
O O2 0.000000 0.928089 0.746527
O O3 0.000000 0.000000 0.500000
O O4 0.250000 0.842476 0.250000
O O5 0.373797 0.885127 0.504141
O O6 0.285244 0.763413 0.486505
O O7 0.000000 0.000000 0.000000
O O8 0.250000 0.442569 0.250000
O O9 0.500000 0.413605 0.115889
O O10 0.245407 0.368855 0.021977
O O11 0.329609 0.500000 0.000000
O O12 0.250000 0.707740 0.750000
O O13 0.500000 0.694817 0.598130
#
# Coordination Sequence:
#
# PCOD9419241 Si02
#       5
#     4   8   4   8   8
#     4  12  26  44  70  96 127 176 213 272 332 392
#     4  12  26  43  64  98 132 169 218 273 328 391
#     4  12  24  46  68  94 131 168 221 266 328 396
#     4  10  22  40  64  97 132 174 221 269 324 387
#     4  11  23  41  66  95 128 173 221 269 330 394
#
# _framework density 19.198277999999998
#
# number of rings (size 3 to 8) (size 9 to 14) (size 15 to 20)
#    0.000    0.750    1.250    8.250    3.500    3.000 
#    0.000    2.500    0.000    0.000    0.000    0.000 
#    0.000    0.000    0.000    0.000    0.000    0.000 
#
# Total GULP energy -178502.817081 kJ/mol
# GULP energy per Si atom -5578.213034 kJ/mol
# Density = 1.915458 g / cm^3
# Si number density = 19.198278 Si / 1000 Ang^3
#
#
#
# Elastic Constant Matrix: (Units=GPa)
#
#
# Indices 1 2 3 4 5 6 
#
# 1 230.3831 98.3811 68.5331 0.0000 0.0000 0.0000
# 2 98.3811 198.2095 88.2082 0.0000 0.0000 0.0000
# 3 68.5331 88.2082 153.3083 0.0000 0.0000 0.0000
# 4 0.0000 0.0000 0.0000 46.7896 0.0000 0.0000
# 5 0.0000 0.0000 0.0000 0.0000 24.0175 0.0000
# 6 0.0000 0.0000 0.0000 0.0000 0.0000 40.3905
#
#
#
# Elastic Compliance Matrix: (Units=1/GPa)
#
#
# Indices 1 2 3 4 5 6 
#
# 1 0.005676 -0.002269 -0.001232 0.000000 0.000000 0.000000
# 2 -0.002269 0.007689 -0.003409 0.000000 0.000000 0.000000
# 3 -0.001232 -0.003409 0.009035 0.000000 0.000000 0.000000
# 4 0.000000 0.000000 0.000000 0.021372 0.000000 0.000000
# 5 0.000000 0.000000 0.000000 0.000000 0.041636 0.000000
# 6 0.000000 0.000000 0.000000 0.000000 0.000000 0.024758
#
#
# Mechanical properties :
#
#
# Convention : Reuss Voigt Hill
#
# Bulk Modulus (GPa) = 116.56141 121.34953 118.95547
# Shear Modulus (GPa) = 39.41752 44.02475 41.72114
#
# Velocity S-wave (km/s) = 4.53612 4.79389 4.66679
# Velocity P-wave (km/s) = 9.39582 9.69472 9.54644
#
# Compressibility (1/GPa) = 0.00857917
#
# Stress axis : x y z
#
# Youngs Moduli (GPa) = 176.18043 130.06037 110.67912
#
# Poissons Ratio (x) = 0.29512 0.13633
# Poissons Ratio (y) = 0.39977 0.37736
# Poissons Ratio (z) = 0.21701 0.44344
#
# Static dielectric constant tensor:
#      x y z
#    x 1.620370 0.000000 0.000000 
#    y 0.000000 1.585190 0.000000 
#    z 0.000000 0.000000 1.864860 
# 
# From -- ./inp_files/6051.got.cif
#   From: 2010.05.17/outbox.cif.g08.bks.cpg/sg53_4_cif.got.tgz:6051.got - 2010.06.03 12:45:16.
