data_PCOD9419835
_publ_section_title
;
Structure prediction by ZEFSAII (Michael W. Deem and Ramdas Pophale) SiO2 
 PCOD9419835
Probable space group: P M N A
;
_chemical_formula_sum "Si O2"
_cell_formula_units_Z 64
_cell_length_a 13.965499
_cell_length_b 9.839754
_cell_length_c 23.737855
_cell_angle_alpha 90.000000
_cell_angle_beta 90.000000
_cell_angle_gamma 90.000000
_cell_volume 3261.986593
_symmetry_space_group_name_H-M "P M N A"
_symmetry_group_IT_number 53
_symmetry_cell_setting 'orthorhombic'
loop_
_space_group_symop_operation_xyz
x,y,z
1/2-x,-y,1/2+z
x,-y,-z
1/2-x,y,1/2-z
-x,-y,-z
1/2+x,y,1/2-z
-x,y,z
1/2+x,-y,1/2+z
loop_
_atom_site_type_symbol
_atom_site_label
_atom_site_fract_x
_atom_site_fract_y
_atom_site_fract_z
Si Si1 0.223980 0.106818 0.050766
Si Si2 0.858981 0.529225 0.768842
Si Si3 0.313275 0.680622 0.362128
Si Si4 0.614308 0.245172 0.121648
Si Si5 0.116818 0.973151 0.156792
Si Si6 0.608188 0.170875 0.246406
Si Si7 0.886233 0.344502 0.988032
Si Si8 0.605993 0.438790 0.854244
O O1 0.322206 0.165201 0.076927
O O2 0.166537 0.236320 0.027140
O O3 0.162136 0.035256 0.099949
O O4 0.238905 0.000000 0.000000
O O5 0.750000 0.545827 0.750000
O O6 0.859721 0.438369 0.824239
O O7 0.895817 0.681322 0.775713
O O8 0.901481 0.458715 0.713380
O O9 0.340835 0.823465 0.334794
O O10 0.357792 0.683352 0.423834
O O11 0.198905 0.653137 0.365599
O O12 0.500000 0.221657 0.115736
O O13 0.647899 0.197434 0.184083
O O14 0.626277 0.409351 0.121408
O O15 0.000000 0.970858 0.152851
O O16 0.148708 0.064869 0.209644
O O17 0.500000 0.123905 0.235924
O O18 0.000000 0.331481 0.995534
O O19 0.858105 0.500000 0.000000
O O20 0.500000 0.393938 0.874405
#
# Coordination Sequence:
#
# PCOD9419835 Si02
#       8
#     8   8   8   8   8   8   8   8
#     4  12  25  43  64  90 127 175 217 260 316 388
#     4   9  19  34  60  92 121 160 205 255 313 377
#     4  11  22  40  59  89 127 170 207 254 316 380
#     4   9  20  42  70  96 125 161 213 276 324 380
#     4  11  25  41  61  91 132 172 207 258 321 387
#     4   9  20  38  63  95 123 159 206 260 324 383
#     4  11  25  42  63  90 121 162 218 274 314 363
#     4   9  19  39  65  94 125 161 209 266 326 376
#
# _framework density 19.619944
#
# number of rings (size 3 to 8) (size 9 to 14) (size 15 to 20)
#    0.000    1.875    1.250    2.625    7.000    2.750 
#    6.750    1.250    0.000    2.250    0.000    0.000 
#    0.000    0.000    0.000    0.000    0.000    0.000 
#
# Total GULP energy -357205.409427 kJ/mol
# GULP energy per Si atom -5581.334522 kJ/mol
# Density = 1.957529 g / cm^3
# Si number density = 19.619944 Si / 1000 Ang^3
#
#
#
# Elastic Constant Matrix: (Units=GPa)
#
#
# Indices 1 2 3 4 5 6 
#
# 1 107.2597 51.1701 23.5014 0.0000 0.0000 0.0000
# 2 51.1701 105.4223 47.3434 0.0000 0.0000 0.0000
# 3 23.5014 47.3434 64.6981 0.0000 0.0000 0.0000
# 4 0.0000 0.0000 0.0000 41.1884 0.0000 0.0000
# 5 0.0000 0.0000 0.0000 0.0000 18.2761 0.0000
# 6 0.0000 0.0000 0.0000 0.0000 0.0000 25.0985
#
#
#
# Elastic Compliance Matrix: (Units=1/GPa)
#
#
# Indices 1 2 3 4 5 6 
#
# 1 0.012134 -0.005824 -0.000146 0.000000 0.000000 0.000000
# 2 -0.005824 0.016924 -0.010269 0.000000 0.000000 0.000000
# 3 -0.000146 -0.010269 0.023024 0.000000 0.000000 0.000000
# 4 0.000000 0.000000 0.000000 0.024279 0.000000 0.000000
# 5 0.000000 0.000000 0.000000 0.000000 0.054716 0.000000
# 6 0.000000 0.000000 0.000000 0.000000 0.000000 0.039843
#
#
# Mechanical properties :
#
#
# Convention : Reuss Voigt Hill
#
# Bulk Modulus (GPa) = 51.00940 57.93444 54.47192
# Shear Modulus (GPa) = 23.81736 27.27026 25.54381
#
# Velocity S-wave (km/s) = 3.48794 3.73222 3.61214
# Velocity P-wave (km/s) = 6.50201 6.94010 6.72463
#
# Compressibility (1/GPa) = 0.01960423
#
# Stress axis : x y z
#
# Youngs Moduli (GPa) = 82.41643 59.08767 43.43367
#
# Poissons Ratio (x) = 0.34412 0.00633
# Poissons Ratio (y) = 0.47999 0.44601
# Poissons Ratio (z) = 0.01201 0.60676
#
# Static dielectric constant tensor:
#      x y z
#    x 1.704430 0.000000 0.000000 
#    y 0.000000 1.685780 0.000000 
#    z 0.000000 0.000000 1.679520 
# 
# From -- ./inp_files/35351.got.cif
#   From: 2010.05.17/outbox.cif.g08.bks.cpg/sg53_18_cif.got.tgz:35351.got - 2010.06.03 12:45:16.
