data_PCOD9419290
_publ_section_title
;
Structure prediction by ZEFSAII (Michael W. Deem and Ramdas Pophale) SiO2 
 PCOD9419290
Probable space group: P M N A
;
_chemical_formula_sum "Si O2"
_cell_formula_units_Z 48
_cell_length_a 22.166023
_cell_length_b 5.229477
_cell_length_c 19.719933
_cell_angle_alpha 90.000000
_cell_angle_beta 90.000000
_cell_angle_gamma 90.000000
_cell_volume 2285.869705
_symmetry_space_group_name_H-M "P M N A"
_symmetry_group_IT_number 53
_symmetry_cell_setting 'orthorhombic'
loop_
_space_group_symop_operation_xyz
x,y,z
1/2-x,-y,1/2+z
x,-y,-z
1/2-x,y,1/2-z
-x,-y,-z
1/2+x,y,1/2-z
-x,y,z
1/2+x,-y,1/2+z
loop_
_atom_site_type_symbol
_atom_site_label
_atom_site_fract_x
_atom_site_fract_y
_atom_site_fract_z
Si Si1 0.154782 0.152448 0.172636
Si Si2 0.151867 0.650091 0.683536
Si Si3 0.070174 0.745202 0.954804
Si Si4 0.736844 0.357013 0.664421
Si Si5 0.929551 0.624738 0.425212
Si Si6 0.683476 0.942936 0.075512
O O1 0.130890 0.205396 0.248924
O O2 0.197288 0.393477 0.157282
O O3 0.194432 0.892378 0.174764
O O4 0.105438 0.178385 0.113688
O O5 0.201955 0.436922 0.707028
O O6 0.098803 0.536191 0.637135
O O7 0.186710 0.845186 0.633824
O O8 0.000000 0.688628 0.938264
O O9 0.092292 0.500000 0.000000
O O10 0.072853 0.000000 0.000000
O O11 0.774042 0.289641 0.596406
O O12 0.921303 0.500000 0.500000
O O13 0.000000 0.673347 0.415670
O O14 0.887014 0.870602 0.425507
O O15 0.701755 0.000000 0.000000
#
# Coordination Sequence:
#
# PCOD9419290 Si02
#       6
#     8   8   8   8   8   8
#     4  12  26  43  72 100 135 173 227 271 336 412
#     4  11  25  42  67  94 141 178 224 275 340 385
#     4  10  23  48  74  99 134 171 215 280 348 402
#     4  11  26  42  65  97 137 178 218 273 337 398
#     4  10  22  41  65  96 134 180 230 278 328 390
#     4  11  23  42  64  95 137 182 223 278 330 389
#
# _framework density 20.998571999999999
#
# number of rings (size 3 to 8) (size 9 to 14) (size 15 to 20)
#    0.000    1.167    3.333    1.500    7.000    3.667 
#    3.000    0.000    0.000    0.000    0.000    0.000 
#    0.000    0.000    0.000    0.000    0.000    0.000 
#
# Total GULP energy -267594.229044 kJ/mol
# GULP energy per Si atom -5574.879772 kJ/mol
# Density = 2.095078 g / cm^3
# Si number density = 20.998572 Si / 1000 Ang^3
#
#
#
# Elastic Constant Matrix: (Units=GPa)
#
#
# Indices 1 2 3 4 5 6 
#
# 1 85.4130 34.9193 52.3338 0.0000 0.0000 0.0000
# 2 34.9193 113.3916 30.9239 0.0000 0.0000 0.0000
# 3 52.3338 30.9239 129.0068 0.0000 0.0000 0.0000
# 4 0.0000 0.0000 0.0000 34.8828 0.0000 0.0000
# 5 0.0000 0.0000 0.0000 0.0000 150.6110 0.0000
# 6 0.0000 0.0000 0.0000 0.0000 0.0000 19.5598
#
#
#
# Elastic Compliance Matrix: (Units=1/GPa)
#
#
# Indices 1 2 3 4 5 6 
#
# 1 0.016818 -0.003551 -0.005971 0.000000 0.000000 0.000000
# 2 -0.003551 0.010185 -0.001001 0.000000 0.000000 0.000000
# 3 -0.005971 -0.001001 0.010414 0.000000 0.000000 0.000000
# 4 0.000000 0.000000 0.000000 0.028667 0.000000 0.000000
# 5 0.000000 0.000000 0.000000 0.000000 0.006640 0.000000
# 6 0.000000 0.000000 0.000000 0.000000 0.000000 0.051125
#
#
# Mechanical properties :
#
#
# Convention : Reuss Voigt Hill
#
# Bulk Modulus (GPa) = 61.08347 62.68504 61.88425
# Shear Modulus (GPa) = 33.25492 54.98634 44.12063
#
# Velocity S-wave (km/s) = 3.98386 5.12275 4.58878
# Velocity P-wave (km/s) = 7.09324 8.05649 7.59016
#
# Compressibility (1/GPa) = 0.01637104
#
# Stress axis : x y z
#
# Youngs Moduli (GPa) = 59.45913 98.17907 96.02511
#
# Poissons Ratio (x) = 0.34861 0.57341
# Poissons Ratio (y) = 0.21112 0.09613
# Poissons Ratio (z) = 0.35506 0.09829
#
# Static dielectric constant tensor:
#      x y z
#    x 1.746770 0.000000 0.000000 
#    y 0.000000 1.817140 0.000000 
#    z 0.000000 0.000000 2.078670 
# 
# From -- ./inp_files/29505.got.cif
#   From: 2010.05.17/outbox.cif.g08.bks.cpg/sg53_15_cif.got.tgz:29505.got - 2010.06.03 12:45:16.
