data_PCOD9419935
_publ_section_title
;
Structure prediction by ZEFSAII (Michael W. Deem and Ramdas Pophale) SiO2 
 PCOD9419935
Probable space group: P M N A
;
_chemical_formula_sum "Si O2"
_cell_formula_units_Z 28
_cell_length_a 21.719009
_cell_length_b 4.999528
_cell_length_c 10.597702
_cell_angle_alpha 90.000000
_cell_angle_beta 90.000000
_cell_angle_gamma 90.000000
_cell_volume 1150.749285
_symmetry_space_group_name_H-M "P M N A"
_symmetry_group_IT_number 53
_symmetry_cell_setting 'orthorhombic'
loop_
_space_group_symop_operation_xyz
x,y,z
1/2-x,-y,1/2+z
x,-y,-z
1/2-x,y,1/2-z
-x,-y,-z
1/2+x,y,1/2-z
-x,y,z
1/2+x,-y,1/2+z
loop_
_atom_site_type_symbol
_atom_site_label
_atom_site_fract_x
_atom_site_fract_y
_atom_site_fract_z
Si Si1 0.854003 0.500000 0.500000
Si Si2 0.247516 0.183348 0.386906
Si Si3 0.072525 0.711156 0.272011
Si Si4 0.611550 0.809052 0.615544
O O1 0.804587 0.592987 0.607684
O O2 0.900778 0.341186 0.589366
O O3 0.250000 0.053568 0.250000
O O4 0.317724 0.260238 0.415845
O O5 0.226002 0.000000 0.500000
O O6 0.082427 0.463955 0.171524
O O7 0.000000 0.763516 0.275893
O O8 0.107209 0.975532 0.226201
O O9 0.586535 0.000000 0.500000
#
# Coordination Sequence:
#
# PCOD9419935 Si02
#       4
#     4   8   8   8
#     4  12  27  44  76 110 147 198 246 318 380 452
#     4  11  24  43  73 106 148 189 246 318 378 447
#     4  12  27  49  74 108 154 201 250 301 370 458
#     4  11  26  46  76 110 146 197 253 311 377 441
#
# _framework density 24.331973000000001
#
# number of rings (size 3 to 8) (size 9 to 14) (size 15 to 20)
#    0.000    0.571    2.857    3.857    8.000    4.571 
#    0.000    2.857    0.000    0.000    0.000    0.000 
#    0.000    0.000    0.000    0.000    0.000    0.000 
#
# Total GULP energy -156206.667304 kJ/mol
# GULP energy per Si atom -5578.809547 kJ/mol
# Density = 2.427659 g / cm^3
# Si number density = 24.331973 Si / 1000 Ang^3
#
#
#
# Elastic Constant Matrix: (Units=GPa)
#
#
# Indices 1 2 3 4 5 6 
#
# 1 95.5250 19.6085 11.6156 0.0000 0.0000 0.0000
# 2 19.6085 99.5080 19.5778 0.0000 0.0000 0.0000
# 3 11.6156 19.5778 90.5739 0.0000 0.0000 0.0000
# 4 0.0000 0.0000 0.0000 44.8912 0.0000 0.0000
# 5 0.0000 0.0000 0.0000 0.0000 50.8496 0.0000
# 6 0.0000 0.0000 0.0000 0.0000 0.0000 23.7193
#
#
#
# Elastic Compliance Matrix: (Units=1/GPa)
#
#
# Indices 1 2 3 4 5 6 
#
# 1 0.010993 -0.001973 -0.000983 0.000000 0.000000 0.000000
# 2 -0.001973 0.010850 -0.002092 0.000000 0.000000 0.000000
# 3 -0.000983 -0.002092 0.011619 0.000000 0.000000 0.000000
# 4 0.000000 0.000000 0.000000 0.022276 0.000000 0.000000
# 5 0.000000 0.000000 0.000000 0.000000 0.019666 0.000000
# 6 0.000000 0.000000 0.000000 0.000000 0.000000 0.042160
#
#
# Mechanical properties :
#
#
# Convention : Reuss Voigt Hill
#
# Bulk Modulus (GPa) = 42.79873 43.02341 42.91107
# Shear Modulus (GPa) = 36.91435 39.54568 38.23002
#
# Velocity S-wave (km/s) = 3.89924 4.03582 3.96812
# Velocity P-wave (km/s) = 6.15628 6.27992 6.21841
#
# Compressibility (1/GPa) = 0.02336518
#
# Stress axis : x y z
#
# Youngs Moduli (GPa) = 90.96707 92.16746 86.06542
#
# Poissons Ratio (x) = 0.18182 0.08464
# Poissons Ratio (y) = 0.17945 0.18007
# Poissons Ratio (z) = 0.08946 0.19284
#
# Static dielectric constant tensor:
#      x y z
#    x 1.841740 0.000000 0.000000 
#    y 0.000000 2.055460 0.000000 
#    z 0.000000 0.000000 2.015290 
# 
# From -- ./inp_files/17300.got.cif
#   From: 2010.05.17/outbox.cif.g08.bks.cpg/sg53_9_cif.got.tgz:17300.got - 2010.06.03 12:45:16.
