data_PCOD9419839
_publ_section_title
;
Structure prediction by ZEFSAII (Michael W. Deem and Ramdas Pophale) SiO2 
 PCOD9419839
Probable space group: P M N A
;
_chemical_formula_sum "Si O2"
_cell_formula_units_Z 40
_cell_length_a 16.856425
_cell_length_b 11.708850
_cell_length_c 9.178641
_cell_angle_alpha 90.000000
_cell_angle_beta 90.000000
_cell_angle_gamma 90.000000
_cell_volume 1811.582425
_symmetry_space_group_name_H-M "P M N A"
_symmetry_group_IT_number 53
_symmetry_cell_setting 'orthorhombic'
loop_
_space_group_symop_operation_xyz
x,y,z
1/2-x,-y,1/2+z
x,-y,-z
1/2-x,y,1/2-z
-x,-y,-z
1/2+x,y,1/2-z
-x,y,z
1/2+x,-y,1/2+z
loop_
_atom_site_type_symbol
_atom_site_label
_atom_site_fract_x
_atom_site_fract_y
_atom_site_fract_z
Si Si1 0.800816 0.690738 0.375248
Si Si2 0.672006 0.046652 0.346753
Si Si3 0.090398 0.101883 0.615081
Si Si4 0.818921 0.701687 0.864223
Si Si5 0.092300 0.512978 0.179731
O O1 0.750000 0.751571 0.250000
O O2 0.858331 0.788965 0.432080
O O3 0.733016 0.658785 0.494362
O O4 0.851150 0.593838 0.283562
O O5 0.750000 0.053091 0.250000
O O6 0.641215 0.174632 0.380381
O O7 0.698457 0.000000 0.500000
O O8 0.614490 0.957908 0.266861
O O9 0.000000 0.140023 0.623430
O O10 0.098310 0.000000 0.500000
O O11 0.750000 0.715291 0.750000
O O12 0.879877 0.614982 0.789743
O O13 0.000000 0.539735 0.209374
O O14 0.099026 0.500000 0.000000
#
# Coordination Sequence:
#
# PCOD9419839 Si02
#       5
#     8   8   8   8   8
#     4  12  23  43  71  98 130 181 235 286 349 422
#     4  11  22  40  65  97 133 175 227 284 343 412
#     4  11  24  42  66  99 141 183 229 287 352 422
#     4  11  24  41  67 100 134 178 234 289 345 423
#     4  11  25  44  66  96 134 175 227 296 359 416
#
# _framework density 22.080143
#
# number of rings (size 3 to 8) (size 9 to 14) (size 15 to 20)
#    0.000    0.800    2.000    7.200    0.000    1.200 
#    0.000    3.000    0.000    0.000    0.000    0.000 
#    0.000    0.000    0.000    0.000    0.000    0.000 
#
# Total GULP energy -222736.389629 kJ/mol
# GULP energy per Si atom -5568.409741 kJ/mol
# Density = 2.202989 g / cm^3
# Si number density = 22.080143 Si / 1000 Ang^3
#
#
#
# Elastic Constant Matrix: (Units=GPa)
#
#
# Indices 1 2 3 4 5 6 
#
# 1 62.8780 11.3902 1.8223 0.0000 0.0000 0.0000
# 2 11.3902 98.3669 -2.6490 0.0000 0.0000 0.0000
# 3 1.8223 -2.6490 92.5373 0.0000 0.0000 0.0000
# 4 0.0000 0.0000 0.0000 20.5359 0.0000 0.0000
# 5 0.0000 0.0000 0.0000 0.0000 22.7267 0.0000
# 6 0.0000 0.0000 0.0000 0.0000 0.0000 18.4084
#
#
#
# Elastic Compliance Matrix: (Units=1/GPa)
#
#
# Indices 1 2 3 4 5 6 
#
# 1 0.016258 -0.001893 -0.000374 0.000000 0.000000 0.000000
# 2 -0.001893 0.010394 0.000335 0.000000 0.000000 0.000000
# 3 -0.000374 0.000335 0.010823 0.000000 0.000000 0.000000
# 4 0.000000 0.000000 0.000000 0.048695 0.000000 0.000000
# 5 0.000000 0.000000 0.000000 0.000000 0.044001 0.000000
# 6 0.000000 0.000000 0.000000 0.000000 0.000000 0.054323
#
#
# Mechanical properties :
#
#
# Convention : Reuss Voigt Hill
#
# Bulk Modulus (GPa) = 29.75227 30.54547 30.14887
# Shear Modulus (GPa) = 25.05484 28.54878 26.80181
#
# Velocity S-wave (km/s) = 3.37222 3.59968 3.48780
# Velocity P-wave (km/s) = 5.35410 5.58040 5.46842
#
# Compressibility (1/GPa) = 0.03361089
#
# Stress axis : x y z
#
# Youngs Moduli (GPa) = 61.51006 96.20760 92.39236
#
# Poissons Ratio (x) = 0.18208 0.03459
# Poissons Ratio (y) = 0.11641 -0.03094
# Poissons Ratio (z) = 0.02303 -0.03221
#
# Static dielectric constant tensor:
#      x y z
#    x 1.792490 0.000000 0.000000 
#    y 0.000000 1.943310 0.000000 
#    z 0.000000 0.000000 1.961820 
# 
# From -- ./inp_files/9610.got.cif
#   From: 2010.05.17/outbox.cif.g08.bks.cpg/sg53_5_cif.got.tgz:9610.got - 2010.06.03 12:45:16.
