data_PCOD9419868
_publ_section_title
;
Structure prediction by ZEFSAII (Michael W. Deem and Ramdas Pophale) SiO2 
 PCOD9419868
Probable space group: P M N A
;
_chemical_formula_sum "Si O2"
_cell_formula_units_Z 48
_cell_length_a 8.632071
_cell_length_b 31.850113
_cell_length_c 9.240966
_cell_angle_alpha 90.000000
_cell_angle_beta 90.000000
_cell_angle_gamma 90.000000
_cell_volume 2540.641301
_symmetry_space_group_name_H-M "P M N A"
_symmetry_group_IT_number 53
_symmetry_cell_setting 'orthorhombic'
loop_
_space_group_symop_operation_xyz
x,y,z
1/2-x,-y,1/2+z
x,-y,-z
1/2-x,y,1/2-z
-x,-y,-z
1/2+x,y,1/2-z
-x,y,z
1/2+x,-y,1/2+z
loop_
_atom_site_type_symbol
_atom_site_label
_atom_site_fract_x
_atom_site_fract_y
_atom_site_fract_z
Si Si1 0.814052 0.457964 0.587326
Si Si2 0.685848 0.621543 0.587385
Si Si3 0.813981 0.705643 0.087822
Si Si4 0.313704 0.215312 0.088236
Si Si5 0.313088 0.866539 0.087275
Si Si6 0.687106 0.040315 0.911604
O O1 0.769182 0.500000 0.500000
O O2 0.750000 0.459136 0.750000
O O3 0.750513 0.417757 0.502077
O O4 0.000000 0.455877 0.592514
O O5 0.750000 0.621442 0.750000
O O6 0.500000 0.618982 0.592187
O O7 0.729284 0.664459 0.504774
O O8 0.750000 0.702272 0.250000
O O9 0.000000 0.708366 0.092477
O O10 0.747148 0.746601 0.009409
O O11 0.250000 0.219168 0.250000
O O12 0.500000 0.216437 0.091497
O O13 0.262871 0.171341 0.015525
O O14 0.250000 0.860887 0.250000
O O15 0.500000 0.865569 0.094870
O O16 0.266500 0.913182 0.033878
O O17 0.750000 0.037193 0.750000
O O18 0.500000 0.039236 0.909499
O O19 0.742901 0.000000 0.000000
#
# Coordination Sequence:
#
# PCOD9419868 Si02
#       6
#     8   8   8   8   8   8
#     4  11  24  41  63  91 123 159 199 243 290 342
#     4  11  24  41  63  90 121 156 194 239 288 339
#     4  11  24  41  62  88 117 151 191 234 282 337
#     4  11  23  38  57  82 113 147 185 231 282 335
#     4   9  19  35  54  77 105 140 181 224 272 328
#     4   9  18  33  52  75 105 139 177 222 271 325
#
# _framework density 18.892868
#
# number of rings (size 3 to 8) (size 9 to 14) (size 15 to 20)
#    0.000    1.667    0.000    4.000    0.000   11.667 
#    0.000    0.000    0.000    0.000    0.000    0.000 
#    0.000    0.000    0.000    0.000    0.000    0.000 
#
# Total GULP energy -268253.816861 kJ/mol
# GULP energy per Si atom -5588.621185 kJ/mol
# Density = 1.884987 g / cm^3
# Si number density = 18.892868 Si / 1000 Ang^3
#
#
#
# Elastic Constant Matrix: (Units=GPa)
#
#
# Indices 1 2 3 4 5 6 
#
# 1 35.7688 54.6783 42.0837 0.0000 0.0000 0.0000
# 2 54.6783 210.5617 118.3726 0.0000 0.0000 0.0000
# 3 42.0837 118.3726 172.4710 0.0000 0.0000 0.0000
# 4 0.0000 0.0000 0.0000 38.1562 0.0000 0.0000
# 5 0.0000 0.0000 0.0000 0.0000 38.2800 0.0000
# 6 0.0000 0.0000 0.0000 0.0000 0.0000 73.4864
#
#
#
# Elastic Compliance Matrix: (Units=1/GPa)
#
#
# Indices 1 2 3 4 5 6 
#
# 1 0.049128 -0.009799 -0.005262 0.000000 0.000000 0.000000
# 2 -0.009799 0.009688 -0.004258 0.000000 0.000000 0.000000
# 3 -0.005262 -0.004258 0.010004 0.000000 0.000000 0.000000
# 4 0.000000 0.000000 0.000000 0.026208 0.000000 0.000000
# 5 0.000000 0.000000 0.000000 0.000000 0.026123 0.000000
# 6 0.000000 0.000000 0.000000 0.000000 0.000000 0.013608
#
#
# Mechanical properties :
#
#
# Convention : Reuss Voigt Hill
#
# Bulk Modulus (GPa) = 33.13255 94.34117 63.73686
# Shear Modulus (GPa) = 27.25427 43.56234 35.40830
#
# Velocity S-wave (km/s) = 3.80224 4.80704 4.33386
# Velocity P-wave (km/s) = 6.07051 8.99185 7.67152
#
# Compressibility (1/GPa) = 0.03018180
#
# Stress axis : x y z
#
# Youngs Moduli (GPa) = 20.35499 103.22576 99.95800
#
# Poissons Ratio (x) = 1.01155 0.52595
# Poissons Ratio (y) = 0.19947 0.42560
# Poissons Ratio (z) = 0.10710 0.43951
#
# Static dielectric constant tensor:
#      x y z
#    x 1.638930 0.000000 0.000000 
#    y 0.000000 1.661270 0.000000 
#    z 0.000000 0.000000 1.600970 
# 
# From -- ./inp_files/6640.got.cif
#   From: 2010.05.17/outbox.cif.g08.bks.cpg/sg53_4_cif.got.tgz:6640.got - 2010.06.03 12:45:16.
