data_PCOD9419504
_publ_section_title
;
Structure prediction by ZEFSAII (Michael W. Deem and Ramdas Pophale) SiO2 
 PCOD9419504
Probable space group: P M N A
;
_chemical_formula_sum "Si O2"
_cell_formula_units_Z 28
_cell_length_a 13.307144
_cell_length_b 8.839435
_cell_length_c 10.572249
_cell_angle_alpha 90.000000
_cell_angle_beta 90.000000
_cell_angle_gamma 90.000000
_cell_volume 1243.588640
_symmetry_space_group_name_H-M "P M N A"
_symmetry_group_IT_number 53
_symmetry_cell_setting 'orthorhombic'
loop_
_space_group_symop_operation_xyz
x,y,z
1/2-x,-y,1/2+z
x,-y,-z
1/2-x,y,1/2-z
-x,-y,-z
1/2+x,y,1/2-z
-x,y,z
1/2+x,-y,1/2+z
loop_
_atom_site_type_symbol
_atom_site_label
_atom_site_fract_x
_atom_site_fract_y
_atom_site_fract_z
Si Si1 0.383318 0.582133 0.833443
Si Si2 0.882588 0.786628 0.905276
Si Si3 0.250000 0.976540 0.250000
Si Si4 0.707514 0.276554 0.929652
O O1 0.500000 0.546755 0.853733
O O2 0.371998 0.649822 0.694745
O O3 0.321128 0.431610 0.861096
O O4 0.349951 0.708381 0.936230
O O5 0.822528 0.923215 0.838170
O O6 0.000000 0.819381 0.923539
O O7 0.824107 0.739456 0.031458
O O8 0.313780 0.866523 0.158053
#
# Coordination Sequence:
#
# PCOD9419504 Si02
#       4
#     8   8   4   8
#     4  10  23  44  73  99 130 178 235 284 333 404
#     4  11  25  47  70 100 140 181 226 282 344 406
#     4  12  26  40  68 102 138 186 218 274 338 414
#     4  11  23  41  71  98 134 178 223 283 337 392
#
# _framework density 22.515481999999999
#
# number of rings (size 3 to 8) (size 9 to 14) (size 15 to 20)
#    0.000    1.143    2.857    2.571    8.000    4.571 
#    0.000    5.714    0.000    0.000    0.000    0.000 
#    0.000    0.000    0.000    0.000    0.000    0.000 
#
# Total GULP energy -156705.392239 kJ/mol
# GULP energy per Si atom -5596.621151 kJ/mol
# Density = 2.246424 g / cm^3
# Si number density = 22.515482 Si / 1000 Ang^3
#
#
#
# Elastic Constant Matrix: (Units=GPa)
#
#
# Indices 1 2 3 4 5 6 
#
# 1 139.2077 77.2446 41.0260 0.0000 0.0000 0.0000
# 2 77.2446 130.7748 36.8210 0.0000 0.0000 0.0000
# 3 41.0260 36.8210 62.3119 0.0000 0.0000 0.0000
# 4 0.0000 0.0000 0.0000 41.1729 0.0000 0.0000
# 5 0.0000 0.0000 0.0000 0.0000 19.7439 0.0000
# 6 0.0000 0.0000 0.0000 0.0000 0.0000 5.9572
#
#
#
# Elastic Compliance Matrix: (Units=1/GPa)
#
#
# Indices 1 2 3 4 5 6 
#
# 1 0.011570 -0.005625 -0.004294 0.000000 0.000000 0.000000
# 2 -0.005625 0.011908 -0.003333 0.000000 0.000000 0.000000
# 3 -0.004294 -0.003333 0.020845 0.000000 0.000000 0.000000
# 4 0.000000 0.000000 0.000000 0.024288 0.000000 0.000000
# 5 0.000000 0.000000 0.000000 0.000000 0.050649 0.000000
# 6 0.000000 0.000000 0.000000 0.000000 0.000000 0.167865
#
#
# Mechanical properties :
#
#
# Convention : Reuss Voigt Hill
#
# Bulk Modulus (GPa) = 56.11974 71.38640 63.75307
# Shear Modulus (GPa) = 15.64613 25.18831 20.41722
#
# Velocity S-wave (km/s) = 2.63897 3.34834 3.01459
# Velocity P-wave (km/s) = 5.85360 6.83541 6.36347
#
# Compressibility (1/GPa) = 0.01781904
#
# Stress axis : x y z
#
# Youngs Moduli (GPa) = 86.42793 83.97869 47.97373
#
# Poissons Ratio (x) = 0.47240 0.20599
# Poissons Ratio (y) = 0.48618 0.15989
# Poissons Ratio (z) = 0.37111 0.27989
#
# Static dielectric constant tensor:
#      x y z
#    x 1.827450 0.000000 0.000000 
#    y 0.000000 1.829490 0.000000 
#    z 0.000000 0.000000 1.854030 
# 
# From -- ./inp_files/15303.got.cif
#   From: 2010.05.17/outbox.cif.g08.bks.cpg/sg53_8_cif.got.tgz:15303.got - 2010.06.03 12:45:16.
