data_PCOD9419790
_publ_section_title
;
Structure prediction by ZEFSAII (Michael W. Deem and Ramdas Pophale) SiO2 
 PCOD9419790
Probable space group: P M N A
;
_chemical_formula_sum "Si O2"
_cell_formula_units_Z 36
_cell_length_a 13.588071
_cell_length_b 5.448875
_cell_length_c 24.891318
_cell_angle_alpha 90.000000
_cell_angle_beta 90.000000
_cell_angle_gamma 90.000000
_cell_volume 1842.945727
_symmetry_space_group_name_H-M "P M N A"
_symmetry_group_IT_number 53
_symmetry_cell_setting 'orthorhombic'
loop_
_space_group_symop_operation_xyz
x,y,z
1/2-x,-y,1/2+z
x,-y,-z
1/2-x,y,1/2-z
-x,-y,-z
1/2+x,y,1/2-z
-x,y,z
1/2+x,-y,1/2+z
loop_
_atom_site_type_symbol
_atom_site_label
_atom_site_fract_x
_atom_site_fract_y
_atom_site_fract_z
Si Si1 0.891165 0.760829 0.713091
Si Si2 0.382533 0.508836 0.935887
Si Si3 0.303497 0.989682 0.117553
Si Si4 0.250000 0.394035 0.750000
Si Si5 0.887039 0.049488 0.819786
O O1 0.858971 0.984730 0.675279
O O2 0.809133 0.557280 0.707314
O O3 0.000000 0.679549 0.698469
O O4 0.890041 0.830786 0.775911
O O5 0.500000 0.505814 0.925234
O O6 0.338344 0.765343 0.913729
O O7 0.334788 0.262936 0.910642
O O8 0.368614 0.500000 0.000000
O O9 0.187266 0.998553 0.131379
O O10 0.331967 0.252301 0.716192
O O11 0.000000 0.108646 0.833848
#
# Coordination Sequence:
#
# PCOD9419790 Si02
#       5
#     8   8   8   4   8
#     4  11  22  35  55  89 128 168 206 252 304 375
#     4  11  25  44  68  97 126 160 210 276 338 383
#     4  12  22  42  65  94 129 169 216 257 320 390
#     4  12  18  40  54  84 128 176 210 256 294 368
#     4  11  24  38  57  89 133 173 210 255 303 373
#
# _framework density 19.533944999999999
#
# number of rings (size 3 to 8) (size 9 to 14) (size 15 to 20)
#    0.000    0.667    4.444    4.667    0.000    1.778 
#    0.000    0.000    0.000    4.000    0.000    0.000 
#    0.000    0.000    0.000    0.000    0.000    0.000 
#
# Total GULP energy -201029.558889 kJ/mol
# GULP energy per Si atom -5584.154414 kJ/mol
# Density = 1.948948 g / cm^3
# Si number density = 19.533945 Si / 1000 Ang^3
#
#
#
# Elastic Constant Matrix: (Units=GPa)
#
#
# Indices 1 2 3 4 5 6 
#
# 1 198.9715 67.2818 63.7885 0.0000 0.0000 0.0000
# 2 67.2818 129.8792 59.7226 0.0000 0.0000 0.0000
# 3 63.7885 59.7226 99.2592 0.0000 0.0000 0.0000
# 4 0.0000 0.0000 0.0000 32.8398 0.0000 0.0000
# 5 0.0000 0.0000 0.0000 0.0000 33.0880 0.0000
# 6 0.0000 0.0000 0.0000 0.0000 0.0000 7.3864
#
#
#
# Elastic Compliance Matrix: (Units=1/GPa)
#
#
# Indices 1 2 3 4 5 6 
#
# 1 0.006707 -0.002064 -0.003069 0.000000 0.000000 0.000000
# 2 -0.002064 0.011279 -0.005460 0.000000 0.000000 0.000000
# 3 -0.003069 -0.005460 0.015332 0.000000 0.000000 0.000000
# 4 0.000000 0.000000 0.000000 0.030451 0.000000 0.000000
# 5 0.000000 0.000000 0.000000 0.000000 0.030222 0.000000
# 6 0.000000 0.000000 0.000000 0.000000 0.000000 0.135384
#
#
# Mechanical properties :
#
#
# Convention : Reuss Voigt Hill
#
# Bulk Modulus (GPa) = 82.41787 89.96620 86.19203
# Shear Modulus (GPa) = 19.63814 30.48398 25.06106
#
# Velocity S-wave (km/s) = 3.17414 3.95468 3.58571
# Velocity P-wave (km/s) = 7.46440 8.18590 7.83346
#
# Compressibility (1/GPa) = 0.01213329
#
# Stress axis : x y z
#
# Youngs Moduli (GPa) = 149.08690 88.65777 65.22154
#
# Poissons Ratio (x) = 0.18295 0.20016
# Poissons Ratio (y) = 0.30764 0.35614
# Poissons Ratio (z) = 0.45754 0.48411
#
# Static dielectric constant tensor:
#      x y z
#    x 1.693300 0.000000 0.000000 
#    y 0.000000 1.751650 0.000000 
#    z 0.000000 0.000000 1.717910 
# 
# From -- ./inp_files/35122.got.cif
#   From: 2010.05.17/outbox.cif.g08.bks.cpg/sg53_18_cif.got.tgz:35122.got - 2010.06.03 12:45:16.
