data_PCOD9419060
_publ_section_title
;
Structure prediction by ZEFSAII (Michael W. Deem and Ramdas Pophale) SiO2 
 PCOD9419060
Probable space group: P M N A
;
_chemical_formula_sum "Si O2"
_cell_formula_units_Z 64
_cell_length_a 15.050893
_cell_length_b 14.559417
_cell_length_c 13.107400
_cell_angle_alpha 90.000000
_cell_angle_beta 90.000000
_cell_angle_gamma 90.000000
_cell_volume 2872.253758
_symmetry_space_group_name_H-M "P M N A"
_symmetry_group_IT_number 53
_symmetry_cell_setting 'orthorhombic'
loop_
_space_group_symop_operation_xyz
x,y,z
1/2-x,-y,1/2+z
x,-y,-z
1/2-x,y,1/2-z
-x,-y,-z
1/2+x,y,1/2-z
-x,y,z
1/2+x,-y,1/2+z
loop_
_atom_site_type_symbol
_atom_site_label
_atom_site_fract_x
_atom_site_fract_y
_atom_site_fract_z
Si Si1 0.899914 0.108897 0.511538
Si Si2 0.901798 0.451559 0.392149
Si Si3 0.259515 0.348127 0.361992
Si Si4 0.103454 0.859635 0.040530
Si Si5 0.891624 0.824437 0.265587
Si Si6 0.898792 0.364081 0.979308
Si Si7 0.607864 0.385153 0.747985
Si Si8 0.737439 0.864131 0.634936
O O1 0.868094 0.130026 0.626748
O O2 0.829983 0.138011 0.426218
O O3 0.000000 0.148122 0.499068
O O4 0.906085 0.000000 0.500000
O O5 0.910071 0.500000 0.500000
O O6 0.837814 0.365246 0.406451
O O7 0.864371 0.532401 0.320125
O O8 0.000000 0.423989 0.354593
O O9 0.250000 0.386968 0.250000
O O10 0.332104 0.392903 0.433450
O O11 0.287279 0.242616 0.349654
O O12 0.136321 0.871901 0.158321
O O13 0.103723 0.747621 0.031296
O O14 0.000000 0.888596 0.031087
O O15 0.164111 0.898812 0.948119
O O16 0.860988 0.718258 0.272548
O O17 0.000000 0.824354 0.259113
O O18 0.871071 0.401430 0.869731
O O19 0.000000 0.389423 0.002348
O O20 0.500000 0.381636 0.755809
O O21 0.750000 0.904150 0.750000
#
# Coordination Sequence:
#
# PCOD9419060 Si02
#       8
#     8   8   8   8   8   8   8   8
#     4  10  22  40  62  89 122 156 189 237 296 351
#     4  10  22  36  51  76 113 151 187 234 287 336
#     4  10  22  37  54  79 113 149 192 235 279 343
#     4   8  15  32  59  90 118 144 186 245 295 341
#     4   8  15  31  60  91 114 143 190 241 294 355
#     4   8  15  32  58  82 106 138 182 240 293 334
#     4   8  15  31  56  83 107 139 188 241 288 335
#     4  10  22  39  57  85 119 159 202 235 282 354
#
# _framework density 22.282152
#
# number of rings (size 3 to 8) (size 9 to 14) (size 15 to 20)
#    0.000    3.000    0.000    1.500    1.750    3.000 
#    2.250    2.500    0.000    3.000    0.000    0.000 
#    0.000    0.000    0.000    0.000    0.000    0.000 
#
# Total GULP energy -356888.680824 kJ/mol
# GULP energy per Si atom -5576.385638 kJ/mol
# Density = 2.223144 g / cm^3
# Si number density = 22.282152 Si / 1000 Ang^3
#
#
#
# Elastic Constant Matrix: (Units=GPa)
#
#
# Indices 1 2 3 4 5 6 
#
# 1 70.7271 -0.3830 78.4847 0.0000 0.0000 0.0000
# 2 -0.3830 38.1626 27.1651 0.0000 0.0000 0.0000
# 3 78.4847 27.1651 175.9099 0.0000 0.0000 0.0000
# 4 0.0000 0.0000 0.0000 10.1005 0.0000 0.0000
# 5 0.0000 0.0000 0.0000 0.0000 28.7093 0.0000
# 6 0.0000 0.0000 0.0000 0.0000 0.0000 20.4023
#
#
#
# Elastic Compliance Matrix: (Units=1/GPa)
#
#
# Indices 1 2 3 4 5 6 
#
# 1 0.032146 0.011833 -0.016170 0.000000 0.000000 0.000000
# 2 0.011833 0.033795 -0.010498 0.000000 0.000000 0.000000
# 3 -0.016170 -0.010498 0.014520 0.000000 0.000000 0.000000
# 4 0.000000 0.000000 0.000000 0.099005 0.000000 0.000000
# 5 0.000000 0.000000 0.000000 0.000000 0.034832 0.000000
# 6 0.000000 0.000000 0.000000 0.000000 0.000000 0.049014
#
#
# Mechanical properties :
#
#
# Convention : Reuss Voigt Hill
#
# Bulk Modulus (GPa) = 19.68841 55.03702 37.36272
# Shear Modulus (GPa) = 16.13352 23.81128 19.97240
#
# Velocity S-wave (km/s) = 2.69375 3.27253 2.99714
# Velocity P-wave (km/s) = 4.30467 6.24763 5.36484
#
# Compressibility (1/GPa) = 0.05079129
#
# Stress axis : x y z
#
# Youngs Moduli (GPa) = 31.10776 29.58991 68.86899
#
# Poissons Ratio (x) = -0.35013 1.11360
# Poissons Ratio (y) = -0.36809 0.72300
# Poissons Ratio (z) = 0.50301 0.31064
#
# Static dielectric constant tensor:
#      x y z
#    x 1.946530 0.000000 0.000000 
#    y 0.000000 1.859030 0.000000 
#    z 0.000000 0.000000 1.840050 
# 
# From -- ./inp_files/16240.got.cif
#   From: 2010.05.17/outbox.cif.g08.bks.cpg/sg53_9_cif.got.tgz:16240.got - 2010.06.03 12:45:16.
