data_PCOD9419032
_publ_section_title
;
Structure prediction by ZEFSAII (Michael W. Deem and Ramdas Pophale) SiO2 
 PCOD9419032
Probable space group: P M N A
;
_chemical_formula_sum "Si O2"
_cell_formula_units_Z 58
_cell_length_a 17.768003
_cell_length_b 9.343433
_cell_length_c 16.732412
_cell_angle_alpha 90.000000
_cell_angle_beta 90.000000
_cell_angle_gamma 90.000000
_cell_volume 2777.817082
_symmetry_space_group_name_H-M "P M N A"
_symmetry_group_IT_number 53
_symmetry_cell_setting 'orthorhombic'
loop_
_space_group_symop_operation_xyz
x,y,z
1/2-x,-y,1/2+z
x,-y,-z
1/2-x,y,1/2-z
-x,-y,-z
1/2+x,y,1/2-z
-x,y,z
1/2+x,-y,1/2+z
loop_
_atom_site_type_symbol
_atom_site_label
_atom_site_fract_x
_atom_site_fract_y
_atom_site_fract_z
Si Si1 0.913277 0.820567 0.778297
Si Si2 0.244234 0.609824 0.571995
Si Si3 0.418974 0.555721 0.908967
Si Si4 0.914965 0.289054 0.710821
Si Si5 0.313315 0.910919 0.571878
Si Si6 0.385810 0.510651 0.654993
Si Si7 0.812185 0.019727 0.680786
Si Si8 0.000000 0.500000 0.000000
O O1 0.872114 0.886517 0.856630
O O2 0.909289 0.648979 0.791627
O O3 0.000000 0.862169 0.775162
O O4 0.867288 0.889944 0.705550
O O5 0.240201 0.500000 0.500000
O O6 0.159323 0.638267 0.599872
O O7 0.286040 0.754053 0.546546
O O8 0.297920 0.537635 0.637562
O O9 0.500000 0.628473 0.891601
O O10 0.413072 0.416884 0.853169
O O11 0.422036 0.500000 0.000000
O O12 0.897416 0.365675 0.795283
O O13 0.858953 0.165206 0.684184
O O14 0.000000 0.231829 0.714378
O O15 0.347676 0.000000 0.500000
O O16 0.238067 0.990396 0.603096
O O17 0.433976 0.509279 0.572350
O O18 0.750000 0.027191 0.750000
#
# Coordination Sequence:
#
# PCOD9419032 Si02
#       8
#     8   8   8   8   8   8   8   2
#     4  10  21  44  65  90 127 175 214 263 330 396
#     4  10  22  38  65  94 122 170 213 266 330 399
#     4   9  21  39  60  89 123 156 213 281 317 368
#     4  11  23  40  64  95 123 168 218 269 327 387
#     4  10  24  42  62  95 132 168 219 273 331 394
#     4  11  23  39  67  99 135 168 210 270 331 398
#     4  10  24  42  60  88 130 173 217 270 315 392
#     4  12  20  44  60 106 144 156 200 278 328 384
#
# _framework density 20.879704
#
# number of rings (size 3 to 8) (size 9 to 14) (size 15 to 20)
#    0.000    1.793    2.069    0.414    7.724    1.379 
#    0.000    0.690    0.000    2.069    0.000    0.000 
#    0.000    0.000    0.000    0.000    0.000    0.000 
#
# Total GULP energy -323338.073138 kJ/mol
# GULP energy per Si atom -5574.794364 kJ/mol
# Density = 2.083218 g / cm^3
# Si number density = 20.879704 Si / 1000 Ang^3
#
#
#
# Elastic Constant Matrix: (Units=GPa)
#
#
# Indices 1 2 3 4 5 6 
#
# 1 117.0871 5.6798 1.5539 0.0000 0.0000 0.0000
# 2 5.6798 51.0008 22.9697 0.0000 0.0000 0.0000
# 3 1.5539 22.9697 66.7684 0.0000 0.0000 0.0000
# 4 0.0000 0.0000 0.0000 31.4610 0.0000 0.0000
# 5 0.0000 0.0000 0.0000 0.0000 41.7736 0.0000
# 6 0.0000 0.0000 0.0000 0.0000 0.0000 44.1835
#
#
#
# Elastic Compliance Matrix: (Units=1/GPa)
#
#
# Indices 1 2 3 4 5 6 
#
# 1 0.008588 -0.001025 0.000153 0.000000 0.000000 0.000000
# 2 -0.001025 0.023325 -0.008000 0.000000 0.000000 0.000000
# 3 0.000153 -0.008000 0.017726 0.000000 0.000000 0.000000
# 4 0.000000 0.000000 0.000000 0.031785 0.000000 0.000000
# 5 0.000000 0.000000 0.000000 0.000000 0.023939 0.000000
# 6 0.000000 0.000000 0.000000 0.000000 0.000000 0.022633
#
#
# Mechanical properties :
#
#
# Convention : Reuss Voigt Hill
#
# Bulk Modulus (GPa) = 31.35437 32.80702 32.08069
# Shear Modulus (GPa) = 31.97486 37.12716 34.55101
#
# Velocity S-wave (km/s) = 3.91754 4.22138 4.07229
# Velocity P-wave (km/s) = 5.95920 6.28543 6.12449
#
# Compressibility (1/GPa) = 0.03189349
#
# Stress axis : x y z
#
# Youngs Moduli (GPa) = 116.43673 42.87255 56.41463
#
# Poissons Ratio (x) = 0.04396 -0.00862
# Poissons Ratio (y) = 0.11938 0.45134
# Poissons Ratio (z) = -0.01780 0.34300
#
# Static dielectric constant tensor:
#      x y z
#    x 1.777260 0.000000 0.000000 
#    y 0.000000 1.723250 0.000000 
#    z 0.000000 0.000000 1.787350 
# 
# From -- ./inp_files/29020.got.cif
#   From: 2010.05.17/outbox.cif.g08.bks.cpg/sg53_15_cif.got.tgz:29020.got - 2010.06.03 12:45:16.
