data_PCOD9419604
_publ_section_title
;
Structure prediction by ZEFSAII (Michael W. Deem and Ramdas Pophale) SiO2 
 PCOD9419604
Probable space group: P M N A
;
_chemical_formula_sum "Si O2"
_cell_formula_units_Z 30
_cell_length_a 17.121358
_cell_length_b 4.998514
_cell_length_c 14.718416
_cell_angle_alpha 90.000000
_cell_angle_beta 90.000000
_cell_angle_gamma 90.000000
_cell_volume 1259.621877
_symmetry_space_group_name_H-M "P M N A"
_symmetry_group_IT_number 53
_symmetry_cell_setting 'orthorhombic'
loop_
_space_group_symop_operation_xyz
x,y,z
1/2-x,-y,1/2+z
x,-y,-z
1/2-x,y,1/2-z
-x,-y,-z
1/2+x,y,1/2-z
-x,y,z
1/2+x,-y,1/2+z
loop_
_atom_site_type_symbol
_atom_site_label
_atom_site_fract_x
_atom_site_fract_y
_atom_site_fract_z
Si Si1 0.412552 0.200748 0.913462
Si Si2 0.357898 0.254303 0.387569
Si Si3 0.276615 0.500000 0.000000
Si Si4 0.158590 0.232522 0.770826
Si Si5 0.000000 0.500000 0.000000
O O1 0.500000 0.320267 0.915301
O O2 0.395381 0.116711 0.810317
O O3 0.337666 0.386213 0.927760
O O4 0.409659 0.000000 0.000000
O O5 0.279815 0.300744 0.446745
O O6 0.353914 0.460298 0.301439
O O7 0.431976 0.336386 0.444766
O O8 0.361265 0.949944 0.356860
O O9 0.250000 0.192045 0.750000
#
# Coordination Sequence:
#
# PCOD9419604 Si02
#       5
#     8   8   4   8   2
#     4  11  26  44  70 102 142 189 233 295 351 421
#     4  11  27  45  77 103 145 188 236 301 353 430
#     4  11  23  47  69 102 140 192 235 289 359 421
#     4  12  25  47  72 108 140 189 242 291 356 423
#     4  10  28  50  74 110 148 184 244 292 374 422
#
# _framework density 23.816669000000001
#
# number of rings (size 3 to 8) (size 9 to 14) (size 15 to 20)
#    0.000    0.800    2.667    2.800    7.467    4.267 
#    0.000    0.000    0.000    0.000    0.000    0.000 
#    0.000    0.000    0.000    0.000    0.000    0.000 
#
# Total GULP energy -167255.886729 kJ/mol
# GULP energy per Si atom -5575.196224 kJ/mol
# Density = 2.376246 g / cm^3
# Si number density = 23.816669 Si / 1000 Ang^3
#
#
#
# Elastic Constant Matrix: (Units=GPa)
#
#
# Indices 1 2 3 4 5 6 
#
# 1 210.6085 10.9770 41.1965 0.0000 0.0000 0.0000
# 2 10.9770 48.2376 11.4398 0.0000 0.0000 0.0000
# 3 41.1965 11.4398 88.0746 0.0000 0.0000 0.0000
# 4 0.0000 0.0000 0.0000 44.7868 0.0000 0.0000
# 5 0.0000 0.0000 0.0000 0.0000 -50.4565 0.0000
# 6 0.0000 0.0000 0.0000 0.0000 0.0000 -179.1782
#
#
#
# Elastic Compliance Matrix: (Units=1/GPa)
#
#
# Indices 1 2 3 4 5 6 
#
# 1 0.005245 -0.000631 -0.002371 0.000000 0.000000 0.000000
# 2 -0.000631 0.021466 -0.002493 0.000000 0.000000 0.000000
# 3 -0.002371 -0.002493 0.012787 0.000000 0.000000 0.000000
# 4 0.000000 0.000000 0.000000 0.022328 0.000000 0.000000
# 5 0.000000 0.000000 0.000000 0.000000 -0.019819 0.000000
# 6 0.000000 0.000000 0.000000 0.000000 0.000000 -0.005581
#
#
# Mechanical properties :
#
#
# Convention : Reuss Voigt Hill
#
# Bulk Modulus (GPa) = 35.07947 52.68304 43.88125
# Shear Modulus (GPa) = 87.84529 -18.08242 34.88143
#
# Velocity S-wave (km/s) = 6.07980 -2.75841 3.83114
# Velocity P-wave (km/s) = 8.00289 3.46744 6.16723
#
# Compressibility (1/GPa) = 0.02850671
#
# Stress axis : x y z
#
# Youngs Moduli (GPa) = 190.66195 46.58629 78.20464
#
# Poissons Ratio (x) = 0.02940 0.18545
# Poissons Ratio (y) = 0.12034 0.19496
# Poissons Ratio (z) = 0.45211 0.11613
#
# Static dielectric constant tensor:
#      x y z
#    x 1.805300 0.000000 0.000000 
#    y 0.000000 1.942940 0.000000 
#    z 0.000000 0.000000 2.052450 
# 
# From -- ./inp_files/23221.got.cif
#   From: 2010.05.17/outbox.cif.g08.bks.cpg/sg53_12_cif.got.tgz:23221.got - 2010.06.03 12:45:16.
