data_PCOD9419664
_publ_section_title
;
Structure prediction by ZEFSAII (Michael W. Deem and Ramdas Pophale) SiO2 
 PCOD9419664
Probable space group: P M N A
;
_chemical_formula_sum "Si O2"
_cell_formula_units_Z 56
_cell_length_a 21.319601
_cell_length_b 14.226170
_cell_length_c 9.797847
_cell_angle_alpha 90.000000
_cell_angle_beta 90.000000
_cell_angle_gamma 90.000000
_cell_volume 2971.650431
_symmetry_space_group_name_H-M "P M N A"
_symmetry_group_IT_number 53
_symmetry_cell_setting 'orthorhombic'
loop_
_space_group_symop_operation_xyz
x,y,z
1/2-x,-y,1/2+z
x,-y,-z
1/2-x,y,1/2-z
-x,-y,-z
1/2+x,y,1/2-z
-x,y,z
1/2+x,-y,1/2+z
loop_
_atom_site_type_symbol
_atom_site_label
_atom_site_fract_x
_atom_site_fract_y
_atom_site_fract_z
Si Si1 0.423944 0.218625 0.230664
Si Si2 0.246046 0.901855 0.082565
Si Si3 0.140451 0.750524 0.006007
Si Si4 0.429201 0.192139 0.743060
Si Si5 0.345135 0.260045 0.970370
Si Si6 0.075437 0.009477 0.343909
Si Si7 0.238564 0.405872 0.912436
O O1 0.500000 0.229273 0.240594
O O2 0.382746 0.260525 0.352454
O O3 0.407392 0.107114 0.225065
O O4 0.395644 0.258382 0.090586
O O5 0.250000 0.912124 0.250000
O O6 0.303137 0.834785 0.033302
O O7 0.185751 0.839507 0.038258
O O8 0.246276 0.000000 0.000000
O O9 0.077974 0.774023 0.090311
O O10 0.178564 0.660905 0.060621
O O11 0.500000 0.197593 0.794370
O O12 0.383916 0.256195 0.831351
O O13 0.408053 0.084100 0.762321
O O14 0.297557 0.346265 0.969755
O O15 0.000000 0.012288 0.351514
O O16 0.098054 0.000000 0.500000
O O17 0.250000 0.420420 0.750000
O O18 0.232323 0.500000 0.000000
#
# Coordination Sequence:
#
# PCOD9419664 Si02
#       7
#     8   8   8   8   8   8   8
#     4  11  24  38  60  96 135 172 216 258 301 369
#     4  11  25  39  58  87 123 169 214 267 316 362
#     4  11  24  42  61  91 130 161 210 261 322 377
#     4  11  20  36  63  88 125 178 213 251 309 370
#     4  11  22  40  65  90 126 163 213 255 312 378
#     4   9  18  31  50  81 121 175 220 246 278 339
#     4  11  25  47  73  98 120 154 209 267 325 390
#
# _framework density 18.844746000000001
#
# number of rings (size 3 to 8) (size 9 to 14) (size 15 to 20)
#    0.000    1.286    4.286    1.714    8.000    1.143 
#    0.000    2.143    0.000    5.143    0.000    0.000 
#    0.000    0.000    0.000    0.000    0.000    0.000 
#
# Total GULP energy -312451.333015 kJ/mol
# GULP energy per Si atom -5579.488090 kJ/mol
# Density = 1.880185 g / cm^3
# Si number density = 18.844746 Si / 1000 Ang^3
#
#
#
# Elastic Constant Matrix: (Units=GPa)
#
#
# Indices 1 2 3 4 5 6 
#
# 1 85.2168 35.0222 26.8616 0.0000 0.0000 0.0000
# 2 35.0222 110.9598 38.4588 0.0000 0.0000 0.0000
# 3 26.8616 38.4588 89.2703 0.0000 0.0000 0.0000
# 4 0.0000 0.0000 0.0000 22.0010 0.0000 0.0000
# 5 0.0000 0.0000 0.0000 0.0000 34.0307 0.0000
# 6 0.0000 0.0000 0.0000 0.0000 0.0000 14.6335
#
#
#
# Elastic Compliance Matrix: (Units=1/GPa)
#
#
# Indices 1 2 3 4 5 6 
#
# 1 0.014024 -0.003484 -0.002719 0.000000 0.000000 0.000000
# 2 -0.003484 0.011460 -0.003889 0.000000 0.000000 0.000000
# 3 -0.002719 -0.003889 0.013695 0.000000 0.000000 0.000000
# 4 0.000000 0.000000 0.000000 0.045452 0.000000 0.000000
# 5 0.000000 0.000000 0.000000 0.000000 0.029385 0.000000
# 6 0.000000 0.000000 0.000000 0.000000 0.000000 0.068336
#
#
# Mechanical properties :
#
#
# Convention : Reuss Voigt Hill
#
# Bulk Modulus (GPa) = 52.64315 54.01468 53.32892
# Shear Modulus (GPa) = 23.93864 26.47333 25.20598
#
# Velocity S-wave (km/s) = 3.56801 3.75215 3.66123
# Velocity P-wave (km/s) = 6.70597 6.89179 6.79951
#
# Compressibility (1/GPa) = 0.01899582
#
# Stress axis : x y z
#
# Youngs Moduli (GPa) = 71.30836 87.26218 73.01763
#
# Poissons Ratio (x) = 0.30401 0.19852
# Poissons Ratio (y) = 0.24843 0.28394
# Poissons Ratio (z) = 0.19387 0.33933
#
# Static dielectric constant tensor:
#      x y z
#    x 1.666720 0.000000 0.000000 
#    y 0.000000 1.630440 0.000000 
#    z 0.000000 0.000000 1.645540 
# 
# From -- ./inp_files/11081.got.cif
#   From: 2010.05.17/outbox.cif.g08.bks.cpg/sg53_6_cif.got.tgz:11081.got - 2010.06.03 12:45:16.
