data_PCOD9419485
_publ_section_title
;
Structure prediction by ZEFSAII (Michael W. Deem and Ramdas Pophale) SiO2 
 PCOD9419485
Probable space group: P M N A
;
_chemical_formula_sum "Si O2"
_cell_formula_units_Z 40
_cell_length_a 18.280667
_cell_length_b 5.169144
_cell_length_c 17.630434
_cell_angle_alpha 90.000000
_cell_angle_beta 90.000000
_cell_angle_gamma 90.000000
_cell_volume 1665.994915
_symmetry_space_group_name_H-M "P M N A"
_symmetry_group_IT_number 53
_symmetry_cell_setting 'orthorhombic'
loop_
_space_group_symop_operation_xyz
x,y,z
1/2-x,-y,1/2+z
x,-y,-z
1/2-x,y,1/2-z
-x,-y,-z
1/2+x,y,1/2-z
-x,y,z
1/2+x,-y,1/2+z
loop_
_atom_site_type_symbol
_atom_site_label
_atom_site_fract_x
_atom_site_fract_y
_atom_site_fract_z
Si Si1 0.578577 0.271817 0.272746
Si Si2 0.700209 0.635338 0.313051
Si Si3 0.326553 0.435187 0.085905
Si Si4 0.582650 0.064644 0.587297
Si Si5 0.415558 0.937242 0.130122
O O1 0.500000 0.393267 0.252369
O O2 0.646426 0.456112 0.264566
O O3 0.585846 0.021112 0.219024
O O4 0.577607 0.188502 0.360062
O O5 0.750000 0.783779 0.250000
O O6 0.754711 0.462341 0.363028
O O7 0.648312 0.784662 0.371799
O O8 0.365664 0.158453 0.092072
O O9 0.383348 0.658593 0.111586
O O10 0.306239 0.500000 0.000000
O O11 0.500000 0.184972 0.591703
O O12 0.597311 0.000000 0.500000
O O13 0.500000 0.954759 0.105560
#
# Coordination Sequence:
#
# PCOD9419485 Si02
#       5
#     8   8   8   8   8
#     4  10  23  43  71 102 138 189 248 300 359 443
#     4  12  25  43  70 101 146 193 240 307 379 454
#     4  12  28  45  72 111 147 191 240 306 376 439
#     4  10  24  44  71 104 142 193 250 310 377 448
#     4  11  25  49  76 105 144 196 250 299 359 444
#
# _framework density 24.009677
#
# number of rings (size 3 to 8) (size 9 to 14) (size 15 to 20)
#    0.000    1.000    2.000    3.000    5.600    3.200 
#    0.000    3.000    0.000    0.000    0.000    0.000 
#    0.000    0.000    0.000    0.000    0.000    0.000 
#
# Total GULP energy -223873.046962 kJ/mol
# GULP energy per Si atom -5596.826174 kJ/mol
# Density = 2.395503 g / cm^3
# Si number density = 24.009677 Si / 1000 Ang^3
#
#
#
# Elastic Constant Matrix: (Units=GPa)
#
#
# Indices 1 2 3 4 5 6 
#
# 1 172.3050 30.4433 33.4360 0.0000 0.0000 0.0000
# 2 30.4433 43.8302 1.9452 0.0000 0.0000 0.0000
# 3 33.4360 1.9452 130.7931 0.0000 0.0000 0.0000
# 4 0.0000 0.0000 0.0000 27.2521 0.0000 0.0000
# 5 0.0000 0.0000 0.0000 0.0000 12.9903 0.0000
# 6 0.0000 0.0000 0.0000 0.0000 0.0000 167.7157
#
#
#
# Elastic Compliance Matrix: (Units=1/GPa)
#
#
# Indices 1 2 3 4 5 6 
#
# 1 0.006979 -0.004772 -0.001713 0.000000 0.000000 0.000000
# 2 -0.004772 0.026093 0.000832 0.000000 0.000000 0.000000
# 3 -0.001713 0.000832 0.008071 0.000000 0.000000 0.000000
# 4 0.000000 0.000000 0.000000 0.036694 0.000000 0.000000
# 5 0.000000 0.000000 0.000000 0.000000 0.076981 0.000000
# 6 0.000000 0.000000 0.000000 0.000000 0.000000 0.005962
#
#
# Mechanical properties :
#
#
# Convention : Reuss Voigt Hill
#
# Bulk Modulus (GPa) = 33.51535 53.17525 43.34530
# Shear Modulus (GPa) = 27.46770 60.33187 43.89979
#
# Velocity S-wave (km/s) = 3.38601 5.01824 4.28064
# Velocity P-wave (km/s) = 5.41075 7.46809 6.52107
#
# Compressibility (1/GPa) = 0.02983707
#
# Stress axis : x y z
#
# Youngs Moduli (GPa) = 143.28391 38.32506 123.89646
#
# Poissons Ratio (x) = 0.18287 0.21226
# Poissons Ratio (y) = 0.68368 -0.10305
# Poissons Ratio (z) = 0.24547 -0.03188
#
# Static dielectric constant tensor:
#      x y z
#    x 1.923390 0.000000 0.000000 
#    y 0.000000 1.908960 0.000000 
#    z 0.000000 0.000000 1.923750 
# 
# From -- ./inp_files/28746.got.cif
#   From: 2010.05.17/outbox.cif.g08.bks.cpg/sg53_15_cif.got.tgz:28746.got - 2010.06.03 12:45:16.
