data_PCOD9419378
_publ_section_title
;
Structure prediction by ZEFSAII (Michael W. Deem and Ramdas Pophale) SiO2 
 PCOD9419378
Probable space group: P M N A
;
_chemical_formula_sum "Si O2"
_cell_formula_units_Z 28
_cell_length_a 16.265308
_cell_length_b 5.056431
_cell_length_c 15.743894
_cell_angle_alpha 90.000000
_cell_angle_beta 90.000000
_cell_angle_gamma 90.000000
_cell_volume 1294.847235
_symmetry_space_group_name_H-M "P M N A"
_symmetry_group_IT_number 53
_symmetry_cell_setting 'orthorhombic'
loop_
_space_group_symop_operation_xyz
x,y,z
1/2-x,-y,1/2+z
x,-y,-z
1/2-x,y,1/2-z
-x,-y,-z
1/2+x,y,1/2-z
-x,y,z
1/2+x,-y,1/2+z
loop_
_atom_site_type_symbol
_atom_site_label
_atom_site_fract_x
_atom_site_fract_y
_atom_site_fract_z
Si Si1 0.595744 0.696373 0.739474
Si Si2 0.834198 0.500000 0.500000
Si Si3 0.704657 0.111224 0.412170
Si Si4 0.350203 0.200596 0.843251
O O1 0.500000 0.638746 0.728364
O O2 0.639265 0.769763 0.651466
O O3 0.639503 0.442392 0.779458
O O4 0.606545 0.945011 0.803255
O O5 0.774318 0.317740 0.442947
O O6 0.881712 0.311042 0.565504
O O7 0.668310 0.000000 0.500000
O O8 0.756644 0.887659 0.362585
#
# Coordination Sequence:
#
# PCOD9419378 Si02
#       4
#     8   4   8   8
#     4  12  27  44  67 106 145 178 217 281 355 406
#     4  10  22  44  70 104 124 176 246 280 320 388
#     4  10  24  42  75 100 134 179 239 282 329 400
#     4  11  24  44  70 100 132 183 233 280 326 401
#
# _framework density 21.624172000000002
#
# number of rings (size 3 to 8) (size 9 to 14) (size 15 to 20)
#    0.000    1.143    2.857    1.714   12.000    0.571 
#    0.000    5.000    0.000    0.000    0.000    0.000 
#    0.000    0.000    0.000    0.000    0.000    0.000 
#
# Total GULP energy -156609.642280 kJ/mol
# GULP energy per Si atom -5593.201510 kJ/mol
# Density = 2.157495 g / cm^3
# Si number density = 21.624172 Si / 1000 Ang^3
#
#
#
# Elastic Constant Matrix: (Units=GPa)
#
#
# Indices 1 2 3 4 5 6 
#
# 1 68.7367 37.7821 91.4239 0.0000 0.0000 0.0000
# 2 37.7821 146.8516 68.6705 0.0000 0.0000 0.0000
# 3 91.4239 68.6705 143.6438 0.0000 0.0000 0.0000
# 4 0.0000 0.0000 0.0000 50.0089 0.0000 0.0000
# 5 0.0000 0.0000 0.0000 0.0000 -18.9909 0.0000
# 6 0.0000 0.0000 0.0000 0.0000 0.0000 10.5991
#
#
#
# Elastic Compliance Matrix: (Units=1/GPa)
#
#
# Indices 1 2 3 4 5 6 
#
# 1 0.097647 0.005073 -0.064574 0.000000 0.000000 0.000000
# 2 0.005073 0.009034 -0.007548 0.000000 0.000000 0.000000
# 3 -0.064574 -0.007548 0.051669 0.000000 0.000000 0.000000
# 4 0.000000 0.000000 0.000000 0.019996 0.000000 0.000000
# 5 0.000000 0.000000 0.000000 0.000000 -0.052657 0.000000
# 6 0.000000 0.000000 0.000000 0.000000 0.000000 0.094347
#
#
# Mechanical properties :
#
#
# Convention : Reuss Voigt Hill
#
# Bulk Modulus (GPa) = 41.23224 83.88726 62.55975
# Shear Modulus (GPa) = 13.80386 19.08046 16.44216
#
# Velocity S-wave (km/s) = 2.52931 2.97369 2.76045
# Velocity P-wave (km/s) = 5.25727 7.11814 6.25727
#
# Compressibility (1/GPa) = 0.02425287
#
# Stress axis : x y z
#
# Youngs Moduli (GPa) = 10.24097 110.69602 19.35403
#
# Poissons Ratio (x) = -0.56159 1.24977
# Poissons Ratio (y) = -0.05196 0.14608
# Poissons Ratio (z) = 0.66130 0.83549
#
# Static dielectric constant tensor:
#      x y z
#    x 1.730590 0.000000 0.000000 
#    y 0.000000 1.837230 0.000000 
#    z 0.000000 0.000000 1.817010 
# 
# From -- ./inp_files/23107.got.cif
#   From: 2010.05.17/outbox.cif.g08.bks.cpg/sg53_12_cif.got.tgz:23107.got - 2010.06.03 12:45:16.
