data_PCOD9419013
_publ_section_title
;
Structure prediction by ZEFSAII (Michael W. Deem and Ramdas Pophale) SiO2 
 PCOD9419013
Probable space group: P M N A
;
_chemical_formula_sum "Si O2"
_cell_formula_units_Z 44
_cell_length_a 27.397736
_cell_length_b 5.646654
_cell_length_c 13.532653
_cell_angle_alpha 90.000000
_cell_angle_beta 90.000000
_cell_angle_gamma 90.000000
_cell_volume 2093.576330
_symmetry_space_group_name_H-M "P M N A"
_symmetry_group_IT_number 53
_symmetry_cell_setting 'orthorhombic'
loop_
_space_group_symop_operation_xyz
x,y,z
1/2-x,-y,1/2+z
x,-y,-z
1/2-x,y,1/2-z
-x,-y,-z
1/2+x,y,1/2-z
-x,y,z
1/2+x,-y,1/2+z
loop_
_atom_site_type_symbol
_atom_site_label
_atom_site_fract_x
_atom_site_fract_y
_atom_site_fract_z
Si Si1 0.587541 0.500000 0.000000
Si Si2 0.750000 0.148338 0.750000
Si Si3 0.325883 0.209341 0.322914
Si Si4 0.101204 0.169326 0.849966
Si Si5 0.000000 0.701612 0.621391
Si Si6 0.660693 0.414877 0.826472
Si Si7 0.500000 0.802112 0.245641
Si Si8 0.151335 0.500000 0.000000
O O1 0.549424 0.676833 0.944691
O O2 0.625358 0.395639 0.919763
O O3 0.713847 0.296399 0.820511
O O4 0.715622 0.986297 0.682244
O O5 0.330338 0.320530 0.213974
O O6 0.316763 0.393562 0.410714
O O7 0.377817 0.094404 0.348681
O O8 0.130487 0.296084 0.761759
O O9 0.046215 0.186363 0.817111
O O10 0.117475 0.303529 0.948210
O O11 0.000000 0.452175 0.686073
O O12 0.000000 0.956061 0.677850
#
# Coordination Sequence:
#
# PCOD9419013 Si02
#       8
#     4   4   8   8   4   8   4   4
#     4  11  22  44  69 106 136 186 233 291 348 430
#     4  10  22  42  66  94 130 180 222 286 358 416
#     4  10  21  43  65  93 130 177 223 286 347 412
#     4  10  22  40  67  95 134 178 223 276 346 403
#     4  11  26  44  72 107 149 189 235 286 354 426
#     4  10  21  42  65  94 136 175 226 283 343 415
#     4  12  24  46  71 104 144 190 227 286 348 423
#     4  10  22  41  69  94 130 172 231 285 346 410
#
# _framework density 21.016667000000002
#
# number of rings (size 3 to 8) (size 9 to 14) (size 15 to 20)
#    0.000    1.636    1.818    2.182    2.545    1.818 
#    6.545   23.636    0.000    2.182    0.000    0.000 
#    0.000    0.000    0.000    0.000    0.000    0.000 
#
# Total GULP energy -245373.703663 kJ/mol
# GULP energy per Si atom -5576.675083 kJ/mol
# Density = 2.096883 g / cm^3
# Si number density = 21.016667 Si / 1000 Ang^3
#
#
#
# Elastic Constant Matrix: (Units=GPa)
#
#
# Indices 1 2 3 4 5 6 
#
# 1 158.6520 35.5607 43.7336 0.0000 0.0000 0.0000
# 2 35.5607 80.9186 25.5446 0.0000 0.0000 0.0000
# 3 43.7336 25.5446 89.6831 0.0000 0.0000 0.0000
# 4 0.0000 0.0000 0.0000 24.4680 0.0000 0.0000
# 5 0.0000 0.0000 0.0000 0.0000 22.9570 0.0000
# 6 0.0000 0.0000 0.0000 0.0000 0.0000 -3.8263
#
#
#
# Elastic Compliance Matrix: (Units=1/GPa)
#
#
# Indices 1 2 3 4 5 6 
#
# 1 0.007688 -0.002412 -0.003062 0.000000 0.000000 0.000000
# 2 -0.002412 0.014336 -0.002907 0.000000 0.000000 0.000000
# 3 -0.003062 -0.002907 0.013472 0.000000 0.000000 0.000000
# 4 0.000000 0.000000 0.000000 0.040870 0.000000 0.000000
# 5 0.000000 0.000000 0.000000 0.000000 0.043560 0.000000
# 6 0.000000 0.000000 0.000000 0.000000 0.000000 -0.261346
#
#
# Mechanical properties :
#
#
# Convention : Reuss Voigt Hill
#
# Bulk Modulus (GPa) = 53.38120 59.88128 56.63124
# Shear Modulus (GPa) = -42.22439 23.68071 -9.27184
#
# Velocity S-wave (km/s) = -4.48715 3.36036 -2.10267
# Velocity P-wave (km/s) = 1.17959 6.60380 4.59450
#
# Compressibility (1/GPa) = 0.01873319
#
# Stress axis : x y z
#
# Youngs Moduli (GPa) = 130.07704 69.75562 74.23053
#
# Poissons Ratio (x) = 0.16824 0.22729
# Poissons Ratio (y) = 0.31373 0.21580
# Poissons Ratio (z) = 0.39829 0.20279
#
# Static dielectric constant tensor:
#      x y z
#    x 1.767850 0.000000 0.000000 
#    y 0.000000 1.903330 0.000000 
#    z 0.000000 0.000000 1.746340 
# 
# From -- ./inp_files/24891.got.cif
#   From: 2010.05.17/outbox.cif.g08.bks.cpg/sg53_13_cif.got.tgz:24891.got - 2010.06.03 12:45:16.
