data_PCOD9419890
_publ_section_title
;
Structure prediction by ZEFSAII (Michael W. Deem and Ramdas Pophale) SiO2 
 PCOD9419890
Probable space group: P M N A
;
_chemical_formula_sum "Si O2"
_cell_formula_units_Z 40
_cell_length_a 8.710333
_cell_length_b 12.404581
_cell_length_c 19.040439
_cell_angle_alpha 90.000000
_cell_angle_beta 90.000000
_cell_angle_gamma 90.000000
_cell_volume 2057.281948
_symmetry_space_group_name_H-M "P M N A"
_symmetry_group_IT_number 53
_symmetry_cell_setting 'orthorhombic'
loop_
_space_group_symop_operation_xyz
x,y,z
1/2-x,-y,1/2+z
x,-y,-z
1/2-x,y,1/2-z
-x,-y,-z
1/2+x,y,1/2-z
-x,y,z
1/2+x,-y,1/2+z
loop_
_atom_site_type_symbol
_atom_site_label
_atom_site_fract_x
_atom_site_fract_y
_atom_site_fract_z
Si Si1 0.683771 0.968737 0.325165
Si Si2 0.816843 0.177053 0.397755
Si Si3 0.683567 0.391354 0.328171
Si Si4 0.316762 0.567409 0.071426
Si Si5 0.816373 0.804876 0.048907
O O1 0.750000 0.935211 0.250000
O O2 0.500000 0.980007 0.320990
O O3 0.720096 0.882671 0.385993
O O4 0.757031 0.082201 0.347850
O O5 0.745795 0.289963 0.372493
O O6 0.760723 0.155481 0.476935
O O7 0.000000 0.184204 0.395511
O O8 0.750000 0.383514 0.250000
O O9 0.500000 0.389238 0.326835
O O10 0.743427 0.499281 0.365701
O O11 0.500000 0.576405 0.080717
O O12 0.243777 0.684909 0.063987
O O13 0.288808 0.500000 0.000000
O O14 0.000000 0.803746 0.039241
#
# Coordination Sequence:
#
# PCOD9419890 Si02
#       5
#     8   8   8   8   8
#     4  11  25  44  65  93 129 169 214 263 320 382
#     4  12  24  41  66  96 129 167 214 266 322 381
#     4  12  25  42  66  95 131 170 214 266 323 382
#     4  11  23  41  66  96 130 168 213 263 317 380
#     4  11  24  42  67  96 128 170 217 265 319 382
#
# _framework density 19.443128999999999
#
# number of rings (size 3 to 8) (size 9 to 14) (size 15 to 20)
#    0.000    0.600    2.000    6.600    0.000    7.200 
#    0.000    2.000    0.000    0.000    0.000    0.000 
#    0.000    0.000    0.000    0.000    0.000    0.000 
#
# Total GULP energy -223991.625432 kJ/mol
# GULP energy per Si atom -5599.790636 kJ/mol
# Density = 1.939888 g / cm^3
# Si number density = 19.443129 Si / 1000 Ang^3
#
#
#
# Elastic Constant Matrix: (Units=GPa)
#
#
# Indices 1 2 3 4 5 6 
#
# 1 74.7847 1.6746 30.8084 0.0000 0.0000 0.0000
# 2 1.6746 29.7497 -7.0253 0.0000 0.0000 0.0000
# 3 30.8084 -7.0253 112.7546 0.0000 0.0000 0.0000
# 4 0.0000 0.0000 0.0000 30.7432 0.0000 0.0000
# 5 0.0000 0.0000 0.0000 0.0000 44.9398 0.0000
# 6 0.0000 0.0000 0.0000 0.0000 0.0000 57.0561
#
#
#
# Elastic Compliance Matrix: (Units=1/GPa)
#
#
# Indices 1 2 3 4 5 6 
#
# 1 0.015168 -0.001860 -0.004260 0.000000 0.000000 0.000000
# 2 -0.001860 0.034344 0.002648 0.000000 0.000000 0.000000
# 3 -0.004260 0.002648 0.010198 0.000000 0.000000 0.000000
# 4 0.000000 0.000000 0.000000 0.032527 0.000000 0.000000
# 5 0.000000 0.000000 0.000000 0.000000 0.022252 0.000000
# 6 0.000000 0.000000 0.000000 0.000000 0.000000 0.017527
#
#
# Mechanical properties :
#
#
# Convention : Reuss Voigt Hill
#
# Bulk Modulus (GPa) = 18.95174 29.80047 24.37610
# Shear Modulus (GPa) = 31.93879 39.33659 35.63769
#
# Velocity S-wave (km/s) = 4.05739 4.50284 4.28591
# Velocity P-wave (km/s) = 5.63190 6.51109 6.08739
#
# Compressibility (1/GPa) = 0.05276561
#
# Stress axis : x y z
#
# Youngs Moduli (GPa) = 65.92611 29.11731 98.05945
#
# Poissons Ratio (x) = 0.05415 0.41777
# Poissons Ratio (y) = 0.12262 -0.25966
# Poissons Ratio (z) = 0.28087 -0.07710
#
# Static dielectric constant tensor:
#      x y z
#    x 1.645410 0.000000 0.000000 
#    y 0.000000 1.646540 0.000000 
#    z 0.000000 0.000000 1.666870 
# 
# From -- ./inp_files/25824.got.cif
#   From: 2010.05.17/outbox.cif.g08.bks.cpg/sg53_13_cif.got.tgz:25824.got - 2010.06.03 12:45:16.
