data_PCOD9419967
_publ_section_title
;
Structure prediction by ZEFSAII (Michael W. Deem and Ramdas Pophale) SiO2 
 PCOD9419967
Probable space group: P M N A
;
_chemical_formula_sum "Si O2"
_cell_formula_units_Z 32
_cell_length_a 25.102107
_cell_length_b 6.408156
_cell_length_c 9.045926
_cell_angle_alpha 90.000000
_cell_angle_beta 90.000000
_cell_angle_gamma 90.000000
_cell_volume 1455.111533
_symmetry_space_group_name_H-M "P M N A"
_symmetry_group_IT_number 53
_symmetry_cell_setting 'orthorhombic'
loop_
_space_group_symop_operation_xyz
x,y,z
1/2-x,-y,1/2+z
x,-y,-z
1/2-x,y,1/2-z
-x,-y,-z
1/2+x,y,1/2-z
-x,y,z
1/2+x,-y,1/2+z
loop_
_atom_site_type_symbol
_atom_site_label
_atom_site_fract_x
_atom_site_fract_y
_atom_site_fract_z
Si Si1 0.250000 0.847202 0.250000
Si Si2 0.676716 0.000000 0.500000
Si Si3 0.558120 0.037816 0.822998
Si Si4 0.351363 0.382883 0.846375
Si Si5 0.598102 0.329392 0.390150
O O1 0.214404 0.983553 0.141017
O O2 0.208187 0.706319 0.340299
O O3 0.637217 0.806243 0.509189
O O4 0.500000 0.128667 0.780864
O O5 0.607162 0.195951 0.814823
O O6 0.566724 0.834929 0.716756
O O7 0.555839 0.000000 0.000000
O O8 0.363321 0.548245 0.720088
O O9 0.362326 0.500000 0.000000
O O10 0.570634 0.500000 0.500000
#
# Coordination Sequence:
#
# PCOD9419967 Si02
#       5
#     4   4   8   8   8
#     4  12  28  44  72 106 146 190 240 302 362 442
#     4  12  28  46  69 104 145 190 240 296 356 438
#     4  11  25  48  75 108 146 189 247 307 365 440
#     4  12  27  45  73 109 146 190 242 298 369 440
#     4  12  24  49  70 104 148 186 241 302 364 438
#
# _framework density 21.991441999999999
#
# number of rings (size 3 to 8) (size 9 to 14) (size 15 to 20)
#    0.000    0.250    7.500    0.000    8.750    2.000 
#    0.000    4.375    0.000    0.000    0.000    0.000 
#    0.000    0.000    0.000    0.000    0.000    0.000 
#
# Total GULP energy -178683.036788 kJ/mol
# GULP energy per Si atom -5583.844900 kJ/mol
# Density = 2.194139 g / cm^3
# Si number density = 21.991442 Si / 1000 Ang^3
#
#
#
# Elastic Constant Matrix: (Units=GPa)
#
#
# Indices 1 2 3 4 5 6 
#
# 1 127.3758 49.1480 24.0491 0.0000 0.0000 0.0000
# 2 49.1480 104.0475 50.3852 0.0000 0.0000 0.0000
# 3 24.0491 50.3852 139.4552 0.0000 0.0000 0.0000
# 4 0.0000 0.0000 0.0000 61.3014 0.0000 0.0000
# 5 0.0000 0.0000 0.0000 0.0000 6.8263 0.0000
# 6 0.0000 0.0000 0.0000 0.0000 0.0000 0.8130
#
#
#
# Elastic Compliance Matrix: (Units=1/GPa)
#
#
# Indices 1 2 3 4 5 6 
#
# 1 0.009601 -0.004525 -0.000021 0.000000 0.000000 0.000000
# 2 -0.004525 0.013782 -0.004199 0.000000 0.000000 0.000000
# 3 -0.000021 -0.004199 0.008691 0.000000 0.000000 0.000000
# 4 0.000000 0.000000 0.000000 0.016313 0.000000 0.000000
# 5 0.000000 0.000000 0.000000 0.000000 0.146491 0.000000
# 6 0.000000 0.000000 0.000000 0.000000 0.000000 1.230039
#
#
# Mechanical properties :
#
#
# Convention : Reuss Voigt Hill
#
# Bulk Modulus (GPa) = 68.56631 68.67146 68.61888
# Shear Modulus (GPa) = 3.45479 30.27456 16.86467
#
# Velocity S-wave (km/s) = 1.25474 3.71435 2.77225
# Velocity P-wave (km/s) = 5.77456 7.04907 6.44340
#
# Compressibility (1/GPa) = 0.01458442
#
# Stress axis : x y z
#
# Youngs Moduli (GPa) = 104.15965 72.55964 115.05550
#
# Poissons Ratio (x) = 0.32833 0.00239
# Poissons Ratio (y) = 0.47131 0.48312
# Poissons Ratio (z) = 0.00217 0.30468
#
# Static dielectric constant tensor:
#      x y z
#    x 1.751510 0.000000 0.000000 
#    y 0.000000 1.872420 0.000000 
#    z 0.000000 0.000000 1.964890 
# 
# From -- ./inp_files/12769.got.cif
#   From: 2010.05.17/outbox.cif.g08.bks.cpg/sg53_7_cif.got.tgz:12769.got - 2010.06.03 12:45:16.
