data_PCOD9419295
_publ_section_title
;
Structure prediction by ZEFSAII (Michael W. Deem and Ramdas Pophale) SiO2 
 PCOD9419295
Probable space group: P M N A
;
_chemical_formula_sum "Si O2"
_cell_formula_units_Z 44
_cell_length_a 16.650561
_cell_length_b 8.737929
_cell_length_c 14.782501
_cell_angle_alpha 90.000000
_cell_angle_beta 90.000000
_cell_angle_gamma 90.000000
_cell_volume 2150.727059
_symmetry_space_group_name_H-M "P M N A"
_symmetry_group_IT_number 53
_symmetry_cell_setting 'orthorhombic'
loop_
_space_group_symop_operation_xyz
x,y,z
1/2-x,-y,1/2+z
x,-y,-z
1/2-x,y,1/2-z
-x,-y,-z
1/2+x,y,1/2-z
-x,y,z
1/2+x,-y,1/2+z
loop_
_atom_site_type_symbol
_atom_site_label
_atom_site_fract_x
_atom_site_fract_y
_atom_site_fract_z
Si Si1 0.352380 0.068929 0.229592
Si Si2 0.830191 0.441618 0.602637
Si Si3 0.250000 0.362145 0.250000
Si Si4 0.735129 0.885411 0.084683
Si Si5 0.411121 0.898218 0.409047
Si Si6 0.000000 0.085130 0.403628
Si Si7 0.500000 0.449233 0.103300
O O1 0.324761 0.242797 0.250360
O O2 0.421461 0.049820 0.154206
O O3 0.279869 0.990176 0.172065
O O4 0.391716 0.997412 0.319575
O O5 0.824293 0.500000 0.500000
O O6 0.764638 0.527421 0.664462
O O7 0.821938 0.259638 0.595069
O O8 0.917306 0.486403 0.642972
O O9 0.825339 0.813858 0.080415
O O10 0.723986 0.000000 0.000000
O O11 0.500000 0.825204 0.399446
O O12 0.414809 0.000000 0.500000
O O13 0.000000 0.268173 0.406359
O O14 0.000000 0.000000 0.500000
O O15 0.500000 0.500000 0.000000
#
# Coordination Sequence:
#
# PCOD9419295 Si02
#       7
#     8   8   4   8   8   4   4
#     4  12  23  41  68 100 133 179 232 283 345 422
#     4  11  26  44  65  97 140 183 224 285 358 416
#     4  12  24  42  68  98 138 182 230 280 350 420
#     4  11  24  42  70  99 132 177 231 286 346 424
#     4  10  22  41  66  92 126 168 227 288 336 392
#     4  12  26  42  69 105 140 187 231 283 357 430
#     4  10  24  44  62  97 144 181 221 279 361 413
#
# _framework density 20.458197999999999
#
# number of rings (size 3 to 8) (size 9 to 14) (size 15 to 20)
#    0.000    0.909    4.545    1.636   12.727    0.000 
#    0.000    0.455    2.000    0.545    0.000    0.000 
#    0.000    0.000    0.000    0.000    0.000    0.000 
#
# Total GULP energy -245124.099202 kJ/mol
# GULP energy per Si atom -5571.002255 kJ/mol
# Density = 2.041163 g / cm^3
# Si number density = 20.458198 Si / 1000 Ang^3
#
#
#
# Elastic Constant Matrix: (Units=GPa)
#
#
# Indices 1 2 3 4 5 6 
#
# 1 108.5072 18.3099 29.7326 0.0000 0.0000 0.0000
# 2 18.3099 113.0067 37.3069 0.0000 0.0000 0.0000
# 3 29.7326 37.3069 141.8413 0.0000 0.0000 0.0000
# 4 0.0000 0.0000 0.0000 25.2103 0.0000 0.0000
# 5 0.0000 0.0000 0.0000 0.0000 22.2482 0.0000
# 6 0.0000 0.0000 0.0000 0.0000 0.0000 23.0024
#
#
#
# Elastic Compliance Matrix: (Units=1/GPa)
#
#
# Indices 1 2 3 4 5 6 
#
# 1 0.009881 -0.001004 -0.001807 0.000000 0.000000 0.000000
# 2 -0.001004 0.009793 -0.002365 0.000000 0.000000 0.000000
# 3 -0.001807 -0.002365 0.008051 0.000000 0.000000 0.000000
# 4 0.000000 0.000000 0.000000 0.039666 0.000000 0.000000
# 5 0.000000 0.000000 0.000000 0.000000 0.044947 0.000000
# 6 0.000000 0.000000 0.000000 0.000000 0.000000 0.043474
#
#
# Mechanical properties :
#
#
# Convention : Reuss Voigt Hill
#
# Bulk Modulus (GPa) = 57.56644 59.33935 58.45290
# Shear Modulus (GPa) = 29.07740 32.62591 30.85165
#
# Velocity S-wave (km/s) = 3.77411 3.99778 3.88755
# Velocity P-wave (km/s) = 6.86961 7.09773 6.98460
#
# Compressibility (1/GPa) = 0.01737123
#
# Stress axis : x y z
#
# Youngs Moduli (GPa) = 101.20842 102.11846 124.20851
#
# Poissons Ratio (x) = 0.10256 0.22444
# Poissons Ratio (y) = 0.10165 0.29376
# Poissons Ratio (z) = 0.18288 0.24152
#
# Static dielectric constant tensor:
#      x y z
#    x 1.900450 0.000000 0.000000 
#    y 0.000000 1.763360 0.000000 
#    z 0.000000 0.000000 1.819750 
# 
# From -- ./inp_files/23565.got.cif
#   From: 2010.05.17/outbox.cif.g08.bks.cpg/sg53_12_cif.got.tgz:23565.got - 2010.06.03 12:45:16.
