data_PCOD9419623
_publ_section_title
;
Structure prediction by ZEFSAII (Michael W. Deem and Ramdas Pophale) SiO2 
 PCOD9419623
Probable space group: P M N A
;
_chemical_formula_sum "Si O2"
_cell_formula_units_Z 48
_cell_length_a 14.314352
_cell_length_b 11.107350
_cell_length_c 14.659929
_cell_angle_alpha 90.000000
_cell_angle_beta 90.000000
_cell_angle_gamma 90.000000
_cell_volume 2330.848341
_symmetry_space_group_name_H-M "P M N A"
_symmetry_group_IT_number 53
_symmetry_cell_setting 'orthorhombic'
loop_
_space_group_symop_operation_xyz
x,y,z
1/2-x,-y,1/2+z
x,-y,-z
1/2-x,y,1/2-z
-x,-y,-z
1/2+x,y,1/2-z
-x,y,z
1/2+x,-y,1/2+z
loop_
_atom_site_type_symbol
_atom_site_label
_atom_site_fract_x
_atom_site_fract_y
_atom_site_fract_z
Si Si1 0.393715 0.857447 0.573713
Si Si2 0.894700 0.216402 0.424019
Si Si3 0.394656 0.447831 0.603890
Si Si4 0.639331 0.328825 0.266062
Si Si5 0.736176 0.996759 0.143767
Si Si6 0.751752 0.257547 0.932195
O O1 0.500000 0.875363 0.548074
O O2 0.388111 0.778942 0.666035
O O3 0.335044 0.784959 0.499479
O O4 0.335587 0.976061 0.597023
O O5 0.898769 0.297615 0.333473
O O6 0.834346 0.285367 0.500613
O O7 0.000000 0.187429 0.453423
O O8 0.837076 0.093404 0.398219
O O9 0.384927 0.500000 0.500000
O O10 0.500000 0.392931 0.607799
O O11 0.391198 0.552867 0.679284
O O12 0.304844 0.362899 0.620732
O O13 0.750000 0.331553 0.250000
O O14 0.750000 0.019835 0.250000
O O15 0.716393 0.857259 0.125191
#
# Coordination Sequence:
#
# PCOD9419623 Si02
#       6
#     8   8   8   8   8   8
#     4  11  19  35  61  90 120 154 202 259 313 371
#     4  11  21  40  67  95 126 167 222 270 315 382
#     4  11  22  38  62  91 125 164 208 260 318 379
#     4  12  20  37  66  96 122 160 211 262 314 370
#     4  11  23  39  58  90 126 168 211 259 321 383
#     4  11  24  39  59  93 131 166 204 261 328 380
#
# _framework density 20.593361000000002
#
# number of rings (size 3 to 8) (size 9 to 14) (size 15 to 20)
#    0.000    0.833    6.667    4.000    0.000    4.000 
#    0.000    0.000    0.000    8.500    0.000    0.000 
#    0.000    0.000    0.000    0.000    0.000    0.000 
#
# Total GULP energy -267990.110735 kJ/mol
# GULP energy per Si atom -5583.127307 kJ/mol
# Density = 2.054649 g / cm^3
# Si number density = 20.593361 Si / 1000 Ang^3
#
#
#
# Elastic Constant Matrix: (Units=GPa)
#
#
# Indices 1 2 3 4 5 6 
#
# 1 161.8131 21.6503 21.1940 0.0000 0.0000 0.0000
# 2 21.6503 85.4775 26.7964 0.0000 0.0000 0.0000
# 3 21.1940 26.7964 45.6209 0.0000 0.0000 0.0000
# 4 0.0000 0.0000 0.0000 32.9705 0.0000 0.0000
# 5 0.0000 0.0000 0.0000 0.0000 9.1765 0.0000
# 6 0.0000 0.0000 0.0000 0.0000 0.0000 0.0729
#
#
#
# Elastic Compliance Matrix: (Units=1/GPa)
#
#
# Indices 1 2 3 4 5 6 
#
# 1 0.006633 -0.000875 -0.002568 0.000000 0.000000 0.000000
# 2 -0.000875 0.014455 -0.008084 0.000000 0.000000 0.000000
# 3 -0.002568 -0.008084 0.027861 0.000000 0.000000 0.000000
# 4 0.000000 0.000000 0.000000 0.030330 0.000000 0.000000
# 5 0.000000 0.000000 0.000000 0.000000 0.108974 0.000000
# 6 0.000000 0.000000 0.000000 0.000000 0.000000 13.723143
#
#
# Mechanical properties :
#
#
# Convention : Reuss Voigt Hill
#
# Bulk Modulus (GPa) = 38.61621 48.02143 43.31882
# Shear Modulus (GPa) = 0.35860 23.32869 11.84364
#
# Velocity S-wave (km/s) = 0.41775 3.36940 2.40077
# Velocity P-wave (km/s) = 4.36178 6.20537 5.36339
#
# Compressibility (1/GPa) = 0.02589586
#
# Stress axis : x y z
#
# Youngs Moduli (GPa) = 150.75297 69.18094 35.89284
#
# Poissons Ratio (x) = 0.06055 0.09216
# Poissons Ratio (y) = 0.13195 0.29015
# Poissons Ratio (z) = 0.38707 0.55924
#
# Static dielectric constant tensor:
#      x y z
#    x 1.743270 0.000000 0.000000 
#    y 0.000000 1.789140 0.000000 
#    z 0.000000 0.000000 1.757830 
# 
# From -- ./inp_files/22683.got.cif
#   From: 2010.05.17/outbox.cif.g08.bks.cpg/sg53_12_cif.got.tgz:22683.got - 2010.06.03 12:45:16.
