data_PCOD9419015
_publ_section_title
;
Structure prediction by ZEFSAII (Michael W. Deem and Ramdas Pophale) SiO2 
 PCOD9419015
Probable space group: P M N A
;
_chemical_formula_sum "Si O2"
_cell_formula_units_Z 32
_cell_length_a 27.068062
_cell_length_b 7.040928
_cell_length_c 7.412714
_cell_angle_alpha 90.000000
_cell_angle_beta 90.000000
_cell_angle_gamma 90.000000
_cell_volume 1412.746728
_symmetry_space_group_name_H-M "P M N A"
_symmetry_group_IT_number 53
_symmetry_cell_setting 'orthorhombic'
loop_
_space_group_symop_operation_xyz
x,y,z
1/2-x,-y,1/2+z
x,-y,-z
1/2-x,y,1/2-z
-x,-y,-z
1/2+x,y,1/2-z
-x,y,z
1/2+x,-y,1/2+z
loop_
_atom_site_type_symbol
_atom_site_label
_atom_site_fract_x
_atom_site_fract_y
_atom_site_fract_z
Si Si1 0.138409 0.404935 0.322759
Si Si2 0.605043 0.211579 0.646505
Si Si3 0.442512 0.146899 0.250843
Si Si4 0.807189 0.963631 0.712986
O O1 0.160937 0.500000 0.500000
O O2 0.116846 0.575397 0.204151
O O3 0.091585 0.273857 0.376774
O O4 0.177001 0.253574 0.243640
O O5 0.580165 0.201068 0.448826
O O6 0.816560 0.000000 0.500000
O O7 0.657025 0.101962 0.675329
O O8 0.500000 0.186718 0.240133
O O9 0.431640 0.922537 0.236008
O O10 0.750000 0.997101 0.750000
#
# Coordination Sequence:
#
# PCOD9419015 Si02
#       4
#     8   8   8   8
#     4  11  23  42  63  94 135 171 211 274 331 391
#     4  10  21  42  66  90 132 167 211 271 327 382
#     4  10  23  41  68  99 128 174 227 266 320 389
#     4  11  25  43  66  94 125 169 219 267 334 397
#
# _framework density 22.65091
#
# number of rings (size 3 to 8) (size 9 to 14) (size 15 to 20)
#    0.000    1.500    2.500    2.250    7.000    4.500 
#    0.000    1.250    0.000    0.000    0.000    0.000 
#    0.000    0.000    0.000    0.000    0.000    0.000 
#
# Total GULP energy -178727.260303 kJ/mol
# GULP energy per Si atom -5585.226884 kJ/mol
# Density = 2.259936 g / cm^3
# Si number density = 22.650910 Si / 1000 Ang^3
#
#
#
# Elastic Constant Matrix: (Units=GPa)
#
#
# Indices 1 2 3 4 5 6 
#
# 1 146.5887 -5.7709 -10.6397 0.0000 0.0000 0.0000
# 2 -5.7709 116.8017 13.9788 0.0000 0.0000 0.0000
# 3 -10.6397 13.9788 54.5091 0.0000 0.0000 0.0000
# 4 0.0000 0.0000 0.0000 38.5540 0.0000 0.0000
# 5 0.0000 0.0000 0.0000 0.0000 26.6134 0.0000
# 6 0.0000 0.0000 0.0000 0.0000 0.0000 10.3112
#
#
#
# Elastic Compliance Matrix: (Units=1/GPa)
#
#
# Indices 1 2 3 4 5 6 
#
# 1 0.006924 0.000186 0.001304 0.000000 0.000000 0.000000
# 2 0.000186 0.008838 -0.002230 0.000000 0.000000 0.000000
# 3 0.001304 -0.002230 0.019172 0.000000 0.000000 0.000000
# 4 0.000000 0.000000 0.000000 0.025938 0.000000 0.000000
# 5 0.000000 0.000000 0.000000 0.000000 0.037575 0.000000
# 6 0.000000 0.000000 0.000000 0.000000 0.000000 0.096982
#
#
# Mechanical properties :
#
#
# Convention : Reuss Voigt Hill
#
# Bulk Modulus (GPa) = 29.89291 34.78177 32.33734
# Shear Modulus (GPa) = 24.03161 36.45115 30.24138
#
# Velocity S-wave (km/s) = 3.26076 4.01591 3.65788
# Velocity P-wave (km/s) = 5.23475 6.07390 5.66987
#
# Compressibility (1/GPa) = 0.03345275
#
# Stress axis : x y z
#
# Youngs Moduli (GPa) = 144.43017 113.15277 52.15958
#
# Poissons Ratio (x) = -0.02105 -0.06800
# Poissons Ratio (y) = -0.02687 0.11632
# Poissons Ratio (z) = -0.18830 0.25234
#
# Static dielectric constant tensor:
#      x y z
#    x 1.765100 0.000000 0.000000 
#    y 0.000000 1.860060 0.000000 
#    z 0.000000 0.000000 1.977010 
# 
# From -- ./inp_files/11449.got.cif
#   From: 2010.05.17/outbox.cif.g08.bks.cpg/sg53_6_cif.got.tgz:11449.got - 2010.06.03 12:45:16.
