data_PCOD9419484
_publ_section_title
;
Structure prediction by ZEFSAII (Michael W. Deem and Ramdas Pophale) SiO2 
 PCOD9419484
Probable space group: P M N A
;
_chemical_formula_sum "Si O2"
_cell_formula_units_Z 24
_cell_length_a 17.718232
_cell_length_b 5.021263
_cell_length_c 11.348757
_cell_angle_alpha 90.000000
_cell_angle_beta 90.000000
_cell_angle_gamma 90.000000
_cell_volume 1009.675109
_symmetry_space_group_name_H-M "P M N A"
_symmetry_group_IT_number 53
_symmetry_cell_setting 'orthorhombic'
loop_
_space_group_symop_operation_xyz
x,y,z
1/2-x,-y,1/2+z
x,-y,-z
1/2-x,y,1/2-z
-x,-y,-z
1/2+x,y,1/2-z
-x,y,z
1/2+x,-y,1/2+z
loop_
_atom_site_type_symbol
_atom_site_label
_atom_site_fract_x
_atom_site_fract_y
_atom_site_fract_z
Si Si1 0.915607 0.512174 0.286833
Si Si2 0.764987 0.367308 0.379536
Si Si3 0.372967 0.972956 0.634382
O O1 0.855170 0.389715 0.378969
O O2 0.911216 0.291535 0.184720
O O3 0.000000 0.537206 0.333958
O O4 0.892522 0.787940 0.222633
O O5 0.736333 0.500000 0.500000
O O6 0.750000 0.494966 0.250000
O O7 0.717260 0.095266 0.369970
O O8 0.397708 0.000000 0.500000
#
# Coordination Sequence:
#
# PCOD9419484 Si02
#       3
#     8   8   8
#     4  11  25  43  66 100 140 179 223 281 347 409
#     4  10  23  43  70  99 134 177 229 280 333 400
#     4  11  23  42  68  99 136 181 233 284 335 400
#
# _framework density 23.770022000000001
#
# number of rings (size 3 to 8) (size 9 to 14) (size 15 to 20)
#    0.000    1.333    0.000    6.000    0.000   24.667 
#    0.000    0.000    0.000   11.000    0.000    0.000 
#    0.000    0.000    0.000    0.000    0.000    0.000 
#
# Total GULP energy -133807.756622 kJ/mol
# GULP energy per Si atom -5575.323193 kJ/mol
# Density = 2.371592 g / cm^3
# Si number density = 23.770022 Si / 1000 Ang^3
#
#
#
# Elastic Constant Matrix: (Units=GPa)
#
#
# Indices 1 2 3 4 5 6 
#
# 1 151.9425 37.1166 -8.9608 0.0000 0.0000 0.0000
# 2 37.1166 125.3444 -2.0352 0.0000 0.0000 0.0000
# 3 -8.9608 -2.0352 87.9233 0.0000 0.0000 0.0000
# 4 0.0000 0.0000 0.0000 23.4121 0.0000 0.0000
# 5 0.0000 0.0000 0.0000 0.0000 -66.0916 0.0000
# 6 0.0000 0.0000 0.0000 0.0000 0.0000 -20.7115
#
#
#
# Elastic Compliance Matrix: (Units=1/GPa)
#
#
# Indices 1 2 3 4 5 6 
#
# 1 0.007135 -0.002102 0.000679 0.000000 0.000000 0.000000
# 2 -0.002102 0.008600 -0.000015 0.000000 0.000000 0.000000
# 3 0.000679 -0.000015 0.011442 0.000000 0.000000 0.000000
# 4 0.000000 0.000000 0.000000 0.042713 0.000000 0.000000
# 5 0.000000 0.000000 0.000000 0.000000 -0.015131 0.000000
# 6 0.000000 0.000000 0.000000 0.000000 0.000000 -0.048282
#
#
# Mechanical properties :
#
#
# Convention : Reuss Voigt Hill
#
# Bulk Modulus (GPa) = 41.15120 46.38350 43.76735
# Shear Modulus (GPa) = 286.46311 9.92778 148.19544
#
# Velocity S-wave (km/s) = 10.98982 2.04589 7.90448
# Velocity P-wave (km/s) = 13.35607 5.01365 10.08765
#
# Compressibility (1/GPa) = 0.02430063
#
# Stress axis : x y z
#
# Youngs Moduli (GPa) = 140.15674 116.27724 87.39461
#
# Poissons Ratio (x) = 0.24438 -0.05930
# Poissons Ratio (y) = 0.29457 0.00132
# Poissons Ratio (z) = -0.09510 0.00176
#
# Static dielectric constant tensor:
#      x y z
#    x 2.105620 0.000000 0.000000 
#    y 0.000000 1.904740 0.000000 
#    z 0.000000 0.000000 1.926130 
# 
# From -- ./inp_files/16329.got.cif
#   From: 2010.05.17/outbox.cif.g08.bks.cpg/sg53_9_cif.got.tgz:16329.got - 2010.06.03 12:45:16.
