data_PCOD9419005
_publ_section_title
;
Structure prediction by ZEFSAII (Michael W. Deem and Ramdas Pophale) SiO2 
 PCOD9419005
Probable space group: P M N A
;
_chemical_formula_sum "Si O2"
_cell_formula_units_Z 30
_cell_length_a 14.647388
_cell_length_b 16.103313
_cell_length_c 5.799301
_cell_angle_alpha 90.000000
_cell_angle_beta 90.000000
_cell_angle_gamma 90.000000
_cell_volume 1367.889673
_symmetry_space_group_name_H-M "P M N A"
_symmetry_group_IT_number 53
_symmetry_cell_setting 'orthorhombic'
loop_
_space_group_symop_operation_xyz
x,y,z
1/2-x,-y,1/2+z
x,-y,-z
1/2-x,y,1/2-z
-x,-y,-z
1/2+x,y,1/2-z
-x,y,z
1/2+x,-y,1/2+z
loop_
_atom_site_type_symbol
_atom_site_label
_atom_site_fract_x
_atom_site_fract_y
_atom_site_fract_z
Si Si1 0.000000 0.000000 0.000000
Si Si2 0.250000 0.241347 0.750000
Si Si3 0.607858 0.530608 0.745848
Si Si4 0.102364 0.292661 0.420736
Si Si5 0.843190 0.131793 0.135934
O O1 0.919690 0.065015 0.085963
O O2 0.180515 0.297273 0.608988
O O3 0.310135 0.181121 0.589767
O O4 0.646116 0.500000 0.500000
O O5 0.500000 0.506890 0.745453
O O6 0.614000 0.630548 0.749185
O O7 0.641263 0.500000 0.000000
O O8 0.117777 0.203955 0.301452
O O9 0.000000 0.297504 0.517601
O O10 0.750000 0.096605 0.250000
#
# Coordination Sequence:
#
# PCOD9419005 Si02
#       5
#     2   4   8   8   8
#     4  12  24  44  74 102 128 184 232 292 370 450
#     4  10  24  42  68  98 136 188 226 296 352 440
#     4   9  19  35  63 105 142 184 238 296 347 420
#     4  10  21  41  69  99 141 187 236 286 367 430
#     4  10  24  45  66  99 140 177 229 298 360 440
#
# _framework density 21.931592999999999
#
# number of rings (size 3 to 8) (size 9 to 14) (size 15 to 20)
#    0.000    2.133    1.333    0.000    7.467    0.000 
#    0.000    5.333    8.800    0.000    0.000    0.000 
#    0.000    1.067    0.000    0.000    0.000    0.000 
#
# Total GULP energy -167032.783558 kJ/mol
# GULP energy per Si atom -5567.759452 kJ/mol
# Density = 2.188168 g / cm^3
# Si number density = 21.931593 Si / 1000 Ang^3
#
#
#
# Elastic Constant Matrix: (Units=GPa)
#
#
# Indices 1 2 3 4 5 6 
#
# 1 166.9843 74.7903 56.1572 0.0000 0.0000 0.0000
# 2 74.7903 95.7035 37.5557 0.0000 0.0000 0.0000
# 3 56.1572 37.5557 114.6128 0.0000 0.0000 0.0000
# 4 0.0000 0.0000 0.0000 18.0018 0.0000 0.0000
# 5 0.0000 0.0000 0.0000 0.0000 15.2967 0.0000
# 6 0.0000 0.0000 0.0000 0.0000 0.0000 6.5577
#
#
#
# Elastic Compliance Matrix: (Units=1/GPa)
#
#
# Indices 1 2 3 4 5 6 
#
# 1 0.009868 -0.006672 -0.002649 0.000000 0.000000 0.000000
# 2 -0.006672 0.016502 -0.002138 0.000000 0.000000 0.000000
# 3 -0.002649 -0.002138 0.010723 0.000000 0.000000 0.000000
# 4 0.000000 0.000000 0.000000 0.055550 0.000000 0.000000
# 5 0.000000 0.000000 0.000000 0.000000 0.065374 0.000000
# 6 0.000000 0.000000 0.000000 0.000000 0.000000 0.152493
#
#
# Mechanical properties :
#
#
# Convention : Reuss Voigt Hill
#
# Bulk Modulus (GPa) = 70.54455 79.36744 74.95600
# Shear Modulus (GPa) = 14.78623 21.89105 18.33864
#
# Velocity S-wave (km/s) = 2.59935 3.16278 2.89481
# Velocity P-wave (km/s) = 6.42218 7.04307 6.73978
#
# Compressibility (1/GPa) = 0.01417544
#
# Stress axis : x y z
#
# Youngs Moduli (GPa) = 101.34148 60.59866 93.25378
#
# Poissons Ratio (x) = 0.40431 0.24700
# Poissons Ratio (y) = 0.67615 0.19940
# Poissons Ratio (z) = 0.26842 0.12957
#
# Static dielectric constant tensor:
#      x y z
#    x 1.792510 0.000000 0.000000 
#    y 0.000000 1.749790 0.000000 
#    z 0.000000 0.000000 1.840710 
# 
# From -- ./inp_files/1236.got.cif
#   From: 2010.05.17/outbox.cif.g08.bks.cpg/sg53_1_cif.got.tgz:1236.got - 2010.06.03 12:45:16.
