data_PCOD9419850
_publ_section_title
;
Structure prediction by ZEFSAII (Michael W. Deem and Ramdas Pophale) SiO2 
 PCOD9419850
Probable space group: P M N A
;
_chemical_formula_sum "Si O2"
_cell_formula_units_Z 56
_cell_length_a 15.560529
_cell_length_b 11.006168
_cell_length_c 14.958679
_cell_angle_alpha 90.000000
_cell_angle_beta 90.000000
_cell_angle_gamma 90.000000
_cell_volume 2561.850236
_symmetry_space_group_name_H-M "P M N A"
_symmetry_group_IT_number 53
_symmetry_cell_setting 'orthorhombic'
loop_
_space_group_symop_operation_xyz
x,y,z
1/2-x,-y,1/2+z
x,-y,-z
1/2-x,y,1/2-z
-x,-y,-z
1/2+x,y,1/2-z
-x,y,z
1/2+x,-y,1/2+z
loop_
_atom_site_type_symbol
_atom_site_label
_atom_site_fract_x
_atom_site_fract_y
_atom_site_fract_z
Si Si1 0.901781 0.186717 0.132326
Si Si2 0.268219 0.394161 0.352148
Si Si3 0.659173 0.880982 0.060431
Si Si4 0.600855 0.025697 0.749108
Si Si5 0.637004 0.152492 0.559915
Si Si6 0.095316 0.639142 0.536363
Si Si7 0.593621 0.429922 0.593441
O O1 0.838688 0.297198 0.118470
O O2 0.000000 0.224146 0.147479
O O3 0.871439 0.108928 0.217939
O O4 0.898780 0.115177 0.037956
O O5 0.250000 0.376318 0.250000
O O6 0.179808 0.369770 0.402886
O O7 0.318395 0.521743 0.362806
O O8 0.644293 0.916550 0.164258
O O9 0.760566 0.858988 0.049554
O O10 0.612443 0.755167 0.029849
O O11 0.634672 0.000000 0.000000
O O12 0.500000 0.020811 0.769797
O O13 0.612574 0.094729 0.655215
O O14 0.604508 0.289430 0.573180
O O15 0.091493 0.500000 0.500000
O O16 0.000000 0.661399 0.577177
O O17 0.589788 0.500000 0.500000
O O18 0.500000 0.450372 0.639559
#
# Coordination Sequence:
#
# PCOD9419850 Si02
#       7
#     8   8   8   8   8   8   8
#     4  11  23  43  70 103 143 182 231 301 374 440
#     4  12  26  42  69 104 144 185 245 301 368 437
#     4  12  26  46  74 102 146 197 253 307 365 438
#     4  11  26  43  66 102 142 187 242 297 369 443
#     4  12  23  41  72 105 143 182 234 297 371 440
#     4  11  26  50  76 102 145 199 252 310 373 442
#     4  11  22  42  70 101 139 184 235 295 367 443
#
# _framework density 21.859200999999999
#
# number of rings (size 3 to 8) (size 9 to 14) (size 15 to 20)
#    0.000    0.571    2.857    5.143    2.000    5.714 
#    0.000    1.429    0.000    0.000    0.000    0.000 
#    0.000    0.000    0.000    0.000    0.000    0.000 
#
# Total GULP energy -312531.995957 kJ/mol
# GULP energy per Si atom -5580.928499 kJ/mol
# Density = 2.180945 g / cm^3
# Si number density = 21.859201 Si / 1000 Ang^3
#
#
#
# Elastic Constant Matrix: (Units=GPa)
#
#
# Indices 1 2 3 4 5 6 
#
# 1 137.3514 32.8168 41.4862 0.0000 0.0000 0.0000
# 2 32.8168 102.0114 43.3894 0.0000 0.0000 0.0000
# 3 41.4862 43.3894 117.9696 0.0000 0.0000 0.0000
# 4 0.0000 0.0000 0.0000 18.3997 0.0000 0.0000
# 5 0.0000 0.0000 0.0000 0.0000 277.1596 0.0000
# 6 0.0000 0.0000 0.0000 0.0000 0.0000 22.5065
#
#
#
# Elastic Compliance Matrix: (Units=1/GPa)
#
#
# Indices 1 2 3 4 5 6 
#
# 1 0.008391 -0.001712 -0.002321 0.000000 0.000000 0.000000
# 2 -0.001712 0.011970 -0.003801 0.000000 0.000000 0.000000
# 3 -0.002321 -0.003801 0.010691 0.000000 0.000000 0.000000
# 4 0.000000 0.000000 0.000000 0.054349 0.000000 0.000000
# 5 0.000000 0.000000 0.000000 0.000000 0.003608 0.000000
# 6 0.000000 0.000000 0.000000 0.000000 0.000000 0.044432
#
#
# Mechanical properties :
#
#
# Convention : Reuss Voigt Hill
#
# Bulk Modulus (GPa) = 65.00104 65.85747 65.42926
# Shear Modulus (GPa) = 32.41800 79.58917 56.00359
#
# Velocity S-wave (km/s) = 3.85520 6.04061 5.06713
# Velocity P-wave (km/s) = 7.04397 8.87949 8.01445
#
# Compressibility (1/GPa) = 0.01538437
#
# Stress axis : x y z
#
# Youngs Moduli (GPa) = 119.17949 83.54148 93.53783
#
# Poissons Ratio (x) = 0.14303 0.21711
# Poissons Ratio (y) = 0.20404 0.35550
# Poissons Ratio (z) = 0.27662 0.31750
#
# Static dielectric constant tensor:
#      x y z
#    x 1.886270 0.000000 0.000000 
#    y 0.000000 2.250960 0.000000 
#    z 0.000000 0.000000 1.778610 
# 
# From -- ./inp_files/22837.got.cif
#   From: 2010.05.17/outbox.cif.g08.bks.cpg/sg53_12_cif.got.tgz:22837.got - 2010.06.03 12:45:16.
