data_PCOD9419176
_publ_section_title
;
Structure prediction by ZEFSAII (Michael W. Deem and Ramdas Pophale) SiO2 
 PCOD9419176
Probable space group: P M N A
;
_chemical_formula_sum "Si O2"
_cell_formula_units_Z 48
_cell_length_a 28.932206
_cell_length_b 8.007539
_cell_length_c 9.553341
_cell_angle_alpha 90.000000
_cell_angle_beta 90.000000
_cell_angle_gamma 90.000000
_cell_volume 2213.277612
_symmetry_space_group_name_H-M "P M N A"
_symmetry_group_IT_number 53
_symmetry_cell_setting 'orthorhombic'
loop_
_space_group_symop_operation_xyz
x,y,z
1/2-x,-y,1/2+z
x,-y,-z
1/2-x,y,1/2-z
-x,-y,-z
1/2+x,y,1/2-z
-x,y,z
1/2+x,-y,1/2+z
loop_
_atom_site_type_symbol
_atom_site_label
_atom_site_fract_x
_atom_site_fract_y
_atom_site_fract_z
Si Si1 0.348699 0.308221 0.451034
Si Si2 0.601046 0.192048 0.709204
Si Si3 0.000000 0.789517 0.155842
Si Si4 0.252201 0.678281 0.919541
Si Si5 0.348325 0.305539 0.962840
Si Si6 0.000000 0.197135 0.168872
Si Si7 0.596154 0.192164 0.203025
O O1 0.349641 0.500000 0.500000
O O2 0.384092 0.208703 0.548419
O O3 0.296593 0.240195 0.460963
O O4 0.366431 0.293517 0.293405
O O5 0.548907 0.263352 0.722523
O O6 0.640637 0.280837 0.800478
O O7 0.600498 0.000342 0.754592
O O8 0.000000 0.993364 0.162314
O O9 0.000000 0.742717 0.991524
O O10 0.250000 0.658237 0.750000
O O11 0.251834 0.500000 0.000000
O O12 0.299271 0.760501 0.977687
O O13 0.350170 0.500000 0.000000
O O14 0.390285 0.216673 0.043323
O O15 0.045671 0.250305 0.251009
#
# Coordination Sequence:
#
# PCOD9419176 Si02
#       7
#     8   8   4   8   8   4   8
#     4  11  22  38  63  90 122 158 206 248 301 363
#     4  11  23  39  64  92 121 164 203 252 303 362
#     4   9  18  37  60  89 121 159 208 238 299 378
#     4  10  22  39  63  88 122 165 206 244 300 379
#     4  11  24  42  62  87 126 160 202 254 307 363
#     4   9  18  35  64  87 117 165 202 246 295 374
#     4  11  21  41  63  91 122 158 207 251 305 360
#
# _framework density 21.687294000000001
#
# number of rings (size 3 to 8) (size 9 to 14) (size 15 to 20)
#    0.000    1.500    3.333    2.000    7.000    0.667 
#    0.000   12.500    0.000    0.000    0.000    0.000 
#    0.000    0.000    0.000    0.000    0.000    0.000 
#
# Total GULP energy -268055.011757 kJ/mol
# GULP energy per Si atom -5584.479412 kJ/mol
# Density = 2.163793 g / cm^3
# Si number density = 21.687294 Si / 1000 Ang^3
#
#
#
# Elastic Constant Matrix: (Units=GPa)
#
#
# Indices 1 2 3 4 5 6 
#
# 1 151.8855 6.0162 13.8430 0.0000 0.0000 0.0000
# 2 6.0162 34.2672 -5.3445 0.0000 0.0000 0.0000
# 3 13.8430 -5.3445 58.2087 0.0000 0.0000 0.0000
# 4 0.0000 0.0000 0.0000 35.4406 0.0000 0.0000
# 5 0.0000 0.0000 0.0000 0.0000 33.1259 0.0000
# 6 0.0000 0.0000 0.0000 0.0000 0.0000 15.7975
#
#
#
# Elastic Compliance Matrix: (Units=1/GPa)
#
#
# Indices 1 2 3 4 5 6 
#
# 1 0.006802 -0.001467 -0.001752 0.000000 0.000000 0.000000
# 2 -0.001467 0.029923 0.003096 0.000000 0.000000 0.000000
# 3 -0.001752 0.003096 0.017881 0.000000 0.000000 0.000000
# 4 0.000000 0.000000 0.000000 0.028216 0.000000 0.000000
# 5 0.000000 0.000000 0.000000 0.000000 0.030188 0.000000
# 6 0.000000 0.000000 0.000000 0.000000 0.000000 0.063301
#
#
# Mechanical properties :
#
#
# Convention : Reuss Voigt Hill
#
# Bulk Modulus (GPa) = 18.39634 30.37675 24.38654
# Shear Modulus (GPa) = 25.68359 32.19592 28.93976
#
# Velocity S-wave (km/s) = 3.44505 3.85717 3.65692
# Velocity P-wave (km/s) = 4.93209 5.82015 5.39442
#
# Compressibility (1/GPa) = 0.05435863
#
# Stress axis : x y z
#
# Youngs Moduli (GPa) = 147.02121 33.41911 55.92656
#
# Poissons Ratio (x) = 0.04904 0.09800
# Poissons Ratio (y) = 0.21575 -0.17317
# Poissons Ratio (z) = 0.25763 -0.10348
#
# Static dielectric constant tensor:
#      x y z
#    x 1.826100 0.000000 0.000000 
#    y 0.000000 1.789680 0.000000 
#    z 0.000000 0.000000 1.729300 
# 
# From -- ./inp_files/13106.got.cif
#   From: 2010.05.17/outbox.cif.g08.bks.cpg/sg53_7_cif.got.tgz:13106.got - 2010.06.03 12:45:16.
