data_PCOD9419366
_publ_section_title
;
Structure prediction by ZEFSAII (Michael W. Deem and Ramdas Pophale) SiO2 
 PCOD9419366
Probable space group: P M N A
;
_chemical_formula_sum "Si O2"
_cell_formula_units_Z 28
_cell_length_a 19.648851
_cell_length_b 5.074105
_cell_length_c 11.008721
_cell_angle_alpha 90.000000
_cell_angle_beta 90.000000
_cell_angle_gamma 90.000000
_cell_volume 1097.573151
_symmetry_space_group_name_H-M "P M N A"
_symmetry_group_IT_number 53
_symmetry_cell_setting 'orthorhombic'
loop_
_space_group_symop_operation_xyz
x,y,z
1/2-x,-y,1/2+z
x,-y,-z
1/2-x,y,1/2-z
-x,-y,-z
1/2+x,y,1/2-z
-x,y,z
1/2+x,-y,1/2+z
loop_
_atom_site_type_symbol
_atom_site_label
_atom_site_fract_x
_atom_site_fract_y
_atom_site_fract_z
Si Si1 0.177536 0.500000 0.000000
Si Si2 0.423800 0.670866 0.191413
Si Si3 0.723180 0.160538 0.876318
Si Si4 0.575307 0.171930 0.354144
O O1 0.225949 0.594795 0.107861
O O2 0.130342 0.270296 0.051644
O O3 0.500000 0.704351 0.135700
O O4 0.355228 0.747624 0.122344
O O5 0.418525 0.373383 0.240172
O O6 0.421229 0.877170 0.303775
O O7 0.750000 0.031607 0.750000
O O8 0.733097 0.000000 0.000000
O O9 0.500000 0.217287 0.405426
#
# Coordination Sequence:
#
# PCOD9419366 Si02
#       4
#     4   8   8   8
#     4  12  25  40  71 108 146 198 248 314 373 448
#     4  10  23  46  72 103 145 197 249 305 371 448
#     4  12  27  46  73 108 152 199 247 312 376 453
#     4  10  22  43  73 105 146 192 251 313 371 441
#
# _framework density 25.510826999999999
#
# number of rings (size 3 to 8) (size 9 to 14) (size 15 to 20)
#    0.000    1.143    2.857    2.143    4.000    1.714 
#    0.000    5.000    0.000    0.000    0.000    0.000 
#    0.000    0.000    0.000    0.000    0.000    0.000 
#
# Total GULP energy -156802.151847 kJ/mol
# GULP energy per Si atom -5600.076852 kJ/mol
# Density = 2.545276 g / cm^3
# Si number density = 25.510827 Si / 1000 Ang^3
#
#
#
# Elastic Constant Matrix: (Units=GPa)
#
#
# Indices 1 2 3 4 5 6 
#
# 1 203.7923 -11.7443 40.4038 0.0000 0.0000 0.0000
# 2 -11.7443 46.7503 17.3535 0.0000 0.0000 0.0000
# 3 40.4038 17.3535 95.5537 0.0000 0.0000 0.0000
# 4 0.0000 0.0000 0.0000 28.2184 0.0000 0.0000
# 5 0.0000 0.0000 0.0000 0.0000 45.9723 0.0000
# 6 0.0000 0.0000 0.0000 0.0000 0.0000 15.1775
#
#
#
# Elastic Compliance Matrix: (Units=1/GPa)
#
#
# Indices 1 2 3 4 5 6 
#
# 1 0.005607 0.002454 -0.002816 0.000000 0.000000 0.000000
# 2 0.002454 0.024010 -0.005398 0.000000 0.000000 0.000000
# 3 -0.002816 -0.005398 0.012637 0.000000 0.000000 0.000000
# 4 0.000000 0.000000 0.000000 0.035438 0.000000 0.000000
# 5 0.000000 0.000000 0.000000 0.000000 0.021752 0.000000
# 6 0.000000 0.000000 0.000000 0.000000 0.000000 0.065887
#
#
# Mechanical properties :
#
#
# Convention : Reuss Voigt Hill
#
# Bulk Modulus (GPa) = 32.53880 48.68024 40.60952
# Shear Modulus (GPa) = 26.72418 37.87919 32.30169
#
# Velocity S-wave (km/s) = 3.24012 3.85753 3.56222
# Velocity P-wave (km/s) = 5.17498 6.24214 5.73344
#
# Compressibility (1/GPa) = 0.03073254
#
# Stress axis : x y z
#
# Youngs Moduli (GPa) = 178.35625 41.64847 79.13545
#
# Poissons Ratio (x) = -0.10220 0.22288
# Poissons Ratio (y) = -0.43767 0.42719
# Poissons Ratio (z) = 0.50232 0.22483
#
# Static dielectric constant tensor:
#      x y z
#    x 1.996380 0.000000 0.000000 
#    y 0.000000 2.029290 0.000000 
#    z 0.000000 0.000000 2.046510 
# 
# From -- ./inp_files/17294.got.cif
#   From: 2010.05.17/outbox.cif.g08.bks.cpg/sg53_9_cif.got.tgz:17294.got - 2010.06.03 12:45:16.
