data_PCOD9419266
_publ_section_title
;
Structure prediction by ZEFSAII (Michael W. Deem and Ramdas Pophale) SiO2 
 PCOD9419266
Probable space group: P M N A
;
_chemical_formula_sum "Si O2"
_cell_formula_units_Z 40
_cell_length_a 9.124092
_cell_length_b 7.351069
_cell_length_c 30.642117
_cell_angle_alpha 90.000000
_cell_angle_beta 90.000000
_cell_angle_gamma 90.000000
_cell_volume 2055.222858
_symmetry_space_group_name_H-M "P M N A"
_symmetry_group_IT_number 53
_symmetry_cell_setting 'orthorhombic'
loop_
_space_group_symop_operation_xyz
x,y,z
1/2-x,-y,1/2+z
x,-y,-z
1/2-x,y,1/2-z
-x,-y,-z
1/2+x,y,1/2-z
-x,y,z
1/2+x,-y,1/2+z
loop_
_atom_site_type_symbol
_atom_site_label
_atom_site_fract_x
_atom_site_fract_y
_atom_site_fract_z
Si Si1 0.675649 0.664431 0.887718
Si Si2 0.674805 0.724634 0.384014
Si Si3 0.166863 0.291566 0.292957
Si Si4 0.826523 0.998965 0.448734
Si Si5 0.669296 0.265115 0.793989
O O1 0.500000 0.625781 0.883918
O O2 0.762225 0.477415 0.892877
O O3 0.722245 0.754704 0.841406
O O4 0.697381 0.804415 0.926813
O O5 0.500000 0.721615 0.380753
O O6 0.731314 0.855445 0.422053
O O7 0.745546 0.785782 0.337893
O O8 0.250000 0.229060 0.250000
O O9 0.169716 0.513069 0.292800
O O10 0.000000 0.231262 0.289452
O O11 0.000000 0.954891 0.443158
O O12 0.794065 0.000000 0.500000
O O13 0.750000 0.204106 0.750000
O O14 0.500000 0.207811 0.795620
#
# Coordination Sequence:
#
# PCOD9419266 Si02
#       5
#     8   8   8   8   8
#     4   9  19  37  59  82 110 146 188 233 281 335
#     4  11  22  36  57  85 118 153 187 228 283 344
#     4   8  14  25  45  74 106 139 174 215 262 315
#     4  10  22  41  63  83 106 143 193 246 295 344
#     4   9  16  29  51  80 114 150 190 230 271 325
#
# _framework density 19.462606999999998
#
# number of rings (size 3 to 8) (size 9 to 14) (size 15 to 20)
#    0.000    2.600    0.000    3.600    0.000    6.800 
#    0.000    5.000    0.000    2.400    0.000    0.000 
#    0.000    0.000    0.000    0.000    0.000    0.000 
#
# Total GULP energy -223341.822840 kJ/mol
# GULP energy per Si atom -5583.545571 kJ/mol
# Density = 1.941831 g / cm^3
# Si number density = 19.462607 Si / 1000 Ang^3
#
#
#
# Elastic Constant Matrix: (Units=GPa)
#
#
# Indices 1 2 3 4 5 6 
#
# 1 126.9988 57.7001 101.1006 0.0000 0.0000 0.0000
# 2 57.7001 83.4388 59.5791 0.0000 0.0000 0.0000
# 3 101.1006 59.5791 180.1087 0.0000 0.0000 0.0000
# 4 0.0000 0.0000 0.0000 33.7106 0.0000 0.0000
# 5 0.0000 0.0000 0.0000 0.0000 31.3602 0.0000
# 6 0.0000 0.0000 0.0000 0.0000 0.0000 -3.9199
#
#
#
# Elastic Compliance Matrix: (Units=1/GPa)
#
#
# Indices 1 2 3 4 5 6 
#
# 1 0.016389 -0.006238 -0.007136 0.000000 0.000000 0.000000
# 2 -0.006238 0.018065 -0.002474 0.000000 0.000000 0.000000
# 3 -0.007136 -0.002474 0.010377 0.000000 0.000000 0.000000
# 4 0.000000 0.000000 0.000000 0.029664 0.000000 0.000000
# 5 0.000000 0.000000 0.000000 0.000000 0.031888 0.000000
# 6 0.000000 0.000000 0.000000 0.000000 0.000000 -0.255110
#
#
# Mechanical properties :
#
#
# Convention : Reuss Voigt Hill
#
# Bulk Modulus (GPa) = 76.13897 91.92288 84.03092
# Shear Modulus (GPa) = -44.38465 23.70796 -10.33835
#
# Velocity S-wave (km/s) = -4.78065 3.49396 -2.30726
# Velocity P-wave (km/s) = 2.95513 7.97559 6.01427
#
# Compressibility (1/GPa) = 0.01313388
#
# Stress axis : x y z
#
# Youngs Moduli (GPa) = 61.01561 55.35459 96.37113
#
# Poissons Ratio (x) = 0.34530 0.68773
# Poissons Ratio (y) = 0.38061 0.23846
# Poissons Ratio (z) = 0.43543 0.13697
#
# Static dielectric constant tensor:
#      x y z
#    x 1.652960 0.000000 0.000000 
#    y 0.000000 1.709530 0.000000 
#    z 0.000000 0.000000 1.670640 
# 
# From -- ./inp_files/36024.got.cif
#   From: 2010.05.17/outbox.cif.g08.bks.cpg/sg53_19_cif.got.tgz:36024.got - 2010.06.03 12:45:16.
