data_PCOD9419881
_publ_section_title
;
Structure prediction by ZEFSAII (Michael W. Deem and Ramdas Pophale) SiO2 
 PCOD9419881
Probable space group: P M N A
;
_chemical_formula_sum "Si O2"
_cell_formula_units_Z 24
_cell_length_a 14.726276
_cell_length_b 13.749530
_cell_length_c 4.996659
_cell_angle_alpha 90.000000
_cell_angle_beta 90.000000
_cell_angle_gamma 90.000000
_cell_volume 1011.720385
_symmetry_space_group_name_H-M "P M N A"
_symmetry_group_IT_number 53
_symmetry_cell_setting 'orthorhombic'
loop_
_space_group_symop_operation_xyz
x,y,z
1/2-x,-y,1/2+z
x,-y,-z
1/2-x,y,1/2-z
-x,-y,-z
1/2+x,y,1/2-z
-x,y,z
1/2+x,-y,1/2+z
loop_
_atom_site_type_symbol
_atom_site_label
_atom_site_fract_x
_atom_site_fract_y
_atom_site_fract_z
Si Si1 0.394464 0.565065 0.738242
Si Si2 0.606917 0.784487 0.829873
Si Si3 0.347049 0.908486 0.352007
O O1 0.351046 0.500000 0.500000
O O2 0.500000 0.581528 0.653563
O O3 0.362883 0.671904 0.830988
O O4 0.393688 0.500000 0.000000
O O5 0.500000 0.787882 0.756338
O O6 0.661788 0.832264 0.589480
O O7 0.613968 0.848758 0.099837
O O8 0.250000 0.945168 0.250000
O O9 0.394585 0.000000 0.500000
#
# Coordination Sequence:
#
# PCOD9419881 Si02
#       3
#     8   8   8
#     4   9  17  32  56  87 122 156 192 240 302 368
#     4  11  23  39  65  97 122 154 207 264 306 351
#     4  12  25  43  63  85 122 169 208 247 313 386
#
# _framework density 23.721969999999999
#
# number of rings (size 3 to 8) (size 9 to 14) (size 15 to 20)
#    0.000    1.333    0.000    7.000    0.000    9.333 
#    0.000    0.000    0.000   20.000    0.000    0.000 
#    0.000    0.000    0.000    0.000    0.000    0.000 
#
# Total GULP energy -133929.936945 kJ/mol
# GULP energy per Si atom -5580.414039 kJ/mol
# Density = 2.366798 g / cm^3
# Si number density = 23.721970 Si / 1000 Ang^3
#
#
#
# Elastic Constant Matrix: (Units=GPa)
#
#
# Indices 1 2 3 4 5 6 
#
# 1 57.9055 2.5628 14.2549 0.0000 0.0000 0.0000
# 2 2.5628 170.6765 61.5586 0.0000 0.0000 0.0000
# 3 14.2549 61.5586 157.7950 0.0000 0.0000 0.0000
# 4 0.0000 0.0000 0.0000 29.7963 0.0000 0.0000
# 5 0.0000 0.0000 0.0000 0.0000 10.3042 0.0000
# 6 0.0000 0.0000 0.0000 0.0000 0.0000 7.3934
#
#
#
# Elastic Compliance Matrix: (Units=1/GPa)
#
#
# Indices 1 2 3 4 5 6 
#
# 1 0.017681 0.000361 -0.001738 0.000000 0.000000 0.000000
# 2 0.000361 0.006826 -0.002696 0.000000 0.000000 0.000000
# 3 -0.001738 -0.002696 0.007546 0.000000 0.000000 0.000000
# 4 0.000000 0.000000 0.000000 0.033561 0.000000 0.000000
# 5 0.000000 0.000000 0.000000 0.000000 0.097048 0.000000
# 6 0.000000 0.000000 0.000000 0.000000 0.000000 0.135256
#
#
# Mechanical properties :
#
#
# Convention : Reuss Voigt Hill
#
# Bulk Modulus (GPa) = 41.82620 60.34774 51.08697
# Shear Modulus (GPa) = 15.92195 30.03217 22.97706
#
# Velocity S-wave (km/s) = 2.59354 3.56196 3.11561
# Velocity P-wave (km/s) = 5.16127 6.51242 5.87581
#
# Compressibility (1/GPa) = 0.02390846
#
# Stress axis : x y z
#
# Youngs Moduli (GPa) = 56.55640 146.50264 132.52153
#
# Poissons Ratio (x) = -0.05296 0.23037
# Poissons Ratio (y) = -0.02044 0.35722
# Poissons Ratio (z) = 0.09831 0.39490
#
# Static dielectric constant tensor:
#      x y z
#    x 1.705840 0.000000 0.000000 
#    y 0.000000 1.986430 0.000000 
#    z 0.000000 0.000000 1.840150 
# 
# From -- ./inp_files/1770.got.cif
#   From: 2010.05.17/outbox.cif.g08.bks.cpg/sg53_1_cif.got.tgz:1770.got - 2010.06.03 12:45:16.
