data_PCOD9419929
_publ_section_title
;
Structure prediction by ZEFSAII (Michael W. Deem and Ramdas Pophale) SiO2 
 PCOD9419929
Probable space group: P M N A
;
_chemical_formula_sum "Si O2"
_cell_formula_units_Z 40
_cell_length_a 18.736977
_cell_length_b 12.348071
_cell_length_c 8.230631
_cell_angle_alpha 90.000000
_cell_angle_beta 90.000000
_cell_angle_gamma 90.000000
_cell_volume 1904.284240
_symmetry_space_group_name_H-M "P M N A"
_symmetry_group_IT_number 53
_symmetry_cell_setting 'orthorhombic'
loop_
_space_group_symop_operation_xyz
x,y,z
1/2-x,-y,1/2+z
x,-y,-z
1/2-x,y,1/2-z
-x,-y,-z
1/2+x,y,1/2-z
-x,y,z
1/2+x,-y,1/2+z
loop_
_atom_site_type_symbol
_atom_site_label
_atom_site_fract_x
_atom_site_fract_y
_atom_site_fract_z
Si Si1 0.172661 0.264062 0.829154
Si Si2 0.918052 0.078143 0.735612
Si Si3 0.415933 0.455043 0.817221
Si Si4 0.329592 0.649724 0.692352
Si Si5 0.917184 0.162770 0.364111
O O1 0.250000 0.257297 0.750000
O O2 0.136461 0.146815 0.839413
O O3 0.123908 0.343164 0.719070
O O4 0.175618 0.312127 0.008178
O O5 0.909855 0.124996 0.551476
O O6 0.000000 0.097874 0.784892
O O7 0.906378 0.949673 0.732603
O O8 0.500000 0.442109 0.789251
O O9 0.380633 0.546487 0.705932
O O10 0.405515 0.500000 0.000000
O O11 0.250000 0.621394 0.750000
O O12 0.364070 0.744785 0.803316
O O13 0.000000 0.198806 0.342622
#
# Coordination Sequence:
#
# PCOD9419929 Si02
#       5
#     8   8   8   8   8
#     4  12  25  40  60  87 121 157 196 243 293 347
#     4   9  19  38  63  89 119 156 197 241 291 348
#     4  11  24  43  66  89 117 153 192 237 292 353
#     4  12  25  40  60  87 121 157 196 243 293 347
#     4   9  19  38  63  89 119 156 197 241 291 348
#
# _framework density 21.005268999999998
#
# number of rings (size 3 to 8) (size 9 to 14) (size 15 to 20)
#    0.000    1.400    0.000    7.200    0.000    8.800 
#    0.000    2.000    0.000    0.000    0.000    0.000 
#    0.000    0.000    0.000    0.000    0.000    0.000 
#
# Total GULP energy -223863.266545 kJ/mol
# GULP energy per Si atom -5596.581664 kJ/mol
# Density = 2.095746 g / cm^3
# Si number density = 21.005269 Si / 1000 Ang^3
#
#
#
# Elastic Constant Matrix: (Units=GPa)
#
#
# Indices 1 2 3 4 5 6 
#
# 1 71.7860 18.4388 12.1590 0.0000 0.0000 0.0000
# 2 18.4388 50.5588 -12.0418 0.0000 0.0000 0.0000
# 3 12.1590 -12.0418 38.1941 0.0000 0.0000 0.0000
# 4 0.0000 0.0000 0.0000 8.4605 0.0000 0.0000
# 5 0.0000 0.0000 0.0000 0.0000 -8.2508 0.0000
# 6 0.0000 0.0000 0.0000 0.0000 0.0000 299.6379
#
#
#
# Elastic Compliance Matrix: (Units=1/GPa)
#
#
# Indices 1 2 3 4 5 6 
#
# 1 0.017450 -0.008311 -0.008175 0.000000 0.000000 0.000000
# 2 -0.008311 0.025343 0.010636 0.000000 0.000000 0.000000
# 3 -0.008175 0.010636 0.032138 0.000000 0.000000 0.000000
# 4 0.000000 0.000000 0.000000 0.118196 0.000000 0.000000
# 5 0.000000 0.000000 0.000000 0.000000 -0.121200 0.000000
# 6 0.000000 0.000000 0.000000 0.000000 0.000000 0.003337
#
#
# Mechanical properties :
#
#
# Convention : Reuss Voigt Hill
#
# Bulk Modulus (GPa) = 15.81528 21.96121 18.88825
# Shear Modulus (GPa) = 46.27822 69.43504 57.85663
#
# Velocity S-wave (km/s) = 4.69889 5.75567 5.25392
# Velocity P-wave (km/s) = 6.08152 7.39244 6.76879
#
# Compressibility (1/GPa) = 0.06322998
#
# Stress axis : x y z
#
# Youngs Moduli (GPa) = 57.30714 39.45820 31.11585
#
# Poissons Ratio (x) = 0.32794 0.25439
# Poissons Ratio (y) = 0.47629 -0.33095
# Poissons Ratio (z) = 0.46851 -0.41968
#
# Static dielectric constant tensor:
#      x y z
#    x 1.704560 0.000000 0.000000 
#    y 0.000000 1.747990 0.000000 
#    z 0.000000 0.000000 1.778880 
# 
# From -- ./inp_files/9637.got.cif
#   From: 2010.05.17/outbox.cif.g08.bks.cpg/sg53_5_cif.got.tgz:9637.got - 2010.06.03 12:45:16.
