data_PCOD9419515
_publ_section_title
;
Structure prediction by ZEFSAII (Michael W. Deem and Ramdas Pophale) SiO2 
 PCOD9419515
Probable space group: P M N A
;
_chemical_formula_sum "Si O2"
_cell_formula_units_Z 22
_cell_length_a 9.150425
_cell_length_b 11.924609
_cell_length_c 7.781977
_cell_angle_alpha 90.000000
_cell_angle_beta 90.000000
_cell_angle_gamma 90.000000
_cell_volume 849.132290
_symmetry_space_group_name_H-M "P M N A"
_symmetry_group_IT_number 53
_symmetry_cell_setting 'orthorhombic'
loop_
_space_group_symop_operation_xyz
x,y,z
1/2-x,-y,1/2+z
x,-y,-z
1/2-x,y,1/2-z
-x,-y,-z
1/2+x,y,1/2-z
-x,y,z
1/2+x,-y,1/2+z
loop_
_atom_site_type_symbol
_atom_site_label
_atom_site_fract_x
_atom_site_fract_y
_atom_site_fract_z
Si Si1 0.500000 0.662097 0.563938
Si Si2 0.000000 0.835239 0.629224
Si Si3 0.253066 0.500000 0.000000
Si Si4 0.000000 0.000000 0.000000
Si Si5 0.000000 0.348388 0.661848
Si Si6 0.250000 0.009729 0.250000
O O1 0.500000 0.768052 0.688400
O O2 0.357404 0.585675 0.594966
O O3 0.500000 0.684327 0.360548
O O4 0.855868 0.909563 0.638388
O O5 0.000000 0.754423 0.468945
O O6 0.360100 0.423594 0.886906
O O7 0.869996 0.951851 0.129971
#
# Coordination Sequence:
#
# PCOD9419515 Si02
#       6
#     4   4   4   2   4   4
#     4  11  24  39  60  94 135 192 252 306 364 424
#     4  11  24  43  69 104 147 183 250 313 382 436
#     4  10  24  36  58  92 128 190 262 298 354 420
#     4  10  24  50  84 112 156 178 252 282 396 490
#     4  11  24  39  61  94 136 192 252 308 372 418
#     4  10  24  50  76 118 142 194 232 314 386 480
#
# _framework density 25.908801
#
# number of rings (size 3 to 8) (size 9 to 14) (size 15 to 20)
#    0.000    1.455    0.000    3.273   15.273    2.909 
#   13.091    0.000    0.000    0.000    0.000    0.000 
#    0.000    0.000    0.000    0.000    0.000    0.000 
#
# Total GULP energy -122785.275788 kJ/mol
# GULP energy per Si atom -5581.148899 kJ/mol
# Density = 2.584983 g / cm^3
# Si number density = 25.908801 Si / 1000 Ang^3
#
#
#
# Elastic Constant Matrix: (Units=GPa)
#
#
# Indices 1 2 3 4 5 6 
#
# 1 245.3321 56.9542 19.1797 0.0000 0.0000 0.0000
# 2 56.9542 78.5959 49.4655 0.0000 0.0000 0.0000
# 3 19.1797 49.4655 95.4696 0.0000 0.0000 0.0000
# 4 0.0000 0.0000 0.0000 52.4352 0.0000 0.0000
# 5 0.0000 0.0000 0.0000 0.0000 67.8746 0.0000
# 6 0.0000 0.0000 0.0000 0.0000 0.0000 46.3775
#
#
#
# Elastic Compliance Matrix: (Units=1/GPa)
#
#
# Indices 1 2 3 4 5 6 
#
# 1 0.005006 -0.004444 0.001297 0.000000 0.000000 0.000000
# 2 -0.004444 0.022825 -0.010933 0.000000 0.000000 0.000000
# 3 0.001297 -0.010933 0.015879 0.000000 0.000000 0.000000
# 4 0.000000 0.000000 0.000000 0.019071 0.000000 0.000000
# 5 0.000000 0.000000 0.000000 0.000000 0.014733 0.000000
# 6 0.000000 0.000000 0.000000 0.000000 0.000000 0.021562
#
#
# Mechanical properties :
#
#
# Convention : Reuss Voigt Hill
#
# Bulk Modulus (GPa) = 64.31332 74.51071 69.41201
# Shear Modulus (GPa) = 37.75850 52.92401 45.34125
#
# Velocity S-wave (km/s) = 3.82168 4.52453 4.18788
# Velocity P-wave (km/s) = 6.65962 7.49109 7.08756
#
# Compressibility (1/GPa) = 0.01554888
#
# Stress axis : x y z
#
# Youngs Moduli (GPa) = 199.74369 43.81214 62.97671
#
# Poissons Ratio (x) = 0.19470 -0.08167
# Poissons Ratio (y) = 0.88767 0.68855
# Poissons Ratio (z) = -0.25903 0.47901
#
# Static dielectric constant tensor:
#      x y z
#    x 1.927880 0.000000 0.000000 
#    y 0.000000 2.093280 0.000000 
#    z 0.000000 0.000000 2.105280 
# 
# From -- ./inp_files/5773.got.cif
#   From: 2010.05.17/outbox.cif.g08.bks.cpg/sg53_3_cif.got.tgz:5773.got - 2010.06.03 12:45:16.
