data_PCOD9419519
_publ_section_title
;
Structure prediction by ZEFSAII (Michael W. Deem and Ramdas Pophale) SiO2 
 PCOD9419519
Probable space group: P M N A
;
_chemical_formula_sum "Si O2"
_cell_formula_units_Z 44
_cell_length_a 18.713938
_cell_length_b 7.365602
_cell_length_c 12.644203
_cell_angle_alpha 90.000000
_cell_angle_beta 90.000000
_cell_angle_gamma 90.000000
_cell_volume 1742.869597
_symmetry_space_group_name_H-M "P M N A"
_symmetry_group_IT_number 53
_symmetry_cell_setting 'orthorhombic'
loop_
_space_group_symop_operation_xyz
x,y,z
1/2-x,-y,1/2+z
x,-y,-z
1/2-x,y,1/2-z
-x,-y,-z
1/2+x,y,1/2-z
-x,y,z
1/2+x,-y,1/2+z
loop_
_atom_site_type_symbol
_atom_site_label
_atom_site_fract_x
_atom_site_fract_y
_atom_site_fract_z
Si Si1 0.316338 0.500000 0.500000
Si Si2 0.886851 0.880456 0.618878
Si Si3 0.765458 0.804879 0.870058
Si Si4 0.922650 0.931178 0.847202
Si Si5 0.080625 0.296034 0.583328
Si Si6 0.417367 0.635419 0.311586
O O1 0.264602 0.656125 0.539925
O O2 0.367329 0.547505 0.400415
O O3 0.802870 0.933100 0.619964
O O4 0.917178 0.832504 0.733438
O O5 0.894694 0.712716 0.538268
O O6 0.921960 0.075565 0.598022
O O7 0.750000 0.733248 0.750000
O O8 0.844132 0.885985 0.889732
O O9 0.000000 0.880704 0.896678
O O10 0.921923 0.148189 0.834271
O O11 0.113642 0.374268 0.691564
O O12 0.000000 0.362963 0.585906
O O13 0.500000 0.569262 0.317593
#
# Coordination Sequence:
#
# PCOD9419519 Si02
#       6
#     4   8   8   8   8   8
#     4  12  25  40  56  76 117 168 200 234 292 362
#     4   9  16  31  56  86 119 147 179 235 299 351
#     4  10  24  41  57  82 115 151 195 242 297 359
#     4   9  18  37  62  87 113 147 195 252 302 350
#     4   9  16  30  58  95 120 142 184 242 301 355
#     4   9  20  36  57  86 118 152 198 246 292 350
#
# _framework density 25.245719999999999
#
# number of rings (size 3 to 8) (size 9 to 14) (size 15 to 20)
#    0.000    2.545    0.000    3.545    0.000    6.545 
#    0.000    6.364    0.000    0.000    0.000   12.727 
#    0.000    0.000    0.000    0.000    0.000    0.000 
#
# Total GULP energy -245215.103880 kJ/mol
# GULP energy per Si atom -5573.070543 kJ/mol
# Density = 2.518826 g / cm^3
# Si number density = 25.245720 Si / 1000 Ang^3
#
#
#
# Elastic Constant Matrix: (Units=GPa)
#
#
# Indices 1 2 3 4 5 6 
#
# 1 162.3522 22.7706 12.8236 0.0000 0.0000 0.0000
# 2 22.7706 46.6693 21.9899 0.0000 0.0000 0.0000
# 3 12.8236 21.9899 139.9990 0.0000 0.0000 0.0000
# 4 0.0000 0.0000 0.0000 50.2833 0.0000 0.0000
# 5 0.0000 0.0000 0.0000 0.0000 13.9325 0.0000
# 6 0.0000 0.0000 0.0000 0.0000 0.0000 0.2426
#
#
#
# Elastic Compliance Matrix: (Units=1/GPa)
#
#
# Indices 1 2 3 4 5 6 
#
# 1 0.006613 -0.003176 -0.000107 0.000000 0.000000 0.000000
# 2 -0.003176 0.024666 -0.003583 0.000000 0.000000 0.000000
# 3 -0.000107 -0.003583 0.007716 0.000000 0.000000 0.000000
# 4 0.000000 0.000000 0.000000 0.019887 0.000000 0.000000
# 5 0.000000 0.000000 0.000000 0.000000 0.071775 0.000000
# 6 0.000000 0.000000 0.000000 0.000000 0.000000 4.122391
#
#
# Mechanical properties :
#
#
# Convention : Reuss Voigt Hill
#
# Bulk Modulus (GPa) = 39.58617 51.57652 45.58135
# Shear Modulus (GPa) = 1.16954 32.32077 16.74515
#
# Velocity S-wave (km/s) = 0.68137 3.58194 2.57823
# Velocity P-wave (km/s) = 4.04146 6.13035 5.19204
#
# Compressibility (1/GPa) = 0.02526135
#
# Stress axis : x y z
#
# Youngs Moduli (GPa) = 151.20830 40.54233 129.60873
#
# Poissons Ratio (x) = 0.12878 0.01385
# Poissons Ratio (y) = 0.48030 0.46443
# Poissons Ratio (z) = 0.01616 0.14528
#
# Static dielectric constant tensor:
#      x y z
#    x 1.982380 0.000000 0.000000 
#    y 0.000000 2.002640 0.000000 
#    z 0.000000 0.000000 2.183830 
# 
# From -- ./inp_files/23513.got.cif
#   From: 2010.05.17/outbox.cif.g08.bks.cpg/sg53_12_cif.got.tgz:23513.got - 2010.06.03 12:45:16.
