data_PCOD9419777
_publ_section_title
;
Structure prediction by ZEFSAII (Michael W. Deem and Ramdas Pophale) SiO2 
 PCOD9419777
Probable space group: P M N A
;
_chemical_formula_sum "Si O2"
_cell_formula_units_Z 48
_cell_length_a 14.645712
_cell_length_b 19.385413
_cell_length_c 8.151152
_cell_angle_alpha 90.000000
_cell_angle_beta 90.000000
_cell_angle_gamma 90.000000
_cell_volume 2314.219451
_symmetry_space_group_name_H-M "P M N A"
_symmetry_group_IT_number 53
_symmetry_cell_setting 'orthorhombic'
loop_
_space_group_symop_operation_xyz
x,y,z
1/2-x,-y,1/2+z
x,-y,-z
1/2-x,y,1/2-z
-x,-y,-z
1/2+x,y,1/2-z
-x,y,z
1/2+x,-y,1/2+z
loop_
_atom_site_type_symbol
_atom_site_label
_atom_site_fract_x
_atom_site_fract_y
_atom_site_fract_z
Si Si1 0.000000 0.283270 0.148257
Si Si2 0.698925 0.832027 0.103931
Si Si3 0.666707 0.051044 0.146055
Si Si4 0.696712 0.576079 0.075329
Si Si5 0.500000 0.199918 0.888702
Si Si6 0.500000 0.128170 0.250058
Si Si7 0.000000 0.644842 0.485576
Si Si8 0.290895 0.705660 0.572395
O O1 0.000000 0.199213 0.151768
O O2 0.000000 0.326522 0.323152
O O3 0.900720 0.298321 0.071312
O O4 0.750000 0.867945 0.250000
O O5 0.597718 0.821180 0.175434
O O6 0.699336 0.879765 0.945916
O O7 0.747365 0.760306 0.054665
O O8 0.750000 0.022359 0.250000
O O9 0.586522 0.078500 0.262127
O O10 0.635233 0.000000 0.000000
O O11 0.750000 0.576428 0.250000
O O12 0.699312 0.500000 0.000000
O O13 0.591428 0.603314 0.065044
O O14 0.751461 0.630812 0.966117
O O15 0.500000 0.162035 0.066793
O O16 0.500000 0.282083 0.894478
O O17 0.250000 0.726719 0.750000
#
# Coordination Sequence:
#
# PCOD9419777 Si02
#       8
#     4   8   8   8   4   4   4   8
#     4  11  22  38  71 104 125 169 224 271 338 397
#     4  11  22  38  62  93 129 170 213 276 328 387
#     4  11  22  39  62  89 126 169 219 265 321 398
#     4  12  27  46  68  96 132 177 223 274 334 402
#     4   9  18  35  62  87 122 157 212 246 328 393
#     4   9  19  38  60  93 121 169 203 258 324 397
#     4  11  21  43  70  91 130 176 209 262 342 403
#     4  12  22  41  66  96 130 167 216 276 326 393
#
# _framework density 20.741336
#
# number of rings (size 3 to 8) (size 9 to 14) (size 15 to 20)
#    0.000    1.000    3.333    5.500    0.000    1.333 
#    0.000    2.083    0.000    0.000    0.000    0.000 
#    0.000    0.000    0.000    0.000    0.000    0.000 
#
# Total GULP energy -267730.908999 kJ/mol
# GULP energy per Si atom -5577.727271 kJ/mol
# Density = 2.069413 g / cm^3
# Si number density = 20.741336 Si / 1000 Ang^3
#
#
#
# Elastic Constant Matrix: (Units=GPa)
#
#
# Indices 1 2 3 4 5 6 
#
# 1 201.7740 58.4084 38.3062 0.0000 0.0000 0.0000
# 2 58.4084 122.3359 10.6044 0.0000 0.0000 0.0000
# 3 38.3062 10.6044 44.3543 0.0000 0.0000 0.0000
# 4 0.0000 0.0000 0.0000 19.3932 0.0000 0.0000
# 5 0.0000 0.0000 0.0000 0.0000 21.0262 0.0000
# 6 0.0000 0.0000 0.0000 0.0000 0.0000 38.9176
#
#
#
# Elastic Compliance Matrix: (Units=1/GPa)
#
#
# Indices 1 2 3 4 5 6 
#
# 1 0.006737 -0.002769 -0.005156 0.000000 0.000000 0.000000
# 2 -0.002769 0.009486 0.000124 0.000000 0.000000 0.000000
# 3 -0.005156 0.000124 0.026969 0.000000 0.000000 0.000000
# 4 0.000000 0.000000 0.000000 0.051565 0.000000 0.000000
# 5 0.000000 0.000000 0.000000 0.000000 0.047560 0.000000
# 6 0.000000 0.000000 0.000000 0.000000 0.000000 0.025695
#
#
# Mechanical properties :
#
#
# Convention : Reuss Voigt Hill
#
# Bulk Modulus (GPa) = 36.24706 64.78913 50.51809
# Shear Modulus (GPa) = 25.93233 33.27706 29.60469
#
# Velocity S-wave (km/s) = 3.53976 4.00982 3.78210
# Velocity P-wave (km/s) = 5.84980 7.26242 6.59405
#
# Compressibility (1/GPa) = 0.02758845
#
# Stress axis : x y z
#
# Youngs Moduli (GPa) = 148.44445 105.42178 37.07979
#
# Poissons Ratio (x) = 0.29195 0.19118
# Poissons Ratio (y) = 0.41110 -0.00459
# Poissons Ratio (z) = 0.76535 -0.01306
#
# Static dielectric constant tensor:
#      x y z
#    x 1.744490 0.000000 0.000000 
#    y 0.000000 1.704820 0.000000 
#    z 0.000000 0.000000 1.773550 
# 
# From -- ./inp_files/8761.got.cif
#   From: 2010.05.17/outbox.cif.g08.bks.cpg/sg53_5_cif.got.tgz:8761.got - 2010.06.03 12:45:16.
