data_PCOD9419467
_publ_section_title
;
Structure prediction by ZEFSAII (Michael W. Deem and Ramdas Pophale) SiO2 
 PCOD9419467
Probable space group: P M N A
;
_chemical_formula_sum "Si O2"
_cell_formula_units_Z 32
_cell_length_a 14.384682
_cell_length_b 9.926484
_cell_length_c 9.882516
_cell_angle_alpha 90.000000
_cell_angle_beta 90.000000
_cell_angle_gamma 90.000000
_cell_volume 1411.117697
_symmetry_space_group_name_H-M "P M N A"
_symmetry_group_IT_number 53
_symmetry_cell_setting 'orthorhombic'
loop_
_space_group_symop_operation_xyz
x,y,z
1/2-x,-y,1/2+z
x,-y,-z
1/2-x,y,1/2-z
-x,-y,-z
1/2+x,y,1/2-z
-x,y,z
1/2+x,-y,1/2+z
loop_
_atom_site_type_symbol
_atom_site_label
_atom_site_fract_x
_atom_site_fract_y
_atom_site_fract_z
Si Si1 0.603195 0.979524 0.339649
Si Si2 0.271812 0.274693 0.611171
Si Si3 0.392994 0.649984 0.942290
Si Si4 0.611032 0.719269 0.648993
O O1 0.500000 0.951748 0.282025
O O2 0.672982 0.855769 0.331831
O O3 0.592571 0.000000 0.500000
O O4 0.636903 0.128395 0.301575
O O5 0.250000 0.354019 0.750000
O O6 0.175754 0.256800 0.529203
O O7 0.338014 0.324727 0.488304
O O8 0.500000 0.696374 0.951842
O O9 0.369333 0.637680 0.784060
O O10 0.385656 0.500000 0.000000
O O11 0.500000 0.720451 0.622665
#
# Coordination Sequence:
#
# PCOD9419467 Si02
#       4
#     8   8   8   8
#     4   8  16  33  57  87 124 165 209 256 311 378
#     4  11  22  33  57  92 127 162 206 259 313 374
#     4  10  23  43  63  85 119 167 224 276 316 368
#     4   9  19  39  65  88 120 168 212 258 319 377
#
# _framework density 22.677059
#
# number of rings (size 3 to 8) (size 9 to 14) (size 15 to 20)
#    0.000    2.500    0.000    3.000    0.000   10.000 
#    0.000    0.000    0.000   18.750    0.000    0.000 
#    0.000    0.000    0.000    0.000    0.000    0.000 
#
# Total GULP energy -178276.074402 kJ/mol
# GULP energy per Si atom -5571.127325 kJ/mol
# Density = 2.262544 g / cm^3
# Si number density = 22.677059 Si / 1000 Ang^3
#
#
#
# Elastic Constant Matrix: (Units=GPa)
#
#
# Indices 1 2 3 4 5 6 
#
# 1 138.6586 30.0839 72.6821 0.0000 0.0000 0.0000
# 2 30.0839 57.4806 27.9718 0.0000 0.0000 0.0000
# 3 72.6821 27.9718 187.4095 0.0000 0.0000 0.0000
# 4 0.0000 0.0000 0.0000 27.9621 0.0000 0.0000
# 5 0.0000 0.0000 0.0000 0.0000 -6.3137 0.0000
# 6 0.0000 0.0000 0.0000 0.0000 0.0000 25.8893
#
#
#
# Elastic Compliance Matrix: (Units=1/GPa)
#
#
# Indices 1 2 3 4 5 6 
#
# 1 0.009659 -0.003486 -0.003226 0.000000 0.000000 0.000000
# 2 -0.003486 0.020018 -0.001636 0.000000 0.000000 0.000000
# 3 -0.003226 -0.001636 0.006831 0.000000 0.000000 0.000000
# 4 0.000000 0.000000 0.000000 0.035763 0.000000 0.000000
# 5 0.000000 0.000000 0.000000 0.000000 -0.158386 0.000000
# 6 0.000000 0.000000 0.000000 0.000000 0.000000 0.038626
#
#
# Mechanical properties :
#
#
# Convention : Reuss Voigt Hill
#
# Bulk Modulus (GPa) = 50.47148 71.66937 61.07043
# Shear Modulus (GPa) = -206.68996 26.36161 -90.16418
#
# Velocity S-wave (km/s) = -9.55734 3.41321 -6.31240
# Velocity P-wave (km/s) = 9.97424 6.87069 5.11269
#
# Compressibility (1/GPa) = 0.01981317
#
# Stress axis : x y z
#
# Youngs Moduli (GPa) = 103.52932 49.95626 146.38875
#
# Poissons Ratio (x) = 0.17413 0.47222
# Poissons Ratio (y) = 0.36086 0.23948
# Poissons Ratio (z) = 0.33397 0.08172
#
# Static dielectric constant tensor:
#      x y z
#    x 1.906570 0.000000 0.000000 
#    y 0.000000 1.997970 0.000000 
#    z 0.000000 0.000000 1.906770 
# 
# From -- ./inp_files/8023.got.cif
#   From: 2010.05.17/outbox.cif.g08.bks.cpg/sg53_5_cif.got.tgz:8023.got - 2010.06.03 12:45:16.
