data_PCOD9419734
_publ_section_title
;
Structure prediction by ZEFSAII (Michael W. Deem and Ramdas Pophale) SiO2 
 PCOD9419734
Probable space group: P M N A
;
_chemical_formula_sum "Si O2"
_cell_formula_units_Z 40
_cell_length_a 8.613950
_cell_length_b 26.883682
_cell_length_c 9.198870
_cell_angle_alpha 90.000000
_cell_angle_beta 90.000000
_cell_angle_gamma 90.000000
_cell_volume 2130.225492
_symmetry_space_group_name_H-M "P M N A"
_symmetry_group_IT_number 53
_symmetry_cell_setting 'orthorhombic'
loop_
_space_group_symop_operation_xyz
x,y,z
1/2-x,-y,1/2+z
x,-y,-z
1/2-x,y,1/2-z
-x,-y,-z
1/2+x,y,1/2-z
-x,y,z
1/2+x,-y,1/2+z
loop_
_atom_site_type_symbol
_atom_site_label
_atom_site_fract_x
_atom_site_fract_y
_atom_site_fract_z
Si Si1 0.686177 0.050435 0.913095
Si Si2 0.312637 0.548204 0.413280
Si Si3 0.185478 0.855034 0.913015
Si Si4 0.686511 0.656930 0.415299
Si Si5 0.185323 0.760545 0.415064
O O1 0.750000 0.047654 0.750000
O O2 0.500000 0.055748 0.909599
O O3 0.758072 0.097433 0.995641
O O4 0.724457 0.000000 0.000000
O O5 0.256713 0.500000 0.500000
O O6 0.250000 0.545755 0.250000
O O7 0.500000 0.546806 0.408173
O O8 0.270826 0.602618 0.478103
O O9 0.250000 0.858544 0.750000
O O10 0.000000 0.853539 0.910233
O O11 0.249890 0.805678 0.990572
O O12 0.750000 0.655335 0.250000
O O13 0.500000 0.661674 0.413369
O O14 0.759227 0.707211 0.477820
O O15 0.250000 0.764814 0.250000
O O16 0.000000 0.762000 0.409407
#
# Coordination Sequence:
#
# PCOD9419734 Si02
#       5
#     8   8   8   8   8
#     4  11  24  42  65  93 124 158 196 237 282 331
#     4   9  18  32  50  74 104 138 177 223 273 327
#     4  12  25  42  62  86 118 153 191 234 283 336
#     4   9  16  29  50  75 104 138 179 226 275 327
#     4  11  21  36  58  84 112 144 186 232 281 334
#
# _framework density 18.777356999999999
#
# number of rings (size 3 to 8) (size 9 to 14) (size 15 to 20)
#    0.000    1.600    0.000    7.200    0.000    4.400 
#    0.000    1.000    0.000    2.400    0.000    0.000 
#    0.000    0.000    0.000    0.000    0.000    0.000 
#
# Total GULP energy -223393.526987 kJ/mol
# GULP energy per Si atom -5584.838175 kJ/mol
# Density = 1.873462 g / cm^3
# Si number density = 18.777357 Si / 1000 Ang^3
#
#
#
# Elastic Constant Matrix: (Units=GPa)
#
#
# Indices 1 2 3 4 5 6 
#
# 1 120.0922 89.5328 49.3941 0.0000 0.0000 0.0000
# 2 89.5328 227.3841 91.5738 0.0000 0.0000 0.0000
# 3 49.3941 91.5738 107.8244 0.0000 0.0000 0.0000
# 4 0.0000 0.0000 0.0000 29.6695 0.0000 0.0000
# 5 0.0000 0.0000 0.0000 0.0000 25.1936 0.0000
# 6 0.0000 0.0000 0.0000 0.0000 0.0000 40.6429
#
#
#
# Elastic Compliance Matrix: (Units=1/GPa)
#
#
# Indices 1 2 3 4 5 6 
#
# 1 0.012146 -0.003863 -0.002283 0.000000 0.000000 0.000000
# 2 -0.003863 0.007913 -0.004950 0.000000 0.000000 0.000000
# 3 -0.002283 -0.004950 0.014525 0.000000 0.000000 0.000000
# 4 0.000000 0.000000 0.000000 0.033705 0.000000 0.000000
# 5 0.000000 0.000000 0.000000 0.000000 0.039693 0.000000
# 6 0.000000 0.000000 0.000000 0.000000 0.000000 0.024605
#
#
# Mechanical properties :
#
#
# Convention : Reuss Voigt Hill
#
# Bulk Modulus (GPa) = 80.71117 101.81134 91.26125
# Shear Modulus (GPa) = 31.46467 34.08786 32.77626
#
# Velocity S-wave (km/s) = 4.09794 4.26534 4.18248
# Velocity P-wave (km/s) = 8.09119 8.86541 8.48713
#
# Compressibility (1/GPa) = 0.01238986
#
# Stress axis : x y z
#
# Youngs Moduli (GPa) = 82.33145 126.38125 68.84856
#
# Poissons Ratio (x) = 0.48821 0.15720
# Poissons Ratio (y) = 0.31804 0.34083
# Poissons Ratio (z) = 0.18799 0.62564
#
# Static dielectric constant tensor:
#      x y z
#    x 1.628320 0.000000 0.000000 
#    y 0.000000 1.685130 0.000000 
#    z 0.000000 0.000000 1.572950 
# 
# From -- ./inp_files/6290.got.cif
#   From: 2010.05.17/outbox.cif.g08.bks.cpg/sg53_4_cif.got.tgz:6290.got - 2010.06.03 12:45:16.
