data_PCOD9419566
_publ_section_title
;
Structure prediction by ZEFSAII (Michael W. Deem and Ramdas Pophale) SiO2 
 PCOD9419566
Probable space group: P M N A
;
_chemical_formula_sum "Si O2"
_cell_formula_units_Z 54
_cell_length_a 14.526065
_cell_length_b 30.737723
_cell_length_c 4.992364
_cell_angle_alpha 90.000000
_cell_angle_beta 90.000000
_cell_angle_gamma 90.000000
_cell_volume 2229.081351
_symmetry_space_group_name_H-M "P M N A"
_symmetry_group_IT_number 53
_symmetry_cell_setting 'orthorhombic'
loop_
_space_group_symop_operation_xyz
x,y,z
1/2-x,-y,1/2+z
x,-y,-z
1/2-x,y,1/2-z
-x,-y,-z
1/2+x,y,1/2-z
-x,y,z
1/2+x,-y,1/2+z
loop_
_atom_site_type_symbol
_atom_site_label
_atom_site_fract_x
_atom_site_fract_y
_atom_site_fract_z
Si Si1 0.400445 0.693408 0.649607
Si Si2 0.891130 0.126594 0.070037
Si Si3 0.750000 0.243080 0.250000
Si Si4 0.500000 0.000000 0.000000
Si Si5 0.389603 0.817496 0.070224
Si Si6 0.681126 0.452921 0.998565
Si Si7 0.352131 0.962489 0.315562
Si Si8 0.357059 0.362045 0.832199
O O1 0.500000 0.715616 0.652574
O O2 0.319079 0.726345 0.581295
O O3 0.319782 0.782654 0.945369
O O4 0.403091 0.654535 0.437158
O O5 0.867683 0.166561 0.869928
O O6 0.845136 0.082785 0.969040
O O7 0.000000 0.119134 0.035828
O O8 0.874463 0.141340 0.371870
O O9 0.878671 0.327596 0.436477
O O10 0.419036 0.036682 0.937091
O O11 0.500000 0.806179 0.056036
O O12 0.750000 0.445540 0.250000
O O13 0.632317 0.500000 0.000000
O O14 0.750000 0.457299 0.750000
O O15 0.621432 0.410074 0.943843
O O16 0.250000 0.976667 0.250000
O O17 0.397816 0.000000 0.500000
O O18 0.250000 0.362897 0.750000
#
# Coordination Sequence:
#
# PCOD9419566 Si02
#       8
#     8   8   4   2   8   8   8   8
#     4  12  26  43  68 100 137 177 222 289 349 412
#     4  10  24  45  71  99 139 177 222 276 340 398
#     4  12  26  48  72  98 132 178 230 282 354 420
#     4  12  26  48  68 104 148 184 230 300 330 390
#     4  10  25  45  69 101 132 175 223 281 339 414
#     4   9  17  30  57  96 135 176 231 286 331 398
#     4  12  27  43  71 105 141 187 235 278 338 405
#     4  11  20  41  65  98 134 181 230 275 342 411
#
# _framework density 24.225228999999999
#
# number of rings (size 3 to 8) (size 9 to 14) (size 15 to 20)
#    0.000    1.185    2.963    2.889    4.148    2.370 
#    0.000    2.963    0.000    2.667    0.000    0.000 
#    0.000    0.000    0.000    0.000    0.000    0.000 
#
# Total GULP energy -301670.069978 kJ/mol
# GULP energy per Si atom -5586.482777 kJ/mol
# Density = 2.417009 g / cm^3
# Si number density = 24.225229 Si / 1000 Ang^3
#
#
#
# Elastic Constant Matrix: (Units=GPa)
#
#
# Indices 1 2 3 4 5 6 
#
# 1 140.0959 38.8634 9.7415 0.0000 0.0000 0.0000
# 2 38.8634 84.6079 -8.2933 0.0000 0.0000 0.0000
# 3 9.7415 -8.2933 95.1809 0.0000 0.0000 0.0000
# 4 0.0000 0.0000 0.0000 28.1186 0.0000 0.0000
# 5 0.0000 0.0000 0.0000 0.0000 151.4405 0.0000
# 6 0.0000 0.0000 0.0000 0.0000 0.0000 16.6784
#
#
#
# Elastic Compliance Matrix: (Units=1/GPa)
#
#
# Indices 1 2 3 4 5 6 
#
# 1 0.008313 -0.003935 -0.001194 0.000000 0.000000 0.000000
# 2 -0.003935 0.013784 0.001604 0.000000 0.000000 0.000000
# 3 -0.001194 0.001604 0.010768 0.000000 0.000000 0.000000
# 4 0.000000 0.000000 0.000000 0.035564 0.000000 0.000000
# 5 0.000000 0.000000 0.000000 0.000000 0.006603 0.000000
# 6 0.000000 0.000000 0.000000 0.000000 0.000000 0.059958
#
#
# Mechanical properties :
#
#
# Convention : Reuss Voigt Hill
#
# Bulk Modulus (GPa) = 38.73778 44.50088 41.61933
# Shear Modulus (GPa) = 33.19063 57.88570 45.53817
#
# Velocity S-wave (km/s) = 3.70548 4.89353 4.34035
# Velocity P-wave (km/s) = 5.85942 7.09496 6.50658
#
# Compressibility (1/GPa) = 0.02581459
#
# Stress axis : x y z
#
# Youngs Moduli (GPa) = 120.29866 72.54762 92.86586
#
# Poissons Ratio (x) = 0.28550 0.11085
# Poissons Ratio (y) = 0.47341 -0.14894
# Poissons Ratio (z) = 0.14360 -0.11635
#
# Static dielectric constant tensor:
#      x y z
#    x 1.868790 0.000000 0.000000 
#    y 0.000000 1.996060 0.000000 
#    z 0.000000 0.000000 2.032220 
# 
# From -- ./inp_files/1495.got.cif
#   From: 2010.05.17/outbox.cif.g08.bks.cpg/sg53_1_cif.got.tgz:1495.got - 2010.06.03 12:45:16.
