data_PCOD9419600
_publ_section_title
;
Structure prediction by ZEFSAII (Michael W. Deem and Ramdas Pophale) SiO2 
 PCOD9419600
Probable space group: P M N A
;
_chemical_formula_sum "Si O2"
_cell_formula_units_Z 28
_cell_length_a 21.444869
_cell_length_b 4.921814
_cell_length_c 10.314054
_cell_angle_alpha 90.000000
_cell_angle_beta 90.000000
_cell_angle_gamma 90.000000
_cell_volume 1088.624228
_symmetry_space_group_name_H-M "P M N A"
_symmetry_group_IT_number 53
_symmetry_cell_setting 'orthorhombic'
loop_
_space_group_symop_operation_xyz
x,y,z
1/2-x,-y,1/2+z
x,-y,-z
1/2-x,y,1/2-z
-x,-y,-z
1/2+x,y,1/2-z
-x,y,z
1/2+x,-y,1/2+z
loop_
_atom_site_type_symbol
_atom_site_label
_atom_site_fract_x
_atom_site_fract_y
_atom_site_fract_z
Si Si1 0.500000 0.778309 0.648487
Si Si2 0.322026 0.500000 0.000000
Si Si3 0.500000 0.268595 0.811223
Si Si4 0.610934 0.500000 0.500000
Si Si5 0.220772 0.814603 0.127377
Si Si6 0.901865 0.000000 0.500000
O O1 0.500000 0.586158 0.778353
O O2 0.563484 0.697519 0.575771
O O3 0.500000 0.095328 0.680054
O O4 0.276765 0.600764 0.111949
O O5 0.360974 0.246366 0.052716
O O6 0.557892 0.157055 0.893062
O O7 0.655365 0.655010 0.395149
O O8 0.250000 0.973398 0.250000
O O9 0.222135 0.000000 0.000000
#
# Coordination Sequence:
#
# PCOD9419600 Si02
#       6
#     4   4   4   4   8   4
#     4  11  26  47  74 106 145 204 247 313 374 453
#     4  11  24  46  72 106 148 201 248 312 388 449
#     4  11  26  43  74 108 150 195 250 312 375 453
#     4  10  28  45  72 107 152 196 262 308 384 456
#     4  11  27  48  77 115 154 203 258 321 385 459
#     4  11  24  44  70 114 148 193 250 312 380 463
#
# _framework density 25.720537
#
# number of rings (size 3 to 8) (size 9 to 14) (size 15 to 20)
#    0.000    1.143    1.429    1.714   12.000    8.000 
#    0.000    0.000    0.000    0.000    0.000    0.000 
#    0.000    0.000    0.000    0.000    0.000    0.000 
#
# Total GULP energy -156600.522670 kJ/mol
# GULP energy per Si atom -5592.875810 kJ/mol
# Density = 2.566200 g / cm^3
# Si number density = 25.720537 Si / 1000 Ang^3
#
#
#
# Elastic Constant Matrix: (Units=GPa)
#
#
# Indices 1 2 3 4 5 6 
#
# 1 157.8864 33.5134 38.4830 0.0000 0.0000 0.0000
# 2 33.5134 100.2409 5.9553 0.0000 0.0000 0.0000
# 3 38.4830 5.9553 87.0284 0.0000 0.0000 0.0000
# 4 0.0000 0.0000 0.0000 52.8844 0.0000 0.0000
# 5 0.0000 0.0000 0.0000 0.0000 22.6851 0.0000
# 6 0.0000 0.0000 0.0000 0.0000 0.0000 54.4143
#
#
#
# Elastic Compliance Matrix: (Units=1/GPa)
#
#
# Indices 1 2 3 4 5 6 
#
# 1 0.007615 -0.002355 -0.003206 0.000000 0.000000 0.000000
# 2 -0.002355 0.010745 0.000306 0.000000 0.000000 0.000000
# 3 -0.003206 0.000306 0.012887 0.000000 0.000000 0.000000
# 4 0.000000 0.000000 0.000000 0.018909 0.000000 0.000000
# 5 0.000000 0.000000 0.000000 0.000000 0.044082 0.000000
# 6 0.000000 0.000000 0.000000 0.000000 0.000000 0.018378
#
#
# Mechanical properties :
#
#
# Convention : Reuss Voigt Hill
#
# Bulk Modulus (GPa) = 48.22303 55.67322 51.94813
# Shear Modulus (GPa) = 38.44997 43.81036 41.13016
#
# Velocity S-wave (km/s) = 3.87061 4.13161 4.00324
# Velocity P-wave (km/s) = 6.22615 6.66729 6.45049
#
# Compressibility (1/GPa) = 0.02073698
#
# Stress axis : x y z
#
# Youngs Moduli (GPa) = 131.31792 93.06416 77.59599
#
# Poissons Ratio (x) = 0.21921 0.24878
# Poissons Ratio (y) = 0.30932 -0.02377
# Poissons Ratio (z) = 0.42102 -0.02850
#
# Static dielectric constant tensor:
#      x y z
#    x 2.056590 0.000000 0.000000 
#    y 0.000000 2.073810 0.000000 
#    z 0.000000 0.000000 2.916350 
# 
# From -- ./inp_files/17375.got.cif
#   From: 2010.05.17/outbox.cif.g08.bks.cpg/sg53_9_cif.got.tgz:17375.got - 2010.06.03 12:45:16.
