data_PCOD9419571
_publ_section_title
;
Structure prediction by ZEFSAII (Michael W. Deem and Ramdas Pophale) SiO2 
 PCOD9419571
Probable space group: P M N A
;
_chemical_formula_sum "Si O2"
_cell_formula_units_Z 16
_cell_length_a 23.415098
_cell_length_b 5.115800
_cell_length_c 4.986580
_cell_angle_alpha 90.000000
_cell_angle_beta 90.000000
_cell_angle_gamma 90.000000
_cell_volume 597.327251
_symmetry_space_group_name_H-M "P M N A"
_symmetry_group_IT_number 53
_symmetry_cell_setting 'orthorhombic'
loop_
_space_group_symop_operation_xyz
x,y,z
1/2-x,-y,1/2+z
x,-y,-z
1/2-x,y,1/2-z
-x,-y,-z
1/2+x,y,1/2-z
-x,y,z
1/2+x,-y,1/2+z
loop_
_atom_site_type_symbol
_atom_site_label
_atom_site_fract_x
_atom_site_fract_y
_atom_site_fract_z
Si Si1 0.250000 0.301089 0.250000
Si Si2 0.150871 0.000000 0.000000
Si Si3 0.567026 0.260400 0.183764
O O1 0.246905 0.500000 0.500000
O O2 0.196250 0.107325 0.217584
O O3 0.103973 0.225996 0.049039
O O4 0.500000 0.284889 0.247439
O O5 0.585405 0.500000 0.000000
O O6 0.574656 0.000000 0.000000
#
# Coordination Sequence:
#
# PCOD9419571 Si02
#       3
#     4   4   8
#     4  12  30  50  76 114 160 220 288 342 412 492
#     4  12  27  46  76 108 161 218 268 346 408 496
#     4  10  24  46  77 117 156 204 266 335 413 494
#
# _framework density 26.785988
#
# number of rings (size 3 to 8) (size 9 to 14) (size 15 to 20)
#    0.000    1.000    0.000    3.750   17.500    0.000 
#    0.000    7.500    0.000    0.000    0.000    0.000 
#    0.000    0.000    0.000    0.000    0.000    0.000 
#
# Total GULP energy -89284.111978 kJ/mol
# GULP energy per Si atom -5580.256999 kJ/mol
# Density = 2.672502 g / cm^3
# Si number density = 26.785988 Si / 1000 Ang^3
#
#
#
# Elastic Constant Matrix: (Units=GPa)
#
#
# Indices 1 2 3 4 5 6 
#
# 1 119.4557 45.7118 69.4417 0.0000 0.0000 0.0000
# 2 45.7118 207.2631 96.1509 0.0000 0.0000 0.0000
# 3 69.4417 96.1509 186.2992 0.0000 0.0000 0.0000
# 4 0.0000 0.0000 0.0000 43.0670 0.0000 0.0000
# 5 0.0000 0.0000 0.0000 0.0000 -126.3464 0.0000
# 6 0.0000 0.0000 0.0000 0.0000 0.0000 -48.3247
#
#
#
# Elastic Compliance Matrix: (Units=1/GPa)
#
#
# Indices 1 2 3 4 5 6 
#
# 1 0.010758 -0.000674 -0.003662 0.000000 0.000000 0.000000
# 2 -0.000674 0.006386 -0.003045 0.000000 0.000000 0.000000
# 3 -0.003662 -0.003045 0.008304 0.000000 0.000000 0.000000
# 4 0.000000 0.000000 0.000000 0.023220 0.000000 0.000000
# 5 0.000000 0.000000 0.000000 0.000000 -0.007915 0.000000
# 6 0.000000 0.000000 0.000000 0.000000 0.000000 -0.020693
#
#
# Mechanical properties :
#
#
# Convention : Reuss Voigt Hill
#
# Bulk Modulus (GPa) = 93.57394 103.95852 98.76623
# Shear Modulus (GPa) = 130.26544 -6.20659 62.02942
#
# Velocity S-wave (km/s) = 6.98123 -1.52386 4.81744
# Velocity P-wave (km/s) = 9.99965 5.98321 8.23990
#
# Compressibility (1/GPa) = 0.01068674
#
# Stress axis : x y z
#
# Youngs Moduli (GPa) = 92.95354 156.59703 120.42132
#
# Poissons Ratio (x) = 0.10550 0.44102
# Poissons Ratio (y) = 0.06263 0.36664
# Poissons Ratio (z) = 0.34042 0.47678
#
# Static dielectric constant tensor:
#      x y z
#    x 2.045780 0.000000 0.000000 
#    y 0.000000 2.034560 0.000000 
#    z 0.000000 0.000000 2.158560 
# 
# From -- ./inp_files/3137.got.cif
#   From: 2010.05.17/outbox.cif.g08.bks.cpg/sg53_2_cif.got.tgz:3137.got - 2010.06.03 12:45:16.
