data_PCOD9419385
_publ_section_title
;
Structure prediction by ZEFSAII (Michael W. Deem and Ramdas Pophale) SiO2 
 PCOD9419385
Probable space group: P M N A
;
_chemical_formula_sum "Si O2"
_cell_formula_units_Z 32
_cell_length_a 9.609272
_cell_length_b 13.040134
_cell_length_c 13.432359
_cell_angle_alpha 90.000000
_cell_angle_beta 90.000000
_cell_angle_gamma 90.000000
_cell_volume 1683.157790
_symmetry_space_group_name_H-M "P M N A"
_symmetry_group_IT_number 53
_symmetry_cell_setting 'orthorhombic'
loop_
_space_group_symop_operation_xyz
x,y,z
1/2-x,-y,1/2+z
x,-y,-z
1/2-x,y,1/2-z
-x,-y,-z
1/2+x,y,1/2-z
-x,y,z
1/2+x,-y,1/2+z
loop_
_atom_site_type_symbol
_atom_site_label
_atom_site_fract_x
_atom_site_fract_y
_atom_site_fract_z
Si Si1 0.750000 0.840876 0.250000
Si Si2 0.500000 0.169571 0.066161
Si Si3 0.775409 0.327943 0.362618
Si Si4 0.000000 0.498146 0.622767
Si Si5 0.500000 0.619694 0.514370
Si Si6 0.000000 0.688303 0.211827
Si Si7 0.500000 0.049713 0.858014
O O1 0.634866 0.760803 0.288188
O O2 0.853424 0.914260 0.311360
O O3 0.630729 0.244188 0.081339
O O4 0.500000 0.073109 0.139924
O O5 0.500000 0.111673 0.961655
O O6 0.750000 0.292059 0.250000
O O7 0.635263 0.345641 0.423943
O O8 0.864190 0.433444 0.352537
O O9 0.000000 0.500000 0.500000
O O10 0.000000 0.394847 0.694173
O O11 0.500000 0.500000 0.500000
O O12 0.500000 0.647889 0.399238
#
# Coordination Sequence:
#
# PCOD9419385 Si02
#       7
#     4   4   8   4   4   4   4
#     4  10  24  40  68  90 132 154 222 262 328 388
#     4  10  23  42  71  85 133 167 218 260 338 391
#     4  11  24  42  61  96 130 173 215 266 319 396
#     4  11  26  39  64  90 132 179 218 254 325 391
#     4  12  24  38  63  94 134 170 220 267 316 373
#     4  11  25  40  64  93 127 173 209 274 317 385
#     4  10  22  45  65 100 117 169 211 278 327 392
#
# _framework density 19.011883999999998
#
# number of rings (size 3 to 8) (size 9 to 14) (size 15 to 20)
#    0.000    1.250    0.000    5.250   17.500    0.000 
#    0.000    0.000    0.000    6.000    0.000    0.000 
#    0.000    0.000    0.000    0.000    0.000    0.000 
#
# Total GULP energy -178149.499534 kJ/mol
# GULP energy per Si atom -5567.171860 kJ/mol
# Density = 1.896861 g / cm^3
# Si number density = 19.011884 Si / 1000 Ang^3
#
#
#
# Elastic Constant Matrix: (Units=GPa)
#
#
# Indices 1 2 3 4 5 6 
#
# 1 177.9496 76.5505 54.8359 0.0000 0.0000 0.0000
# 2 76.5505 120.4280 33.6605 0.0000 0.0000 0.0000
# 3 54.8359 33.6605 87.8298 0.0000 0.0000 0.0000
# 4 0.0000 0.0000 0.0000 25.7570 0.0000 0.0000
# 5 0.0000 0.0000 0.0000 0.0000 58.4474 0.0000
# 6 0.0000 0.0000 0.0000 0.0000 0.0000 -18.5172
#
#
#
# Elastic Compliance Matrix: (Units=1/GPa)
#
#
# Indices 1 2 3 4 5 6 
#
# 1 0.008693 -0.004490 -0.003707 0.000000 0.000000 0.000000
# 2 -0.004490 0.011619 -0.001650 0.000000 0.000000 0.000000
# 3 -0.003707 -0.001650 0.014332 0.000000 0.000000 0.000000
# 4 0.000000 0.000000 0.000000 0.038824 0.000000 0.000000
# 5 0.000000 0.000000 0.000000 0.000000 0.017109 0.000000
# 6 0.000000 0.000000 0.000000 0.000000 0.000000 -0.054004
#
#
# Mechanical properties :
#
#
# Convention : Reuss Voigt Hill
#
# Bulk Modulus (GPa) = 66.88261 79.58902 73.23582
# Shear Modulus (GPa) = 81.63146 27.88148 54.75647
#
# Velocity S-wave (km/s) = 6.55975 3.83368 5.37250
# Velocity P-wave (km/s) = 9.62442 7.84537 8.78007
#
# Compressibility (1/GPa) = 0.01495157
#
# Stress axis : x y z
#
# Youngs Moduli (GPa) = 115.03113 86.06745 69.77266
#
# Poissons Ratio (x) = 0.38643 0.25864
# Poissons Ratio (y) = 0.51647 0.11510
# Poissons Ratio (z) = 0.42641 0.14198
#
# Static dielectric constant tensor:
#      x y z
#    x 1.655250 0.000000 0.000000 
#    y 0.000000 1.814310 0.000000 
#    z 0.000000 0.000000 1.680530 
# 
# From -- ./inp_files/13765.got.cif
#   From: 2010.05.17/outbox.cif.g08.bks.cpg/sg53_7_cif.got.tgz:13765.got - 2010.06.03 12:45:16.
