data_PCOD9419150
_publ_section_title
;
Structure prediction by ZEFSAII (Michael W. Deem and Ramdas Pophale) SiO2 
 PCOD9419150
Probable space group: P M N A
;
_chemical_formula_sum "Si O2"
_cell_formula_units_Z 40
_cell_length_a 8.775797
_cell_length_b 26.272739
_cell_length_c 9.115419
_cell_angle_alpha 90.000000
_cell_angle_beta 90.000000
_cell_angle_gamma 90.000000
_cell_volume 2101.689509
_symmetry_space_group_name_H-M "P M N A"
_symmetry_group_IT_number 53
_symmetry_cell_setting 'orthorhombic'
loop_
_space_group_symop_operation_xyz
x,y,z
1/2-x,-y,1/2+z
x,-y,-z
1/2-x,y,1/2-z
-x,-y,-z
1/2+x,y,1/2-z
-x,y,z
1/2+x,-y,1/2+z
loop_
_atom_site_type_symbol
_atom_site_label
_atom_site_fract_x
_atom_site_fract_y
_atom_site_fract_z
Si Si1 0.317370 0.051734 0.412984
Si Si2 0.183708 0.550494 0.912853
Si Si3 0.683247 0.347025 0.586742
Si Si4 0.317534 0.147410 0.912925
Si Si5 0.817331 0.251151 0.412948
O O1 0.250000 0.049901 0.250000
O O2 0.500000 0.056054 0.405298
O O3 0.250591 0.099758 0.499667
O O4 0.279164 0.000000 0.500000
O O5 0.250000 0.551493 0.750000
O O6 0.000000 0.549375 0.903176
O O7 0.233697 0.500000 0.000000
O O8 0.226724 0.601107 0.002342
O O9 0.750000 0.347328 0.750000
O O10 0.500000 0.344155 0.593082
O O11 0.747523 0.299007 0.498230
O O12 0.250000 0.149211 0.750000
O O13 0.500000 0.142457 0.905128
O O14 0.281173 0.199428 0.999212
O O15 0.750000 0.248564 0.250000
O O16 0.000000 0.256352 0.405715
#
# Coordination Sequence:
#
# PCOD9419150 Si02
#       5
#     8   8   8   8   8
#     4  11  24  41  63  91 123 159 199 245 296 351
#     4  10  22  39  59  86 118 153 195 242 293 350
#     4  11  23  39  61  88 119 156 198 244 296 353
#     4  11  24  41  63  90 121 158 199 245 296 351
#     4  11  24  41  62  89 121 157 198 245 296 351
#
# _framework density 19.032308
#
# number of rings (size 3 to 8) (size 9 to 14) (size 15 to 20)
#    0.000    1.200    0.000    5.400    0.000   13.200 
#    0.000    0.000    0.000    0.000    0.000    0.000 
#    0.000    0.000    0.000    0.000    0.000    0.000 
#
# Total GULP energy -223849.775562 kJ/mol
# GULP energy per Si atom -5596.244389 kJ/mol
# Density = 1.898899 g / cm^3
# Si number density = 19.032308 Si / 1000 Ang^3
#
#
#
# Elastic Constant Matrix: (Units=GPa)
#
#
# Indices 1 2 3 4 5 6 
#
# 1 62.6410 92.6709 80.9031 0.0000 0.0000 0.0000
# 2 92.6709 233.1441 146.3880 0.0000 0.0000 0.0000
# 3 80.9031 146.3880 246.5367 0.0000 0.0000 0.0000
# 4 0.0000 0.0000 0.0000 40.9177 0.0000 0.0000
# 5 0.0000 0.0000 0.0000 0.0000 44.6650 0.0000
# 6 0.0000 0.0000 0.0000 0.0000 0.0000 48.6622
#
#
#
# Elastic Compliance Matrix: (Units=1/GPa)
#
#
# Indices 1 2 3 4 5 6 
#
# 1 0.044507 -0.013585 -0.006539 0.000000 0.000000 0.000000
# 2 -0.013585 0.010986 -0.002065 0.000000 0.000000 0.000000
# 3 -0.006539 -0.002065 0.007428 0.000000 0.000000 0.000000
# 4 0.000000 0.000000 0.000000 0.024439 0.000000 0.000000
# 5 0.000000 0.000000 0.000000 0.000000 0.022389 0.000000
# 6 0.000000 0.000000 0.000000 0.000000 0.000000 0.020550
#
#
# Mechanical properties :
#
#
# Convention : Reuss Voigt Hill
#
# Bulk Modulus (GPa) = 53.92914 131.36064 92.64489
# Shear Modulus (GPa) = 27.64616 41.67298 34.65957
#
# Velocity S-wave (km/s) = 3.81542 4.68438 4.27205
# Velocity P-wave (km/s) = 6.91426 9.92107 8.55087
#
# Compressibility (1/GPa) = 0.01854285
#
# Stress axis : x y z
#
# Youngs Moduli (GPa) = 22.46849 91.02832 134.62503
#
# Poissons Ratio (x) = 1.23663 0.88028
# Poissons Ratio (y) = 0.30524 0.27799
# Poissons Ratio (z) = 0.14692 0.18797
#
# Static dielectric constant tensor:
#      x y z
#    x 1.640360 0.000000 0.000000 
#    y 0.000000 1.636270 0.000000 
#    z 0.000000 0.000000 1.605460 
# 
# From -- ./inp_files/6261.got.cif
#   From: 2010.05.17/outbox.cif.g08.bks.cpg/sg53_4_cif.got.tgz:6261.got - 2010.06.03 12:45:16.
