data_PCOD9419870
_publ_section_title
;
Structure prediction by ZEFSAII (Michael W. Deem and Ramdas Pophale) SiO2 
 PCOD9419870
Probable space group: P M N A
;
_chemical_formula_sum "Si O2"
_cell_formula_units_Z 48
_cell_length_a 15.724811
_cell_length_b 15.289783
_cell_length_c 10.102782
_cell_angle_alpha 90.000000
_cell_angle_beta 90.000000
_cell_angle_gamma 90.000000
_cell_volume 2429.001247
_symmetry_space_group_name_H-M "P M N A"
_symmetry_group_IT_number 53
_symmetry_cell_setting 'orthorhombic'
loop_
_space_group_symop_operation_xyz
x,y,z
1/2-x,-y,1/2+z
x,-y,-z
1/2-x,y,1/2-z
-x,-y,-z
1/2+x,y,1/2-z
-x,y,z
1/2+x,-y,1/2+z
loop_
_atom_site_type_symbol
_atom_site_label
_atom_site_fract_x
_atom_site_fract_y
_atom_site_fract_z
Si Si1 0.096052 0.284399 0.470864
Si Si2 0.095902 0.291956 0.030724
Si Si3 0.351970 0.846211 0.744044
Si Si4 0.898838 0.970509 0.146858
Si Si5 0.751762 0.417719 0.403653
Si Si6 0.849459 0.780610 0.243329
O O1 0.109783 0.206257 0.366701
O O2 0.167062 0.356491 0.435729
O O3 0.110772 0.245627 0.616875
O O4 0.000000 0.318617 0.458796
O O5 0.114835 0.203347 0.112835
O O6 0.167238 0.360510 0.072658
O O7 0.000000 0.320575 0.060220
O O8 0.107029 0.271191 0.876499
O O9 0.250000 0.839526 0.750000
O O10 0.379652 0.946402 0.738565
O O11 0.000000 0.955223 0.137647
O O12 0.858477 0.882656 0.204802
O O13 0.868149 0.000000 0.000000
O O14 0.752683 0.500000 0.500000
O O15 0.750000 0.444179 0.250000
O O16 0.750000 0.758041 0.250000
#
# Coordination Sequence:
#
# PCOD9419870 Si02
#       6
#     8   8   8   8   8   8
#     4  12  25  45  71 100 139 180 221 280 348 404
#     4  12  23  45  75  99 134 185 230 270 332 414
#     4  12  22  43  68  98 134 186 231 275 337 396
#     4  11  23  38  62  99 136 181 240 285 324 388
#     4  12  28  49  74 105 139 174 221 283 346 414
#     4  12  24  43  67 101 140 183 231 284 334 397
#
# _framework density 19.761208
#
# number of rings (size 3 to 8) (size 9 to 14) (size 15 to 20)
#    0.000    0.167    6.667    3.500    2.333    1.333 
#    0.000    1.667    0.000    0.000    0.000    0.000 
#    0.000    0.000    0.000    0.000    0.000    0.000 
#
# Total GULP energy -268638.028998 kJ/mol
# GULP energy per Si atom -5596.625604 kJ/mol
# Density = 1.971623 g / cm^3
# Si number density = 19.761208 Si / 1000 Ang^3
#
#
#
# Elastic Constant Matrix: (Units=GPa)
#
#
# Indices 1 2 3 4 5 6 
#
# 1 136.7929 18.1003 11.7911 0.0000 0.0000 0.0000
# 2 18.1003 79.9080 27.0683 0.0000 0.0000 0.0000
# 3 11.7911 27.0683 128.6582 0.0000 0.0000 0.0000
# 4 0.0000 0.0000 0.0000 27.7540 0.0000 0.0000
# 5 0.0000 0.0000 0.0000 0.0000 3.6730 0.0000
# 6 0.0000 0.0000 0.0000 0.0000 0.0000 -3.1809
#
#
#
# Elastic Compliance Matrix: (Units=1/GPa)
#
#
# Indices 1 2 3 4 5 6 
#
# 1 0.007551 -0.001589 -0.000358 0.000000 0.000000 0.000000
# 2 -0.001589 0.013809 -0.002760 0.000000 0.000000 0.000000
# 3 -0.000358 -0.002760 0.008386 0.000000 0.000000 0.000000
# 4 0.000000 0.000000 0.000000 0.036031 0.000000 0.000000
# 5 0.000000 0.000000 0.000000 0.000000 0.272256 0.000000
# 6 0.000000 0.000000 0.000000 0.000000 0.000000 -0.314375
#
#
# Mechanical properties :
#
#
# Convention : Reuss Voigt Hill
#
# Bulk Modulus (GPa) = 49.18062 51.03095 50.10578
# Shear Modulus (GPa) = 125.47104 24.87584 75.17344
#
# Velocity S-wave (km/s) = 7.97693 3.55184 6.17442
# Velocity P-wave (km/s) = 10.47776 6.53457 8.73167
#
# Compressibility (1/GPa) = 0.02033321
#
# Stress axis : x y z
#
# Youngs Moduli (GPa) = 132.42483 72.41537 119.24755
#
# Poissons Ratio (x) = 0.11509 0.04265
# Poissons Ratio (y) = 0.21047 0.32908
# Poissons Ratio (z) = 0.04737 0.19984
#
# Static dielectric constant tensor:
#      x y z
#    x 1.686670 0.000000 0.000000 
#    y 0.000000 1.664580 0.000000 
#    z 0.000000 0.000000 1.698260 
# 
# From -- ./inp_files/8673.got.cif
#   From: 2010.05.17/outbox.cif.g08.bks.cpg/sg53_5_cif.got.tgz:8673.got - 2010.06.03 12:45:16.
