data_PCOD9419624
_publ_section_title
;
Structure prediction by ZEFSAII (Michael W. Deem and Ramdas Pophale) SiO2 
 PCOD9419624
Probable space group: P M N A
;
_chemical_formula_sum "Si O2"
_cell_formula_units_Z 32
_cell_length_a 14.809023
_cell_length_b 8.602178
_cell_length_c 11.470282
_cell_angle_alpha 90.000000
_cell_angle_beta 90.000000
_cell_angle_gamma 90.000000
_cell_volume 1461.197525
_symmetry_space_group_name_H-M "P M N A"
_symmetry_group_IT_number 53
_symmetry_cell_setting 'orthorhombic'
loop_
_space_group_symop_operation_xyz
x,y,z
1/2-x,-y,1/2+z
x,-y,-z
1/2-x,y,1/2-z
-x,-y,-z
1/2+x,y,1/2-z
-x,y,z
1/2+x,-y,1/2+z
loop_
_atom_site_type_symbol
_atom_site_label
_atom_site_fract_x
_atom_site_fract_y
_atom_site_fract_z
Si Si1 0.101834 0.617150 0.099212
Si Si2 0.155044 0.436866 0.312501
Si Si3 0.393680 0.272451 0.968580
Si Si4 0.764913 0.087347 0.881987
O O1 0.095179 0.502630 0.208922
O O2 0.169103 0.760311 0.126094
O O3 0.000000 0.671200 0.068571
O O4 0.137684 0.500000 0.000000
O O5 0.250000 0.406527 0.250000
O O6 0.150934 0.582722 0.400304
O O7 0.122663 0.296817 0.393595
O O8 0.500000 0.269009 0.945568
O O9 0.336442 0.133172 0.918574
O O10 0.750000 0.021043 0.750000
O O11 0.799652 0.000000 0.000000
#
# Coordination Sequence:
#
# PCOD9419624 Si02
#       4
#     8   8   8   8
#     4  11  22  40  68 100 132 168 217 281 351 417
#     4  11  19  35  66 100 131 162 210 275 337 400
#     4  11  22  39  66  98 129 171 224 278 334 402
#     4  12  27  45  65  95 134 186 233 285 344 411
#
# _framework density 21.899846
#
# number of rings (size 3 to 8) (size 9 to 14) (size 15 to 20)
#    0.000    0.750    5.000    4.500    0.000    4.000 
#    0.000    0.000    0.000    0.000    0.000    0.000 
#    0.000    0.000    0.000    0.000    0.000    0.000 
#
# Total GULP energy -178248.216042 kJ/mol
# GULP energy per Si atom -5570.256751 kJ/mol
# Density = 2.185000 g / cm^3
# Si number density = 21.899846 Si / 1000 Ang^3
#
#
#
# Elastic Constant Matrix: (Units=GPa)
#
#
# Indices 1 2 3 4 5 6 
#
# 1 133.5045 15.3677 16.2767 0.0000 0.0000 0.0000
# 2 15.3677 25.5457 42.5886 0.0000 0.0000 0.0000
# 3 16.2767 42.5886 174.0560 0.0000 0.0000 0.0000
# 4 0.0000 0.0000 0.0000 35.5115 0.0000 0.0000
# 5 0.0000 0.0000 0.0000 0.0000 13.4839 0.0000
# 6 0.0000 0.0000 0.0000 0.0000 0.0000 15.3186
#
#
#
# Elastic Compliance Matrix: (Units=1/GPa)
#
#
# Indices 1 2 3 4 5 6 
#
# 1 0.008103 -0.006099 0.000735 0.000000 0.000000 0.000000
# 2 -0.006099 0.070707 -0.016730 0.000000 0.000000 0.000000
# 3 0.000735 -0.016730 0.009770 0.000000 0.000000 0.000000
# 4 0.000000 0.000000 0.000000 0.028160 0.000000 0.000000
# 5 0.000000 0.000000 0.000000 0.000000 0.074162 0.000000
# 6 0.000000 0.000000 0.000000 0.000000 0.000000 0.065280
#
#
# Mechanical properties :
#
#
# Convention : Reuss Voigt Hill
#
# Bulk Modulus (GPa) = 22.52768 53.50803 38.01785
# Shear Modulus (GPa) = 15.86449 30.12101 22.99275
#
# Velocity S-wave (km/s) = 2.69441 3.71266 3.24374
# Velocity P-wave (km/s) = 4.47088 6.54710 5.60595
#
# Compressibility (1/GPa) = 0.04438984
#
# Stress axis : x y z
#
# Youngs Moduli (GPa) = 123.41247 14.14289 102.35167
#
# Poissons Ratio (x) = 0.08626 -0.07519
# Poissons Ratio (y) = 0.75273 1.71239
# Poissons Ratio (z) = -0.09067 0.23662
#
# Static dielectric constant tensor:
#      x y z
#    x 1.799900 0.000000 0.000000 
#    y 0.000000 1.862740 0.000000 
#    z 0.000000 0.000000 1.976050 
# 
# From -- ./inp_files/15405.got.cif
#   From: 2010.05.17/outbox.cif.g08.bks.cpg/sg53_8_cif.got.tgz:15405.got - 2010.06.03 12:45:16.
