data_PCOD9419075
_publ_section_title
;
Structure prediction by ZEFSAII (Michael W. Deem and Ramdas Pophale) SiO2 
 PCOD9419075
Probable space group: P M N A
;
_chemical_formula_sum "Si O2"
_cell_formula_units_Z 64
_cell_length_a 8.503465
_cell_length_b 25.028885
_cell_length_c 15.655425
_cell_angle_alpha 90.000000
_cell_angle_beta 90.000000
_cell_angle_gamma 90.000000
_cell_volume 3331.979290
_symmetry_space_group_name_H-M "P M N A"
_symmetry_group_IT_number 53
_symmetry_cell_setting 'orthorhombic'
loop_
_space_group_symop_operation_xyz
x,y,z
1/2-x,-y,1/2+z
x,-y,-z
1/2-x,y,1/2-z
-x,-y,-z
1/2+x,y,1/2-z
-x,y,z
1/2+x,-y,1/2+z
loop_
_atom_site_type_symbol
_atom_site_label
_atom_site_fract_x
_atom_site_fract_y
_atom_site_fract_z
Si Si1 0.690438 0.117519 0.152742
Si Si2 0.190257 0.806098 0.500000
Si Si3 0.809562 0.117519 0.652742
Si Si4 0.311957 0.613768 0.341028
Si Si5 0.690175 0.314249 0.500000
Si Si6 0.188043 0.386232 0.158972
Si Si7 0.310502 0.000000 0.847116
Si Si8 0.311913 0.500000 0.900009
O O1 0.750000 0.124886 0.250000
O O2 0.500000 0.118346 0.155919
O O3 0.739375 0.058175 0.119374
O O4 0.742501 0.161963 0.084997
O O5 0.242501 0.838037 0.415003
O O6 0.248447 0.745703 0.500000
O O7 0.000000 0.806465 0.500000
O O8 0.750000 0.124887 0.750000
O O9 0.760625 0.058175 0.619374
O O10 0.000000 0.118346 0.655919
O O11 0.250000 0.632532 0.250000
O O12 0.500000 0.612868 0.340719
O O13 0.257704 0.652449 0.417019
O O14 0.252526 0.553825 0.358210
O O15 0.500000 0.313182 0.500000
O O16 0.742296 0.347551 0.417019
O O17 0.250000 0.367468 0.250000
O O18 0.247474 0.446175 0.141791
O O19 0.000000 0.387132 0.159281
O O20 0.250000 0.000000 0.750000
O O21 0.500000 0.000000 0.849413
O O22 0.500000 0.500000 0.893853
O O23 0.266353 0.500000 0.000000
#
# Coordination Sequence:
#
# PCOD9419075 Si02
#       8
#     8   8   8   8   8   8   8   8
#     4   9  18  33  53  79 108 142 179 223 275 330
#     4  10  22  37  55  79 108 142 186 232 277 328
#     4   9  18  33  53  79 108 142 179 223 275 330
#     4  11  23  41  63  88 117 151 190 232 280 334
#     4  10  24  43  60  79 110 150 191 234 281 328
#     4  11  23  41  63  88 117 151 190 232 280 334
#     4   8  14  27  49  75 106 138 174 217 269 329
#     4  11  22  37  62  94 124 154 186 225 277 333
#
# _framework density 19.207801
#
# number of rings (size 3 to 8) (size 9 to 14) (size 15 to 20)
#    0.000    2.125    1.250    1.500    0.000    5.000 
#    0.000    7.500    0.000    0.000    0.000    9.625 
#    0.000    0.000    0.000    0.000    0.000    0.000 
#
# Total GULP energy -357185.059445 kJ/mol
# GULP energy per Si atom -5581.016554 kJ/mol
# Density = 1.916408 g / cm^3
# Si number density = 19.207801 Si / 1000 Ang^3
#
#
#
# Elastic Constant Matrix: (Units=GPa)
#
#
# Indices 1 2 3 4 5 6 
#
# 1 14.6113 21.4236 27.3035 0.0000 0.0000 0.0000
# 2 21.4236 186.5175 97.4095 0.0000 0.0000 0.0000
# 3 27.3035 97.4095 159.1721 0.0000 0.0000 0.0000
# 4 0.0000 0.0000 0.0000 -9.6244 0.0000 0.0000
# 5 0.0000 0.0000 0.0000 0.0000 25.0473 0.0000
# 6 0.0000 0.0000 0.0000 0.0000 0.0000 29.8085
#
#
#
# Elastic Compliance Matrix: (Units=1/GPa)
#
#
# Indices 1 2 3 4 5 6 
#
# 1 0.102536 -0.003809 -0.015257 0.000000 0.000000 0.000000
# 2 -0.003809 0.008021 -0.004256 0.000000 0.000000 0.000000
# 3 -0.015257 -0.004256 0.011504 0.000000 0.000000 0.000000
# 4 0.000000 0.000000 0.000000 -0.103902 0.000000 0.000000
# 5 0.000000 0.000000 0.000000 0.000000 0.039924 0.000000
# 6 0.000000 0.000000 0.000000 0.000000 0.000000 0.033547
#
#
# Mechanical properties :
#
#
# Convention : Reuss Voigt Hill
#
# Bulk Modulus (GPa) = 13.25953 72.50824 42.88388
# Shear Modulus (GPa) = 30.59704 23.32390 26.96047
#
# Velocity S-wave (km/s) = 3.99551 3.48845 3.75056
# Velocity P-wave (km/s) = 5.31071 7.35235 6.41329
#
# Compressibility (1/GPa) = 0.07541746
#
# Stress axis : x y z
#
# Youngs Moduli (GPa) = 9.75265 124.66642 86.92674
#
# Poissons Ratio (x) = 0.47488 1.32627
# Poissons Ratio (y) = 0.03715 0.36992
# Poissons Ratio (z) = 0.14880 0.53052
#
# Static dielectric constant tensor:
#      x y z
#    x 1.661280 0.000000 0.000000 
#    y 0.000000 1.660440 0.000000 
#    z 0.000000 0.000000 1.664690 
# 
# From -- ./inp_files/20833.got.cif
#   From: 2010.05.17/outbox.cif.g08.bks.cpg/sg53_11_cif.got.tgz:20833.got - 2010.06.03 12:45:16.
