data_PCOD9419276
_publ_section_title
;
Structure prediction by ZEFSAII (Michael W. Deem and Ramdas Pophale) SiO2 
 PCOD9419276
Probable space group: P M N A
;
_chemical_formula_sum "Si O2"
_cell_formula_units_Z 24
_cell_length_a 27.512595
_cell_length_b 8.297114
_cell_length_c 5.028532
_cell_angle_alpha 90.000000
_cell_angle_beta 90.000000
_cell_angle_gamma 90.000000
_cell_volume 1147.888832
_symmetry_space_group_name_H-M "P M N A"
_symmetry_group_IT_number 53
_symmetry_cell_setting 'orthorhombic'
loop_
_space_group_symop_operation_xyz
x,y,z
1/2-x,-y,1/2+z
x,-y,-z
1/2-x,y,1/2-z
-x,-y,-z
1/2+x,y,1/2-z
-x,y,z
1/2+x,-y,1/2+z
loop_
_atom_site_type_symbol
_atom_site_label
_atom_site_fract_x
_atom_site_fract_y
_atom_site_fract_z
Si Si1 0.944998 0.386701 0.745839
Si Si2 0.129372 0.896539 0.266389
Si Si3 0.785488 0.681648 0.497198
O O1 0.930181 0.500000 0.500000
O O2 0.907210 0.246106 0.804581
O O3 0.000000 0.326015 0.691124
O O4 0.946781 0.500000 0.000000
O O5 0.174925 0.815296 0.422294
O O6 0.104823 0.000000 0.500000
O O7 0.141373 0.000000 0.000000
O O8 0.807540 0.500000 0.500000
O O9 0.750000 0.677385 0.250000
O O10 0.750000 0.710977 0.750000
#
# Coordination Sequence:
#
# PCOD9419276 Si02
#       3
#     8   8   8
#     4  10  22  42  67  93 126 171 217 258 304 371
#     4  12  25  39  62  96 131 165 203 260 326 377
#     4  10  22  41  64  87 116 161 213 258 303 367
#
# _framework density 20.907947
#
# number of rings (size 3 to 8) (size 9 to 14) (size 15 to 20)
#    0.000    1.333    0.000    5.000    0.000    8.000 
#    0.000    0.000    0.000    0.000    0.000    0.000 
#    0.000    0.000    0.000    0.000    0.000    0.000 
#
# Total GULP energy -133974.981388 kJ/mol
# GULP energy per Si atom -5582.290891 kJ/mol
# Density = 2.086036 g / cm^3
# Si number density = 20.907947 Si / 1000 Ang^3
#
#
#
# Elastic Constant Matrix: (Units=GPa)
#
#
# Indices 1 2 3 4 5 6 
#
# 1 92.0997 61.8005 33.3235 0.0000 0.0000 0.0000
# 2 61.8005 114.3494 50.1346 0.0000 0.0000 0.0000
# 3 33.3235 50.1346 164.1235 0.0000 0.0000 0.0000
# 4 0.0000 0.0000 0.0000 43.3778 0.0000 0.0000
# 5 0.0000 0.0000 0.0000 0.0000 10.5391 0.0000
# 6 0.0000 0.0000 0.0000 0.0000 0.0000 -106.3297
#
#
#
# Elastic Compliance Matrix: (Units=1/GPa)
#
#
# Indices 1 2 3 4 5 6 
#
# 1 0.017115 -0.008921 -0.000750 0.000000 0.000000 0.000000
# 2 -0.008921 0.014748 -0.002694 0.000000 0.000000 0.000000
# 3 -0.000750 -0.002694 0.007068 0.000000 0.000000 0.000000
# 4 0.000000 0.000000 0.000000 0.023053 0.000000 0.000000
# 5 0.000000 0.000000 0.000000 0.000000 0.094885 0.000000
# 6 0.000000 0.000000 0.000000 0.000000 0.000000 -0.009405
#
#
# Mechanical properties :
#
#
# Convention : Reuss Voigt Hill
#
# Bulk Modulus (GPa) = 70.41498 73.45444 71.93471
# Shear Modulus (GPa) = 28.26009 4.53838 16.39923
#
# Velocity S-wave (km/s) = 3.68046 1.47491 2.80367
# Velocity P-wave (km/s) = 7.19811 6.17325 6.70529
#
# Compressibility (1/GPa) = 0.01420152
#
# Stress axis : x y z
#
# Youngs Moduli (GPa) = 58.42658 67.80749 141.48196
#
# Poissons Ratio (x) = 0.60493 0.10610
# Poissons Ratio (y) = 0.52124 0.38109
# Poissons Ratio (z) = 0.04382 0.18264
#
# Static dielectric constant tensor:
#      x y z
#    x 1.723730 0.000000 0.000000 
#    y 0.000000 1.915190 0.000000 
#    z 0.000000 0.000000 1.721630 
# 
# From -- ./inp_files/3239.got.cif
#   From: 2010.05.17/outbox.cif.g08.bks.cpg/sg53_2_cif.got.tgz:3239.got - 2010.06.03 12:45:16.
