data_PCOD9419620
_publ_section_title
;
Structure prediction by ZEFSAII (Michael W. Deem and Ramdas Pophale) SiO2 
 PCOD9419620
Probable space group: P M N A
;
_chemical_formula_sum "Si O2"
_cell_formula_units_Z 48
_cell_length_a 19.656446
_cell_length_b 12.353464
_cell_length_c 11.574224
_cell_angle_alpha 90.000000
_cell_angle_beta 90.000000
_cell_angle_gamma 90.000000
_cell_volume 2810.513235
_symmetry_space_group_name_H-M "P M N A"
_symmetry_group_IT_number 53
_symmetry_cell_setting 'orthorhombic'
loop_
_space_group_symop_operation_xyz
x,y,z
1/2-x,-y,1/2+z
x,-y,-z
1/2-x,y,1/2-z
-x,-y,-z
1/2+x,y,1/2-z
-x,y,z
1/2+x,-y,1/2+z
loop_
_atom_site_type_symbol
_atom_site_label
_atom_site_fract_x
_atom_site_fract_y
_atom_site_fract_z
Si Si1 0.078195 0.631026 0.858179
Si Si2 0.075109 0.975103 0.136979
Si Si3 0.742488 0.881645 0.941610
Si Si4 0.143584 0.163603 0.246940
Si Si5 0.188843 0.795950 0.161761
Si Si6 0.578880 0.623597 0.365019
O O1 0.125026 0.714637 0.789715
O O2 0.090942 0.503402 0.841506
O O3 0.000000 0.652494 0.824999
O O4 0.082557 0.646895 0.996824
O O5 0.135588 0.894501 0.167717
O O6 0.000000 0.926711 0.153785
O O7 0.082522 0.083104 0.213329
O O8 0.081280 0.000000 0.000000
O O9 0.798859 0.879818 0.841346
O O10 0.673420 0.847918 0.875653
O O11 0.773521 0.801588 0.037759
O O12 0.736016 0.000000 0.000000
O O13 0.250000 0.807473 0.250000
O O14 0.140491 0.693437 0.184715
O O15 0.500000 0.647555 0.330676
#
# Coordination Sequence:
#
# PCOD9419620 Si02
#       6
#     8   8   8   8   8   8
#     4   9  17  33  57  82 109 138 177 236 287 318
#     4  11  20  31  54  82 105 133 180 233 277 328
#     4  11  21  34  50  78 112 152 181 217 278 335
#     4  11  19  33  56  78 110 142 177 228 278 334
#     4  12  21  35  52  76 113 149 180 221 274 333
#     4   9  18  34  55  81 111 139 178 233 283 324
#
# _framework density 17.07873
#
# number of rings (size 3 to 8) (size 9 to 14) (size 15 to 20)
#    0.000    1.500    5.000    3.000    0.000    2.667 
#    3.000    0.000    0.000   11.000    0.000    2.333 
#    0.000    0.000    0.000    0.000    0.000    0.000 
#
# Total GULP energy -267473.442063 kJ/mol
# GULP energy per Si atom -5572.363376 kJ/mol
# Density = 1.703986 g / cm^3
# Si number density = 17.078730 Si / 1000 Ang^3
#
#
#
# Elastic Constant Matrix: (Units=GPa)
#
#
# Indices 1 2 3 4 5 6 
#
# 1 127.6731 61.7248 48.8560 0.0000 0.0000 0.0000
# 2 61.7248 84.1323 29.5961 0.0000 0.0000 0.0000
# 3 48.8560 29.5961 53.5211 0.0000 0.0000 0.0000
# 4 0.0000 0.0000 0.0000 13.7177 0.0000 0.0000
# 5 0.0000 0.0000 0.0000 0.0000 16.0696 0.0000
# 6 0.0000 0.0000 0.0000 0.0000 0.0000 176.1724
#
#
#
# Elastic Compliance Matrix: (Units=1/GPa)
#
#
# Indices 1 2 3 4 5 6 
#
# 1 0.015314 -0.007844 -0.009642 0.000000 0.000000 0.000000
# 2 -0.007844 0.018774 -0.003222 0.000000 0.000000 0.000000
# 3 -0.009642 -0.003222 0.029267 0.000000 0.000000 0.000000
# 4 0.000000 0.000000 0.000000 0.072899 0.000000 0.000000
# 5 0.000000 0.000000 0.000000 0.000000 0.062229 0.000000
# 6 0.000000 0.000000 0.000000 0.000000 0.000000 0.005676
#
#
# Mechanical properties :
#
#
# Convention : Reuss Voigt Hill
#
# Bulk Modulus (GPa) = 45.57704 60.63114 53.10409
# Shear Modulus (GPa) = 19.77160 49.53524 34.65342
#
# Velocity S-wave (km/s) = 3.40615 5.39138 4.50937
# Velocity P-wave (km/s) = 6.49719 8.62172 7.63373
#
# Compressibility (1/GPa) = 0.02194087
#
# Stress axis : x y z
#
# Youngs Moduli (GPa) = 65.29873 53.26533 34.16786
#
# Poissons Ratio (x) = 0.41779 0.32945
# Poissons Ratio (y) = 0.51218 0.11008
# Poissons Ratio (z) = 0.62961 0.17160
#
# Static dielectric constant tensor:
#      x y z
#    x 1.610970 0.000000 0.000000 
#    y 0.000000 1.621830 0.000000 
#    z 0.000000 0.000000 1.588180 
# 
# From -- ./inp_files/17770.got.cif
#   From: 2010.05.17/outbox.cif.g08.bks.cpg/sg53_9_cif.got.tgz:17770.got - 2010.06.03 12:45:16.
