data_PCOD9419887
_publ_section_title
;
Structure prediction by ZEFSAII (Michael W. Deem and Ramdas Pophale) SiO2 
 PCOD9419887
Probable space group: P M N A
;
_chemical_formula_sum "Si O2"
_cell_formula_units_Z 48
_cell_length_a 9.021680
_cell_length_b 10.850398
_cell_length_c 23.716220
_cell_angle_alpha 90.000000
_cell_angle_beta 90.000000
_cell_angle_gamma 90.000000
_cell_volume 2321.552758
_symmetry_space_group_name_H-M "P M N A"
_symmetry_group_IT_number 53
_symmetry_cell_setting 'orthorhombic'
loop_
_space_group_symop_operation_xyz
x,y,z
1/2-x,-y,1/2+z
x,-y,-z
1/2-x,y,1/2-z
-x,-y,-z
1/2+x,y,1/2-z
-x,y,z
1/2+x,-y,1/2+z
loop_
_atom_site_type_symbol
_atom_site_label
_atom_site_fract_x
_atom_site_fract_y
_atom_site_fract_z
Si Si1 0.674216 0.807597 0.914171
Si Si2 0.324141 0.189470 0.691221
Si Si3 0.172411 0.686947 0.014546
Si Si4 0.821864 0.689672 0.811589
Si Si5 0.680054 0.565467 0.372855
Si Si6 0.330596 0.050154 0.578828
O O1 0.500000 0.797109 0.906611
O O2 0.759082 0.789377 0.855235
O O3 0.720205 0.941992 0.937284
O O4 0.733782 0.706735 0.958576
O O5 0.250000 0.160709 0.750000
O O6 0.500000 0.201875 0.699410
O O7 0.268834 0.318983 0.665024
O O8 0.301599 0.087567 0.643427
O O9 0.225224 0.590437 0.062211
O O10 0.176617 0.820259 0.045998
O O11 0.000000 0.661369 0.999811
O O12 0.750000 0.698304 0.750000
O O13 0.779709 0.559845 0.841598
O O14 0.000000 0.696701 0.807729
O O15 0.500000 0.570966 0.375027
O O16 0.500000 0.003806 0.572289
#
# Coordination Sequence:
#
# PCOD9419887 Si02
#       6
#     8   8   8   8   8   8
#     4  12  25  38  54  81 116 151 188 230 276 326
#     4   9  17  31  53  82 111 139 178 227 278 331
#     4   9  18  37  63  87 111 143 184 228 280 338
#     4  11  23  41  62  83 111 148 189 228 272 328
#     4   8  17  35  60  86 110 141 181 225 275 334
#     4   9  19  36  57  80 110 149 189 230 279 335
#
# _framework density 20.675818
#
# number of rings (size 3 to 8) (size 9 to 14) (size 15 to 20)
#    0.000    2.333    0.000    5.000    0.000    4.667 
#    0.000   10.000    0.000    0.000    0.000    0.000 
#    0.000    0.000    0.000    0.000    0.000    0.000 
#
# Total GULP energy -268124.393111 kJ/mol
# GULP energy per Si atom -5585.924856 kJ/mol
# Density = 2.062876 g / cm^3
# Si number density = 20.675818 Si / 1000 Ang^3
#
#
#
# Elastic Constant Matrix: (Units=GPa)
#
#
# Indices 1 2 3 4 5 6 
#
# 1 56.0653 31.7252 40.2978 0.0000 0.0000 0.0000
# 2 31.7252 65.0138 22.3516 0.0000 0.0000 0.0000
# 3 40.2978 22.3516 123.0717 0.0000 0.0000 0.0000
# 4 0.0000 0.0000 0.0000 6.5775 0.0000 0.0000
# 5 0.0000 0.0000 0.0000 0.0000 31.2628 0.0000
# 6 0.0000 0.0000 0.0000 0.0000 0.0000 13.9094
#
#
#
# Elastic Compliance Matrix: (Units=1/GPa)
#
#
# Indices 1 2 3 4 5 6 
#
# 1 0.030213 -0.012098 -0.007696 0.000000 0.000000 0.000000
# 2 -0.012098 0.021250 0.000102 0.000000 0.000000 0.000000
# 3 -0.007696 0.000102 0.010627 0.000000 0.000000 0.000000
# 4 0.000000 0.000000 0.000000 0.152034 0.000000 0.000000
# 5 0.000000 0.000000 0.000000 0.000000 0.031987 0.000000
# 6 0.000000 0.000000 0.000000 0.000000 0.000000 0.071894
#
#
# Mechanical properties :
#
#
# Convention : Reuss Voigt Hill
#
# Bulk Modulus (GPa) = 44.03971 48.10002 46.06987
# Shear Modulus (GPa) = 13.70027 20.33501 17.01764
#
# Velocity S-wave (km/s) = 2.57694 3.13951 2.87203
# Velocity P-wave (km/s) = 5.49550 6.03792 5.77308
#
# Compressibility (1/GPa) = 0.02270678
#
# Stress axis : x y z
#
# Youngs Moduli (GPa) = 33.09796 47.05960 94.10274
#
# Poissons Ratio (x) = 0.56931 0.72419
# Poissons Ratio (y) = 0.40041 -0.00959
# Poissons Ratio (z) = 0.25471 -0.00480
#
# Static dielectric constant tensor:
#      x y z
#    x 1.684570 0.000000 0.000000 
#    y 0.000000 1.781290 0.000000 
#    z 0.000000 0.000000 1.587390 
# 
# From -- ./inp_files/33915.got.cif
#   From: 2010.05.17/outbox.cif.g08.bks.cpg/sg53_17_cif.got.tgz:33915.got - 2010.06.03 12:45:16.
