data_PCOD9419715
_publ_section_title
;
Structure prediction by ZEFSAII (Michael W. Deem and Ramdas Pophale) SiO2 
 PCOD9419715
Probable space group: P M N A
;
_chemical_formula_sum "Si O2"
_cell_formula_units_Z 58
_cell_length_a 16.773132
_cell_length_b 15.300074
_cell_length_c 11.744353
_cell_angle_alpha 90.000000
_cell_angle_beta 90.000000
_cell_angle_gamma 90.000000
_cell_volume 3013.955199
_symmetry_space_group_name_H-M "P M N A"
_symmetry_group_IT_number 53
_symmetry_cell_setting 'orthorhombic'
loop_
_space_group_symop_operation_xyz
x,y,z
1/2-x,-y,1/2+z
x,-y,-z
1/2-x,y,1/2-z
-x,-y,-z
1/2+x,y,1/2-z
-x,y,z
1/2+x,-y,1/2+z
loop_
_atom_site_type_symbol
_atom_site_label
_atom_site_fract_x
_atom_site_fract_y
_atom_site_fract_z
Si Si1 0.402840 0.080349 0.151071
Si Si2 0.370480 0.375078 0.088592
Si Si3 0.313165 0.386018 0.410683
Si Si4 0.669715 0.566713 0.325520
Si Si5 0.500000 0.500000 0.000000
Si Si6 0.903189 0.887393 0.390115
Si Si7 0.905557 0.696480 0.343995
Si Si8 0.907938 0.756500 0.786508
O O1 0.500000 0.082294 0.152112
O O2 0.377739 0.148209 0.247798
O O3 0.377032 0.979641 0.163181
O O4 0.379433 0.111515 0.023688
O O5 0.367537 0.338735 0.959857
O O6 0.279740 0.393771 0.121430
O O7 0.429694 0.456506 0.080793
O O8 0.404789 0.301391 0.171433
O O9 0.317782 0.400144 0.545758
O O10 0.356446 0.466219 0.345253
O O11 0.352014 0.295251 0.373392
O O12 0.750000 0.568966 0.250000
O O13 0.612247 0.632500 0.259510
O O14 0.879586 0.797182 0.329965
O O15 0.000000 0.889056 0.389332
O O16 0.000000 0.693300 0.367729
O O17 0.000000 0.761217 0.825627
#
# Coordination Sequence:
#
# PCOD9419715 Si02
#       8
#     8   8   8   8   2   8   8   8
#     4   8  14  27  53  84 123 156 189 244 308 359
#     4  12  22  37  56  89 118 154 208 255 307 351
#     4  11  26  40  59  82 119 171 209 242 310 378
#     4  11  23  42  58  76 113 160 202 242 295 363
#     4  12  24  32  60  88 126 148 200 268 300 346
#     4   8  14  28  51  88 121 148 190 251 309 357
#     4  11  21  34  61  91 117 146 201 259 306 352
#     4  11  21  36  57  89 127 160 203 251 301 372
#
# _framework density 19.243817
#
# number of rings (size 3 to 8) (size 9 to 14) (size 15 to 20)
#    0.000    1.655    4.138    2.897    1.931    1.103 
#    0.000    1.379    0.000    2.483    3.586    3.862 
#    0.000    0.000    0.000    0.000    0.000    0.966 
#
# Total GULP energy -323114.740129 kJ/mol
# GULP energy per Si atom -5570.943795 kJ/mol
# Density = 1.920002 g / cm^3
# Si number density = 19.243817 Si / 1000 Ang^3
#
#
#
# Elastic Constant Matrix: (Units=GPa)
#
#
# Indices 1 2 3 4 5 6 
#
# 1 48.2150 31.7950 12.3407 0.0000 0.0000 0.0000
# 2 31.7950 129.2955 47.7212 0.0000 0.0000 0.0000
# 3 12.3407 47.7212 81.2857 0.0000 0.0000 0.0000
# 4 0.0000 0.0000 0.0000 31.3942 0.0000 0.0000
# 5 0.0000 0.0000 0.0000 0.0000 26.5695 0.0000
# 6 0.0000 0.0000 0.0000 0.0000 0.0000 -566.0274
#
#
#
# Elastic Compliance Matrix: (Units=1/GPa)
#
#
# Indices 1 2 3 4 5 6 
#
# 1 0.024758 -0.006001 -0.000235 0.000000 0.000000 0.000000
# 2 -0.006001 0.011328 -0.005740 0.000000 0.000000 0.000000
# 3 -0.000235 -0.005740 0.015708 0.000000 0.000000 0.000000
# 4 0.000000 0.000000 0.000000 0.031853 0.000000 0.000000
# 5 0.000000 0.000000 0.000000 0.000000 0.037637 0.000000
# 6 0.000000 0.000000 0.000000 0.000000 0.000000 -0.001767
#
#
# Mechanical properties :
#
#
# Convention : Reuss Voigt Hill
#
# Bulk Modulus (GPa) = 35.91766 49.16778 42.54272
# Shear Modulus (GPa) = 32.73301 -90.48344 -28.87522
#
# Velocity S-wave (km/s) = 4.12875 -6.86451 -3.87782
# Velocity P-wave (km/s) = 6.43691 6.10110 1.45093
#
# Compressibility (1/GPa) = 0.02784146
#
# Stress axis : x y z
#
# Youngs Moduli (GPa) = 40.39059 88.27361 63.66332
#
# Poissons Ratio (x) = 0.52976 0.01499
# Poissons Ratio (y) = 0.24240 0.36540
# Poissons Ratio (z) = 0.00951 0.50665
#
# Static dielectric constant tensor:
#      x y z
#    x 1.684840 0.000000 0.000000 
#    y 0.000000 1.743080 0.000000 
#    z 0.000000 0.000000 1.672640 
# 
# From -- ./inp_files/17033.got.cif
#   From: 2010.05.17/outbox.cif.g08.bks.cpg/sg53_9_cif.got.tgz:17033.got - 2010.06.03 12:45:16.
