data_PCOD9419860
_publ_section_title
;
Structure prediction by ZEFSAII (Michael W. Deem and Ramdas Pophale) SiO2 
 PCOD9419860
Probable space group: P M N A
;
_chemical_formula_sum "Si O2"
_cell_formula_units_Z 48
_cell_length_a 31.422878
_cell_length_b 9.702016
_cell_length_c 9.548139
_cell_angle_alpha 90.000000
_cell_angle_beta 90.000000
_cell_angle_gamma 90.000000
_cell_volume 2910.895928
_symmetry_space_group_name_H-M "P M N A"
_symmetry_group_IT_number 53
_symmetry_cell_setting 'orthorhombic'
loop_
_space_group_symop_operation_xyz
x,y,z
1/2-x,-y,1/2+z
x,-y,-z
1/2-x,y,1/2-z
-x,-y,-z
1/2+x,y,1/2-z
-x,y,z
1/2+x,-y,1/2+z
loop_
_atom_site_type_symbol
_atom_site_label
_atom_site_fract_x
_atom_site_fract_y
_atom_site_fract_z
Si Si1 0.381437 0.162378 0.760756
Si Si2 0.451639 0.833187 0.012407
Si Si3 0.886639 0.834039 0.727279
Si Si4 0.687380 0.840649 0.998631
Si Si5 0.261068 0.359375 0.415525
Si Si6 0.640046 0.336091 0.485341
O O1 0.372898 0.253796 0.625102
O O2 0.386764 0.997399 0.733086
O O3 0.422906 0.202718 0.852771
O O4 0.341031 0.182573 0.863500
O O5 0.500000 0.783255 0.020027
O O6 0.425887 0.794354 0.872995
O O7 0.452422 0.000000 0.000000
O O8 0.844632 0.816493 0.631249
O O9 0.884997 0.735590 0.859293
O O10 0.728570 0.749425 0.980668
O O11 0.699822 0.000000 0.000000
O O12 0.253992 0.500000 0.500000
O O13 0.250000 0.373412 0.250000
O O14 0.309977 0.318815 0.445251
O O15 0.632508 0.500000 0.500000
#
# Coordination Sequence:
#
# PCOD9419860 Si02
#       6
#     8   8   8   8   8   8
#     4   9  19  33  56  81 105 136 170 217 266 315
#     4   8  15  32  60  87 106 129 169 217 265 319
#     4   9  17  35  55  79 107 133 172 217 264 313
#     4   9  19  35  54  75 101 136 175 218 265 311
#     4  11  24  38  52  73 105 142 184 227 259 302
#     4  11  23  35  50  75 106 144 182 214 262 307
#
# _framework density 16.489768999999999
#
# number of rings (size 3 to 8) (size 9 to 14) (size 15 to 20)
#    0.000    2.500    1.667    2.500    4.667    1.333 
#    0.000    3.333    0.000    7.000    0.000    0.000 
#    0.000    0.000    0.000    0.000    0.000    0.000 
#
# Total GULP energy -267475.489483 kJ/mol
# GULP energy per Si atom -5572.406031 kJ/mol
# Density = 1.645224 g / cm^3
# Si number density = 16.489769 Si / 1000 Ang^3
#
#
#
# Elastic Constant Matrix: (Units=GPa)
#
#
# Indices 1 2 3 4 5 6 
#
# 1 116.6794 62.6981 79.5700 0.0000 0.0000 0.0000
# 2 62.6981 56.9467 70.5898 0.0000 0.0000 0.0000
# 3 79.5700 70.5898 137.6928 0.0000 0.0000 0.0000
# 4 0.0000 0.0000 0.0000 25.4126 0.0000 0.0000
# 5 0.0000 0.0000 0.0000 0.0000 9.6899 0.0000
# 6 0.0000 0.0000 0.0000 0.0000 0.0000 94.7011
#
#
#
# Elastic Compliance Matrix: (Units=1/GPa)
#
#
# Indices 1 2 3 4 5 6 
#
# 1 0.021017 -0.022179 -0.000775 0.000000 0.000000 0.000000
# 2 -0.022179 0.071579 -0.023879 0.000000 0.000000 0.000000
# 3 -0.000775 -0.023879 0.019952 0.000000 0.000000 0.000000
# 4 0.000000 0.000000 0.000000 0.039351 0.000000 0.000000
# 5 0.000000 0.000000 0.000000 0.000000 0.103200 0.000000
# 6 0.000000 0.000000 0.000000 0.000000 0.000000 0.010560
#
#
# Mechanical properties :
#
#
# Convention : Reuss Voigt Hill
#
# Bulk Modulus (GPa) = 52.95949 81.89273 67.42611
# Shear Modulus (GPa) = 13.67544 32.52478 23.10011
#
# Velocity S-wave (km/s) = 2.88293 4.44601 3.74689
# Velocity P-wave (km/s) = 6.57784 8.72506 7.72640
#
# Compressibility (1/GPa) = 0.01888236
#
# Stress axis : x y z
#
# Youngs Moduli (GPa) = 47.58077 13.97057 50.11943
#
# Poissons Ratio (x) = 0.30985 0.03885
# Poissons Ratio (y) = 1.05528 1.19681
# Poissons Ratio (z) = 0.03688 0.33360
#
# Static dielectric constant tensor:
#      x y z
#    x 1.550410 0.000000 0.000000 
#    y 0.000000 1.558630 0.000000 
#    z 0.000000 0.000000 1.558100 
# 
# From -- ./inp_files/13036.got.cif
#   From: 2010.05.17/outbox.cif.g08.bks.cpg/sg53_7_cif.got.tgz:13036.got - 2010.06.03 12:45:16.
