data_PCOD9419812
_publ_section_title
;
Structure prediction by ZEFSAII (Michael W. Deem and Ramdas Pophale) SiO2 
 PCOD9419812
Probable space group: P M N A
;
_chemical_formula_sum "Si O2"
_cell_formula_units_Z 40
_cell_length_a 19.074842
_cell_length_b 5.126375
_cell_length_c 17.820407
_cell_angle_alpha 90.000000
_cell_angle_beta 90.000000
_cell_angle_gamma 90.000000
_cell_volume 1742.564812
_symmetry_space_group_name_H-M "P M N A"
_symmetry_group_IT_number 53
_symmetry_cell_setting 'orthorhombic'
loop_
_space_group_symop_operation_xyz
x,y,z
1/2-x,-y,1/2+z
x,-y,-z
1/2-x,y,1/2-z
-x,-y,-z
1/2+x,y,1/2-z
-x,y,z
1/2+x,-y,1/2+z
loop_
_atom_site_type_symbol
_atom_site_label
_atom_site_fract_x
_atom_site_fract_y
_atom_site_fract_z
Si Si1 0.424845 0.562007 0.587312
Si Si2 0.638092 0.248755 0.052419
Si Si3 0.581193 0.310644 0.211691
Si Si4 0.132484 0.794737 0.203096
Si Si5 0.291475 0.082108 0.412376
O O1 0.421680 0.500000 0.500000
O O2 0.500000 0.691602 0.601776
O O3 0.418767 0.301079 0.636175
O O4 0.356334 0.728893 0.604755
O O5 0.587704 0.278568 0.122773
O O6 0.715649 0.210940 0.087565
O O7 0.637845 0.500000 0.000000
O O8 0.623277 0.000000 0.000000
O O9 0.500000 0.368760 0.230297
O O10 0.629793 0.547872 0.241121
O O11 0.605542 0.043222 0.250993
O O12 0.201473 0.866678 0.153668
O O13 0.301193 0.000000 0.500000
#
# Coordination Sequence:
#
# PCOD9419812 Si02
#       5
#     8   8   8   8   8
#     4  11  22  37  63  97 136 189 240 280 330 405
#     4  11  27  50  78 104 136 185 243 305 371 431
#     4  12  27  48  73 107 144 184 240 305 370 429
#     4  12  25  43  69 101 149 187 229 291 361 419
#     4  11  24  44  68 101 146 188 238 287 343 423
#
# _framework density 22.954668999999999
#
# number of rings (size 3 to 8) (size 9 to 14) (size 15 to 20)
#    0.000    0.600    4.000    3.600    2.800    3.600 
#    3.600    0.000    0.000    0.000    0.000    0.000 
#    0.000    0.000    0.000    0.000    0.000    0.000 
#
# Total GULP energy -223645.583399 kJ/mol
# GULP energy per Si atom -5591.139585 kJ/mol
# Density = 2.290242 g / cm^3
# Si number density = 22.954669 Si / 1000 Ang^3
#
#
#
# Elastic Constant Matrix: (Units=GPa)
#
#
# Indices 1 2 3 4 5 6 
#
# 1 40.2806 22.3795 36.1659 0.0000 0.0000 0.0000
# 2 22.3795 146.5051 58.7436 0.0000 0.0000 0.0000
# 3 36.1659 58.7436 141.1382 0.0000 0.0000 0.0000
# 4 0.0000 0.0000 0.0000 44.3773 0.0000 0.0000
# 5 0.0000 0.0000 0.0000 0.0000 158.2635 0.0000
# 6 0.0000 0.0000 0.0000 0.0000 0.0000 41.8915
#
#
#
# Elastic Compliance Matrix: (Units=1/GPa)
#
#
# Indices 1 2 3 4 5 6 
#
# 1 0.032708 -0.001963 -0.007564 0.000000 0.000000 0.000000
# 2 -0.001963 0.008311 -0.002956 0.000000 0.000000 0.000000
# 3 -0.007564 -0.002956 0.010254 0.000000 0.000000 0.000000
# 4 0.000000 0.000000 0.000000 0.022534 0.000000 0.000000
# 5 0.000000 0.000000 0.000000 0.000000 0.006319 0.000000
# 6 0.000000 0.000000 0.000000 0.000000 0.000000 0.023871
#
#
# Mechanical properties :
#
#
# Convention : Reuss Voigt Hill
#
# Bulk Modulus (GPa) = 38.01437 62.50021 50.25729
# Shear Modulus (GPa) = 36.30235 62.94879 49.62557
#
# Velocity S-wave (km/s) = 3.98110 5.24239 4.65466
# Velocity P-wave (km/s) = 6.14237 7.99564 7.12948
#
# Compressibility (1/GPa) = 0.02630584
#
# Stress axis : x y z
#
# Youngs Moduli (GPa) = 30.57349 120.32427 97.52451
#
# Poissons Ratio (x) = 0.23625 0.73768
# Poissons Ratio (y) = 0.06003 0.28828
# Poissons Ratio (z) = 0.23126 0.35568
#
# Static dielectric constant tensor:
#      x y z
#    x 1.831990 0.000000 0.000000 
#    y 0.000000 1.896690 0.000000 
#    z 0.000000 0.000000 1.837080 
# 
# From -- ./inp_files/28750.got.cif
#   From: 2010.05.17/outbox.cif.g08.bks.cpg/sg53_15_cif.got.tgz:28750.got - 2010.06.03 12:45:16.
