data_PCOD9419243
_publ_section_title
;
Structure prediction by ZEFSAII (Michael W. Deem and Ramdas Pophale) SiO2 
 PCOD9419243
Probable space group: P M N A
;
_chemical_formula_sum "Si O2"
_cell_formula_units_Z 28
_cell_length_a 18.578453
_cell_length_b 5.038592
_cell_length_c 14.281251
_cell_angle_alpha 90.000000
_cell_angle_beta 90.000000
_cell_angle_gamma 90.000000
_cell_volume 1336.857119
_symmetry_space_group_name_H-M "P M N A"
_symmetry_group_IT_number 53
_symmetry_cell_setting 'orthorhombic'
loop_
_space_group_symop_operation_xyz
x,y,z
1/2-x,-y,1/2+z
x,-y,-z
1/2-x,y,1/2-z
-x,-y,-z
1/2+x,y,1/2-z
-x,y,z
1/2+x,-y,1/2+z
loop_
_atom_site_type_symbol
_atom_site_label
_atom_site_fract_x
_atom_site_fract_y
_atom_site_fract_z
Si Si1 0.083140 0.315488 0.629312
Si Si2 0.325967 0.764100 0.561909
Si Si3 0.416550 0.188865 0.254053
Si Si4 0.313406 0.000000 0.000000
O O1 0.095671 0.608590 0.668368
O O2 0.137296 0.213150 0.551333
O O3 0.000000 0.294136 0.597034
O O4 0.091850 0.108828 0.715570
O O5 0.328057 0.500000 0.500000
O O6 0.364741 0.744449 0.660512
O O7 0.360942 0.000000 0.500000
O O8 0.242990 0.859129 0.570712
O O9 0.500000 0.225258 0.282853
#
# Coordination Sequence:
#
# PCOD9419243 Si02
#       4
#     8   8   8   4
#     4  10  22  40  65  88 119 161 206 256 298 358
#     4  10  23  40  57  92 122 161 200 247 314 364
#     4  10  22  41  63  90 118 158 209 252 302 358
#     4  10  25  40  59  92 126 162 202 250 311 376
#
# _framework density 20.944645000000001
#
# number of rings (size 3 to 8) (size 9 to 14) (size 15 to 20)
#    0.857    1.143    0.000    2.143    4.000    2.286 
#    0.000    4.286    0.000    0.000    0.000    0.000 
#    0.000    0.000    0.000    0.000    0.000    0.000 
#
# Total GULP energy -156469.766479 kJ/mol
# GULP energy per Si atom -5588.205946 kJ/mol
# Density = 2.089697 g / cm^3
# Si number density = 20.944645 Si / 1000 Ang^3
#
#
#
# Elastic Constant Matrix: (Units=GPa)
#
#
# Indices 1 2 3 4 5 6 
#
# 1 107.5701 1.9807 61.6922 0.0000 0.0000 0.0000
# 2 1.9807 80.1052 -4.5103 0.0000 0.0000 0.0000
# 3 61.6922 -4.5103 67.6174 0.0000 0.0000 0.0000
# 4 0.0000 0.0000 0.0000 33.7360 0.0000 0.0000
# 5 0.0000 0.0000 0.0000 0.0000 30.2473 0.0000
# 6 0.0000 0.0000 0.0000 0.0000 0.0000 21.0642
#
#
#
# Elastic Compliance Matrix: (Units=1/GPa)
#
#
# Indices 1 2 3 4 5 6 
#
# 1 0.019678 -0.001503 -0.018054 0.000000 0.000000 0.000000
# 2 -0.001503 0.012645 0.002215 0.000000 0.000000 0.000000
# 3 -0.018054 0.002215 0.031409 0.000000 0.000000 0.000000
# 4 0.000000 0.000000 0.000000 0.029642 0.000000 0.000000
# 5 0.000000 0.000000 0.000000 0.000000 0.033061 0.000000
# 6 0.000000 0.000000 0.000000 0.000000 0.000000 0.047474
#
#
# Mechanical properties :
#
#
# Convention : Reuss Voigt Hill
#
# Bulk Modulus (GPa) = 34.42588 41.51309 37.96949
# Shear Modulus (GPa) = 22.90682 30.08484 26.49583
#
# Velocity S-wave (km/s) = 3.31068 3.79410 3.56060
# Velocity P-wave (km/s) = 5.57552 6.24956 5.92213
#
# Compressibility (1/GPa) = 0.02904791
#
# Stress axis : x y z
#
# Youngs Moduli (GPa) = 50.81824 79.07981 31.83831
#
# Poissons Ratio (x) = 0.11886 0.57481
# Poissons Ratio (y) = 0.07638 -0.07052
# Poissons Ratio (z) = 0.91747 -0.17515
#
# Static dielectric constant tensor:
#      x y z
#    x 1.734000 0.000000 0.000000 
#    y 0.000000 1.752020 0.000000 
#    z 0.000000 0.000000 1.749360 
# 
# From -- ./inp_files/23169.got.cif
#   From: 2010.05.17/outbox.cif.g08.bks.cpg/sg53_12_cif.got.tgz:23169.got - 2010.06.03 12:45:16.
