data_PCOD9419594
_publ_section_title
;
Structure prediction by ZEFSAII (Michael W. Deem and Ramdas Pophale) SiO2 
 PCOD9419594
Probable space group: P M N A
;
_chemical_formula_sum "Si O2"
_cell_formula_units_Z 24
_cell_length_a 7.485410
_cell_length_b 5.223714
_cell_length_c 25.574234
_cell_angle_alpha 90.000000
_cell_angle_beta 90.000000
_cell_angle_gamma 90.000000
_cell_volume 999.994517
_symmetry_space_group_name_H-M "P M N A"
_symmetry_group_IT_number 53
_symmetry_cell_setting 'orthorhombic'
loop_
_space_group_symop_operation_xyz
x,y,z
1/2-x,-y,1/2+z
x,-y,-z
1/2-x,y,1/2-z
-x,-y,-z
1/2+x,y,1/2-z
-x,y,z
1/2+x,-y,1/2+z
loop_
_atom_site_type_symbol
_atom_site_label
_atom_site_fract_x
_atom_site_fract_y
_atom_site_fract_z
Si Si1 0.217242 0.254031 0.968582
Si Si2 0.701366 0.926302 0.357287
Si Si3 0.500000 0.799133 0.801220
Si Si4 0.500000 0.696366 0.270295
O O1 0.272538 0.214675 0.908587
O O2 0.000000 0.271541 0.967379
O O3 0.283011 0.500000 0.000000
O O4 0.265963 0.000000 0.000000
O O5 0.500000 0.027887 0.368801
O O6 0.827999 0.149931 0.337252
O O7 0.666582 0.724826 0.310335
O O8 0.500000 0.040397 0.761731
O O9 0.500000 0.549622 0.765691
#
# Coordination Sequence:
#
# PCOD9419594 Si02
#       4
#     8   8   4   4
#     4   9  18  35  62  92 126 167 215 268 329 389
#     4   9  23  45  65 100 131 177 224 273 332 400
#     4  12  24  46  64  94 136 178 218 278 327 388
#     4  10  26  42  64  96 130 176 226 266 329 394
#
# _framework density 24.000132000000001
#
# number of rings (size 3 to 8) (size 9 to 14) (size 15 to 20)
#    1.000    1.333    0.000    1.000    0.000   10.667 
#    3.000    1.667    0.000    0.000    0.000    0.000 
#    0.000    0.000    0.000    0.000    0.000    0.000 
#
# Total GULP energy -134191.363420 kJ/mol
# GULP energy per Si atom -5591.306809 kJ/mol
# Density = 2.394551 g / cm^3
# Si number density = 24.000132 Si / 1000 Ang^3
#
#
#
# Elastic Constant Matrix: (Units=GPa)
#
#
# Indices 1 2 3 4 5 6 
#
# 1 88.7543 6.0273 1.8118 0.0000 0.0000 0.0000
# 2 6.0273 103.0488 -9.1916 0.0000 0.0000 0.0000
# 3 1.8118 -9.1916 46.3531 0.0000 0.0000 0.0000
# 4 0.0000 0.0000 0.0000 41.6719 0.0000 0.0000
# 5 0.0000 0.0000 0.0000 0.0000 -8.4212 0.0000
# 6 0.0000 0.0000 0.0000 0.0000 0.0000 -30.6453
#
#
#
# Elastic Compliance Matrix: (Units=1/GPa)
#
#
# Indices 1 2 3 4 5 6 
#
# 1 0.011328 -0.000715 -0.000584 0.000000 0.000000 0.000000
# 2 -0.000715 0.009924 0.001996 0.000000 0.000000 0.000000
# 3 -0.000584 0.001996 0.021992 0.000000 0.000000 0.000000
# 4 0.000000 0.000000 0.000000 0.023997 0.000000 0.000000
# 5 0.000000 0.000000 0.000000 0.000000 -0.118748 0.000000
# 6 0.000000 0.000000 0.000000 0.000000 0.000000 -0.032631
#
#
# Mechanical properties :
#
#
# Convention : Reuss Voigt Hill
#
# Bulk Modulus (GPa) = 22.40298 26.16125 24.28211
# Shear Modulus (GPa) = -70.76804 16.48832 -27.13986
#
# Velocity S-wave (km/s) = -5.43604 2.62393 -3.36642
# Velocity P-wave (km/s) = 5.48142 4.48376 2.22955
#
# Compressibility (1/GPa) = 0.04463692
#
# Stress axis : x y z
#
# Youngs Moduli (GPa) = 88.28049 100.76620 45.47082
#
# Poissons Ratio (x) = 0.07202 0.02658
# Poissons Ratio (y) = 0.06309 -0.09075
# Poissons Ratio (z) = 0.05160 -0.20111
#
# Static dielectric constant tensor:
#      x y z
#    x 2.009960 0.000000 0.000000 
#    y 0.000000 1.834260 0.000000 
#    z 0.000000 0.000000 1.923630 
# 
# From -- ./inp_files/33465.got.cif
#   From: 2010.05.17/outbox.cif.g08.bks.cpg/sg53_17_cif.got.tgz:33465.got - 2010.06.03 12:45:16.
