data_PCOD9419847
_publ_section_title
;
Structure prediction by ZEFSAII (Michael W. Deem and Ramdas Pophale) SiO2 
 PCOD9419847
Probable space group: P M N A
;
_chemical_formula_sum "Si O2"
_cell_formula_units_Z 40
_cell_length_a 12.998933
_cell_length_b 8.902212
_cell_length_c 18.330225
_cell_angle_alpha 90.000000
_cell_angle_beta 90.000000
_cell_angle_gamma 90.000000
_cell_volume 2121.160024
_symmetry_space_group_name_H-M "P M N A"
_symmetry_group_IT_number 53
_symmetry_cell_setting 'orthorhombic'
loop_
_space_group_symop_operation_xyz
x,y,z
1/2-x,-y,1/2+z
x,-y,-z
1/2-x,y,1/2-z
-x,-y,-z
1/2+x,y,1/2-z
-x,y,z
1/2+x,-y,1/2+z
loop_
_atom_site_type_symbol
_atom_site_label
_atom_site_fract_x
_atom_site_fract_y
_atom_site_fract_z
Si Si1 0.614662 0.140932 0.907218
Si Si2 0.000000 0.791341 0.945087
Si Si3 0.195726 0.417566 0.078423
Si Si4 0.301287 0.295056 0.670742
Si Si5 0.500000 0.122995 0.616832
Si Si6 0.114984 0.797851 0.580832
O O1 0.500000 0.181102 0.880006
O O2 0.707994 0.235627 0.878229
O O3 0.633058 0.965529 0.888540
O O4 0.613847 0.169624 0.993941
O O5 0.898358 0.696974 0.928340
O O6 0.000000 0.944282 0.897827
O O7 0.000000 0.818448 0.032687
O O8 0.171243 0.541749 0.139188
O O9 0.298197 0.323368 0.096737
O O10 0.208521 0.500000 0.000000
O O11 0.250000 0.299990 0.750000
O O12 0.399267 0.186392 0.658229
O O13 0.000000 0.747758 0.601998
#
# Coordination Sequence:
#
# PCOD9419847 Si02
#       6
#     8   4   8   8   4   8
#     4   9  18  36  60  88 116 154 203 253 293 359
#     4  11  22  41  74  97 118 152 224 282 314 356
#     4  12  21  37  61  95 127 161 203 264 319 369
#     4  12  26  40  60  89 129 167 202 253 325 389
#     4  11  23  44  69  98 118 162 219 271 314 372
#     4   9  18  34  60  90 119 151 202 251 298 353
#
# _framework density 18.857605
#
# number of rings (size 3 to 8) (size 9 to 14) (size 15 to 20)
#    0.000    1.400    4.000    3.300    1.400    4.400 
#    0.000    4.000    0.000    0.000    0.000    0.000 
#    0.000    0.000    0.000    0.000    0.000    0.000 
#
# Total GULP energy -223231.685081 kJ/mol
# GULP energy per Si atom -5580.792127 kJ/mol
# Density = 1.881468 g / cm^3
# Si number density = 18.857605 Si / 1000 Ang^3
#
#
#
# Elastic Constant Matrix: (Units=GPa)
#
#
# Indices 1 2 3 4 5 6 
#
# 1 102.2531 62.1647 8.4209 0.0000 0.0000 0.0000
# 2 62.1647 99.1075 17.9150 0.0000 0.0000 0.0000
# 3 8.4209 17.9150 45.9692 0.0000 0.0000 0.0000
# 4 0.0000 0.0000 0.0000 10.0979 0.0000 0.0000
# 5 0.0000 0.0000 0.0000 0.0000 45.8277 0.0000
# 6 0.0000 0.0000 0.0000 0.0000 0.0000 53.9631
#
#
#
# Elastic Compliance Matrix: (Units=1/GPa)
#
#
# Indices 1 2 3 4 5 6 
#
# 1 0.015854 -0.010133 0.001045 0.000000 0.000000 0.000000
# 2 -0.010133 0.017332 -0.004898 0.000000 0.000000 0.000000
# 3 0.001045 -0.004898 0.023471 0.000000 0.000000 0.000000
# 4 0.000000 0.000000 0.000000 0.099031 0.000000 0.000000
# 5 0.000000 0.000000 0.000000 0.000000 0.021821 0.000000
# 6 0.000000 0.000000 0.000000 0.000000 0.000000 0.018531
#
#
# Mechanical properties :
#
#
# Convention : Reuss Voigt Hill
#
# Bulk Modulus (GPa) = 34.86298 47.14790 41.00544
# Shear Modulus (GPa) = 21.40647 32.56634 26.98640
#
# Velocity S-wave (km/s) = 3.37287 4.16018 3.78704
# Velocity P-wave (km/s) = 5.80483 6.93776 6.39642
#
# Compressibility (1/GPa) = 0.02868372
#
# Stress axis : x y z
#
# Youngs Moduli (GPa) = 63.07497 57.69834 42.60546
#
# Poissons Ratio (x) = 0.58468 -0.04452
# Poissons Ratio (y) = 0.63916 0.20869
# Poissons Ratio (z) = -0.06590 0.28261
#
# Static dielectric constant tensor:
#      x y z
#    x 1.640560 0.000000 0.000000 
#    y 0.000000 1.667180 0.000000 
#    z 0.000000 0.000000 1.712550 
# 
# From -- ./inp_files/27408.got.cif
#   From: 2010.05.17/outbox.cif.g08.bks.cpg/sg53_14_cif.got.tgz:27408.got - 2010.06.03 12:45:16.
