data_PCOD9419934
_publ_section_title
;
Structure prediction by ZEFSAII (Michael W. Deem and Ramdas Pophale) SiO2 
 PCOD9419934
Probable space group: P M N A
;
_chemical_formula_sum "Si O2"
_cell_formula_units_Z 40
_cell_length_a 21.844675
_cell_length_b 10.061338
_cell_length_c 8.755424
_cell_angle_alpha 90.000000
_cell_angle_beta 90.000000
_cell_angle_gamma 90.000000
_cell_volume 1924.325386
_symmetry_space_group_name_H-M "P M N A"
_symmetry_group_IT_number 53
_symmetry_cell_setting 'orthorhombic'
loop_
_space_group_symop_operation_xyz
x,y,z
1/2-x,-y,1/2+z
x,-y,-z
1/2-x,y,1/2-z
-x,-y,-z
1/2+x,y,1/2-z
-x,y,z
1/2+x,-y,1/2+z
loop_
_atom_site_type_symbol
_atom_site_label
_atom_site_fract_x
_atom_site_fract_y
_atom_site_fract_z
Si Si1 0.131676 0.853209 0.430818
Si Si2 0.760256 0.642641 0.431762
Si Si3 0.569854 0.628881 0.892507
Si Si4 0.872025 0.357697 0.072023
Si Si5 0.571013 0.875348 0.393592
O O1 0.191574 0.761300 0.449803
O O2 0.079936 0.764028 0.513124
O O3 0.113389 0.867165 0.254364
O O4 0.137956 0.000000 0.500000
O O5 0.780488 0.500000 0.500000
O O6 0.750000 0.625099 0.250000
O O7 0.697072 0.675864 0.519581
O O8 0.500000 0.622227 0.834371
O O9 0.616493 0.632454 0.751642
O O10 0.578690 0.500000 0.000000
O O11 0.885087 0.500000 0.000000
O O12 0.917223 0.252420 0.997209
O O13 0.500000 0.885146 0.346861
O O14 0.586165 0.000000 0.500000
#
# Coordination Sequence:
#
# PCOD9419934 Si02
#       5
#     8   8   8   8   8
#     4  12  26  45  69 100 144 187 232 294 357 417
#     4  11  26  48  72 102 137 182 236 295 353 421
#     4  11  25  44  71 107 144 184 237 294 357 423
#     4  11  24  43  71 100 136 180 233 296 349 417
#     4  11  24  44  69  99 140 188 235 284 349 423
#
# _framework density 20.786507
#
# number of rings (size 3 to 8) (size 9 to 14) (size 15 to 20)
#    0.000    0.800    2.000    4.200    8.400    7.200 
#    3.600    0.000    0.000    0.000    0.000    0.000 
#    0.000    0.000    0.000    0.000    0.000    0.000 
#
# Total GULP energy -223830.318613 kJ/mol
# GULP energy per Si atom -5595.757965 kJ/mol
# Density = 2.073920 g / cm^3
# Si number density = 20.786507 Si / 1000 Ang^3
#
#
#
# Elastic Constant Matrix: (Units=GPa)
#
#
# Indices 1 2 3 4 5 6 
#
# 1 82.7923 40.2433 66.3356 0.0000 0.0000 0.0000
# 2 40.2433 142.2250 56.7654 0.0000 0.0000 0.0000
# 3 66.3356 56.7654 144.7051 0.0000 0.0000 0.0000
# 4 0.0000 0.0000 0.0000 24.3062 0.0000 0.0000
# 5 0.0000 0.0000 0.0000 0.0000 37.6265 0.0000
# 6 0.0000 0.0000 0.0000 0.0000 0.0000 -18.4665
#
#
#
# Elastic Compliance Matrix: (Units=1/GPa)
#
#
# Indices 1 2 3 4 5 6 
#
# 1 0.019725 -0.002338 -0.008125 0.000000 0.000000 0.000000
# 2 -0.002338 0.008614 -0.002307 0.000000 0.000000 0.000000
# 3 -0.008125 -0.002307 0.011540 0.000000 0.000000 0.000000
# 4 0.000000 0.000000 0.000000 0.041142 0.000000 0.000000
# 5 0.000000 0.000000 0.000000 0.000000 0.026577 0.000000
# 6 0.000000 0.000000 0.000000 0.000000 0.000000 -0.054152
#
#
# Mechanical properties :
#
#
# Convention : Reuss Voigt Hill
#
# Bulk Modulus (GPa) = 69.74452 77.37899 73.56175
# Shear Modulus (GPa) = 59.69023 22.45177 41.07100
#
# Velocity S-wave (km/s) = 5.36453 3.29007 4.44987
# Velocity P-wave (km/s) = 8.48508 7.19299 7.86561
#
# Compressibility (1/GPa) = 0.01433804
#
# Stress axis : x y z
#
# Youngs Moduli (GPa) = 50.69684 116.09623 86.65309
#
# Poissons Ratio (x) = 0.27148 0.70406
# Poissons Ratio (y) = 0.11855 0.19991
# Poissons Ratio (z) = 0.41191 0.26783
#
# Static dielectric constant tensor:
#      x y z
#    x 1.777480 0.000000 0.000000 
#    y 0.000000 1.697510 0.000000 
#    z 0.000000 0.000000 1.739830 
# 
# From -- ./inp_files/11531.got.cif
#   From: 2010.05.17/outbox.cif.g08.bks.cpg/sg53_6_cif.got.tgz:11531.got - 2010.06.03 12:45:16.
