data_PCOD9419693
_publ_section_title
;
Structure prediction by ZEFSAII (Michael W. Deem and Ramdas Pophale) SiO2 
 PCOD9419693
Probable space group: P M N A
;
_chemical_formula_sum "Si O2"
_cell_formula_units_Z 40
_cell_length_a 8.594861
_cell_length_b 13.457357
_cell_length_c 19.756075
_cell_angle_alpha 90.000000
_cell_angle_beta 90.000000
_cell_angle_gamma 90.000000
_cell_volume 2285.068888
_symmetry_space_group_name_H-M "P M N A"
_symmetry_group_IT_number 53
_symmetry_cell_setting 'orthorhombic'
loop_
_space_group_symop_operation_xyz
x,y,z
1/2-x,-y,1/2+z
x,-y,-z
1/2-x,y,1/2-z
-x,-y,-z
1/2+x,y,1/2-z
-x,y,z
1/2+x,-y,1/2+z
loop_
_atom_site_type_symbol
_atom_site_label
_atom_site_fract_x
_atom_site_fract_y
_atom_site_fract_z
Si Si1 0.311765 0.888173 0.919760
Si Si2 0.688124 0.289225 0.826411
Si Si3 0.815359 0.714407 0.826386
Si Si4 0.810767 0.886708 0.423594
Si Si5 0.686381 0.491642 0.173232
O O1 0.500000 0.882884 0.915792
O O2 0.240747 0.806488 0.870914
O O3 0.264234 0.001595 0.902809
O O4 0.266415 0.870555 0.998149
O O5 0.750000 0.279184 0.750000
O O6 0.500000 0.285930 0.823505
O O7 0.744104 0.200024 0.874031
O O8 0.730033 0.399309 0.854298
O O9 0.750000 0.723721 0.750000
O O10 0.754597 0.609572 0.856801
O O11 0.000000 0.711055 0.822558
O O12 0.000000 0.885723 0.422572
O O13 0.750000 0.493317 0.250000
O O14 0.500000 0.483752 0.173955
#
# Coordination Sequence:
#
# PCOD9419693 Si02
#       5
#     8   8   8   8   8
#     4   9  17  33  54  72  95 129 165 199 238 284
#     4   9  17  30  49  74  99 124 158 197 238 284
#     4  11  21  33  50  72  98 126 160 201 241 285
#     4   8  16  32  53  73  96 129 164 197 237 287
#     4   9  16  28  47  69  95 125 156 193 237 285
#
# _framework density 17.504942
#
# number of rings (size 3 to 8) (size 9 to 14) (size 15 to 20)
#    0.000    2.800    0.000    4.800    0.000    1.600 
#    0.000    7.000    0.000    6.000    0.000    0.000 
#    0.000    0.000    0.000    0.000    0.000    0.000 
#
# Total GULP energy -222835.313744 kJ/mol
# GULP energy per Si atom -5570.882844 kJ/mol
# Density = 1.746510 g / cm^3
# Si number density = 17.504942 Si / 1000 Ang^3
#
#
#
# Elastic Constant Matrix: (Units=GPa)
#
#
# Indices 1 2 3 4 5 6 
#
# 1 52.9304 51.1469 24.9576 0.0000 0.0000 0.0000
# 2 51.1469 212.4054 94.4421 0.0000 0.0000 0.0000
# 3 24.9576 94.4421 64.2341 0.0000 0.0000 0.0000
# 4 0.0000 0.0000 0.0000 -19.1190 0.0000 0.0000
# 5 0.0000 0.0000 0.0000 0.0000 18.6201 0.0000
# 6 0.0000 0.0000 0.0000 0.0000 0.0000 19.8627
#
#
#
# Elastic Compliance Matrix: (Units=1/GPa)
#
#
# Indices 1 2 3 4 5 6 
#
# 1 0.024756 -0.004865 -0.002467 0.000000 0.000000 0.000000
# 2 -0.004865 0.014552 -0.019506 0.000000 0.000000 0.000000
# 3 -0.002467 -0.019506 0.045205 0.000000 0.000000 0.000000
# 4 0.000000 0.000000 0.000000 -0.052304 0.000000 0.000000
# 5 0.000000 0.000000 0.000000 0.000000 0.053705 0.000000
# 6 0.000000 0.000000 0.000000 0.000000 0.000000 0.050346
#
#
# Mechanical properties :
#
#
# Convention : Reuss Voigt Hill
#
# Bulk Modulus (GPa) = 32.42527 74.51812 53.47170
# Shear Modulus (GPa) = 24.97316 14.47432 19.72374
#
# Velocity S-wave (km/s) = 3.78118 2.87866 3.36036
# Velocity P-wave (km/s) = 6.13407 7.32878 6.75788
#
# Compressibility (1/GPa) = 0.03084014
#
# Stress axis : x y z
#
# Youngs Moduli (GPa) = 40.39350 68.71795 22.12127
#
# Poissons Ratio (x) = 0.33428 0.05456
# Poissons Ratio (y) = 0.19650 0.43149
# Poissons Ratio (z) = 0.09963 1.34040
#
# Static dielectric constant tensor:
#      x y z
#    x 1.594670 0.000000 0.000000 
#    y 0.000000 1.635490 0.000000 
#    z 0.000000 0.000000 1.557910 
# 
# From -- ./inp_files/25980.got.cif
#   From: 2010.05.17/outbox.cif.g08.bks.cpg/sg53_13_cif.got.tgz:25980.got - 2010.06.03 12:45:16.
