data_PCOD9419752
_publ_section_title
;
Structure prediction by ZEFSAII (Michael W. Deem and Ramdas Pophale) SiO2 
 PCOD9419752
Probable space group: P M N A
;
_chemical_formula_sum "Si O2"
_cell_formula_units_Z 40
_cell_length_a 25.912936
_cell_length_b 14.130794
_cell_length_c 5.053809
_cell_angle_alpha 90.000000
_cell_angle_beta 90.000000
_cell_angle_gamma 90.000000
_cell_volume 1850.555064
_symmetry_space_group_name_H-M "P M N A"
_symmetry_group_IT_number 53
_symmetry_cell_setting 'orthorhombic'
loop_
_space_group_symop_operation_xyz
x,y,z
1/2-x,-y,1/2+z
x,-y,-z
1/2-x,y,1/2-z
-x,-y,-z
1/2+x,y,1/2-z
-x,y,z
1/2+x,-y,1/2+z
loop_
_atom_site_type_symbol
_atom_site_label
_atom_site_fract_x
_atom_site_fract_y
_atom_site_fract_z
Si Si1 0.132327 0.396135 0.084404
Si Si2 0.902682 0.107745 0.570653
Si Si3 0.298294 0.634280 0.091897
Si Si4 0.782036 0.146631 0.499651
Si Si5 0.940533 0.219542 0.081805
O O1 0.171871 0.406218 0.334233
O O2 0.087969 0.319691 0.125823
O O3 0.113916 0.500000 0.000000
O O4 0.161735 0.355439 0.829657
O O5 0.841591 0.118606 0.511622
O O6 0.934309 0.169425 0.362668
O O7 0.916510 0.000000 0.500000
O O8 0.914220 0.151019 0.860801
O O9 0.250000 0.586351 0.250000
O O10 0.281106 0.738559 0.002954
O O11 0.750000 0.113376 0.250000
O O12 0.750000 0.113538 0.750000
O O13 0.000000 0.232516 0.007948
#
# Coordination Sequence:
#
# PCOD9419752 Si02
#       5
#     8   8   8   8   8
#     4  12  24  43  69  99 137 177 228 275 335 402
#     4  12  26  45  71 103 136 176 227 278 343 411
#     4  11  22  40  66  98 138 184 217 269 329 401
#     4  11  21  38  67  95 134 177 216 261 325 398
#     4  12  26  48  71  97 135 176 228 292 348 394
#
# _framework density 21.615137000000001
#
# number of rings (size 3 to 8) (size 9 to 14) (size 15 to 20)
#    0.000    0.400    4.000    6.000    0.000    5.200 
#    0.000    1.000    0.000    4.800    0.000    0.000 
#    0.000    0.000    0.000    0.000    0.000    0.000 
#
# Total GULP energy -223597.278192 kJ/mol
# GULP energy per Si atom -5589.931955 kJ/mol
# Density = 2.156594 g / cm^3
# Si number density = 21.615137 Si / 1000 Ang^3
#
#
#
# Elastic Constant Matrix: (Units=GPa)
#
#
# Indices 1 2 3 4 5 6 
#
# 1 93.5375 35.4032 8.0002 0.0000 0.0000 0.0000
# 2 35.4032 122.6997 15.7335 0.0000 0.0000 0.0000
# 3 8.0002 15.7335 118.0704 0.0000 0.0000 0.0000
# 4 0.0000 0.0000 0.0000 15.1166 0.0000 0.0000
# 5 0.0000 0.0000 0.0000 0.0000 26.2855 0.0000
# 6 0.0000 0.0000 0.0000 0.0000 0.0000 53.1013
#
#
#
# Elastic Compliance Matrix: (Units=1/GPa)
#
#
# Indices 1 2 3 4 5 6 
#
# 1 0.012016 -0.003421 -0.000358 0.000000 0.000000 0.000000
# 2 -0.003421 0.009266 -0.001003 0.000000 0.000000 0.000000
# 3 -0.000358 -0.001003 0.008627 0.000000 0.000000 0.000000
# 4 0.000000 0.000000 0.000000 0.066153 0.000000 0.000000
# 5 0.000000 0.000000 0.000000 0.000000 0.038044 0.000000
# 6 0.000000 0.000000 0.000000 0.000000 0.000000 0.018832
#
#
# Mechanical properties :
#
#
# Convention : Reuss Voigt Hill
#
# Bulk Modulus (GPa) = 49.15269 50.28680 49.71974
# Shear Modulus (GPa) = 29.53609 37.24538 33.39074
#
# Velocity S-wave (km/s) = 3.70057 4.15555 3.93464
# Velocity P-wave (km/s) = 6.40689 6.80734 6.61015
#
# Compressibility (1/GPa) = 0.02034477
#
# Stress axis : x y z
#
# Youngs Moduli (GPa) = 83.21920 107.92468 115.90921
#
# Poissons Ratio (x) = 0.36923 0.04153
# Poissons Ratio (y) = 0.28471 0.11624
# Poissons Ratio (z) = 0.02982 0.10824
#
# Static dielectric constant tensor:
#      x y z
#    x 1.789320 0.000000 0.000000 
#    y 0.000000 1.828750 0.000000 
#    z 0.000000 0.000000 1.764330 
# 
# From -- ./inp_files/3621.got.cif
#   From: 2010.05.17/outbox.cif.g08.bks.cpg/sg53_2_cif.got.tgz:3621.got - 2010.06.03 12:45:16.
