data_PCOD9419083
_publ_section_title
;
Structure prediction by ZEFSAII (Michael W. Deem and Ramdas Pophale) SiO2 
 PCOD9419083
Probable space group: P M N A
;
_chemical_formula_sum "Si O2"
_cell_formula_units_Z 32
_cell_length_a 13.074492
_cell_length_b 4.938400
_cell_length_c 19.655220
_cell_angle_alpha 90.000000
_cell_angle_beta 90.000000
_cell_angle_gamma 90.000000
_cell_volume 1269.079991
_symmetry_space_group_name_H-M "P M N A"
_symmetry_group_IT_number 53
_symmetry_cell_setting 'orthorhombic'
loop_
_space_group_symop_operation_xyz
x,y,z
1/2-x,-y,1/2+z
x,-y,-z
1/2-x,y,1/2-z
-x,-y,-z
1/2+x,y,1/2-z
-x,y,z
1/2+x,-y,1/2+z
loop_
_atom_site_type_symbol
_atom_site_label
_atom_site_fract_x
_atom_site_fract_y
_atom_site_fract_z
Si Si1 0.890498 0.856909 0.306452
Si Si2 0.388810 0.779162 0.938455
Si Si3 0.161677 0.162931 0.842663
Si Si4 0.837874 0.630998 0.929572
O O1 0.883121 0.946061 0.227845
O O2 0.778056 0.746472 0.323302
O O3 0.000000 0.705651 0.312673
O O4 0.892943 0.082084 0.364753
O O5 0.500000 0.646212 0.945168
O O6 0.285878 0.607826 0.936694
O O7 0.379721 0.000000 0.000000
O O8 0.117800 0.440781 0.870926
O O9 0.151384 0.940327 0.903062
O O10 0.877300 0.500000 0.000000
#
# Coordination Sequence:
#
# PCOD9419083 Si02
#       4
#     8   8   8   8
#     4   9  19  37  59  84 117 151 186 234 283 334
#     4   9  18  34  57  87 120 152 187 228 285 355
#     4  10  22  37  58  87 113 148 194 230 280 345
#     4  11  21  37  58  81 114 151 188 236 285 331
#
# _framework density 25.215119000000001
#
# number of rings (size 3 to 8) (size 9 to 14) (size 15 to 20)
#    0.000    2.250    0.000    3.750    0.000    9.500 
#    0.000    6.250    0.000    4.500    0.000    0.000 
#    0.000    0.000    0.000    0.000    0.000    0.000 
#
# Total GULP energy -178146.493612 kJ/mol
# GULP energy per Si atom -5567.077925 kJ/mol
# Density = 2.515773 g / cm^3
# Si number density = 25.215119 Si / 1000 Ang^3
#
#
#
# Elastic Constant Matrix: (Units=GPa)
#
#
# Indices 1 2 3 4 5 6 
#
# 1 134.3007 10.6041 21.5570 0.0000 0.0000 0.0000
# 2 10.6041 62.8791 42.7666 0.0000 0.0000 0.0000
# 3 21.5570 42.7666 164.0509 0.0000 0.0000 0.0000
# 4 0.0000 0.0000 0.0000 19.7258 0.0000 0.0000
# 5 0.0000 0.0000 0.0000 0.0000 24.7498 0.0000
# 6 0.0000 0.0000 0.0000 0.0000 0.0000 -11.7925
#
#
#
# Elastic Compliance Matrix: (Units=1/GPa)
#
#
# Indices 1 2 3 4 5 6 
#
# 1 0.007634 -0.000736 -0.000811 0.000000 0.000000 0.000000
# 2 -0.000736 0.019402 -0.004961 0.000000 0.000000 0.000000
# 3 -0.000811 -0.004961 0.007496 0.000000 0.000000 0.000000
# 4 0.000000 0.000000 0.000000 0.050695 0.000000 0.000000
# 5 0.000000 0.000000 0.000000 0.000000 0.040404 0.000000
# 6 0.000000 0.000000 0.000000 0.000000 0.000000 -0.084800
#
#
# Mechanical properties :
#
#
# Convention : Reuss Voigt Hill
#
# Bulk Modulus (GPa) = 46.47843 56.78734 51.63288
# Shear Modulus (GPa) = 81.94026 25.62348 53.78187
#
# Velocity S-wave (km/s) = 5.70675 3.19124 4.62337
# Velocity P-wave (km/s) = 7.86737 6.01238 7.00158
#
# Compressibility (1/GPa) = 0.02151536
#
# Stress axis : x y z
#
# Youngs Moduli (GPa) = 130.98775 51.54130 133.41075
#
# Poissons Ratio (x) = 0.03791 0.10825
# Poissons Ratio (y) = 0.09635 0.66188
# Poissons Ratio (z) = 0.10629 0.25571
#
# Static dielectric constant tensor:
#      x y z
#    x 2.092210 0.000000 0.000000 
#    y 0.000000 1.937820 0.000000 
#    z 0.000000 0.000000 1.755020 
# 
# From -- ./inp_files/27890.got.cif
#   From: 2010.05.17/outbox.cif.g08.bks.cpg/sg53_14_cif.got.tgz:27890.got - 2010.06.03 12:45:16.
