data_PCOD9419027
_publ_section_title
;
Structure prediction by ZEFSAII (Michael W. Deem and Ramdas Pophale) SiO2 
 PCOD9419027
Probable space group: P M N A
;
_chemical_formula_sum "Si O2"
_cell_formula_units_Z 48
_cell_length_a 15.794480
_cell_length_b 17.133370
_cell_length_c 8.835984
_cell_angle_alpha 90.000000
_cell_angle_beta 90.000000
_cell_angle_gamma 90.000000
_cell_volume 2391.129221
_symmetry_space_group_name_H-M "P M N A"
_symmetry_group_IT_number 53
_symmetry_cell_setting 'orthorhombic'
loop_
_space_group_symop_operation_xyz
x,y,z
1/2-x,-y,1/2+z
x,-y,-z
1/2-x,y,1/2-z
-x,-y,-z
1/2+x,y,1/2-z
-x,y,z
1/2+x,-y,1/2+z
loop_
_atom_site_type_symbol
_atom_site_label
_atom_site_fract_x
_atom_site_fract_y
_atom_site_fract_z
Si Si1 0.402540 0.210469 0.005616
Si Si2 0.500000 0.235803 0.590397
Si Si3 0.500000 0.947475 0.348823
Si Si4 0.000000 0.266255 0.254504
Si Si5 0.845683 0.311919 0.731238
Si Si6 0.832697 0.057768 0.643127
Si Si7 0.000000 0.557608 0.649165
Si Si8 0.338804 0.492624 0.680502
O O1 0.500000 0.197247 0.951474
O O2 0.369787 0.291899 0.940017
O O3 0.347626 0.142271 0.934542
O O4 0.418088 0.218260 0.184282
O O5 0.500000 0.142468 0.595900
O O6 0.500000 0.271277 0.422685
O O7 0.584674 0.266729 0.671387
O O8 0.583874 0.960351 0.245230
O O9 0.500000 0.000000 0.500000
O O10 0.000000 0.347806 0.346541
O O11 0.750000 0.284179 0.750000
O O12 0.848810 0.402099 0.773529
O O13 0.750000 0.056126 0.750000
O O14 0.825613 0.000000 0.500000
O O15 0.000000 0.500000 0.500000
O O16 0.916876 0.535997 0.744263
O O17 0.338297 0.500000 0.500000
O O18 0.250000 0.520678 0.750000
#
# Coordination Sequence:
#
# PCOD9419027 Si02
#       8
#     8   4   4   4   8   8   4   8
#     4  10  21  43  66  90 126 173 218 253 333 392
#     4  12  22  42  64  98 132 162 229 270 327 402
#     4  12  26  41  71  98 134 178 216 278 339 402
#     4  10  24  39  64 101 127 176 214 279 331 392
#     4  11  21  40  67  88 123 177 221 267 327 404
#     4  12  25  46  69 100 134 175 224 278 332 405
#     4  12  22  40  67  94 137 171 220 286 340 394
#     4  11  24  40  62  94 127 173 224 275 338 402
#
# _framework density 20.074197999999999
#
# number of rings (size 3 to 8) (size 9 to 14) (size 15 to 20)
#    0.500    0.333    3.333    4.500    2.333    1.333 
#    0.000    0.833    0.000    0.000    0.000    0.000 
#    0.000    0.000    0.000    0.000    0.000    0.000 
#
# Total GULP energy -267815.674366 kJ/mol
# GULP energy per Si atom -5579.493216 kJ/mol
# Density = 2.002851 g / cm^3
# Si number density = 20.074198 Si / 1000 Ang^3
#
#
#
# Elastic Constant Matrix: (Units=GPa)
#
#
# Indices 1 2 3 4 5 6 
#
# 1 166.3378 41.0262 53.4140 0.0000 0.0000 0.0000
# 2 41.0262 67.4490 6.9759 0.0000 0.0000 0.0000
# 3 53.4140 6.9759 83.9824 0.0000 0.0000 0.0000
# 4 0.0000 0.0000 0.0000 28.4768 0.0000 0.0000
# 5 0.0000 0.0000 0.0000 0.0000 30.6458 0.0000
# 6 0.0000 0.0000 0.0000 0.0000 0.0000 43.0735
#
#
#
# Elastic Compliance Matrix: (Units=1/GPa)
#
#
# Indices 1 2 3 4 5 6 
#
# 1 0.008901 -0.004870 -0.005257 0.000000 0.000000 0.000000
# 2 -0.004870 0.017620 0.001634 0.000000 0.000000 0.000000
# 3 -0.005257 0.001634 0.015115 0.000000 0.000000 0.000000
# 4 0.000000 0.000000 0.000000 0.035116 0.000000 0.000000
# 5 0.000000 0.000000 0.000000 0.000000 0.032631 0.000000
# 6 0.000000 0.000000 0.000000 0.000000 0.000000 0.023216
#
#
# Mechanical properties :
#
#
# Convention : Reuss Voigt Hill
#
# Bulk Modulus (GPa) = 40.56888 57.84458 49.20673
# Shear Modulus (GPa) = 31.68540 34.86276 33.27408
#
# Velocity S-wave (km/s) = 3.97724 4.17189 4.07572
# Velocity P-wave (km/s) = 6.42997 7.21693 6.83479
#
# Compressibility (1/GPa) = 0.02464944
#
# Stress axis : x y z
#
# Youngs Moduli (GPa) = 112.34495 56.75525 66.16013
#
# Poissons Ratio (x) = 0.27643 0.34778
# Poissons Ratio (y) = 0.54718 -0.10812
# Poissons Ratio (z) = 0.59056 -0.09275
#
# Static dielectric constant tensor:
#      x y z
#    x 1.703520 0.000000 0.000000 
#    y 0.000000 1.781390 0.000000 
#    z 0.000000 0.000000 1.707010 
# 
# From -- ./inp_files/8759.got.cif
#   From: 2010.05.17/outbox.cif.g08.bks.cpg/sg53_5_cif.got.tgz:8759.got - 2010.06.03 12:45:16.
