data_PCOD9419253
_publ_section_title
;
Structure prediction by ZEFSAII (Michael W. Deem and Ramdas Pophale) SiO2 
 PCOD9419253
Probable space group: P M N A
;
_chemical_formula_sum "Si O2"
_cell_formula_units_Z 64
_cell_length_a 23.390665
_cell_length_b 8.383647
_cell_length_c 14.321536
_cell_angle_alpha 90.000000
_cell_angle_beta 90.000000
_cell_angle_gamma 90.000000
_cell_volume 2808.440012
_symmetry_space_group_name_H-M "P M N A"
_symmetry_group_IT_number 53
_symmetry_cell_setting 'orthorhombic'
loop_
_space_group_symop_operation_xyz
x,y,z
1/2-x,-y,1/2+z
x,-y,-z
1/2-x,y,1/2-z
-x,-y,-z
1/2+x,y,1/2-z
-x,y,z
1/2+x,-y,1/2+z
loop_
_atom_site_type_symbol
_atom_site_label
_atom_site_fract_x
_atom_site_fract_y
_atom_site_fract_z
Si Si1 0.313827 0.153603 0.288632
Si Si2 0.140634 0.170812 0.852257
Si Si3 0.166399 0.317163 0.024614
Si Si4 0.114361 0.155304 0.401916
Si Si5 0.065235 0.527701 0.661600
Si Si6 0.434671 0.835049 0.164990
Si Si7 0.203187 0.683019 0.467280
Si Si8 0.312898 0.565428 0.235194
O O1 0.250000 0.161485 0.250000
O O2 0.333479 0.282314 0.365515
O O3 0.353224 0.153288 0.197870
O O4 0.322849 0.987699 0.342566
O O5 0.094824 0.166989 0.767819
O O6 0.177839 0.323391 0.823178
O O7 0.126093 0.206479 0.959829
O O8 0.153593 0.500000 0.000000
O O9 0.232370 0.282055 0.997717
O O10 0.072335 0.309976 0.397895
O O11 0.161751 0.198795 0.478447
O O12 0.087293 0.979073 0.399451
O O13 0.067689 0.344984 0.622392
O O14 0.126383 0.521604 0.717059
O O15 0.000000 0.535569 0.703779
O O16 0.500000 0.871780 0.182725
O O17 0.190893 0.500000 0.500000
O O18 0.194460 0.677966 0.356465
O O19 0.250000 0.486664 0.250000
#
# Coordination Sequence:
#
# PCOD9419253 Si02
#       8
#     8   8   8   8   8   8   8   8
#     4  11  23  39  59  95 132 170 224 275 344 421
#     4  10  22  41  64  92 127 176 215 286 345 402
#     4  11  24  38  61  93 135 175 218 274 348 418
#     4  11  22  40  66  93 136 181 220 286 341 409
#     4  10  22  40  67  96 133 181 231 280 338 414
#     4   9  21  42  68  99 128 176 241 285 344 413
#     4  11  22  37  57  98 133 177 228 272 341 415
#     4  11  21  38  67  93 129 177 228 276 350 408
#
# _framework density 22.788450999999998
#
# number of rings (size 3 to 8) (size 9 to 14) (size 15 to 20)
#    0.000    1.500    3.750    1.125    3.500    0.500 
#    0.000    7.500    0.000   10.875    0.000    0.000 
#    0.000    0.000    0.000    0.000    0.000    0.000 
#
# Total GULP energy -356943.124333 kJ/mol
# GULP energy per Si atom -5577.236318 kJ/mol
# Density = 2.273658 g / cm^3
# Si number density = 22.788451 Si / 1000 Ang^3
#
#
#
# Elastic Constant Matrix: (Units=GPa)
#
#
# Indices 1 2 3 4 5 6 
#
# 1 103.2987 23.3147 24.0799 0.0000 0.0000 0.0000
# 2 23.3147 139.0417 14.8277 0.0000 0.0000 0.0000
# 3 24.0799 14.8277 123.0717 0.0000 0.0000 0.0000
# 4 0.0000 0.0000 0.0000 0.4100 0.0000 0.0000
# 5 0.0000 0.0000 0.0000 0.0000 17.5052 0.0000
# 6 0.0000 0.0000 0.0000 0.0000 0.0000 20.0107
#
#
#
# Elastic Compliance Matrix: (Units=1/GPa)
#
#
# Indices 1 2 3 4 5 6 
#
# 1 0.010466 -0.001557 -0.001860 0.000000 0.000000 0.000000
# 2 -0.001557 0.007517 -0.000601 0.000000 0.000000 0.000000
# 3 -0.001860 -0.000601 0.008562 0.000000 0.000000 0.000000
# 4 0.000000 0.000000 0.000000 2.438801 0.000000 0.000000
# 5 0.000000 0.000000 0.000000 0.000000 0.057126 0.000000
# 6 0.000000 0.000000 0.000000 0.000000 0.000000 0.049973
#
#
# Mechanical properties :
#
#
# Convention : Reuss Voigt Hill
#
# Bulk Modulus (GPa) = 54.02797 54.42851 54.22824
# Shear Modulus (GPa) = 1.93300 27.79784 14.86542
#
# Velocity S-wave (km/s) = 0.92200 3.49638 2.55683
# Velocity P-wave (km/s) = 4.98933 6.34316 5.70654
#
# Compressibility (1/GPa) = 0.01850893
#
# Stress axis : x y z
#
# Youngs Moduli (GPa) = 95.55128 133.02843 116.79896
#
# Poissons Ratio (x) = 0.20706 0.21726
# Poissons Ratio (y) = 0.14873 0.07021
# Poissons Ratio (z) = 0.17774 0.07997
#
# Static dielectric constant tensor:
#      x y z
#    x 1.885130 0.000000 0.000000 
#    y 0.000000 1.945530 0.000000 
#    z 0.000000 0.000000 1.905260 
# 
# From -- ./inp_files/24721.got.cif
#   From: 2010.05.17/outbox.cif.g08.bks.cpg/sg53_13_cif.got.tgz:24721.got - 2010.06.03 12:45:16.
