data_PCOD9419833
_publ_section_title
;
Structure prediction by ZEFSAII (Michael W. Deem and Ramdas Pophale) SiO2 
 PCOD9419833
Probable space group: P M N A
;
_chemical_formula_sum "Si O2"
_cell_formula_units_Z 40
_cell_length_a 23.231660
_cell_length_b 8.208257
_cell_length_c 9.913356
_cell_angle_alpha 90.000000
_cell_angle_beta 90.000000
_cell_angle_gamma 90.000000
_cell_volume 1890.392089
_symmetry_space_group_name_H-M "P M N A"
_symmetry_group_IT_number 53
_symmetry_cell_setting 'orthorhombic'
loop_
_space_group_symop_operation_xyz
x,y,z
1/2-x,-y,1/2+z
x,-y,-z
1/2-x,y,1/2-z
-x,-y,-z
1/2+x,y,1/2-z
-x,y,z
1/2+x,-y,1/2+z
loop_
_atom_site_type_symbol
_atom_site_label
_atom_site_fract_x
_atom_site_fract_y
_atom_site_fract_z
Si Si1 0.625165 0.810720 0.789717
Si Si2 0.310744 0.689634 0.040085
Si Si3 0.317726 0.309654 0.467687
Si Si4 0.500000 0.797962 0.848740
Si Si5 0.878555 0.190333 0.783295
Si Si6 0.000000 0.195293 0.661292
O O1 0.667720 0.720570 0.687645
O O2 0.559731 0.746359 0.781080
O O3 0.626118 0.000003 0.751476
O O4 0.646168 0.786336 0.942161
O O5 0.331274 0.717181 0.192155
O O6 0.314127 0.500000 0.000000
O O7 0.246056 0.747337 0.009331
O O8 0.320810 0.500000 0.500000
O O9 0.364147 0.220107 0.561471
O O10 0.500000 0.996613 0.844600
O O11 0.500000 0.748217 0.006012
O O12 0.941906 0.246117 0.737305
#
# Coordination Sequence:
#
# PCOD9419833 Si02
#       6
#     8   8   8   4   8   4
#     4  11  22  39  65  91 117 154 202 247 289 350
#     4  11  23  40  61  86 122 163 196 239 300 353
#     4  11  25  42  57  84 128 163 192 241 304 353
#     4   9  18  37  62  89 119 149 188 246 305 346
#     4  11  22  39  65  91 117 154 202 247 289 350
#     4   9  18  37  62  89 119 149 188 246 305 346
#
# _framework density 21.159631999999998
#
# number of rings (size 3 to 8) (size 9 to 14) (size 15 to 20)
#    0.000    1.400    2.000    3.600    0.000    8.800 
#    0.000    9.000    0.000    0.000    0.000    0.000 
#    0.000    0.000    0.000    0.000    0.000    0.000 
#
# Total GULP energy -223724.540816 kJ/mol
# GULP energy per Si atom -5593.113520 kJ/mol
# Density = 2.111147 g / cm^3
# Si number density = 21.159632 Si / 1000 Ang^3
#
#
#
# Elastic Constant Matrix: (Units=GPa)
#
#
# Indices 1 2 3 4 5 6 
#
# 1 115.0859 1.7557 -5.8559 0.0000 0.0000 0.0000
# 2 1.7557 31.5668 -9.5659 0.0000 0.0000 0.0000
# 3 -5.8559 -9.5659 42.4360 0.0000 0.0000 0.0000
# 4 0.0000 0.0000 0.0000 34.0306 0.0000 0.0000
# 5 0.0000 0.0000 0.0000 0.0000 25.6294 0.0000
# 6 0.0000 0.0000 0.0000 0.0000 0.0000 22.1137
#
#
#
# Elastic Compliance Matrix: (Units=1/GPa)
#
#
# Indices 1 2 3 4 5 6 
#
# 1 0.008751 -0.000130 0.001178 0.000000 0.000000 0.000000
# 2 -0.000130 0.034003 0.007647 0.000000 0.000000 0.000000
# 3 0.001178 0.007647 0.025451 0.000000 0.000000 0.000000
# 4 0.000000 0.000000 0.000000 0.029385 0.000000 0.000000
# 5 0.000000 0.000000 0.000000 0.000000 0.039018 0.000000
# 6 0.000000 0.000000 0.000000 0.000000 0.000000 0.045221
#
#
# Mechanical properties :
#
#
# Convention : Reuss Voigt Hill
#
# Bulk Modulus (GPa) = 11.68257 17.97295 14.82776
# Shear Modulus (GPa) = 25.91070 29.87172 27.89121
#
# Velocity S-wave (km/s) = 3.50313 3.76138 3.63455
# Velocity P-wave (km/s) = 4.67929 5.23224 4.96347
#
# Compressibility (1/GPa) = 0.08559760
#
# Stress axis : x y z
#
# Youngs Moduli (GPa) = 114.27141 29.40883 39.29067
#
# Poissons Ratio (x) = 0.00381 -0.04630
# Poissons Ratio (y) = 0.01481 -0.30046
# Poissons Ratio (z) = -0.13465 -0.22489
#
# Static dielectric constant tensor:
#      x y z
#    x 1.769880 0.000000 0.000000 
#    y 0.000000 1.756100 0.000000 
#    z 0.000000 0.000000 1.693630 
# 
# From -- ./inp_files/11616.got.cif
#   From: 2010.05.17/outbox.cif.g08.bks.cpg/sg53_6_cif.got.tgz:11616.got - 2010.06.03 12:45:16.
