data_PCOD9419895
_publ_section_title
;
Structure prediction by ZEFSAII (Michael W. Deem and Ramdas Pophale) SiO2 
 PCOD9419895
Probable space group: P M N A
;
_chemical_formula_sum "Si O2"
_cell_formula_units_Z 24
_cell_length_a 10.242331
_cell_length_b 8.459629
_cell_length_c 11.889549
_cell_angle_alpha 90.000000
_cell_angle_beta 90.000000
_cell_angle_gamma 90.000000
_cell_volume 1030.185672
_symmetry_space_group_name_H-M "P M N A"
_symmetry_group_IT_number 53
_symmetry_cell_setting 'orthorhombic'
loop_
_space_group_symop_operation_xyz
x,y,z
1/2-x,-y,1/2+z
x,-y,-z
1/2-x,y,1/2-z
-x,-y,-z
1/2+x,y,1/2-z
-x,y,z
1/2+x,-y,1/2+z
loop_
_atom_site_type_symbol
_atom_site_label
_atom_site_fract_x
_atom_site_fract_y
_atom_site_fract_z
Si Si1 0.656422 0.869855 0.652975
Si Si2 0.500000 0.548427 0.364068
Si Si3 0.269156 0.228391 0.590206
Si Si4 0.000000 0.405417 0.618115
O O1 0.750000 0.808337 0.750000
O O2 0.500000 0.861304 0.669903
O O3 0.695850 0.776601 0.541529
O O4 0.697094 0.052407 0.632377
O O5 0.500000 0.500000 0.500000
O O6 0.370150 0.651218 0.357488
O O7 0.500000 0.484208 0.232047
O O8 0.125209 0.289634 0.612928
O O9 0.000000 0.500000 0.500000
#
# Coordination Sequence:
#
# PCOD9419895 Si02
#       4
#     8   4   8   4
#     4  11  23  41  71 106 138 177 223 282 351 420
#     4  12  24  45  72  92 134 195 231 288 351 404
#     4  11  24  44  67  98 142 177 228 282 353 414
#     4  12  28  45  68 104 136 181 247 292 333 406
#
# _framework density 23.296771
#
# number of rings (size 3 to 8) (size 9 to 14) (size 15 to 20)
#    0.000    0.667    3.333    5.000    4.667    4.000 
#    0.000    0.000    0.000    0.000    0.000    0.000 
#    0.000    0.000    0.000    0.000    0.000    0.000 
#
# Total GULP energy -133989.773725 kJ/mol
# GULP energy per Si atom -5582.907239 kJ/mol
# Density = 2.324375 g / cm^3
# Si number density = 23.296771 Si / 1000 Ang^3
#
#
#
# Elastic Constant Matrix: (Units=GPa)
#
#
# Indices 1 2 3 4 5 6 
#
# 1 257.4510 47.5217 62.9085 0.0000 0.0000 0.0000
# 2 47.5217 58.8215 33.7259 0.0000 0.0000 0.0000
# 3 62.9085 33.7259 231.7627 0.0000 0.0000 0.0000
# 4 0.0000 0.0000 0.0000 -5.9683 0.0000 0.0000
# 5 0.0000 0.0000 0.0000 0.0000 46.4740 0.0000
# 6 0.0000 0.0000 0.0000 0.0000 0.0000 32.2149
#
#
#
# Elastic Compliance Matrix: (Units=1/GPa)
#
#
# Indices 1 2 3 4 5 6 
#
# 1 0.004693 -0.003340 -0.000788 0.000000 0.000000 0.000000
# 2 -0.003340 0.020925 -0.002138 0.000000 0.000000 0.000000
# 3 -0.000788 -0.002138 0.004840 0.000000 0.000000 0.000000
# 4 0.000000 0.000000 0.000000 -0.167552 0.000000 0.000000
# 5 0.000000 0.000000 0.000000 0.000000 0.021517 0.000000
# 6 0.000000 0.000000 0.000000 0.000000 0.000000 0.031041
#
#
# Mechanical properties :
#
#
# Convention : Reuss Voigt Hill
#
# Bulk Modulus (GPa) = 55.78619 92.92750 74.35684
# Shear Modulus (GPa) = -75.72580 41.46941 -17.12819
#
# Velocity S-wave (km/s) = -5.70749 4.22364 -2.71443
# Velocity P-wave (km/s) = 4.40863 7.98503 4.70769
#
# Compressibility (1/GPa) = 0.01792558
#
# Stress axis : x y z
#
# Youngs Moduli (GPa) = 213.07165 47.78981 206.62020
#
# Poissons Ratio (x) = 0.15961 0.16279
# Poissons Ratio (y) = 0.71164 0.44184
# Poissons Ratio (z) = 0.16788 0.10219
#
# Static dielectric constant tensor:
#      x y z
#    x 1.709350 0.000000 0.000000 
#    y 0.000000 1.882790 0.000000 
#    z 0.000000 0.000000 2.019300 
# 
# From -- ./inp_files/14448.got.cif
#   From: 2010.05.17/outbox.cif.g08.bks.cpg/sg53_8_cif.got.tgz:14448.got - 2010.06.03 12:45:16.
