data_PCOD9419179
_publ_section_title
;
Structure prediction by ZEFSAII (Michael W. Deem and Ramdas Pophale) SiO2 
 PCOD9419179
Probable space group: P M N A
;
_chemical_formula_sum "Si O2"
_cell_formula_units_Z 40
_cell_length_a 22.637863
_cell_length_b 9.910236
_cell_length_c 8.588409
_cell_angle_alpha 90.000000
_cell_angle_beta 90.000000
_cell_angle_gamma 90.000000
_cell_volume 1926.780057
_symmetry_space_group_name_H-M "P M N A"
_symmetry_group_IT_number 53
_symmetry_cell_setting 'orthorhombic'
loop_
_space_group_symop_operation_xyz
x,y,z
1/2-x,-y,1/2+z
x,-y,-z
1/2-x,y,1/2-z
-x,-y,-z
1/2+x,y,1/2-z
-x,y,z
1/2+x,-y,1/2+z
loop_
_atom_site_type_symbol
_atom_site_label
_atom_site_fract_x
_atom_site_fract_y
_atom_site_fract_z
Si Si1 0.233295 0.860452 0.068721
Si Si2 0.673842 0.351465 0.946854
Si Si3 0.594932 0.155865 0.481315
Si Si4 0.892551 0.585523 0.152290
Si Si5 0.932943 0.679936 0.672894
O O1 0.250000 0.864882 0.250000
O O2 0.272615 0.740939 0.003732
O O3 0.165079 0.847897 0.019424
O O4 0.255685 0.000000 0.000000
O O5 0.659695 0.361649 0.763482
O O6 0.688116 0.500000 0.000000
O O7 0.614060 0.307525 0.034863
O O8 0.573604 0.279843 0.593083
O O9 0.582008 0.212979 0.309257
O O10 0.573946 0.000000 0.500000
O O11 0.926159 0.471469 0.253920
O O12 0.873112 0.500000 0.000000
O O13 0.000000 0.698231 0.620842
#
# Coordination Sequence:
#
# PCOD9419179 Si02
#       5
#     8   8   8   8   8
#     4  11  24  41  65  96 129 167 203 255 323 388
#     4  10  22  39  63  95 128 163 210 264 312 379
#     4  10  22  39  63  93 127 163 212 258 313 387
#     4   9  19  38  61  90 121 161 208 253 315 373
#     4  10  23  41  63  91 126 169 213 261 318 373
#
# _framework density 20.760024999999999
#
# number of rings (size 3 to 8) (size 9 to 14) (size 15 to 20)
#    0.000    2.000    2.000    0.000    5.600   10.000 
#    0.000    0.000    0.000    1.800    0.000    0.000 
#    0.000    0.000    0.000    0.000    0.000    0.000 
#
# Total GULP energy -223097.159873 kJ/mol
# GULP energy per Si atom -5577.428997 kJ/mol
# Density = 2.071277 g / cm^3
# Si number density = 20.760025 Si / 1000 Ang^3
#
#
#
# Elastic Constant Matrix: (Units=GPa)
#
#
# Indices 1 2 3 4 5 6 
#
# 1 91.1040 20.6926 10.6306 0.0000 0.0000 0.0000
# 2 20.6926 126.0333 16.5029 0.0000 0.0000 0.0000
# 3 10.6306 16.5029 45.4455 0.0000 0.0000 0.0000
# 4 0.0000 0.0000 0.0000 23.6823 0.0000 0.0000
# 5 0.0000 0.0000 0.0000 0.0000 -6.3652 0.0000
# 6 0.0000 0.0000 0.0000 0.0000 0.0000 8.9679
#
#
#
# Elastic Compliance Matrix: (Units=1/GPa)
#
#
# Indices 1 2 3 4 5 6 
#
# 1 0.011593 -0.001626 -0.002122 0.000000 0.000000 0.000000
# 2 -0.001626 0.008558 -0.002728 0.000000 0.000000 0.000000
# 3 -0.002122 -0.002728 0.023491 0.000000 0.000000 0.000000
# 4 0.000000 0.000000 0.000000 0.042226 0.000000 0.000000
# 5 0.000000 0.000000 0.000000 0.000000 -0.157104 0.000000
# 6 0.000000 0.000000 0.000000 0.000000 0.000000 0.111508
#
#
# Mechanical properties :
#
#
# Convention : Reuss Voigt Hill
#
# Bulk Modulus (GPa) = 32.58044 39.80387 36.19216
# Shear Modulus (GPa) = 78.79810 19.57413 49.18612
#
# Velocity S-wave (km/s) = 6.16758 3.07396 4.87280
# Velocity P-wave (km/s) = 8.15148 5.64038 7.00930
#
# Compressibility (1/GPa) = 0.03069326
#
# Stress axis : x y z
#
# Youngs Moduli (GPa) = 86.25703 116.84335 42.56919
#
# Poissons Ratio (x) = 0.18994 0.09031
# Poissons Ratio (y) = 0.14022 0.11611
# Poissons Ratio (z) = 0.18300 0.31870
#
# Static dielectric constant tensor:
#      x y z
#    x 1.734840 0.000000 0.000000 
#    y 0.000000 1.772020 0.000000 
#    z 0.000000 0.000000 1.765500 
# 
# From -- ./inp_files/12264.got.cif
#   From: 2010.05.17/outbox.cif.g08.bks.cpg/sg53_7_cif.got.tgz:12264.got - 2010.06.03 12:45:16.
