data_PCOD9419753
_publ_section_title
;
Structure prediction by ZEFSAII (Michael W. Deem and Ramdas Pophale) SiO2 
 PCOD9419753
Probable space group: P M N A
;
_chemical_formula_sum "Si O2"
_cell_formula_units_Z 24
_cell_length_a 12.165962
_cell_length_b 10.028914
_cell_length_c 9.397585
_cell_angle_alpha 90.000000
_cell_angle_beta 90.000000
_cell_angle_gamma 90.000000
_cell_volume 1146.612377
_symmetry_space_group_name_H-M "P M N A"
_symmetry_group_IT_number 53
_symmetry_cell_setting 'orthorhombic'
loop_
_space_group_symop_operation_xyz
x,y,z
1/2-x,-y,1/2+z
x,-y,-z
1/2-x,y,1/2-z
-x,-y,-z
1/2+x,y,1/2-z
-x,y,z
1/2+x,-y,1/2+z
loop_
_atom_site_type_symbol
_atom_site_label
_atom_site_fract_x
_atom_site_fract_y
_atom_site_fract_z
Si Si1 0.500000 0.277602 0.479637
Si Si2 0.195860 0.593987 0.600443
Si Si3 0.500000 0.474357 0.741116
Si Si4 0.733862 0.864452 0.582772
O O1 0.500000 0.348140 0.635747
O O2 0.500000 0.394623 0.360441
O O3 0.611116 0.191980 0.453225
O O4 0.269323 0.500000 0.500000
O O5 0.250000 0.624355 0.750000
O O6 0.183897 0.742202 0.539955
O O7 0.100922 0.493432 0.650142
O O8 0.750000 0.893462 0.750000
O O9 0.753771 0.000000 0.500000
#
# Coordination Sequence:
#
# PCOD9419753 Si02
#       4
#     4   8   4   8
#     4  11  21  42  66  91 121 171 208 254 314 377
#     4  11  22  39  63  94 127 159 207 264 314 368
#     4  11  21  38  68  95 119 159 212 258 318 371
#     4  11  24  41  62  90 126 166 211 252 309 374
#
# _framework density 20.931224
#
# number of rings (size 3 to 8) (size 9 to 14) (size 15 to 20)
#    0.000    1.000    6.667    3.000    0.000    4.000 
#    0.000    3.333    0.000    0.000    0.000    0.000 
#    0.000    0.000    0.000    0.000    0.000    0.000 
#
# Total GULP energy -133631.668845 kJ/mol
# GULP energy per Si atom -5567.986202 kJ/mol
# Density = 2.088358 g / cm^3
# Si number density = 20.931224 Si / 1000 Ang^3
#
#
#
# Elastic Constant Matrix: (Units=GPa)
#
#
# Indices 1 2 3 4 5 6 
#
# 1 68.8331 21.4879 17.2656 0.0000 0.0000 0.0000
# 2 21.4879 185.7083 95.1751 0.0000 0.0000 0.0000
# 3 17.2656 95.1751 112.3891 0.0000 0.0000 0.0000
# 4 0.0000 0.0000 0.0000 45.7180 0.0000 0.0000
# 5 0.0000 0.0000 0.0000 0.0000 14.8693 0.0000
# 6 0.0000 0.0000 0.0000 0.0000 0.0000 2.6635
#
#
#
# Elastic Compliance Matrix: (Units=1/GPa)
#
#
# Indices 1 2 3 4 5 6 
#
# 1 0.015213 -0.000994 -0.001495 0.000000 0.000000 0.000000
# 2 -0.000994 0.009579 -0.007959 0.000000 0.000000 0.000000
# 3 -0.001495 -0.007959 0.015867 0.000000 0.000000 0.000000
# 4 0.000000 0.000000 0.000000 0.021873 0.000000 0.000000
# 5 0.000000 0.000000 0.000000 0.000000 0.067252 0.000000
# 6 0.000000 0.000000 0.000000 0.000000 0.000000 0.375442
#
#
# Mechanical properties :
#
#
# Convention : Reuss Voigt Hill
#
# Bulk Modulus (GPa) = 50.60022 70.53195 60.56609
# Shear Modulus (GPa) = 9.38595 28.18365 18.78480
#
# Velocity S-wave (km/s) = 2.11989 3.67343 2.99900
# Velocity P-wave (km/s) = 5.49717 7.19460 6.40239
#
# Compressibility (1/GPa) = 0.01976276
#
# Stress axis : x y z
#
# Youngs Moduli (GPa) = 65.73214 104.39821 63.02277
#
# Poissons Ratio (x) = 0.10376 0.09425
# Poissons Ratio (y) = 0.06533 0.50159
# Poissons Ratio (z) = 0.09830 0.83090
#
# Static dielectric constant tensor:
#      x y z
#    x 1.889430 0.000000 0.000000 
#    y 0.000000 1.802390 0.000000 
#    z 0.000000 0.000000 1.826340 
# 
# From -- ./inp_files/7151.got.cif
#   From: 2010.05.17/outbox.cif.g08.bks.cpg/sg53_4_cif.got.tgz:7151.got - 2010.06.03 12:45:16.
