data_PCOD9419820
_publ_section_title
;
Structure prediction by ZEFSAII (Michael W. Deem and Ramdas Pophale) SiO2 
 PCOD9419820
Probable space group: P M N A
;
_chemical_formula_sum "Si O2"
_cell_formula_units_Z 64
_cell_length_a 17.911031
_cell_length_b 14.586809
_cell_length_c 11.964702
_cell_angle_alpha 90.000000
_cell_angle_beta 90.000000
_cell_angle_gamma 90.000000
_cell_volume 3125.955334
_symmetry_space_group_name_H-M "P M N A"
_symmetry_group_IT_number 53
_symmetry_cell_setting 'orthorhombic'
loop_
_space_group_symop_operation_xyz
x,y,z
1/2-x,-y,1/2+z
x,-y,-z
1/2-x,y,1/2-z
-x,-y,-z
1/2+x,y,1/2-z
-x,y,z
1/2+x,-y,1/2+z
loop_
_atom_site_type_symbol
_atom_site_label
_atom_site_fract_x
_atom_site_fract_y
_atom_site_fract_z
Si Si1 0.822559 0.522260 0.323477
Si Si2 0.912766 0.144352 0.743802
Si Si3 0.814983 0.320069 0.343498
Si Si4 0.637199 0.721681 0.419017
Si Si5 0.911459 0.239467 0.159891
Si Si6 0.812377 0.277536 0.591328
Si Si7 0.585051 0.524465 0.381847
Si Si8 0.090523 0.972199 0.874614
O O1 0.750000 0.542855 0.250000
O O2 0.808241 0.426381 0.385572
O O3 0.841507 0.618967 0.380075
O O4 0.881428 0.488340 0.231330
O O5 0.905440 0.193518 0.864823
O O6 0.860917 0.203285 0.659925
O O7 0.000000 0.145051 0.708753
O O8 0.886359 0.042121 0.775984
O O9 0.750000 0.307331 0.250000
O O10 0.886691 0.287738 0.273429
O O11 0.814169 0.263248 0.457898
O O12 0.628882 0.717326 0.552011
O O13 0.723578 0.724934 0.382718
O O14 0.596049 0.632712 0.372154
O O15 0.890299 0.132055 0.155660
O O16 0.000000 0.247741 0.142554
O O17 0.623206 0.500000 0.500000
O O18 0.500000 0.494779 0.388508
O O19 0.000000 0.978312 0.878043
O O20 0.117246 0.000000 0.000000
#
# Coordination Sequence:
#
# PCOD9419820 Si02
#       8
#     8   8   8   8   8   8   8   8
#     4  11  22  38  61  88 123 171 219 261 317 390
#     4  11  22  39  65  98 129 164 213 266 323 392
#     4  11  25  42  61  87 128 176 221 267 322 391
#     4  12  21  37  63  93 129 163 208 268 327 386
#     4  11  22  41  69  96 126 165 217 276 330 388
#     4  12  24  41  63  91 135 177 217 264 328 398
#     4  11  23  36  56  92 128 159 207 273 326 371
#     4   9  18  36  66  99 126 159 207 265 331 392
#
# _framework density 20.473739999999999
#
# number of rings (size 3 to 8) (size 9 to 14) (size 15 to 20)
#    0.000    1.000    5.000    2.625    1.750    2.000 
#    0.000    1.875    2.750    4.500    0.000    0.000 
#    0.000    0.000    0.000    0.000    0.000    0.000 
#
# Total GULP energy -356941.615888 kJ/mol
# GULP energy per Si atom -5577.212748 kJ/mol
# Density = 2.042714 g / cm^3
# Si number density = 20.473740 Si / 1000 Ang^3
#
#
#
# Elastic Constant Matrix: (Units=GPa)
#
#
# Indices 1 2 3 4 5 6 
#
# 1 54.5545 5.4999 25.6703 0.0000 0.0000 0.0000
# 2 5.4999 94.6012 25.7165 0.0000 0.0000 0.0000
# 3 25.6703 25.7165 99.9509 0.0000 0.0000 0.0000
# 4 0.0000 0.0000 0.0000 -2.6344 0.0000 0.0000
# 5 0.0000 0.0000 0.0000 0.0000 28.0522 0.0000
# 6 0.0000 0.0000 0.0000 0.0000 0.0000 6.4675
#
#
#
# Elastic Compliance Matrix: (Units=1/GPa)
#
#
# Indices 1 2 3 4 5 6 
#
# 1 0.020856 0.000262 -0.005424 0.000000 0.000000 0.000000
# 2 0.000262 0.011369 -0.002992 0.000000 0.000000 0.000000
# 3 -0.005424 -0.002992 0.012168 0.000000 0.000000 0.000000
# 4 0.000000 0.000000 0.000000 -0.379595 0.000000 0.000000
# 5 0.000000 0.000000 0.000000 0.000000 0.035648 0.000000
# 6 0.000000 0.000000 0.000000 0.000000 0.000000 0.154618
#
#
# Mechanical properties :
#
#
# Convention : Reuss Voigt Hill
#
# Bulk Modulus (GPa) = 35.60726 40.31999 37.96362
# Shear Modulus (GPa) = -41.92299 19.19174 -11.36563
#
# Velocity S-wave (km/s) = -4.53000 3.06499 -2.35868
# Velocity P-wave (km/s) = 3.15148 5.67995 3.34141
#
# Compressibility (1/GPa) = 0.02808416
#
# Stress axis : x y z
#
# Youngs Moduli (GPa) = 47.94778 87.95909 82.18395
#
# Poissons Ratio (x) = -0.02304 0.44575
# Poissons Ratio (y) = -0.01256 0.24593
# Poissons Ratio (z) = 0.26006 0.26321
#
# Static dielectric constant tensor:
#      x y z
#    x 1.961610 0.000000 0.000000 
#    y 0.000000 1.768260 0.000000 
#    z 0.000000 0.000000 2.288650 
# 
# From -- ./inp_files/17074.got.cif
#   From: 2010.05.17/outbox.cif.g08.bks.cpg/sg53_9_cif.got.tgz:17074.got - 2010.06.03 12:45:16.
