data_PCOD9419031
_publ_section_title
;
Structure prediction by ZEFSAII (Michael W. Deem and Ramdas Pophale) SiO2 
 PCOD9419031
Probable space group: P M N A
;
_chemical_formula_sum "Si O2"
_cell_formula_units_Z 24
_cell_length_a 13.875308
_cell_length_b 7.639128
_cell_length_c 9.467531
_cell_angle_alpha 90.000000
_cell_angle_beta 90.000000
_cell_angle_gamma 90.000000
_cell_volume 1003.513352
_symmetry_space_group_name_H-M "P M N A"
_symmetry_group_IT_number 53
_symmetry_cell_setting 'orthorhombic'
loop_
_space_group_symop_operation_xyz
x,y,z
1/2-x,-y,1/2+z
x,-y,-z
1/2-x,y,1/2-z
-x,-y,-z
1/2+x,y,1/2-z
-x,y,z
1/2+x,-y,1/2+z
loop_
_atom_site_type_symbol
_atom_site_label
_atom_site_fract_x
_atom_site_fract_y
_atom_site_fract_z
Si Si1 0.111207 0.811576 0.921950
Si Si2 0.225839 0.377689 0.607211
Si Si3 0.390855 0.963066 0.165826
O O1 0.000000 0.745403 0.922488
O O2 0.139209 0.873163 0.762953
O O3 0.185342 0.692323 0.010228
O O4 0.113100 0.000000 0.000000
O O5 0.167149 0.500000 0.500000
O O6 0.250000 0.481564 0.750000
O O7 0.168737 0.213909 0.671613
O O8 0.500000 0.926105 0.211465
O O9 0.388864 0.000000 0.000000
#
# Coordination Sequence:
#
# PCOD9419031 Si02
#       3
#     8   8   8
#     4  10  21  43  71  94 124 174 229 273 322 391
#     4  12  27  41  63 100 139 177 217 275 341 398
#     4  10  23  43  70  99 128 172 226 277 327 390
#
# _framework density 23.915976000000001
#
# number of rings (size 3 to 8) (size 9 to 14) (size 15 to 20)
#    0.000    1.333    3.333    1.000    4.667    1.333 
#    0.000    0.000    0.000    0.000    0.000    0.000 
#    0.000    0.000    0.000    0.000    0.000    0.000 
#
# Total GULP energy -133987.210825 kJ/mol
# GULP energy per Si atom -5582.800451 kJ/mol
# Density = 2.386154 g / cm^3
# Si number density = 23.915976 Si / 1000 Ang^3
#
#
#
# Elastic Constant Matrix: (Units=GPa)
#
#
# Indices 1 2 3 4 5 6 
#
# 1 101.4109 30.0562 37.2168 0.0000 0.0000 0.0000
# 2 30.0562 71.4698 42.9869 0.0000 0.0000 0.0000
# 3 37.2168 42.9869 190.3761 0.0000 0.0000 0.0000
# 4 0.0000 0.0000 0.0000 39.4621 0.0000 0.0000
# 5 0.0000 0.0000 0.0000 0.0000 18.3057 0.0000
# 6 0.0000 0.0000 0.0000 0.0000 0.0000 53.8700
#
#
#
# Elastic Compliance Matrix: (Units=1/GPa)
#
#
# Indices 1 2 3 4 5 6 
#
# 1 0.011555 -0.004051 -0.001344 0.000000 0.000000 0.000000
# 2 -0.004051 0.017611 -0.003185 0.000000 0.000000 0.000000
# 3 -0.001344 -0.003185 0.006235 0.000000 0.000000 0.000000
# 4 0.000000 0.000000 0.000000 0.025341 0.000000 0.000000
# 5 0.000000 0.000000 0.000000 0.000000 0.054628 0.000000
# 6 0.000000 0.000000 0.000000 0.000000 0.000000 0.018563
#
#
# Mechanical properties :
#
#
# Convention : Reuss Voigt Hill
#
# Bulk Modulus (GPa) = 54.82140 64.86408 59.84274
# Shear Modulus (GPa) = 31.81235 39.19401 35.50318
#
# Velocity S-wave (km/s) = 3.65111 4.05263 3.85710
# Velocity P-wave (km/s) = 6.38329 7.00563 6.70169
#
# Compressibility (1/GPa) = 0.01824105
#
# Stress axis : x y z
#
# Youngs Moduli (GPa) = 86.54452 56.78290 160.39445
#
# Poissons Ratio (x) = 0.23002 0.21560
# Poissons Ratio (y) = 0.35057 0.51080
# Poissons Ratio (z) = 0.11633 0.18083
#
# Static dielectric constant tensor:
#      x y z
#    x 1.987600 0.000000 0.000000 
#    y 0.000000 1.980540 0.000000 
#    z 0.000000 0.000000 2.157160 
# 
# From -- ./inp_files/7767.got.cif
#   From: 2010.05.17/outbox.cif.g08.bks.cpg/sg53_4_cif.got.tgz:7767.got - 2010.06.03 12:45:16.
