data_PCOD9419047
_publ_section_title
;
Structure prediction by ZEFSAII (Michael W. Deem and Ramdas Pophale) SiO2 
 PCOD9419047
Probable space group: P M N A
;
_chemical_formula_sum "Si O2"
_cell_formula_units_Z 32
_cell_length_a 16.064697
_cell_length_b 17.042552
_cell_length_c 5.495803
_cell_angle_alpha 90.000000
_cell_angle_beta 90.000000
_cell_angle_gamma 90.000000
_cell_volume 1504.659818
_symmetry_space_group_name_H-M "P M N A"
_symmetry_group_IT_number 53
_symmetry_cell_setting 'orthorhombic'
loop_
_space_group_symop_operation_xyz
x,y,z
1/2-x,-y,1/2+z
x,-y,-z
1/2-x,y,1/2-z
-x,-y,-z
1/2+x,y,1/2-z
-x,y,z
1/2+x,-y,1/2+z
loop_
_atom_site_type_symbol
_atom_site_label
_atom_site_fract_x
_atom_site_fract_y
_atom_site_fract_z
Si Si1 0.331579 0.652300 0.003117
Si Si2 0.146885 0.409433 0.001489
Si Si3 0.500000 0.948947 0.753315
Si Si4 0.669871 0.090369 0.412940
Si Si5 0.750000 0.794955 0.250000
O O1 0.376744 0.635929 0.749263
O O2 0.380210 0.630396 0.248826
O O3 0.248296 0.597738 0.999960
O O4 0.291772 0.737787 0.050068
O O5 0.122340 0.500000 0.000000
O O6 0.584859 0.900638 0.734532
O O7 0.500000 0.000000 0.500000
O O8 0.500000 0.000000 0.000000
O O9 0.750000 0.104326 0.250000
O O10 0.679815 0.149454 0.636016
O O11 0.674797 0.000000 0.500000
#
# Coordination Sequence:
#
# PCOD9419047 Si02
#       5
#     8   8   4   8   4
#     4   9  17  25  38  64  98 132 181 216 278 343
#     4   9  14  24  39  59  92 140 178 212 268 340
#     4  10  24  42  62  88 116 148 204 273 310 359
#     4  11  22  38  61  84 116 156 211 252 310 369
#     4  10  22  32  50  82 110 158 190 248 304 372
#
# _framework density 21.267267
#
# number of rings (size 3 to 8) (size 9 to 14) (size 15 to 20)
#    0.000    2.500    1.250    4.500   10.500    0.000 
#    0.000    0.000    0.000    0.000    0.000    0.000 
#    0.000    0.000    0.000  146.250    0.000    0.125 
#
# Total GULP energy -178385.189119 kJ/mol
# GULP energy per Si atom -5574.537160 kJ/mol
# Density = 2.121886 g / cm^3
# Si number density = 21.267267 Si / 1000 Ang^3
#
#
#
# Elastic Constant Matrix: (Units=GPa)
#
#
# Indices 1 2 3 4 5 6 
#
# 1 90.9247 15.3344 27.3079 0.0000 0.0000 0.0000
# 2 15.3344 132.4964 53.6344 0.0000 0.0000 0.0000
# 3 27.3079 53.6344 192.7752 0.0000 0.0000 0.0000
# 4 0.0000 0.0000 0.0000 18.0026 0.0000 0.0000
# 5 0.0000 0.0000 0.0000 0.0000 13.2909 0.0000
# 6 0.0000 0.0000 0.0000 0.0000 0.0000 -5.1180
#
#
#
# Elastic Compliance Matrix: (Units=1/GPa)
#
#
# Indices 1 2 3 4 5 6 
#
# 1 0.011554 -0.000760 -0.001425 0.000000 0.000000 0.000000
# 2 -0.000760 0.008555 -0.002273 0.000000 0.000000 0.000000
# 3 -0.001425 -0.002273 0.006022 0.000000 0.000000 0.000000
# 4 0.000000 0.000000 0.000000 0.055548 0.000000 0.000000
# 5 0.000000 0.000000 0.000000 0.000000 0.075240 0.000000
# 6 0.000000 0.000000 0.000000 0.000000 0.000000 -0.195388
#
#
# Mechanical properties :
#
#
# Convention : Reuss Voigt Hill
#
# Bulk Modulus (GPa) = 58.08878 67.63887 62.86383
# Shear Modulus (GPa) = -209.95148 26.56306 -91.69421
#
# Velocity S-wave (km/s) = -9.94660 3.53797 -6.57334
# Velocity P-wave (km/s) = 10.22448 6.96871 5.29042
#
# Compressibility (1/GPa) = 0.01721503
#
# Stress axis : x y z
#
# Youngs Moduli (GPa) = 86.54729 116.88651 166.06984
#
# Poissons Ratio (x) = 0.08887 0.23669
# Poissons Ratio (y) = 0.06580 0.37741
# Poissons Ratio (z) = 0.12335 0.26563
#
# Static dielectric constant tensor:
#      x y z
#    x 1.765680 0.000000 0.000000 
#    y 0.000000 1.803230 0.000000 
#    z 0.000000 0.000000 1.869770 
# 
# From -- ./inp_files/2000.got.cif
#   From: 2010.05.17/outbox.cif.g08.bks.cpg/sg53_1_cif.got.tgz:2000.got - 2010.06.03 12:45:16.
