data_PCOD9419386
_publ_section_title
;
Structure prediction by ZEFSAII (Michael W. Deem and Ramdas Pophale) SiO2 
 PCOD9419386
Probable space group: P M N A
;
_chemical_formula_sum "Si O2"
_cell_formula_units_Z 64
_cell_length_a 23.448850
_cell_length_b 9.151945
_cell_length_c 14.771979
_cell_angle_alpha 90.000000
_cell_angle_beta 90.000000
_cell_angle_gamma 90.000000
_cell_volume 3170.104887
_symmetry_space_group_name_H-M "P M N A"
_symmetry_group_IT_number 53
_symmetry_cell_setting 'orthorhombic'
loop_
_space_group_symop_operation_xyz
x,y,z
1/2-x,-y,1/2+z
x,-y,-z
1/2-x,y,1/2-z
-x,-y,-z
1/2+x,y,1/2-z
-x,y,z
1/2+x,-y,1/2+z
loop_
_atom_site_type_symbol
_atom_site_label
_atom_site_fract_x
_atom_site_fract_y
_atom_site_fract_z
Si Si1 0.677796 0.968611 0.101945
Si Si2 0.636764 0.512265 0.106638
Si Si3 0.435250 0.206364 0.861411
Si Si4 0.314086 0.251032 0.229958
Si Si5 0.437611 0.148342 0.652776
Si Si6 0.868598 0.652411 0.048780
Si Si7 0.753169 0.312696 0.645176
Si Si8 0.649539 0.907144 0.582513
O O1 0.614760 0.894604 0.096920
O O2 0.721720 0.850607 0.141676
O O3 0.682190 0.114670 0.160829
O O4 0.694012 0.000000 0.000000
O O5 0.591317 0.630708 0.143096
O O6 0.647746 0.376407 0.177432
O O7 0.698832 0.587308 0.100750
O O8 0.619795 0.500000 0.000000
O O9 0.500000 0.204225 0.900550
O O10 0.439480 0.146449 0.760116
O O11 0.250000 0.308604 0.250000
O O12 0.326861 0.175548 0.328259
O O13 0.500000 0.121667 0.614305
O O14 0.414713 0.306997 0.623830
O O15 0.394006 0.025982 0.620555
O O16 0.806674 0.670679 0.094957
O O17 0.873203 0.500000 0.000000
O O18 0.877431 0.774899 0.972928
O O19 0.750000 0.352509 0.750000
O O20 0.680675 0.000000 0.500000
#
# Coordination Sequence:
#
# PCOD9419386 Si02
#       8
#     8   8   8   8   8   8   8   8
#     4  11  24  40  65  96 129 170 222 273 335 404
#     4  11  25  44  63  97 135 174 218 274 340 402
#     4  10  22  45  70  88 123 173 223 273 332 399
#     4  12  26  38  66  99 137 174 215 274 338 405
#     4  10  22  45  67  89 125 172 220 273 331 392
#     4  11  25  38  66  96 128 169 217 269 324 402
#     4  11  24  41  64  89 134 176 212 263 331 401
#     4  10  25  42  62  95 131 171 217 268 326 399
#
# _framework density 20.188607000000001
#
# number of rings (size 3 to 8) (size 9 to 14) (size 15 to 20)
#    0.000    1.250    1.250    4.125   14.000    3.000 
#    0.000    1.250    0.000    0.000    0.000    0.000 
#    0.000    0.000    0.000    0.000    0.000    0.000 
#
# Total GULP energy -356530.931454 kJ/mol
# GULP energy per Si atom -5570.795804 kJ/mol
# Density = 2.014266 g / cm^3
# Si number density = 20.188607 Si / 1000 Ang^3
#
#
#
# Elastic Constant Matrix: (Units=GPa)
#
#
# Indices 1 2 3 4 5 6 
#
# 1 93.9638 20.8723 20.1153 0.0000 0.0000 0.0000
# 2 20.8723 107.2379 18.8825 0.0000 0.0000 0.0000
# 3 20.1153 18.8825 80.8582 0.0000 0.0000 0.0000
# 4 0.0000 0.0000 0.0000 25.6774 0.0000 0.0000
# 5 0.0000 0.0000 0.0000 0.0000 21.7376 0.0000
# 6 0.0000 0.0000 0.0000 0.0000 0.0000 347.2289
#
#
#
# Elastic Compliance Matrix: (Units=1/GPa)
#
#
# Indices 1 2 3 4 5 6 
#
# 1 0.011572 -0.001820 -0.002454 0.000000 0.000000 0.000000
# 2 -0.001820 0.010011 -0.001885 0.000000 0.000000 0.000000
# 3 -0.002454 -0.001885 0.013418 0.000000 0.000000 0.000000
# 4 0.000000 0.000000 0.000000 0.038945 0.000000 0.000000
# 5 0.000000 0.000000 0.000000 0.000000 0.046003 0.000000
# 6 0.000000 0.000000 0.000000 0.000000 0.000000 0.002880
#
#
# Mechanical properties :
#
#
# Convention : Reuss Voigt Hill
#
# Bulk Modulus (GPa) = 44.08559 44.64445 44.36502
# Shear Modulus (GPa) = 35.03649 93.74143 64.38896
#
# Velocity S-wave (km/s) = 4.17040 6.82156 5.65358
# Velocity P-wave (km/s) = 6.71371 9.17641 8.03992
#
# Compressibility (1/GPa) = 0.02268315
#
# Stress axis : x y z
#
# Youngs Moduli (GPa) = 86.41534 99.88739 74.52699
#
# Poissons Ratio (x) = 0.18182 0.18287
# Poissons Ratio (y) = 0.15730 0.14049
# Poissons Ratio (z) = 0.21204 0.18829
#
# Static dielectric constant tensor:
#      x y z
#    x 1.839640 0.000000 0.000000 
#    y 0.000000 1.735170 0.000000 
#    z 0.000000 0.000000 1.710280 
# 
# From -- ./inp_files/24709.got.cif
#   From: 2010.05.17/outbox.cif.g08.bks.cpg/sg53_13_cif.got.tgz:24709.got - 2010.06.03 12:45:16.
