data_PCOD9419854
_publ_section_title
;
Structure prediction by ZEFSAII (Michael W. Deem and Ramdas Pophale) SiO2 
 PCOD9419854
Probable space group: P M N A
;
_chemical_formula_sum "Si O2"
_cell_formula_units_Z 52
_cell_length_a 21.161777
_cell_length_b 8.311536
_cell_length_c 14.064317
_cell_angle_alpha 90.000000
_cell_angle_beta 90.000000
_cell_angle_gamma 90.000000
_cell_volume 2473.728715
_symmetry_space_group_name_H-M "P M N A"
_symmetry_group_IT_number 53
_symmetry_cell_setting 'orthorhombic'
loop_
_space_group_symop_operation_xyz
x,y,z
1/2-x,-y,1/2+z
x,-y,-z
1/2-x,y,1/2-z
-x,-y,-z
1/2+x,y,1/2-z
-x,y,z
1/2+x,-y,1/2+z
loop_
_atom_site_type_symbol
_atom_site_label
_atom_site_fract_x
_atom_site_fract_y
_atom_site_fract_z
Si Si1 0.171255 0.307015 0.993603
Si Si2 0.693206 0.815751 0.963518
Si Si3 0.618823 0.500000 0.000000
Si Si4 0.317376 0.705747 0.271481
Si Si5 0.068425 0.488764 0.292480
Si Si6 0.927589 0.195119 0.142581
Si Si7 0.822607 0.939527 0.730139
O O1 0.176373 0.259021 0.883357
O O2 0.176371 0.500000 0.000000
O O3 0.232570 0.227385 0.042390
O O4 0.106950 0.255301 0.046582
O O5 0.661164 0.661931 0.014654
O O6 0.661037 0.831897 0.860354
O O7 0.687910 0.000000 0.000000
O O8 0.578843 0.534385 0.905101
O O9 0.250000 0.624519 0.250000
O O10 0.374439 0.596317 0.242037
O O11 0.318152 0.870157 0.211617
O O12 0.068888 0.336709 0.221564
O O13 0.000000 0.568663 0.279622
O O14 0.875893 0.077905 0.189916
O O15 0.000000 0.138513 0.127462
O O16 0.750000 0.892201 0.750000
#
# Coordination Sequence:
#
# PCOD9419854 Si02
#       7
#     8   8   4   8   8   8   8
#     4  12  24  42  68 101 137 181 230 291 354 424
#     4  12  24  40  68 106 139 175 234 296 360 414
#     4  12  23  42  72 102 135 184 240 296 363 422
#     4  11  25  43  69 102 135 176 231 290 352 418
#     4  11  24  43  66  95 137 181 232 290 355 427
#     4  11  25  43  66  98 137 184 231 283 350 429
#     4  11  22  43  67  93 138 181 222 292 351 412
#
# _framework density 21.020900000000001
#
# number of rings (size 3 to 8) (size 9 to 14) (size 15 to 20)
#    0.000    0.615    5.385    3.923    0.000    2.154 
#    0.000    0.769    0.000    2.308    0.000    0.000 
#    0.000    0.000    0.000    0.000    0.000    0.000 
#
# Total GULP energy -290192.739346 kJ/mol
# GULP energy per Si atom -5580.629603 kJ/mol
# Density = 2.097306 g / cm^3
# Si number density = 21.020900 Si / 1000 Ang^3
#
#
#
# Elastic Constant Matrix: (Units=GPa)
#
#
# Indices 1 2 3 4 5 6 
#
# 1 173.4718 34.4834 41.7256 0.0000 0.0000 0.0000
# 2 34.4834 71.5340 4.4839 0.0000 0.0000 0.0000
# 3 41.7256 4.4839 68.7550 0.0000 0.0000 0.0000
# 4 0.0000 0.0000 0.0000 26.8173 0.0000 0.0000
# 5 0.0000 0.0000 0.0000 0.0000 1.3209 0.0000
# 6 0.0000 0.0000 0.0000 0.0000 0.0000 17.0901
#
#
#
# Elastic Compliance Matrix: (Units=1/GPa)
#
#
# Indices 1 2 3 4 5 6 
#
# 1 0.007463 -0.003327 -0.004312 0.000000 0.000000 0.000000
# 2 -0.003327 0.015520 0.001007 0.000000 0.000000 0.000000
# 3 -0.004312 0.001007 0.017096 0.000000 0.000000 0.000000
# 4 0.000000 0.000000 0.000000 0.037289 0.000000 0.000000
# 5 0.000000 0.000000 0.000000 0.000000 0.757083 0.000000
# 6 0.000000 0.000000 0.000000 0.000000 0.000000 0.058513
#
#
# Mechanical properties :
#
#
# Convention : Reuss Voigt Hill
#
# Bulk Modulus (GPa) = 37.29371 52.79407 45.04389
# Shear Modulus (GPa) = 5.46348 24.58352 15.02350
#
# Velocity S-wave (km/s) = 1.61391 3.42348 2.67628
# Velocity P-wave (km/s) = 4.61007 6.38721 5.56997
#
# Compressibility (1/GPa) = 0.02681417
#
# Stress axis : x y z
#
# Youngs Moduli (GPa) = 133.98891 64.43202 58.49416
#
# Poissons Ratio (x) = 0.21439 0.25224
# Poissons Ratio (y) = 0.44584 -0.05891
# Poissons Ratio (z) = 0.57780 -0.06489
#
# Static dielectric constant tensor:
#      x y z
#    x 1.745060 0.000000 0.000000 
#    y 0.000000 1.746570 0.000000 
#    z 0.000000 0.000000 1.824810 
# 
# From -- ./inp_files/24265.got.cif
#   From: 2010.05.17/outbox.cif.g08.bks.cpg/sg53_13_cif.got.tgz:24265.got - 2010.06.03 12:45:16.
