data_PCOD9419825
_publ_section_title
;
Structure prediction by ZEFSAII (Michael W. Deem and Ramdas Pophale) SiO2 
 PCOD9419825
Probable space group: P M N A
;
_chemical_formula_sum "Si O2"
_cell_formula_units_Z 32
_cell_length_a 10.124361
_cell_length_b 12.763753
_cell_length_c 12.534985
_cell_angle_alpha 90.000000
_cell_angle_beta 90.000000
_cell_angle_gamma 90.000000
_cell_volume 1619.831470
_symmetry_space_group_name_H-M "P M N A"
_symmetry_group_IT_number 53
_symmetry_cell_setting 'orthorhombic'
loop_
_space_group_symop_operation_xyz
x,y,z
1/2-x,-y,1/2+z
x,-y,-z
1/2-x,y,1/2-z
-x,-y,-z
1/2+x,y,1/2-z
-x,y,z
1/2+x,-y,1/2+z
loop_
_atom_site_type_symbol
_atom_site_label
_atom_site_fract_x
_atom_site_fract_y
_atom_site_fract_z
Si Si1 0.000000 0.914783 0.755795
Si Si2 0.750000 0.408545 0.750000
Si Si3 0.753771 0.769250 0.417166
Si Si4 0.000000 0.126492 0.020122
Si Si5 0.250000 0.939410 0.250000
Si Si6 0.500000 0.481711 0.132686
Si Si7 0.000000 0.747598 0.572909
O O1 0.000000 0.839877 0.856808
O O2 0.000000 0.851796 0.645559
O O3 0.128221 0.985818 0.773899
O O4 0.790964 0.329503 0.845864
O O5 0.871110 0.471571 0.694431
O O6 0.628799 0.822779 0.470336
O O7 0.804281 0.860899 0.339370
O O8 0.870045 0.743186 0.498909
O O9 0.000000 0.000000 0.000000
O O10 0.500000 0.356687 0.143496
O O11 0.500000 0.500000 0.000000
#
# Coordination Sequence:
#
# PCOD9419825 Si02
#       7
#     4   4   8   4   4   4   4
#     4  12  25  38  59  94 136 184 220 290 346 413
#     4  11  24  47  80  98 140 187 238 303 372 442
#     4  11  23  42  69  99 132 187 238 287 348 440
#     4  12  23  41  61  95 139 185 230 283 340 429
#     4  11  22  39  62  94 132 179 238 265 348 426
#     4  12  25  51  74 111 141 183 244 317 373 429
#     4  12  27  44  69 103 146 180 243 305 361 418
#
# _framework density 19.755140000000001
#
# number of rings (size 3 to 8) (size 9 to 14) (size 15 to 20)
#    0.000    0.500    5.000    3.000    0.000    8.000 
#    0.000    0.625    0.000    0.000    0.000    0.000 
#    0.000    0.000    0.000    0.000    0.000    0.000 
#
# Total GULP energy -178508.182329 kJ/mol
# GULP energy per Si atom -5578.380698 kJ/mol
# Density = 1.971018 g / cm^3
# Si number density = 19.755140 Si / 1000 Ang^3
#
#
#
# Elastic Constant Matrix: (Units=GPa)
#
#
# Indices 1 2 3 4 5 6 
#
# 1 131.8157 59.2585 43.0437 0.0000 0.0000 0.0000
# 2 59.2585 111.5305 46.5101 0.0000 0.0000 0.0000
# 3 43.0437 46.5101 105.3052 0.0000 0.0000 0.0000
# 4 0.0000 0.0000 0.0000 27.7466 0.0000 0.0000
# 5 0.0000 0.0000 0.0000 0.0000 39.6807 0.0000
# 6 0.0000 0.0000 0.0000 0.0000 0.0000 22.0962
#
#
#
# Elastic Compliance Matrix: (Units=1/GPa)
#
#
# Indices 1 2 3 4 5 6 
#
# 1 0.010371 -0.004588 -0.002213 0.000000 0.000000 0.000000
# 2 -0.004588 0.013020 -0.003875 0.000000 0.000000 0.000000
# 3 -0.002213 -0.003875 0.012112 0.000000 0.000000 0.000000
# 4 0.000000 0.000000 0.000000 0.036041 0.000000 0.000000
# 5 0.000000 0.000000 0.000000 0.000000 0.025201 0.000000
# 6 0.000000 0.000000 0.000000 0.000000 0.000000 0.045257
#
#
# Mechanical properties :
#
#
# Convention : Reuss Voigt Hill
#
# Bulk Modulus (GPa) = 70.66346 71.80844 71.23595
# Shear Modulus (GPa) = 29.74935 31.22731 30.48833
#
# Velocity S-wave (km/s) = 3.88481 3.98014 3.93276
# Velocity P-wave (km/s) = 7.48129 7.58618 7.53392
#
# Compressibility (1/GPa) = 0.01415159
#
# Stress axis : x y z
#
# Youngs Moduli (GPa) = 96.41860 76.80670 82.56016
#
# Poissons Ratio (x) = 0.35236 0.18271
# Poissons Ratio (y) = 0.44234 0.31994
# Poissons Ratio (z) = 0.21339 0.29764
#
# Static dielectric constant tensor:
#      x y z
#    x 1.677970 0.000000 0.000000 
#    y 0.000000 1.715530 0.000000 
#    z 0.000000 0.000000 1.838760 
# 
# From -- ./inp_files/19691.got.cif
#   From: 2010.05.17/outbox.cif.g08.bks.cpg/sg53_10_cif.got.tgz:19691.got - 2010.06.03 12:45:16.
