data_PCOD9419751
_publ_section_title
;
Structure prediction by ZEFSAII (Michael W. Deem and Ramdas Pophale) SiO2 
 PCOD9419751
Probable space group: P M N A
;
_chemical_formula_sum "Si O2"
_cell_formula_units_Z 40
_cell_length_a 21.343550
_cell_length_b 8.321946
_cell_length_c 11.177999
_cell_angle_alpha 90.000000
_cell_angle_beta 90.000000
_cell_angle_gamma 90.000000
_cell_volume 1985.434735
_symmetry_space_group_name_H-M "P M N A"
_symmetry_group_IT_number 53
_symmetry_cell_setting 'orthorhombic'
loop_
_space_group_symop_operation_xyz
x,y,z
1/2-x,-y,1/2+z
x,-y,-z
1/2-x,y,1/2-z
-x,-y,-z
1/2+x,y,1/2-z
-x,y,z
1/2+x,-y,1/2+z
loop_
_atom_site_type_symbol
_atom_site_label
_atom_site_fract_x
_atom_site_fract_y
_atom_site_fract_z
Si Si1 0.309987 0.500000 0.500000
Si Si2 0.500000 0.370905 0.168316
Si Si3 0.750000 0.954580 0.250000
Si Si4 0.363629 0.778842 0.140900
Si Si5 0.000000 0.249449 0.596813
Si Si6 0.780874 0.774868 0.581646
Si Si7 0.866520 0.431007 0.253194
O O1 0.265299 0.344365 0.488940
O O2 0.350349 0.490619 0.379490
O O3 0.500000 0.562245 0.136301
O O4 0.565378 0.349739 0.237393
O O5 0.500000 0.266129 0.047207
O O6 0.813452 0.853788 0.267775
O O7 0.752433 0.069134 0.134269
O O8 0.436137 0.829230 0.144784
O O9 0.364102 0.587398 0.162076
O O10 0.336591 0.812400 0.009794
O O11 0.813718 0.685465 0.693517
#
# Coordination Sequence:
#
# PCOD9419751 Si02
#       7
#     4   4   4   8   4   8   8
#     4  12  22  35  62  87 126 164 210 260 326 376
#     4   9  18  35  63  97 120 154 219 275 306 371
#     4  12  26  38  56  94 138 162 206 256 332 394
#     4  11  22  40  64  94 127 169 204 269 325 378
#     4   9  18  36  66  94 123 163 215 265 320 370
#     4  12  22  39  62  91 121 164 218 268 313 378
#     4  11  21  38  64  91 124 164 216 264 318 377
#
# _framework density 20.146722
#
# number of rings (size 3 to 8) (size 9 to 14) (size 15 to 20)
#    0.000    1.000    6.000    1.800    0.000    0.400 
#    0.000    3.000    0.000    0.000    0.000    7.000 
#    0.000    0.000    0.000    0.000    0.000    0.000 
#
# Total GULP energy -223415.130787 kJ/mol
# GULP energy per Si atom -5585.378270 kJ/mol
# Density = 2.010087 g / cm^3
# Si number density = 20.146722 Si / 1000 Ang^3
#
#
#
# Elastic Constant Matrix: (Units=GPa)
#
#
# Indices 1 2 3 4 5 6 
#
# 1 188.3097 35.1346 46.3132 0.0000 0.0000 0.0000
# 2 35.1346 43.6175 -2.4307 0.0000 0.0000 0.0000
# 3 46.3132 -2.4307 80.7423 0.0000 0.0000 0.0000
# 4 0.0000 0.0000 0.0000 32.6059 0.0000 0.0000
# 5 0.0000 0.0000 0.0000 0.0000 21.4757 0.0000
# 6 0.0000 0.0000 0.0000 0.0000 0.0000 4.9018
#
#
#
# Elastic Compliance Matrix: (Units=1/GPa)
#
#
# Indices 1 2 3 4 5 6 
#
# 1 0.007628 -0.006399 -0.004568 0.000000 0.000000 0.000000
# 2 -0.006399 0.028333 0.004523 0.000000 0.000000 0.000000
# 3 -0.004568 0.004523 0.015141 0.000000 0.000000 0.000000
# 4 0.000000 0.000000 0.000000 0.030669 0.000000 0.000000
# 5 0.000000 0.000000 0.000000 0.000000 0.046564 0.000000
# 6 0.000000 0.000000 0.000000 0.000000 0.000000 0.204007
#
#
# Mechanical properties :
#
#
# Convention : Reuss Voigt Hill
#
# Bulk Modulus (GPa) = 26.16755 52.30042 39.23398
# Shear Modulus (GPa) = 13.96776 27.37351 20.67063
#
# Velocity S-wave (km/s) = 2.63592 3.69006 3.20661
# Velocity P-wave (km/s) = 4.72025 6.64617 5.76421
#
# Compressibility (1/GPa) = 0.03821527
#
# Stress axis : x y z
#
# Youngs Moduli (GPa) = 131.10105 35.29459 66.04435
#
# Poissons Ratio (x) = 0.22584 0.30168
# Poissons Ratio (y) = 0.83889 -0.29874
# Poissons Ratio (z) = 0.59885 -0.15965
#
# Static dielectric constant tensor:
#      x y z
#    x 1.747090 0.000000 0.000000 
#    y 0.000000 1.761240 0.000000 
#    z 0.000000 0.000000 1.720160 
# 
# From -- ./inp_files/17703.got.cif
#   From: 2010.05.17/outbox.cif.g08.bks.cpg/sg53_9_cif.got.tgz:17703.got - 2010.06.03 12:45:16.
