data_PCOD9419674
_publ_section_title
;
Structure prediction by ZEFSAII (Michael W. Deem and Ramdas Pophale) SiO2 
 PCOD9419674
Probable space group: P M N A
;
_chemical_formula_sum "Si O2"
_cell_formula_units_Z 32
_cell_length_a 15.273513
_cell_length_b 9.835114
_cell_length_c 10.177650
_cell_angle_alpha 90.000000
_cell_angle_beta 90.000000
_cell_angle_gamma 90.000000
_cell_volume 1528.853419
_symmetry_space_group_name_H-M "P M N A"
_symmetry_group_IT_number 53
_symmetry_cell_setting 'orthorhombic'
loop_
_space_group_symop_operation_xyz
x,y,z
1/2-x,-y,1/2+z
x,-y,-z
1/2-x,y,1/2-z
-x,-y,-z
1/2+x,y,1/2-z
-x,y,z
1/2+x,-y,1/2+z
loop_
_atom_site_type_symbol
_atom_site_label
_atom_site_fract_x
_atom_site_fract_y
_atom_site_fract_z
Si Si1 0.397737 0.924396 0.211639
Si Si2 0.152369 0.814036 0.572505
Si Si3 0.500000 0.606175 0.881434
Si Si4 0.348666 0.162929 0.517825
Si Si5 0.000000 0.637253 0.918232
O O1 0.500000 0.935694 0.246441
O O2 0.352249 0.833577 0.322798
O O3 0.358739 0.074676 0.188419
O O4 0.387983 0.864852 0.066032
O O5 0.090443 0.689634 0.605203
O O6 0.254311 0.799979 0.540715
O O7 0.500000 0.575821 0.727877
O O8 0.500000 0.500000 0.000000
O O9 0.418689 0.263785 0.454017
O O10 0.366075 0.000000 0.500000
O O11 0.000000 0.500000 0.000000
#
# Coordination Sequence:
#
# PCOD9419674 Si02
#       5
#     8   8   4   8   4
#     4  11  20  40  71 106 143 179 228 300 366 416
#     4  11  23  42  69 112 143 179 236 303 360 431
#     4  12  28  48  73  98 143 204 244 285 357 444
#     4  12  25  43  75 107 144 188 236 304 371 430
#     4  12  31  51  69 101 148 194 244 299 362 436
#
# _framework density 20.930717000000001
#
# number of rings (size 3 to 8) (size 9 to 14) (size 15 to 20)
#    0.000    0.500    6.250    3.375    3.500    4.000 
#    0.000    0.000    0.000    0.000    0.000    0.000 
#    0.000    0.000    0.000    0.000    0.000    0.000 
#
# Total GULP energy -178690.743446 kJ/mol
# GULP energy per Si atom -5584.085733 kJ/mol
# Density = 2.088308 g / cm^3
# Si number density = 20.930717 Si / 1000 Ang^3
#
#
#
# Elastic Constant Matrix: (Units=GPa)
#
#
# Indices 1 2 3 4 5 6 
#
# 1 190.9758 55.2791 42.3062 0.0000 0.0000 0.0000
# 2 55.2791 83.4068 56.4411 0.0000 0.0000 0.0000
# 3 42.3062 56.4411 145.2311 0.0000 0.0000 0.0000
# 4 0.0000 0.0000 0.0000 32.3438 0.0000 0.0000
# 5 0.0000 0.0000 0.0000 0.0000 36.3423 0.0000
# 6 0.0000 0.0000 0.0000 0.0000 0.0000 220.3537
#
#
#
# Elastic Compliance Matrix: (Units=1/GPa)
#
#
# Indices 1 2 3 4 5 6 
#
# 1 0.006489 -0.004099 -0.000297 0.000000 0.000000 0.000000
# 2 -0.004099 0.018858 -0.006134 0.000000 0.000000 0.000000
# 3 -0.000297 -0.006134 0.009356 0.000000 0.000000 0.000000
# 4 0.000000 0.000000 0.000000 0.030918 0.000000 0.000000
# 5 0.000000 0.000000 0.000000 0.000000 0.027516 0.000000
# 6 0.000000 0.000000 0.000000 0.000000 0.000000 0.004538
#
#
# Mechanical properties :
#
#
# Convention : Reuss Voigt Hill
#
# Bulk Modulus (GPa) = 73.31079 80.85185 77.08132
# Shear Modulus (GPa) = 40.55705 75.51378 58.03541
#
# Velocity S-wave (km/s) = 4.40669 6.01301 5.27139
# Velocity P-wave (km/s) = 7.80982 9.32312 8.59982
#
# Compressibility (1/GPa) = 0.01364056
#
# Stress axis : x y z
#
# Youngs Moduli (GPa) = 154.11461 53.02913 106.88207
#
# Poissons Ratio (x) = 0.21739 0.03174
# Poissons Ratio (y) = 0.63179 0.65566
# Poissons Ratio (z) = 0.04577 0.32530
#
# Static dielectric constant tensor:
#      x y z
#    x 1.819060 0.000000 0.000000 
#    y 0.000000 1.754470 0.000000 
#    z 0.000000 0.000000 1.825510 
# 
# From -- ./inp_files/15532.got.cif
#   From: 2010.05.17/outbox.cif.g08.bks.cpg/sg53_8_cif.got.tgz:15532.got - 2010.06.03 12:45:16.
