data_PCOD9419236
_publ_section_title
;
Structure prediction by ZEFSAII (Michael W. Deem and Ramdas Pophale) SiO2 
 PCOD9419236
Probable space group: P M N A
;
_chemical_formula_sum "Si O2"
_cell_formula_units_Z 20
_cell_length_a 32.784494
_cell_length_b 5.250386
_cell_length_c 5.030685
_cell_angle_alpha 90.000000
_cell_angle_beta 90.000000
_cell_angle_gamma 90.000000
_cell_volume 865.938089
_symmetry_space_group_name_H-M "P M N A"
_symmetry_group_IT_number 53
_symmetry_cell_setting 'orthorhombic'
loop_
_space_group_symop_operation_xyz
x,y,z
1/2-x,-y,1/2+z
x,-y,-z
1/2-x,y,1/2-z
-x,-y,-z
1/2+x,y,1/2-z
-x,y,z
1/2+x,-y,1/2+z
loop_
_atom_site_type_symbol
_atom_site_label
_atom_site_fract_x
_atom_site_fract_y
_atom_site_fract_z
Si Si1 0.615704 0.000000 0.000000
Si Si2 0.955849 0.681695 0.250595
Si Si3 0.669942 0.000000 0.500000
Si Si4 0.778026 0.500000 0.000000
O O1 0.644756 0.905207 0.761275
O O2 0.583714 0.158597 0.819994
O O3 0.959451 0.500000 0.500000
O O4 0.000000 0.818805 0.224547
O O5 0.950075 0.500000 0.000000
O O6 0.695744 0.749663 0.422646
O O7 0.750000 0.428543 0.250000
#
# Coordination Sequence:
#
# PCOD9419236 Si02
#       4
#     4   8   4   4
#     4  12  25  41  66 104 147 178 239 306 360 417
#     4  10  22  40  64  93 136 195 245 291 352 418
#     4  12  28  43  77 110 139 186 229 296 369 429
#     4  12  26  52  76 104 141 182 231 284 358 458
#
# _framework density 23.096339
#
# number of rings (size 3 to 8) (size 9 to 14) (size 15 to 20)
#    0.000    0.800    0.000    6.600    8.400    0.000 
#    0.000    8.000    0.000    0.000    0.000    0.000 
#    0.000    0.000    0.000    0.000    0.000    0.000 
#
# Total GULP energy -111624.573744 kJ/mol
# GULP energy per Si atom -5581.228687 kJ/mol
# Density = 2.304377 g / cm^3
# Si number density = 23.096339 Si / 1000 Ang^3
#
#
#
# Elastic Constant Matrix: (Units=GPa)
#
#
# Indices 1 2 3 4 5 6 
#
# 1 102.0449 32.8036 31.8121 0.0000 0.0000 0.0000
# 2 32.8036 70.8996 7.3561 0.0000 0.0000 0.0000
# 3 31.8121 7.3561 178.9842 0.0000 0.0000 0.0000
# 4 0.0000 0.0000 0.0000 43.8061 0.0000 0.0000
# 5 0.0000 0.0000 0.0000 0.0000 45.0447 0.0000
# 6 0.0000 0.0000 0.0000 0.0000 0.0000 22.3588
#
#
#
# Elastic Compliance Matrix: (Units=1/GPa)
#
#
# Indices 1 2 3 4 5 6 
#
# 1 0.012145 -0.005418 -0.001936 0.000000 0.000000 0.000000
# 2 -0.005418 0.016582 0.000282 0.000000 0.000000 0.000000
# 3 -0.001936 0.000282 0.005920 0.000000 0.000000 0.000000
# 4 0.000000 0.000000 0.000000 0.022828 0.000000 0.000000
# 5 0.000000 0.000000 0.000000 0.000000 0.022200 0.000000
# 6 0.000000 0.000000 0.000000 0.000000 0.000000 0.044725
#
#
# Mechanical properties :
#
#
# Convention : Reuss Voigt Hill
#
# Bulk Modulus (GPa) = 48.77745 55.09692 51.93718
# Shear Modulus (GPa) = 34.39285 40.90571 37.64928
#
# Velocity S-wave (km/s) = 3.86308 4.21300 4.04183
# Velocity P-wave (km/s) = 6.40803 6.89731 6.65716
#
# Compressibility (1/GPa) = 0.02050128
#
# Stress axis : x y z
#
# Youngs Moduli (GPa) = 82.33904 60.30571 168.93038
#
# Poissons Ratio (x) = 0.32676 0.32703
# Poissons Ratio (y) = 0.44614 -0.04756
# Poissons Ratio (z) = 0.15940 -0.01698
#
# Static dielectric constant tensor:
#      x y z
#    x 2.007080 0.000000 0.000000 
#    y 0.000000 1.928330 0.000000 
#    z 0.000000 0.000000 1.815070 
# 
# From -- ./inp_files/3918.got.cif
#   From: 2010.05.17/outbox.cif.g08.bks.cpg/sg53_2_cif.got.tgz:3918.got - 2010.06.03 12:45:16.
