data_PCOD9419914
_publ_section_title
;
Structure prediction by ZEFSAII (Michael W. Deem and Ramdas Pophale) SiO2 
 PCOD9419914
Probable space group: P M N A
;
_chemical_formula_sum "Si O2"
_cell_formula_units_Z 58
_cell_length_a 28.478532
_cell_length_b 8.199914
_cell_length_c 11.461482
_cell_angle_alpha 90.000000
_cell_angle_beta 90.000000
_cell_angle_gamma 90.000000
_cell_volume 2676.502621
_symmetry_space_group_name_H-M "P M N A"
_symmetry_group_IT_number 53
_symmetry_cell_setting 'orthorhombic'
loop_
_space_group_symop_operation_xyz
x,y,z
1/2-x,-y,1/2+z
x,-y,-z
1/2-x,y,1/2-z
-x,-y,-z
1/2+x,y,1/2-z
-x,y,z
1/2+x,-y,1/2+z
loop_
_atom_site_type_symbol
_atom_site_label
_atom_site_fract_x
_atom_site_fract_y
_atom_site_fract_z
Si Si1 0.136636 0.037862 0.138660
Si Si2 0.272933 0.753122 0.590112
Si Si3 0.000000 0.000000 0.500000
Si Si4 0.642413 0.719099 0.201951
Si Si5 0.716114 0.385894 0.654916
Si Si6 0.574406 0.194711 0.177139
Si Si7 0.669436 0.819940 0.958132
Si Si8 0.051141 0.452504 0.634440
O O1 0.183341 0.151631 0.144346
O O2 0.090304 0.113574 0.200678
O O3 0.146555 0.884418 0.224212
O O4 0.129679 0.000000 0.000000
O O5 0.285768 0.732024 0.454257
O O6 0.266454 0.565867 0.627160
O O7 0.220902 0.826696 0.598490
O O8 0.041793 0.912311 0.587564
O O9 0.665806 0.588238 0.286594
O O10 0.589448 0.673345 0.176357
O O11 0.669313 0.717637 0.078265
O O12 0.750000 0.307938 0.750000
O O13 0.625375 0.232552 0.118325
O O14 0.552469 0.373131 0.197228
O O15 0.657155 0.000000 0.000000
O O16 0.059408 0.500000 0.500000
O O17 0.000000 0.373273 0.640732
#
# Coordination Sequence:
#
# PCOD9419914 Si02
#       8
#     8   8   2   8   8   8   8   8
#     4  12  26  48  69 103 145 205 242 294 362 451
#     4  11  26  42  64  97 149 189 248 289 357 443
#     4  12  24  52  80 112 142 182 236 322 382 444
#     4  12  24  44  69  99 145 180 245 298 362 437
#     4  11  24  40  64  97 135 199 237 299 354 428
#     4  12  25  45  76 107 146 178 240 299 376 437
#     4  12  24  41  68 107 135 184 232 305 361 418
#     4  11  25  43  74 109 139 176 225 306 387 438
#
# _framework density 21.670069999999999
#
# number of rings (size 3 to 8) (size 9 to 14) (size 15 to 20)
#    0.000    0.414    6.897    1.241    3.862    0.000 
#    2.483    0.345    0.000    0.828    0.000    0.000 
#    0.000    0.000    0.000    0.000    0.000    0.000 
#
# Total GULP energy -323388.876714 kJ/mol
# GULP energy per Si atom -5575.670288 kJ/mol
# Density = 2.162075 g / cm^3
# Si number density = 21.670070 Si / 1000 Ang^3
#
#
#
# Elastic Constant Matrix: (Units=GPa)
#
#
# Indices 1 2 3 4 5 6 
#
# 1 141.5540 19.4766 51.3444 0.0000 0.0000 0.0000
# 2 19.4766 36.2183 13.9417 0.0000 0.0000 0.0000
# 3 51.3444 13.9417 116.5332 0.0000 0.0000 0.0000
# 4 0.0000 0.0000 0.0000 15.0287 0.0000 0.0000
# 5 0.0000 0.0000 0.0000 0.0000 28.6637 0.0000
# 6 0.0000 0.0000 0.0000 0.0000 0.0000 24.5155
#
#
#
# Elastic Compliance Matrix: (Units=1/GPa)
#
#
# Indices 1 2 3 4 5 6 
#
# 1 0.008788 -0.003392 -0.003466 0.000000 0.000000 0.000000
# 2 -0.003392 0.030252 -0.002125 0.000000 0.000000 0.000000
# 3 -0.003466 -0.002125 0.010363 0.000000 0.000000 0.000000
# 4 0.000000 0.000000 0.000000 0.066539 0.000000 0.000000
# 5 0.000000 0.000000 0.000000 0.000000 0.034887 0.000000
# 6 0.000000 0.000000 0.000000 0.000000 0.000000 0.040790
#
#
# Mechanical properties :
#
#
# Convention : Reuss Voigt Hill
#
# Bulk Modulus (GPa) = 31.80925 51.53679 41.67302
# Shear Modulus (GPa) = 22.72049 27.61111 25.16580
#
# Velocity S-wave (km/s) = 3.24153 3.57341 3.41151
# Velocity P-wave (km/s) = 5.35917 6.39216 5.89833
#
# Compressibility (1/GPa) = 0.03143739
#
# Stress axis : x y z
#
# Youngs Moduli (GPa) = 113.78577 33.05541 96.49941
#
# Poissons Ratio (x) = 0.11211 0.33451
# Poissons Ratio (y) = 0.38593 0.20505
# Poissons Ratio (z) = 0.39443 0.07024
#
# Static dielectric constant tensor:
#      x y z
#    x 1.822440 0.000000 0.000000 
#    y 0.000000 1.849790 0.000000 
#    z 0.000000 0.000000 1.914860 
# 
# From -- ./inp_files/18789.got.cif
#   From: 2010.05.17/outbox.cif.g08.bks.cpg/sg53_10_cif.got.tgz:18789.got - 2010.06.03 12:45:16.
