data_PCOD9419228
_publ_section_title
;
Structure prediction by ZEFSAII (Michael W. Deem and Ramdas Pophale) SiO2 
 PCOD9419228
Probable space group: P M N A
;
_chemical_formula_sum "Si O2"
_cell_formula_units_Z 20
_cell_length_a 15.079102
_cell_length_b 5.087961
_cell_length_c 11.052002
_cell_angle_alpha 90.000000
_cell_angle_beta 90.000000
_cell_angle_gamma 90.000000
_cell_volume 847.930403
_symmetry_space_group_name_H-M "P M N A"
_symmetry_group_IT_number 53
_symmetry_cell_setting 'orthorhombic'
loop_
_space_group_symop_operation_xyz
x,y,z
1/2-x,-y,1/2+z
x,-y,-z
1/2-x,y,1/2-z
-x,-y,-z
1/2+x,y,1/2-z
-x,y,z
1/2+x,-y,1/2+z
loop_
_atom_site_type_symbol
_atom_site_label
_atom_site_fract_x
_atom_site_fract_y
_atom_site_fract_z
Si Si1 0.661293 0.875659 0.329229
Si Si2 0.259325 0.500000 0.000000
Si Si3 0.402860 0.372681 0.203387
O O1 0.750000 0.895266 0.250000
O O2 0.697757 0.733730 0.449468
O O3 0.600842 0.655286 0.266206
O O4 0.615375 0.154281 0.306166
O O5 0.324430 0.383730 0.103729
O O6 0.500000 0.324326 0.148498
#
# Coordination Sequence:
#
# PCOD9419228 Si02
#       3
#     8   4   8
#     4  10  22  40  63  94 131 170 214 263 321 393
#     4  10  23  44  71  94 128 182 222 258 325 400
#     4  11  23  41  65  99 131 163 216 279 323 373
#
# _framework density 23.586842999999998
#
# number of rings (size 3 to 8) (size 9 to 14) (size 15 to 20)
#    0.000    1.600    0.000    5.400    0.000   14.400 
#    0.000   16.000    0.000    0.000    0.000    0.000 
#    0.000    0.000    0.000    0.000    0.000    0.000 
#
# Total GULP energy -111715.811848 kJ/mol
# GULP energy per Si atom -5585.790592 kJ/mol
# Density = 2.353316 g / cm^3
# Si number density = 23.586843 Si / 1000 Ang^3
#
#
#
# Elastic Constant Matrix: (Units=GPa)
#
#
# Indices 1 2 3 4 5 6 
#
# 1 64.1254 10.7415 23.7821 0.0000 0.0000 0.0000
# 2 10.7415 136.9880 25.2709 0.0000 0.0000 0.0000
# 3 23.7821 25.2709 100.4376 0.0000 0.0000 0.0000
# 4 0.0000 0.0000 0.0000 35.2661 0.0000 0.0000
# 5 0.0000 0.0000 0.0000 0.0000 15.1876 0.0000
# 6 0.0000 0.0000 0.0000 0.0000 0.0000 8.6486
#
#
#
# Elastic Compliance Matrix: (Units=1/GPa)
#
#
# Indices 1 2 3 4 5 6 
#
# 1 0.017146 -0.000625 -0.003903 0.000000 0.000000 0.000000
# 2 -0.000625 0.007678 -0.001784 0.000000 0.000000 0.000000
# 3 -0.003903 -0.001784 0.011329 0.000000 0.000000 0.000000
# 4 0.000000 0.000000 0.000000 0.028356 0.000000 0.000000
# 5 0.000000 0.000000 0.000000 0.000000 0.065843 0.000000
# 6 0.000000 0.000000 0.000000 0.000000 0.000000 0.115626
#
#
# Mechanical properties :
#
#
# Convention : Reuss Voigt Hill
#
# Bulk Modulus (GPa) = 42.49680 46.79333 44.64507
# Shear Modulus (GPa) = 18.76559 27.93756 23.35157
#
# Velocity S-wave (km/s) = 2.82369 3.44533 3.14988
# Velocity P-wave (km/s) = 5.35605 5.97569 5.67433
#
# Compressibility (1/GPa) = 0.02353118
#
# Stress axis : x y z
#
# Youngs Moduli (GPa) = 58.32095 130.24267 88.26564
#
# Poissons Ratio (x) = 0.08134 0.34449
# Poissons Ratio (y) = 0.03642 0.15746
# Poissons Ratio (z) = 0.22762 0.23235
#
# Static dielectric constant tensor:
#      x y z
#    x 1.904160 0.000000 0.000000 
#    y 0.000000 1.893560 0.000000 
#    z 0.000000 0.000000 1.984710 
# 
# From -- ./inp_files/15116.got.cif
#   From: 2010.05.17/outbox.cif.g08.bks.cpg/sg53_8_cif.got.tgz:15116.got - 2010.06.03 12:45:16.
