data_PCOD9419661
_publ_section_title
;
Structure prediction by ZEFSAII (Michael W. Deem and Ramdas Pophale) SiO2 
 PCOD9419661
Probable space group: P M N A
;
_chemical_formula_sum "Si O2"
_cell_formula_units_Z 32
_cell_length_a 13.867327
_cell_length_b 7.582554
_cell_length_c 11.339355
_cell_angle_alpha 90.000000
_cell_angle_beta 90.000000
_cell_angle_gamma 90.000000
_cell_volume 1192.330409
_symmetry_space_group_name_H-M "P M N A"
_symmetry_group_IT_number 53
_symmetry_cell_setting 'orthorhombic'
loop_
_space_group_symop_operation_xyz
x,y,z
1/2-x,-y,1/2+z
x,-y,-z
1/2-x,y,1/2-z
-x,-y,-z
1/2+x,y,1/2-z
-x,y,z
1/2+x,-y,1/2+z
loop_
_atom_site_type_symbol
_atom_site_label
_atom_site_fract_x
_atom_site_fract_y
_atom_site_fract_z
Si Si1 0.500000 0.166390 0.859140
Si Si2 0.298288 0.448658 0.139913
Si Si3 0.889525 0.242091 0.074997
Si Si4 0.500000 0.262840 0.122343
Si Si5 0.346284 0.134737 0.681697
O O1 0.408931 0.219411 0.784462
O O2 0.500000 0.951823 0.863469
O O3 0.500000 0.265605 0.980891
O O4 0.250000 0.563971 0.250000
O O5 0.206066 0.320698 0.132343
O O6 0.402025 0.355862 0.165756
O O7 0.309459 0.500000 0.000000
O O8 0.000000 0.312215 0.085021
O O9 0.892176 0.046319 0.129887
O O10 0.857475 0.247303 0.937141
O O11 0.250000 0.079168 0.750000
#
# Coordination Sequence:
#
# PCOD9419661 Si02
#       5
#     4   8   8   4   8
#     4  11  20  37  68 107 139 178 211 269 377 415
#     4  12  29  50  73  98 135 192 245 293 347 405
#     4  11  22  42  66 103 144 179 232 289 350 428
#     4  11  25  46  69 105 142 176 228 295 353 427
#     4  11  20  35  64 105 144 179 219 277 354 431
#
# _framework density 26.838196
#
# number of rings (size 3 to 8) (size 9 to 14) (size 15 to 20)
#    0.000    0.750    2.500    6.375    1.750    7.500 
#    0.000    0.000    0.000    0.000    0.000    0.000 
#    0.000    0.000    0.000    0.000    0.000    0.000 
#
# Total GULP energy -178584.355020 kJ/mol
# GULP energy per Si atom -5580.761094 kJ/mol
# Density = 2.677711 g / cm^3
# Si number density = 26.838196 Si / 1000 Ang^3
#
#
#
# Elastic Constant Matrix: (Units=GPa)
#
#
# Indices 1 2 3 4 5 6 
#
# 1 286.3466 43.6310 104.0874 0.0000 0.0000 0.0000
# 2 43.6310 61.4096 3.8981 0.0000 0.0000 0.0000
# 3 104.0874 3.8981 203.4611 0.0000 0.0000 0.0000
# 4 0.0000 0.0000 0.0000 30.7934 0.0000 0.0000
# 5 0.0000 0.0000 0.0000 0.0000 68.7663 0.0000
# 6 0.0000 0.0000 0.0000 0.0000 0.0000 -89.1135
#
#
#
# Elastic Compliance Matrix: (Units=1/GPa)
#
#
# Indices 1 2 3 4 5 6 
#
# 1 0.004882 -0.003314 -0.002434 0.000000 0.000000 0.000000
# 2 -0.003314 0.018554 0.001340 0.000000 0.000000 0.000000
# 3 -0.002434 0.001340 0.006135 0.000000 0.000000 0.000000
# 4 0.000000 0.000000 0.000000 0.032475 0.000000 0.000000
# 5 0.000000 0.000000 0.000000 0.000000 0.014542 0.000000
# 6 0.000000 0.000000 0.000000 0.000000 0.000000 -0.011222
#
#
# Mechanical properties :
#
#
# Convention : Reuss Voigt Hill
#
# Bulk Modulus (GPa) = 48.18396 94.93892 71.56144
# Shear Modulus (GPa) = 61.65267 28.72930 45.19099
#
# Velocity S-wave (km/s) = 4.79811 3.27534 4.10790
# Velocity P-wave (km/s) = 6.97770 7.05374 7.01582
#
# Compressibility (1/GPa) = 0.02075379
#
# Stress axis : x y z
#
# Youngs Moduli (GPa) = 204.83241 53.89760 163.01238
#
# Poissons Ratio (x) = 0.17862 0.39678
# Poissons Ratio (y) = 0.67884 -0.21843
# Poissons Ratio (z) = 0.49858 -0.07222
#
# Static dielectric constant tensor:
#      x y z
#    x 1.932390 0.000000 0.000000 
#    y 0.000000 2.283980 0.000000 
#    z 0.000000 0.000000 2.216380 
# 
# From -- ./inp_files/15534.got.cif
#   From: 2010.05.17/outbox.cif.g08.bks.cpg/sg53_8_cif.got.tgz:15534.got - 2010.06.03 12:45:16.
