data_PCOD9419726
_publ_section_title
;
Structure prediction by ZEFSAII (Michael W. Deem and Ramdas Pophale) SiO2 
 PCOD9419726
Probable space group: P M N A
;
_chemical_formula_sum "Si O2"
_cell_formula_units_Z 44
_cell_length_a 27.436694
_cell_length_b 8.103559
_cell_length_c 9.299286
_cell_angle_alpha 90.000000
_cell_angle_beta 90.000000
_cell_angle_gamma 90.000000
_cell_volume 2067.555531
_symmetry_space_group_name_H-M "P M N A"
_symmetry_group_IT_number 53
_symmetry_cell_setting 'orthorhombic'
loop_
_space_group_symop_operation_xyz
x,y,z
1/2-x,-y,1/2+z
x,-y,-z
1/2-x,y,1/2-z
-x,-y,-z
1/2+x,y,1/2-z
-x,y,z
1/2+x,-y,1/2+z
loop_
_atom_site_type_symbol
_atom_site_label
_atom_site_fract_x
_atom_site_fract_y
_atom_site_fract_z
Si Si1 0.896508 0.171598 0.670361
Si Si2 0.000000 0.060612 0.743257
Si Si3 0.682340 0.689001 0.968428
Si Si4 0.894773 0.325029 0.981800
Si Si5 0.000000 0.756242 0.942207
Si Si6 0.751257 0.000000 0.000000
Si Si7 0.834582 0.119416 0.197900
O O1 0.869327 0.270450 0.545331
O O2 0.952033 0.111770 0.656159
O O3 0.864674 0.009914 0.707029
O O4 0.896718 0.280083 0.815269
O O5 0.000000 0.873833 0.802393
O O6 0.000000 0.150729 0.901501
O O7 0.696485 0.500000 0.000000
O O8 0.719294 0.834108 0.020350
O O9 0.677761 0.726207 0.799266
O O10 0.867006 0.182139 0.066120
O O11 0.948483 0.335380 0.053071
O O12 0.869340 0.500000 0.000000
O O13 0.786991 0.965082 0.866869
#
# Coordination Sequence:
#
# PCOD9419726 Si02
#       7
#     8   4   8   8   4   4   8
#     4  11  21  44  69  98 140 181 231 282 343 419
#     4   9  18  34  69  99 128 186 230 276 343 416
#     4  12  28  49  71 101 142 182 230 287 354 418
#     4  11  21  35  63 101 138 179 234 287 342 411
#     4   9  17  32  57  94 139 179 228 287 340 399
#     4  12  26  48  74  98 136 178 238 292 348 414
#     4  12  23  45  69  98 134 183 223 286 354 405
#
# _framework density 21.281171000000001
#
# number of rings (size 3 to 8) (size 9 to 14) (size 15 to 20)
#    0.000    0.909    5.455    1.909    0.000    0.727 
#    6.545    3.182    0.000    0.000    0.000    0.000 
#    0.000    0.000    0.000    0.000    0.000    0.000 
#
# Total GULP energy -245809.182472 kJ/mol
# GULP energy per Si atom -5586.572329 kJ/mol
# Density = 2.123273 g / cm^3
# Si number density = 21.281171 Si / 1000 Ang^3
#
#
#
# Elastic Constant Matrix: (Units=GPa)
#
#
# Indices 1 2 3 4 5 6 
#
# 1 131.0979 42.9006 35.4225 0.0000 0.0000 0.0000
# 2 42.9006 134.2341 20.0369 0.0000 0.0000 0.0000
# 3 35.4225 20.0369 72.3814 0.0000 0.0000 0.0000
# 4 0.0000 0.0000 0.0000 34.7469 0.0000 0.0000
# 5 0.0000 0.0000 0.0000 0.0000 24.1257 0.0000
# 6 0.0000 0.0000 0.0000 0.0000 0.0000 55.2510
#
#
#
# Elastic Compliance Matrix: (Units=1/GPa)
#
#
# Indices 1 2 3 4 5 6 
#
# 1 0.009501 -0.002443 -0.003973 0.000000 0.000000 0.000000
# 2 -0.002443 0.008399 -0.001129 0.000000 0.000000 0.000000
# 3 -0.003973 -0.001129 0.016073 0.000000 0.000000 0.000000
# 4 0.000000 0.000000 0.000000 0.028780 0.000000 0.000000
# 5 0.000000 0.000000 0.000000 0.000000 0.041450 0.000000
# 6 0.000000 0.000000 0.000000 0.000000 0.000000 0.018099
#
#
# Mechanical properties :
#
#
# Convention : Reuss Voigt Hill
#
# Bulk Modulus (GPa) = 52.96338 59.38149 56.17244
# Shear Modulus (GPa) = 34.79783 38.78160 36.78972
#
# Velocity S-wave (km/s) = 4.04808 4.27352 4.16233
# Velocity P-wave (km/s) = 6.84038 7.23288 7.03936
#
# Compressibility (1/GPa) = 0.01888097
#
# Stress axis : x y z
#
# Youngs Moduli (GPa) = 105.25152 119.05978 62.21690
#
# Poissons Ratio (x) = 0.29091 0.24721
# Poissons Ratio (y) = 0.25717 0.07026
# Poissons Ratio (z) = 0.41820 0.13446
#
# Static dielectric constant tensor:
#      x y z
#    x 1.784940 0.000000 0.000000 
#    y 0.000000 1.775950 0.000000 
#    z 0.000000 0.000000 1.776240 
# 
# From -- ./inp_files/12950.got.cif
#   From: 2010.05.17/outbox.cif.g08.bks.cpg/sg53_7_cif.got.tgz:12950.got - 2010.06.03 12:45:16.
