data_PCOD9419902
_publ_section_title
;
Structure prediction by ZEFSAII (Michael W. Deem and Ramdas Pophale) SiO2 
 PCOD9419902
Probable space group: P M N A
;
_chemical_formula_sum "Si O2"
_cell_formula_units_Z 28
_cell_length_a 19.684387
_cell_length_b 5.116744
_cell_length_c 11.405714
_cell_angle_alpha 90.000000
_cell_angle_beta 90.000000
_cell_angle_gamma 90.000000
_cell_volume 1148.783161
_symmetry_space_group_name_H-M "P M N A"
_symmetry_group_IT_number 53
_symmetry_cell_setting 'orthorhombic'
loop_
_space_group_symop_operation_xyz
x,y,z
1/2-x,-y,1/2+z
x,-y,-z
1/2-x,y,1/2-z
-x,-y,-z
1/2+x,y,1/2-z
-x,y,z
1/2+x,-y,1/2+z
loop_
_atom_site_type_symbol
_atom_site_label
_atom_site_fract_x
_atom_site_fract_y
_atom_site_fract_z
Si Si1 0.738371 0.682214 0.617885
Si Si2 0.500000 0.292223 0.611113
Si Si3 0.500000 0.789323 0.746508
Si Si4 0.114251 0.236123 0.425971
Si Si5 0.124602 0.000000 0.000000
O O1 0.734675 0.500000 0.500000
O O2 0.750000 0.561043 0.750000
O O3 0.809055 0.838202 0.607182
O O4 0.673597 0.869637 0.597738
O O5 0.500000 0.598080 0.635681
O O6 0.572106 0.206495 0.555387
O O7 0.500000 0.096902 0.722755
O O8 0.432981 0.716350 0.816243
O O9 0.116439 0.500000 0.500000
O O10 0.083922 0.000000 0.500000
#
# Coordination Sequence:
#
# PCOD9419902 Si02
#       5
#     8   4   4   8   4
#     4  11  26  46  75 111 155 206 257 324 388 471
#     4  11  28  43  76 107 145 210 254 323 382 457
#     4  12  24  46  74 107 154 195 265 312 391 463
#     4  11  23  43  68 110 148 202 254 315 389 460
#     4  11  26  48  70 105 158 198 270 315 394 458
#
# _framework density 24.373615999999998
#
# number of rings (size 3 to 8) (size 9 to 14) (size 15 to 20)
#    0.000    0.857    1.429    4.286    8.000    2.286 
#    0.000    0.000    0.000    0.000    0.000    0.000 
#    0.000    0.000    0.000    0.000    0.000    0.000 
#
# Total GULP energy -156405.081055 kJ/mol
# GULP energy per Si atom -5585.895752 kJ/mol
# Density = 2.431814 g / cm^3
# Si number density = 24.373616 Si / 1000 Ang^3
#
#
#
# Elastic Constant Matrix: (Units=GPa)
#
#
# Indices 1 2 3 4 5 6 
#
# 1 196.2788 19.4443 60.8511 0.0000 0.0000 0.0000
# 2 19.4443 60.5896 26.0844 0.0000 0.0000 0.0000
# 3 60.8511 26.0844 133.8721 0.0000 0.0000 0.0000
# 4 0.0000 0.0000 0.0000 46.4478 0.0000 0.0000
# 5 0.0000 0.0000 0.0000 0.0000 20.7906 0.0000
# 6 0.0000 0.0000 0.0000 0.0000 0.0000 8.3681
#
#
#
# Elastic Compliance Matrix: (Units=1/GPa)
#
#
# Indices 1 2 3 4 5 6 
#
# 1 0.005967 -0.000816 -0.002553 0.000000 0.000000 0.000000
# 2 -0.000816 0.018127 -0.003161 0.000000 0.000000 0.000000
# 3 -0.002553 -0.003161 0.009246 0.000000 0.000000 0.000000
# 4 0.000000 0.000000 0.000000 0.021530 0.000000 0.000000
# 5 0.000000 0.000000 0.000000 0.000000 0.048099 0.000000
# 6 0.000000 0.000000 0.000000 0.000000 0.000000 0.119501
#
#
# Mechanical properties :
#
#
# Convention : Reuss Voigt Hill
#
# Bulk Modulus (GPa) = 49.30946 67.05555 58.18250
# Shear Modulus (GPa) = 20.63632 34.07868 27.35750
#
# Velocity S-wave (km/s) = 2.91291 3.74328 3.35389
# Velocity P-wave (km/s) = 5.62032 6.80104 6.23867
#
# Compressibility (1/GPa) = 0.02028009
#
# Stress axis : x y z
#
# Youngs Moduli (GPa) = 167.58193 55.16575 108.14987
#
# Poissons Ratio (x) = 0.04500 0.27615
# Poissons Ratio (y) = 0.13670 0.34189
# Poissons Ratio (z) = 0.42791 0.17439
#
# Static dielectric constant tensor:
#      x y z
#    x 1.869900 0.000000 0.000000 
#    y 0.000000 1.912680 0.000000 
#    z 0.000000 0.000000 2.082690 
# 
# From -- ./inp_files/17340.got.cif
#   From: 2010.05.17/outbox.cif.g08.bks.cpg/sg53_9_cif.got.tgz:17340.got - 2010.06.03 12:45:16.
