data_PCOD9419118
_publ_section_title
;
Structure prediction by ZEFSAII (Michael W. Deem and Ramdas Pophale) SiO2 
 PCOD9419118
Probable space group: P M N A
;
_chemical_formula_sum "Si O2"
_cell_formula_units_Z 36
_cell_length_a 21.832769
_cell_length_b 9.846566
_cell_length_c 7.332801
_cell_angle_alpha 90.000000
_cell_angle_beta 90.000000
_cell_angle_gamma 90.000000
_cell_volume 1576.389434
_symmetry_space_group_name_H-M "P M N A"
_symmetry_group_IT_number 53
_symmetry_cell_setting 'orthorhombic'
loop_
_space_group_symop_operation_xyz
x,y,z
1/2-x,-y,1/2+z
x,-y,-z
1/2-x,y,1/2-z
-x,-y,-z
1/2+x,y,1/2-z
-x,y,z
1/2+x,-y,1/2+z
loop_
_atom_site_type_symbol
_atom_site_label
_atom_site_fract_x
_atom_site_fract_y
_atom_site_fract_z
Si Si1 0.250000 0.771103 0.750000
Si Si2 0.891509 0.827545 0.296510
Si Si3 0.500000 0.362055 0.787659
Si Si4 0.000000 0.673685 0.733326
Si Si5 0.705090 0.621692 0.102509
Si Si6 0.388327 0.868475 0.766309
O O1 0.240469 0.691264 0.562434
O O2 0.316316 0.843665 0.727348
O O3 0.829717 0.740315 0.290032
O O4 0.896133 0.855056 0.514098
O O5 0.941559 0.722893 0.228152
O O6 0.899310 0.975436 0.211227
O O7 0.500000 0.515118 0.716071
O O8 0.500000 0.345159 0.010278
O O9 0.060498 0.758624 0.794251
O O10 0.750000 0.558187 0.250000
O O11 0.667272 0.500000 0.000000
#
# Coordination Sequence:
#
# PCOD9419118 Si02
#       6
#     4   8   4   4   8   8
#     4  10  22  38  62  88 126 162 202 252 308 364
#     4   9  19  32  54  83 118 155 205 245 301 364
#     4   9  17  27  51  84 118 155 202 250 294 358
#     4   9  17  27  53  84 119 161 201 248 304 358
#     4  11  23  38  60  88 121 161 203 252 304 360
#     4   9  18  34  53  83 122 160 200 249 305 360
#
# _framework density 22.836995999999999
#
# number of rings (size 3 to 8) (size 9 to 14) (size 15 to 20)
#    0.000    2.444    1.111    0.667   10.889    2.667 
#    0.000    0.000    0.000    1.333    0.000    6.222 
#    0.000    0.000    0.000    0.000    0.000    0.000 
#
# Total GULP energy -200490.180167 kJ/mol
# GULP energy per Si atom -5569.171671 kJ/mol
# Density = 2.278502 g / cm^3
# Si number density = 22.836996 Si / 1000 Ang^3
#
#
#
# Elastic Constant Matrix: (Units=GPa)
#
#
# Indices 1 2 3 4 5 6 
#
# 1 147.2425 114.2856 24.3672 0.0000 0.0000 0.0000
# 2 114.2856 226.6905 17.3769 0.0000 0.0000 0.0000
# 3 24.3672 17.3769 59.3449 0.0000 0.0000 0.0000
# 4 0.0000 0.0000 0.0000 21.6988 0.0000 0.0000
# 5 0.0000 0.0000 0.0000 0.0000 -11.0804 0.0000
# 6 0.0000 0.0000 0.0000 0.0000 0.0000 34.0966
#
#
#
# Elastic Compliance Matrix: (Units=1/GPa)
#
#
# Indices 1 2 3 4 5 6 
#
# 1 0.011706 -0.005660 -0.003149 0.000000 0.000000 0.000000
# 2 -0.005660 0.007249 0.000201 0.000000 0.000000 0.000000
# 3 -0.003149 0.000201 0.018085 0.000000 0.000000 0.000000
# 4 0.000000 0.000000 0.000000 0.046086 0.000000 0.000000
# 5 0.000000 0.000000 0.000000 0.000000 -0.090249 0.000000
# 6 0.000000 0.000000 0.000000 0.000000 0.000000 0.029328
#
#
# Mechanical properties :
#
#
# Convention : Reuss Voigt Hill
#
# Bulk Modulus (GPa) = 50.44330 82.81525 66.62927
# Shear Modulus (GPa) = 108.62827 27.42621 68.02724
#
# Velocity S-wave (km/s) = 6.90435 3.46924 5.46378
# Velocity P-wave (km/s) = 9.25724 7.23808 8.30922
#
# Compressibility (1/GPa) = 0.01982424
#
# Stress axis : x y z
#
# Youngs Moduli (GPa) = 85.42719 137.94255 55.29533
#
# Poissons Ratio (x) = 0.78077 0.17413
# Poissons Ratio (y) = 0.48353 -0.01113
# Poissons Ratio (z) = 0.26902 -0.02777
#
# Static dielectric constant tensor:
#      x y z
#    x 1.882910 0.000000 0.000000 
#    y 0.000000 1.891530 0.000000 
#    z 0.000000 0.000000 1.875900 
# 
# From -- ./inp_files/10637.got.cif
#   From: 2010.05.17/outbox.cif.g08.bks.cpg/sg53_6_cif.got.tgz:10637.got - 2010.06.03 12:45:16.
