data_PCOD9419175
_publ_section_title
;
Structure prediction by ZEFSAII (Michael W. Deem and Ramdas Pophale) SiO2 
 PCOD9419175
Probable space group: P M N A
;
_chemical_formula_sum "Si O2"
_cell_formula_units_Z 40
_cell_length_a 14.318230
_cell_length_b 5.168102
_cell_length_c 23.349159
_cell_angle_alpha 90.000000
_cell_angle_beta 90.000000
_cell_angle_gamma 90.000000
_cell_volume 1727.792774
_symmetry_space_group_name_H-M "P M N A"
_symmetry_group_IT_number 53
_symmetry_cell_setting 'orthorhombic'
loop_
_space_group_symop_operation_xyz
x,y,z
1/2-x,-y,1/2+z
x,-y,-z
1/2-x,y,1/2-z
-x,-y,-z
1/2+x,y,1/2-z
-x,y,z
1/2+x,-y,1/2+z
loop_
_atom_site_type_symbol
_atom_site_label
_atom_site_fract_x
_atom_site_fract_y
_atom_site_fract_z
Si Si1 0.602841 0.242088 0.735740
Si Si2 0.395730 0.239992 0.536338
Si Si3 0.890067 0.746382 0.460758
Si Si4 0.334757 0.749150 0.793772
Si Si5 0.753808 0.645429 0.134200
O O1 0.500000 0.211861 0.707709
O O2 0.613743 0.016821 0.783052
O O3 0.605214 0.510527 0.769986
O O4 0.691997 0.250851 0.691763
O O5 0.401771 0.500000 0.500000
O O6 0.500000 0.154980 0.553394
O O7 0.336819 0.325844 0.589958
O O8 0.354864 0.000000 0.500000
O O9 0.859172 0.500000 0.500000
O O10 0.830936 0.770191 0.402304
O O11 0.000000 0.708929 0.447308
O O12 0.880904 0.000000 0.500000
O O13 0.250000 0.765821 0.750000
O O14 0.286436 0.640427 0.851113
#
# Coordination Sequence:
#
# PCOD9419175 Si02
#       5
#     8   8   8   8   8
#     4  11  24  42  63  92 130 167 213 273 333 395
#     4  10  22  39  62  97 135 169 212 266 327 399
#     4  10  23  42  64  95 131 167 214 271 328 391
#     4  10  23  41  61  90 126 167 217 269 321 387
#     4  11  23  42  69  94 126 176 222 267 332 400
#
# _framework density 23.150925999999998
#
# number of rings (size 3 to 8) (size 9 to 14) (size 15 to 20)
#    0.000    1.600    0.000    4.200    0.000   11.200 
#    0.000    8.000    0.000    2.400    0.000    0.000 
#    0.000    0.000    0.000    0.000    0.000    0.000 
#
# Total GULP energy -223068.833524 kJ/mol
# GULP energy per Si atom -5576.720838 kJ/mol
# Density = 2.309823 g / cm^3
# Si number density = 23.150926 Si / 1000 Ang^3
#
#
#
# Elastic Constant Matrix: (Units=GPa)
#
#
# Indices 1 2 3 4 5 6 
#
# 1 126.5361 29.0788 48.8286 0.0000 0.0000 0.0000
# 2 29.0788 151.8028 49.3820 0.0000 0.0000 0.0000
# 3 48.8286 49.3820 115.3323 0.0000 0.0000 0.0000
# 4 0.0000 0.0000 0.0000 23.3319 0.0000 0.0000
# 5 0.0000 0.0000 0.0000 0.0000 23.5102 0.0000
# 6 0.0000 0.0000 0.0000 0.0000 0.0000 -23.2241
#
#
#
# Elastic Compliance Matrix: (Units=1/GPa)
#
#
# Indices 1 2 3 4 5 6 
#
# 1 0.009492 -0.000594 -0.003764 0.000000 0.000000 0.000000
# 2 -0.000594 0.007691 -0.003042 0.000000 0.000000 0.000000
# 3 -0.003764 -0.003042 0.011567 0.000000 0.000000 0.000000
# 4 0.000000 0.000000 0.000000 0.042860 0.000000 0.000000
# 5 0.000000 0.000000 0.000000 0.000000 0.042535 0.000000
# 6 0.000000 0.000000 0.000000 0.000000 0.000000 -0.043059
#
#
# Mechanical properties :
#
#
# Convention : Reuss Voigt Hill
#
# Bulk Modulus (GPa) = 71.68501 72.02777 71.85639
# Shear Modulus (GPa) = 55.22760 22.48238 38.85499
#
# Velocity S-wave (km/s) = 4.88950 3.11966 4.10119
# Velocity P-wave (km/s) = 7.93144 6.64501 7.31656
#
# Compressibility (1/GPa) = 0.01394992
#
# Stress axis : x y z
#
# Youngs Moduli (GPa) = 105.35228 130.02803 86.45524
#
# Poissons Ratio (x) = 0.07719 0.32546
# Poissons Ratio (y) = 0.06254 0.26296
# Poissons Ratio (z) = 0.39659 0.39549
#
# Static dielectric constant tensor:
#      x y z
#    x 1.920500 0.000000 0.000000 
#    y 0.000000 2.113780 0.000000 
#    z 0.000000 0.000000 1.880440 
# 
# From -- ./inp_files/35146.got.cif
#   From: 2010.05.17/outbox.cif.g08.bks.cpg/sg53_18_cif.got.tgz:35146.got - 2010.06.03 12:45:16.
