data_PCOD9419702
_publ_section_title
;
Structure prediction by ZEFSAII (Michael W. Deem and Ramdas Pophale) SiO2 
 PCOD9419702
Probable space group: P M N A
;
_chemical_formula_sum "Si O2"
_cell_formula_units_Z 40
_cell_length_a 29.044013
_cell_length_b 4.905041
_cell_length_c 11.307921
_cell_angle_alpha 90.000000
_cell_angle_beta 90.000000
_cell_angle_gamma 90.000000
_cell_volume 1610.949885
_symmetry_space_group_name_H-M "P M N A"
_symmetry_group_IT_number 53
_symmetry_cell_setting 'orthorhombic'
loop_
_space_group_symop_operation_xyz
x,y,z
1/2-x,-y,1/2+z
x,-y,-z
1/2-x,y,1/2-z
-x,-y,-z
1/2+x,y,1/2-z
-x,y,z
1/2+x,-y,1/2+z
loop_
_atom_site_type_symbol
_atom_site_label
_atom_site_fract_x
_atom_site_fract_y
_atom_site_fract_z
Si Si1 0.218091 0.459897 0.368417
Si Si2 0.448497 0.959989 0.829733
Si Si3 0.656056 0.016396 0.828073
Si Si4 0.450355 0.538552 0.317485
Si Si5 0.361619 0.735945 0.577339
O O1 0.239946 0.500000 0.500000
O O2 0.250000 0.424030 0.250000
O O3 0.186961 0.197920 0.396266
O O4 0.182415 0.698669 0.331175
O O5 0.500000 0.027581 0.878748
O O6 0.448276 0.142700 0.709879
O O7 0.396967 0.032680 0.872103
O O8 0.448604 0.637478 0.804467
O O9 0.657073 0.874116 0.697537
O O10 0.500000 0.471236 0.369793
O O11 0.407076 0.425383 0.383719
O O12 0.336588 0.500000 0.500000
O O13 0.371118 0.000000 0.500000
#
# Coordination Sequence:
#
# PCOD9419702 Si02
#       5
#     8   8   8   8   8
#     4  12  28  51  79 110 144 186 241 308 380 448
#     4   9  17  33  60  93 133 185 238 287 346 422
#     4  11  23  44  71 101 144 191 237 297 368 437
#     4   9  17  29  45  75 126 184 240 294 345 404
#     4  11  21  33  54  91 134 182 238 291 351 422
#
# _framework density 24.830072000000001
#
# number of rings (size 3 to 8) (size 9 to 14) (size 15 to 20)
#    0.000    1.600    0.000    7.200    0.000    3.200 
#    0.000    0.000    0.000    3.600    0.000    0.000 
#    0.000    0.000    0.000    0.000    0.000    0.000 
#
# Total GULP energy -222820.308285 kJ/mol
# GULP energy per Si atom -5570.507707 kJ/mol
# Density = 2.477356 g / cm^3
# Si number density = 24.830072 Si / 1000 Ang^3
#
#
#
# Elastic Constant Matrix: (Units=GPa)
#
#
# Indices 1 2 3 4 5 6 
#
# 1 210.6263 36.2303 43.0129 0.0000 0.0000 0.0000
# 2 36.2303 119.1341 22.8153 0.0000 0.0000 0.0000
# 3 43.0129 22.8153 136.5870 0.0000 0.0000 0.0000
# 4 0.0000 0.0000 0.0000 26.6907 0.0000 0.0000
# 5 0.0000 0.0000 0.0000 0.0000 -44.3408 0.0000
# 6 0.0000 0.0000 0.0000 0.0000 0.0000 23.1949
#
#
#
# Elastic Compliance Matrix: (Units=1/GPa)
#
#
# Indices 1 2 3 4 5 6 
#
# 1 0.005270 -0.001327 -0.001438 0.000000 0.000000 0.000000
# 2 -0.001327 0.009006 -0.001086 0.000000 0.000000 0.000000
# 3 -0.001438 -0.001086 0.007956 0.000000 0.000000 0.000000
# 4 0.000000 0.000000 0.000000 0.037466 0.000000 0.000000
# 5 0.000000 0.000000 0.000000 0.000000 -0.022553 0.000000
# 6 0.000000 0.000000 0.000000 0.000000 0.000000 0.043113
#
#
# Mechanical properties :
#
#
# Convention : Reuss Voigt Hill
#
# Bulk Modulus (GPa) = 68.83191 74.49607 71.66399
# Shear Modulus (GPa) = 53.87769 25.39488 39.63629
#
# Velocity S-wave (km/s) = 4.66323 3.20151 3.99971
# Velocity P-wave (km/s) = 7.53496 6.61315 7.08905
#
# Compressibility (1/GPa) = 0.01452815
#
# Stress axis : x y z
#
# Youngs Moduli (GPa) = 189.76554 111.04242 125.69804
#
# Poissons Ratio (x) = 0.14738 0.18073
# Poissons Ratio (y) = 0.25186 0.13655
# Poissons Ratio (z) = 0.27284 0.12063
#
# Static dielectric constant tensor:
#      x y z
#    x 2.007650 0.000000 0.000000 
#    y 0.000000 1.889950 0.000000 
#    z 0.000000 0.000000 2.108650 
# 
# From -- ./inp_files/18598.got.cif
#   From: 2010.05.17/outbox.cif.g08.bks.cpg/sg53_10_cif.got.tgz:18598.got - 2010.06.03 12:45:16.
