data_PCOD9419352
_publ_section_title
;
Structure prediction by ZEFSAII (Michael W. Deem and Ramdas Pophale) SiO2 
 PCOD9419352
Probable space group: P M N A
;
_chemical_formula_sum "Si O2"
_cell_formula_units_Z 28
_cell_length_a 13.800499
_cell_length_b 5.220418
_cell_length_c 16.943727
_cell_angle_alpha 90.000000
_cell_angle_beta 90.000000
_cell_angle_gamma 90.000000
_cell_volume 1220.700195
_symmetry_space_group_name_H-M "P M N A"
_symmetry_group_IT_number 53
_symmetry_cell_setting 'orthorhombic'
loop_
_space_group_symop_operation_xyz
x,y,z
1/2-x,-y,1/2+z
x,-y,-z
1/2-x,y,1/2-z
-x,-y,-z
1/2+x,y,1/2-z
-x,y,z
1/2+x,-y,1/2+z
loop_
_atom_site_type_symbol
_atom_site_label
_atom_site_fract_x
_atom_site_fract_y
_atom_site_fract_z
Si Si1 0.000000 0.746450 0.446102
Si Si2 0.304199 0.044484 0.907762
Si Si3 0.358052 0.668214 0.779117
Si Si4 0.897176 0.830196 0.181523
O O1 0.000000 0.500000 0.500000
O O2 0.897163 0.767092 0.401709
O O3 0.000000 0.000000 0.500000
O O4 0.344830 0.782651 0.867375
O O5 0.205749 0.148757 0.865786
O O6 0.282903 0.000000 0.000000
O O7 0.250000 0.647597 0.750000
O O8 0.399931 0.910417 0.731896
O O9 0.398630 0.407839 0.742038
O O10 0.000000 0.814904 0.134893
#
# Coordination Sequence:
#
# PCOD9419352 Si02
#       4
#     4   8   8   8
#     4  10  24  42  66 104 140 184 231 288 365 422
#     4  10  24  46  73 106 144 188 240 303 362 428
#     4  10  22  43  66  98 138 186 237 281 350 425
#     4  11  24  42  70 103 139 186 235 293 357 430
#
# _framework density 22.937653999999998
#
# number of rings (size 3 to 8) (size 9 to 14) (size 15 to 20)
#    0.000    1.714    0.000    3.429    4.000   14.286 
#    0.000    0.000    3.143    9.429    0.000    0.000 
#    0.000    0.000    0.000    0.000    0.000    0.000 
#
# Total GULP energy -155984.710777 kJ/mol
# GULP energy per Si atom -5570.882528 kJ/mol
# Density = 2.288545 g / cm^3
# Si number density = 22.937654 Si / 1000 Ang^3
#
#
#
# Elastic Constant Matrix: (Units=GPa)
#
#
# Indices 1 2 3 4 5 6 
#
# 1 250.8331 63.1697 66.3379 0.0000 0.0000 0.0000
# 2 63.1697 179.8359 52.0298 0.0000 0.0000 0.0000
# 3 66.3379 52.0298 143.9754 0.0000 0.0000 0.0000
# 4 0.0000 0.0000 0.0000 9.1278 0.0000 0.0000
# 5 0.0000 0.0000 0.0000 0.0000 27.9891 0.0000
# 6 0.0000 0.0000 0.0000 0.0000 0.0000 21.0706
#
#
#
# Elastic Compliance Matrix: (Units=1/GPa)
#
#
# Indices 1 2 3 4 5 6 
#
# 1 0.004745 -0.001155 -0.001769 0.000000 0.000000 0.000000
# 2 -0.001155 0.006491 -0.001814 0.000000 0.000000 0.000000
# 3 -0.001769 -0.001814 0.008416 0.000000 0.000000 0.000000
# 4 0.000000 0.000000 0.000000 0.109555 0.000000 0.000000
# 5 0.000000 0.000000 0.000000 0.000000 0.035728 0.000000
# 6 0.000000 0.000000 0.000000 0.000000 0.000000 0.047460
#
#
# Mechanical properties :
#
#
# Convention : Reuss Voigt Hill
#
# Bulk Modulus (GPa) = 98.25831 104.19104 101.22467
# Shear Modulus (GPa) = 22.19621 37.84462 30.02041
#
# Velocity S-wave (km/s) = 3.11412 4.06629 3.62164
# Velocity P-wave (km/s) = 7.47399 8.22001 7.85586
#
# Compressibility (1/GPa) = 0.01017726
#
# Stress axis : x y z
#
# Youngs Moduli (GPa) = 210.72661 154.05839 118.81947
#
# Poissons Ratio (x) = 0.17795 0.21020
# Poissons Ratio (y) = 0.24341 0.21548
# Poissons Ratio (z) = 0.37280 0.27939
#
# Static dielectric constant tensor:
#      x y z
#    x 2.042400 0.000000 0.000000 
#    y 0.000000 1.903060 0.000000 
#    z 0.000000 0.000000 1.925880 
# 
# From -- ./inp_files/27791.got.cif
#   From: 2010.05.17/outbox.cif.g08.bks.cpg/sg53_14_cif.got.tgz:27791.got - 2010.06.03 12:45:16.
