data_PCOD9419260
_publ_section_title
;
Structure prediction by ZEFSAII (Michael W. Deem and Ramdas Pophale) SiO2 
 PCOD9419260
Probable space group: P M N A
;
_chemical_formula_sum "Si O2"
_cell_formula_units_Z 40
_cell_length_a 14.788627
_cell_length_b 9.079069
_cell_length_c 12.799983
_cell_angle_alpha 90.000000
_cell_angle_beta 90.000000
_cell_angle_gamma 90.000000
_cell_volume 1718.614869
_symmetry_space_group_name_H-M "P M N A"
_symmetry_group_IT_number 53
_symmetry_cell_setting 'orthorhombic'
loop_
_space_group_symop_operation_xyz
x,y,z
1/2-x,-y,1/2+z
x,-y,-z
1/2-x,y,1/2-z
-x,-y,-z
1/2+x,y,1/2-z
-x,y,z
1/2+x,-y,1/2+z
loop_
_atom_site_type_symbol
_atom_site_label
_atom_site_fract_x
_atom_site_fract_y
_atom_site_fract_z
Si Si1 0.841758 0.333149 0.697736
Si Si2 0.000000 0.712540 0.164090
Si Si3 0.000000 0.964220 0.751462
Si Si4 0.000000 0.743914 0.916580
Si Si5 0.684740 0.500000 0.000000
Si Si6 0.670861 0.995258 0.879511
Si Si7 0.204971 0.724426 0.861186
O O1 0.750000 0.383019 0.750000
O O2 0.911640 0.360123 0.790352
O O3 0.868040 0.424246 0.595015
O O4 0.823921 0.162492 0.662844
O O5 0.000000 0.729020 0.040736
O O6 0.000000 0.862697 0.231588
O O7 0.000000 0.907061 0.869144
O O8 0.909756 0.921171 0.688161
O O9 0.098039 0.692793 0.873322
O O10 0.745606 0.628819 0.949883
O O11 0.762413 0.896839 0.875955
O O12 0.642220 0.000000 0.000000
O O13 0.250000 0.689686 0.750000
#
# Coordination Sequence:
#
# PCOD9419260 Si02
#       7
#     8   4   4   4   4   8   8
#     4  11  24  46  70 104 144 186 242 295 358 428
#     4  10  25  42  71 108 143 182 233 298 360 429
#     4  10  22  40  69 111 148 177 231 300 359 427
#     4  12  25  44  72 107 143 184 234 296 372 427
#     4  12  26  48  74  96 142 198 236 292 356 432
#     4  11  22  43  74 106 143 189 237 298 357 420
#     4  12  26  47  74 106 143 188 239 295 357 431
#
# _framework density 23.274556
#
# number of rings (size 3 to 8) (size 9 to 14) (size 15 to 20)
#    0.000    0.800    4.000    3.000    2.800    0.800 
#    0.000    6.000    0.000    0.000    0.000    0.000 
#    0.000    0.000    0.000    0.000    0.000    0.000 
#
# Total GULP energy -223370.978696 kJ/mol
# GULP energy per Si atom -5584.274467 kJ/mol
# Density = 2.322158 g / cm^3
# Si number density = 23.274556 Si / 1000 Ang^3
#
#
#
# Elastic Constant Matrix: (Units=GPa)
#
#
# Indices 1 2 3 4 5 6 
#
# 1 165.1486 16.9649 80.7241 0.0000 0.0000 0.0000
# 2 16.9649 95.4775 16.6755 0.0000 0.0000 0.0000
# 3 80.7241 16.6755 187.2804 0.0000 0.0000 0.0000
# 4 0.0000 0.0000 0.0000 23.2827 0.0000 0.0000
# 5 0.0000 0.0000 0.0000 0.0000 39.6649 0.0000
# 6 0.0000 0.0000 0.0000 0.0000 0.0000 14.0903
#
#
#
# Elastic Compliance Matrix: (Units=1/GPa)
#
#
# Indices 1 2 3 4 5 6 
#
# 1 0.007732 -0.000804 -0.003261 0.000000 0.000000 0.000000
# 2 -0.000804 0.010723 -0.000608 0.000000 0.000000 0.000000
# 3 -0.003261 -0.000608 0.006799 0.000000 0.000000 0.000000
# 4 0.000000 0.000000 0.000000 0.042950 0.000000 0.000000
# 5 0.000000 0.000000 0.000000 0.000000 0.025211 0.000000
# 6 0.000000 0.000000 0.000000 0.000000 0.000000 0.070971
#
#
# Mechanical properties :
#
#
# Convention : Reuss Voigt Hill
#
# Bulk Modulus (GPa) = 62.86500 75.18171 69.02336
# Shear Modulus (GPa) = 27.92746 37.64372 32.78559
#
# Velocity S-wave (km/s) = 3.46774 4.02602 3.75726
# Velocity P-wave (km/s) = 6.56524 7.34738 6.96730
#
# Compressibility (1/GPa) = 0.01590710
#
# Stress axis : x y z
#
# Youngs Moduli (GPa) = 129.33675 93.25941 147.07293
#
# Poissons Ratio (x) = 0.07500 0.47961
# Poissons Ratio (y) = 0.10402 0.08943
# Poissons Ratio (z) = 0.42177 0.05671
#
# Static dielectric constant tensor:
#      x y z
#    x 1.882460 0.000000 0.000000 
#    y 0.000000 1.931650 0.000000 
#    z 0.000000 0.000000 1.837190 
# 
# From -- ./inp_files/22517.got.cif
#   From: 2010.05.17/outbox.cif.g08.bks.cpg/sg53_12_cif.got.tgz:22517.got - 2010.06.03 12:45:16.
