data_PCOD9419942
_publ_section_title
;
Structure prediction by ZEFSAII (Michael W. Deem and Ramdas Pophale) SiO2 
 PCOD9419942
Probable space group: P M N A
;
_chemical_formula_sum "Si O2"
_cell_formula_units_Z 40
_cell_length_a 27.194170
_cell_length_b 8.635974
_cell_length_c 7.963745
_cell_angle_alpha 90.000000
_cell_angle_beta 90.000000
_cell_angle_gamma 90.000000
_cell_volume 1870.270741
_symmetry_space_group_name_H-M "P M N A"
_symmetry_group_IT_number 53
_symmetry_cell_setting 'orthorhombic'
loop_
_space_group_symop_operation_xyz
x,y,z
1/2-x,-y,1/2+z
x,-y,-z
1/2-x,y,1/2-z
-x,-y,-z
1/2+x,y,1/2-z
-x,y,z
1/2+x,-y,1/2+z
loop_
_atom_site_type_symbol
_atom_site_label
_atom_site_fract_x
_atom_site_fract_y
_atom_site_fract_z
Si Si1 0.218992 0.846085 0.589008
Si Si2 0.056126 0.817545 0.964893
Si Si3 0.108771 0.331273 0.718508
Si Si4 0.616126 0.697424 0.846146
Si Si5 0.789689 0.369739 0.873243
O O1 0.250000 0.895536 0.750000
O O2 0.173859 0.737312 0.643059
O O3 0.257443 0.755922 0.470985
O O4 0.199293 0.000000 0.500000
O O5 0.075547 0.728225 0.129763
O O6 0.000000 0.769865 0.928888
O O7 0.090268 0.785793 0.804908
O O8 0.057206 0.000000 0.000000
O O9 0.107949 0.516511 0.693529
O O10 0.096713 0.265523 0.534019
O O11 0.165155 0.297082 0.772295
O O12 0.750000 0.448335 0.750000
O O13 0.809340 0.500000 0.000000
#
# Coordination Sequence:
#
# PCOD9419942 Si02
#       5
#     8   8   8   8   8
#     4  12  26  40  60  96 139 185 233 278 337 399
#     4  11  27  48  73 103 135 174 222 286 360 424
#     4  11  24  44  72 102 139 182 231 282 342 408
#     4  11  25  45  69 102 136 183 232 283 341 408
#     4  12  22  38  64  96 136 182 225 277 331 401
#
# _framework density 21.387277000000001
#
# number of rings (size 3 to 8) (size 9 to 14) (size 15 to 20)
#    0.000    0.600    2.000    6.600    2.800    4.000 
#    0.000    4.000    0.000    0.000    0.000    0.000 
#    0.000    0.000    0.000    0.000    0.000    0.000 
#
# Total GULP energy -223880.382670 kJ/mol
# GULP energy per Si atom -5597.009567 kJ/mol
# Density = 2.133860 g / cm^3
# Si number density = 21.387277 Si / 1000 Ang^3
#
#
#
# Elastic Constant Matrix: (Units=GPa)
#
#
# Indices 1 2 3 4 5 6 
#
# 1 70.7432 13.1026 48.9620 0.0000 0.0000 0.0000
# 2 13.1026 67.9648 35.1582 0.0000 0.0000 0.0000
# 3 48.9620 35.1582 161.5882 0.0000 0.0000 0.0000
# 4 0.0000 0.0000 0.0000 32.5767 0.0000 0.0000
# 5 0.0000 0.0000 0.0000 0.0000 10.3022 0.0000
# 6 0.0000 0.0000 0.0000 0.0000 0.0000 30.2263
#
#
#
# Elastic Compliance Matrix: (Units=1/GPa)
#
#
# Indices 1 2 3 4 5 6 
#
# 1 0.017919 -0.000728 -0.005271 0.000000 0.000000 0.000000
# 2 -0.000728 0.016609 -0.003393 0.000000 0.000000 0.000000
# 3 -0.005271 -0.003393 0.008524 0.000000 0.000000 0.000000
# 4 0.000000 0.000000 0.000000 0.030697 0.000000 0.000000
# 5 0.000000 0.000000 0.000000 0.000000 0.097066 0.000000
# 6 0.000000 0.000000 0.000000 0.000000 0.000000 0.033084
#
#
# Mechanical properties :
#
#
# Convention : Reuss Voigt Hill
#
# Bulk Modulus (GPa) = 41.20724 54.97131 48.08927
# Shear Modulus (GPa) = 21.66641 28.15928 24.91285
#
# Velocity S-wave (km/s) = 3.18630 3.63249 3.41668
# Velocity P-wave (km/s) = 5.73111 6.58421 6.17242
#
# Compressibility (1/GPa) = 0.02426758
#
# Stress axis : x y z
#
# Youngs Moduli (GPa) = 55.80808 60.20780 117.31531
#
# Poissons Ratio (x) = 0.04381 0.61838
# Poissons Ratio (y) = 0.04061 0.39809
# Poissons Ratio (z) = 0.29417 0.20430
#
# Static dielectric constant tensor:
#      x y z
#    x 1.735920 0.000000 0.000000 
#    y 0.000000 1.763350 0.000000 
#    z 0.000000 0.000000 1.831820 
# 
# From -- ./inp_files/11591.got.cif
#   From: 2010.05.17/outbox.cif.g08.bks.cpg/sg53_6_cif.got.tgz:11591.got - 2010.06.03 12:45:16.
