data_PCOD9419026
_publ_section_title
;
Structure prediction by ZEFSAII (Michael W. Deem and Ramdas Pophale) SiO2 
 PCOD9419026
Probable space group: P M N A
;
_chemical_formula_sum "Si O2"
_cell_formula_units_Z 26
_cell_length_a 10.519772
_cell_length_b 5.182242
_cell_length_c 17.211552
_cell_angle_alpha 90.000000
_cell_angle_beta 90.000000
_cell_angle_gamma 90.000000
_cell_volume 938.305043
_symmetry_space_group_name_H-M "P M N A"
_symmetry_group_IT_number 53
_symmetry_cell_setting 'orthorhombic'
loop_
_space_group_symop_operation_xyz
x,y,z
1/2-x,-y,1/2+z
x,-y,-z
1/2-x,y,1/2-z
-x,-y,-z
1/2+x,y,1/2-z
-x,y,z
1/2+x,-y,1/2+z
loop_
_atom_site_type_symbol
_atom_site_label
_atom_site_fract_x
_atom_site_fract_y
_atom_site_fract_z
Si Si1 0.146035 0.300657 0.837333
Si Si2 0.500000 0.182033 0.811080
Si Si3 0.000000 0.500000 0.000000
Si Si4 0.727886 0.214213 0.418996
Si Si5 0.500000 0.315883 0.087936
O O1 0.214100 0.569854 0.851388
O O2 0.000000 0.340936 0.873729
O O3 0.115342 0.232237 0.748687
O O4 0.209945 0.063500 0.880804
O O5 0.500000 0.396113 0.877740
O O6 0.500000 0.892174 0.841509
O O7 0.114472 0.708573 0.974909
O O8 0.867794 0.253975 0.453966
#
# Coordination Sequence:
#
# PCOD9419026 Si02
#       5
#     8   4   2   8   4
#     4  10  21  43  65 103 122 177 217 254 287 415
#     4  10  22  42  66  94 144 174 200 252 328 368
#     4  12  24  50  72  86 116 186 208 294 300 390
#     4  12  25  42  69  94 132 160 232 258 327 364
#     4  12  26  40  60 106 132 170 198 280 316 392
#
# _framework density 27.709537999999998
#
# number of rings (size 3 to 8) (size 9 to 14) (size 15 to 20)
#    0.923    0.000    3.077    3.692    0.000   10.462 
#    0.000    0.000    0.000    5.538    0.000    0.000 
#    0.000    0.000    0.000    0.000    0.000    0.000 
#
# Total GULP energy -145570.127503 kJ/mol
# GULP energy per Si atom -5598.851058 kJ/mol
# Density = 2.764647 g / cm^3
# Si number density = 27.709538 Si / 1000 Ang^3
#
#
#
# Elastic Constant Matrix: (Units=GPa)
#
#
# Indices 1 2 3 4 5 6 
#
# 1 248.4006 6.5018 33.1519 0.0000 0.0000 0.0000
# 2 6.5018 172.9956 55.6137 0.0000 0.0000 0.0000
# 3 33.1519 55.6137 106.8058 0.0000 0.0000 0.0000
# 4 0.0000 0.0000 0.0000 62.6567 0.0000 0.0000
# 5 0.0000 0.0000 0.0000 0.0000 -16.7436 0.0000
# 6 0.0000 0.0000 0.0000 0.0000 0.0000 37.9180
#
#
#
# Elastic Compliance Matrix: (Units=1/GPa)
#
#
# Indices 1 2 3 4 5 6 
#
# 1 0.004214 0.000315 -0.001472 0.000000 0.000000 0.000000
# 2 0.000315 0.006966 -0.003725 0.000000 0.000000 0.000000
# 3 -0.001472 -0.003725 0.011759 0.000000 0.000000 0.000000
# 4 0.000000 0.000000 0.000000 0.015960 0.000000 0.000000
# 5 0.000000 0.000000 0.000000 0.000000 -0.059724 0.000000
# 6 0.000000 0.000000 0.000000 0.000000 0.000000 0.026373
#
#
# Mechanical properties :
#
#
# Convention : Reuss Voigt Hill
#
# Bulk Modulus (GPa) = 75.90023 79.85965 77.87994
# Shear Modulus (GPa) = 253.76228 45.62853 149.69541
#
# Velocity S-wave (km/s) = 9.58009 4.06232 7.35801
# Velocity P-wave (km/s) = 12.24017 7.13345 10.01768
#
# Compressibility (1/GPa) = 0.01317519
#
# Stress axis : x y z
#
# Youngs Moduli (GPa) = 237.30662 143.55125 85.03941
#
# Poissons Ratio (x) = -0.04519 0.12517
# Poissons Ratio (y) = -0.07471 0.31677
# Poissons Ratio (z) = 0.34929 0.53473
#
# Static dielectric constant tensor:
#      x y z
#    x 2.314850 0.000000 0.000000 
#    y 0.000000 1.998110 0.000000 
#    z 0.000000 0.000000 1.543650 
# 
# From -- ./inp_files/27156.got.cif
#   From: 2010.05.17/outbox.cif.g08.bks.cpg/sg53_14_cif.got.tgz:27156.got - 2010.06.03 12:45:16.
