data_PCOD9419423
_publ_section_title
;
Structure prediction by ZEFSAII (Michael W. Deem and Ramdas Pophale) SiO2 
 PCOD9419423
Probable space group: P M N A
;
_chemical_formula_sum "Si O2"
_cell_formula_units_Z 34
_cell_length_a 21.253157
_cell_length_b 7.495695
_cell_length_c 9.592656
_cell_angle_alpha 90.000000
_cell_angle_beta 90.000000
_cell_angle_gamma 90.000000
_cell_volume 1528.179002
_symmetry_space_group_name_H-M "P M N A"
_symmetry_group_IT_number 53
_symmetry_cell_setting 'orthorhombic'
loop_
_space_group_symop_operation_xyz
x,y,z
1/2-x,-y,1/2+z
x,-y,-z
1/2-x,y,1/2-z
-x,-y,-z
1/2+x,y,1/2-z
-x,y,z
1/2+x,-y,1/2+z
loop_
_atom_site_type_symbol
_atom_site_label
_atom_site_fract_x
_atom_site_fract_y
_atom_site_fract_z
Si Si1 0.838654 0.227321 0.193415
Si Si2 0.779374 0.311464 0.458642
Si Si3 0.572411 0.785331 0.462020
Si Si4 0.000000 0.000000 0.500000
Si Si5 0.879415 0.854986 0.329845
O O1 0.819750 0.353859 0.319891
O O2 0.778205 0.191688 0.095326
O O3 0.857536 0.048480 0.274641
O O4 0.892955 0.297847 0.094054
O O5 0.750419 0.500000 0.500000
O O6 0.824784 0.228081 0.574383
O O7 0.500000 0.735684 0.453299
O O8 0.605634 0.754229 0.314511
O O9 0.575134 0.000000 0.500000
O O10 0.943722 0.111513 0.584441
#
# Coordination Sequence:
#
# PCOD9419423 Si02
#       5
#     8   8   8   2   8
#     4  10  23  40  64  96 123 170 222 276 328 393
#     4  11  25  44  63  92 136 177 215 274 347 413
#     4   9  19  34  61  94 124 157 208 273 330 376
#     4  12  20  40  72 104 128 172 228 294 328 400
#     4  11  22  41  70  98 130 171 228 272 337 405
#
# _framework density 22.248702999999999
#
# number of rings (size 3 to 8) (size 9 to 14) (size 15 to 20)
#    0.000    1.647    3.529    0.000    1.647   16.000 
#    0.000    0.588    0.000    2.118    0.000    0.000 
#    0.000    0.000    0.000    0.000    0.000    0.000 
#
# Total GULP energy -189316.984329 kJ/mol
# GULP energy per Si atom -5568.146598 kJ/mol
# Density = 2.219806 g / cm^3
# Si number density = 22.248703 Si / 1000 Ang^3
#
#
#
# Elastic Constant Matrix: (Units=GPa)
#
#
# Indices 1 2 3 4 5 6 
#
# 1 82.4801 5.3594 24.2954 0.0000 0.0000 0.0000
# 2 5.3594 30.3697 5.6260 0.0000 0.0000 0.0000
# 3 24.2954 5.6260 113.4914 0.0000 0.0000 0.0000
# 4 0.0000 0.0000 0.0000 15.1425 0.0000 0.0000
# 5 0.0000 0.0000 0.0000 0.0000 43.1915 0.0000
# 6 0.0000 0.0000 0.0000 0.0000 0.0000 11.5401
#
#
#
# Elastic Compliance Matrix: (Units=1/GPa)
#
#
# Indices 1 2 3 4 5 6 
#
# 1 0.013037 -0.001800 -0.002702 0.000000 0.000000 0.000000
# 2 -0.001800 0.033481 -0.001274 0.000000 0.000000 0.000000
# 3 -0.002702 -0.001274 0.009453 0.000000 0.000000 0.000000
# 4 0.000000 0.000000 0.000000 0.066039 0.000000 0.000000
# 5 0.000000 0.000000 0.000000 0.000000 0.023153 0.000000
# 6 0.000000 0.000000 0.000000 0.000000 0.000000 0.086654
#
#
# Mechanical properties :
#
#
# Convention : Reuss Voigt Hill
#
# Bulk Modulus (GPa) = 22.51306 32.98920 27.75113
# Shear Modulus (GPa) = 19.36664 26.71217 23.03940
#
# Velocity S-wave (km/s) = 2.95356 3.46875 3.22147
# Velocity P-wave (km/s) = 4.66606 5.55901 5.13200
#
# Compressibility (1/GPa) = 0.04441866
#
# Stress axis : x y z
#
# Youngs Moduli (GPa) = 76.70536 29.86744 105.78924
#
# Poissons Ratio (x) = 0.05377 0.28580
# Poissons Ratio (y) = 0.13808 0.13481
# Poissons Ratio (z) = 0.20723 0.03806
#
# Static dielectric constant tensor:
#      x y z
#    x 1.816070 0.000000 0.000000 
#    y 0.000000 1.853820 0.000000 
#    z 0.000000 0.000000 1.752900 
# 
# From -- ./inp_files/10571.got.cif
#   From: 2010.05.17/outbox.cif.g08.bks.cpg/sg53_6_cif.got.tgz:10571.got - 2010.06.03 12:45:16.
