data_PCOD9419350
_publ_section_title
;
Structure prediction by ZEFSAII (Michael W. Deem and Ramdas Pophale) SiO2 
 PCOD9419350
Probable space group: P M N A
;
_chemical_formula_sum "Si O2"
_cell_formula_units_Z 58
_cell_length_a 25.500126
_cell_length_b 9.568950
_cell_length_c 11.095638
_cell_angle_alpha 90.000000
_cell_angle_beta 90.000000
_cell_angle_gamma 90.000000
_cell_volume 2707.440311
_symmetry_space_group_name_H-M "P M N A"
_symmetry_group_IT_number 53
_symmetry_cell_setting 'orthorhombic'
loop_
_space_group_symop_operation_xyz
x,y,z
1/2-x,-y,1/2+z
x,-y,-z
1/2-x,y,1/2-z
-x,-y,-z
1/2+x,y,1/2-z
-x,y,z
1/2+x,-y,1/2+z
loop_
_atom_site_type_symbol
_atom_site_label
_atom_site_fract_x
_atom_site_fract_y
_atom_site_fract_z
Si Si1 0.372623 0.456012 0.263878
Si Si2 0.226399 0.373355 0.082740
Si Si3 0.131743 0.770485 0.307239
Si Si4 0.835133 0.244142 0.418704
Si Si5 0.000000 0.000000 0.500000
Si Si6 0.938703 0.760032 0.911990
Si Si7 0.657112 0.150543 0.557419
Si Si8 0.415040 0.049114 0.182822
O O1 0.314334 0.440841 0.322527
O O2 0.383449 0.615924 0.235089
O O3 0.370593 0.365681 0.141452
O O4 0.412941 0.380418 0.354940
O O5 0.276384 0.282283 0.119341
O O6 0.246917 0.500000 0.000000
O O7 0.191050 0.268050 0.006617
O O8 0.158674 0.762075 0.437711
O O9 0.166086 0.836757 0.199360
O O10 0.084547 0.881628 0.311854
O O11 0.858106 0.104573 0.358083
O O12 0.954765 0.084194 0.422809
O O13 0.930067 0.877177 0.807482
O O14 0.000000 0.745189 0.938060
O O15 0.903020 0.809686 0.023380
O O16 0.668169 0.000000 0.500000
#
# Coordination Sequence:
#
# PCOD9419350 Si02
#       8
#     8   8   8   8   2   8   8   8
#     4  10  23  42  67  94 134 173 221 277 328 408
#     4  11  22  43  69  91 132 177 218 269 335 397
#     4  12  22  43  64  97 136 165 227 278 327 404
#     4  11  24  41  65 100 130 176 221 269 334 401
#     4  12  20  44  68  96 132 180 224 278 362 400
#     4  10  22  43  65  93 129 173 217 274 346 400
#     4  11  24  41  64  95 130 172 220 280 332 402
#     4  11  23  41  70  95 133 175 224 285 337 406
#
# _framework density 21.422446000000001
#
# number of rings (size 3 to 8) (size 9 to 14) (size 15 to 20)
#    0.000    1.103    4.828    1.655    0.000    1.931 
#    2.483    0.690    0.000    3.310    0.000    0.000 
#    0.000    0.000    0.000    0.000    0.000    0.000 
#
# Total GULP energy -323397.864819 kJ/mol
# GULP energy per Si atom -5575.825255 kJ/mol
# Density = 2.137369 g / cm^3
# Si number density = 21.422446 Si / 1000 Ang^3
#
#
#
# Elastic Constant Matrix: (Units=GPa)
#
#
# Indices 1 2 3 4 5 6 
#
# 1 99.6463 15.4189 0.6523 0.0000 0.0000 0.0000
# 2 15.4189 117.7023 35.0910 0.0000 0.0000 0.0000
# 3 0.6523 35.0910 78.8919 0.0000 0.0000 0.0000
# 4 0.0000 0.0000 0.0000 26.1872 0.0000 0.0000
# 5 0.0000 0.0000 0.0000 0.0000 -48.1497 0.0000
# 6 0.0000 0.0000 0.0000 0.0000 0.0000 -712.0409
#
#
#
# Elastic Compliance Matrix: (Units=1/GPa)
#
#
# Indices 1 2 3 4 5 6 
#
# 1 0.010267 -0.001521 0.000592 0.000000 0.000000 0.000000
# 2 -0.001521 0.010020 -0.004444 0.000000 0.000000 0.000000
# 3 0.000592 -0.004444 0.014648 0.000000 0.000000 0.000000
# 4 0.000000 0.000000 0.000000 0.038187 0.000000 0.000000
# 5 0.000000 0.000000 0.000000 0.000000 -0.020769 0.000000
# 6 0.000000 0.000000 0.000000 0.000000 0.000000 -0.001404
#
#
# Mechanical properties :
#
#
# Convention : Reuss Voigt Hill
#
# Bulk Modulus (GPa) = 41.34477 44.28502 42.81489
# Shear Modulus (GPa) = 71.67543 -130.46212 -29.39335
#
# Velocity S-wave (km/s) = 5.79057 -7.81229 -3.70818
# Velocity P-wave (km/s) = 8.00308 7.78838 1.30202
#
# Compressibility (1/GPa) = 0.02418685
#
# Stress axis : x y z
#
# Youngs Moduli (GPa) = 97.39910 99.79683 68.27075
#
# Poissons Ratio (x) = 0.15183 -0.04040
# Poissons Ratio (y) = 0.14818 0.30343
# Poissons Ratio (z) = -0.05764 0.44354
#
# Static dielectric constant tensor:
#      x y z
#    x 1.670430 0.000000 0.000000 
#    y 0.000000 1.795880 0.000000 
#    z 0.000000 0.000000 1.858510 
# 
# From -- ./inp_files/18787.got.cif
#   From: 2010.05.17/outbox.cif.g08.bks.cpg/sg53_10_cif.got.tgz:18787.got - 2010.06.03 12:45:16.
