data_PCOD9419301
_publ_section_title
;
Structure prediction by ZEFSAII (Michael W. Deem and Ramdas Pophale) SiO2 
 PCOD9419301
Probable space group: P M N A
;
_chemical_formula_sum "Si O2"
_cell_formula_units_Z 40
_cell_length_a 19.316257
_cell_length_b 11.616875
_cell_length_c 8.277705
_cell_angle_alpha 90.000000
_cell_angle_beta 90.000000
_cell_angle_gamma 90.000000
_cell_volume 1857.471831
_symmetry_space_group_name_H-M "P M N A"
_symmetry_group_IT_number 53
_symmetry_cell_setting 'orthorhombic'
loop_
_space_group_symop_operation_xyz
x,y,z
1/2-x,-y,1/2+z
x,-y,-z
1/2-x,y,1/2-z
-x,-y,-z
1/2+x,y,1/2-z
-x,y,z
1/2+x,-y,1/2+z
loop_
_atom_site_type_symbol
_atom_site_label
_atom_site_fract_x
_atom_site_fract_y
_atom_site_fract_z
Si Si1 0.420219 0.265110 0.340275
Si Si2 0.172177 0.532932 0.688808
Si Si3 0.575610 0.911683 0.150685
Si Si4 0.819523 0.948389 0.827752
Si Si5 0.423883 0.331780 0.718209
O O1 0.500000 0.258616 0.284195
O O2 0.377230 0.361757 0.243321
O O3 0.379337 0.146230 0.323147
O O4 0.421780 0.287396 0.533581
O O5 0.172594 0.500000 0.500000
O O6 0.250000 0.554154 0.750000
O O7 0.137828 0.420745 0.768346
O O8 0.500000 0.931555 0.234487
O O9 0.579634 0.772524 0.151356
O O10 0.646225 0.945501 0.235834
O O11 0.573784 0.000000 0.000000
O O12 0.750000 0.901455 0.750000
O O13 0.802043 0.000000 0.000000
O O14 0.500000 0.388100 0.740571
#
# Coordination Sequence:
#
# PCOD9419301 Si02
#       5
#     8   8   8   8   8
#     4  11  24  45  73 101 136 181 232 288 350 423
#     4  12  27  46  69 101 138 181 230 289 354 423
#     4  10  22  41  67 100 137 180 228 278 335 405
#     4  12  25  43  66  99 139 181 230 282 349 413
#     4  10  22  43  70 100 137 182 230 284 346 414
#
# _framework density 21.534645999999999
#
# number of rings (size 3 to 8) (size 9 to 14) (size 15 to 20)
#    0.000    1.000    2.000    4.200    2.800    4.800 
#    3.600    0.000    0.000    0.000    0.000    0.000 
#    0.000    0.000    0.000    0.000    0.000    0.000 
#
# Total GULP energy -223199.796938 kJ/mol
# GULP energy per Si atom -5579.994923 kJ/mol
# Density = 2.148563 g / cm^3
# Si number density = 21.534646 Si / 1000 Ang^3
#
#
#
# Elastic Constant Matrix: (Units=GPa)
#
#
# Indices 1 2 3 4 5 6 
#
# 1 175.7490 55.6923 33.9487 0.0000 0.0000 0.0000
# 2 55.6923 89.9230 19.1020 0.0000 0.0000 0.0000
# 3 33.9487 19.1020 62.4152 0.0000 0.0000 0.0000
# 4 0.0000 0.0000 0.0000 16.9953 0.0000 0.0000
# 5 0.0000 0.0000 0.0000 0.0000 32.2263 0.0000
# 6 0.0000 0.0000 0.0000 0.0000 0.0000 56.3104
#
#
#
# Elastic Compliance Matrix: (Units=1/GPa)
#
#
# Indices 1 2 3 4 5 6 
#
# 1 0.007526 -0.004055 -0.002852 0.000000 0.000000 0.000000
# 2 -0.004055 0.014079 -0.002103 0.000000 0.000000 0.000000
# 3 -0.002852 -0.002103 0.018217 0.000000 0.000000 0.000000
# 4 0.000000 0.000000 0.000000 0.058840 0.000000 0.000000
# 5 0.000000 0.000000 0.000000 0.000000 0.031031 0.000000
# 6 0.000000 0.000000 0.000000 0.000000 0.000000 0.017759
#
#
# Mechanical properties :
#
#
# Convention : Reuss Voigt Hill
#
# Bulk Modulus (GPa) = 45.87094 60.61923 53.24509
# Shear Modulus (GPa) = 28.94539 35.72933 32.33736
#
# Velocity S-wave (km/s) = 3.67022 4.07769 3.87931
# Velocity P-wave (km/s) = 6.26960 7.09795 6.69659
#
# Compressibility (1/GPa) = 0.02180029
#
# Stress axis : x y z
#
# Youngs Moduli (GPa) = 132.87381 71.02841 54.89414
#
# Poissons Ratio (x) = 0.28803 0.15658
# Poissons Ratio (y) = 0.53882 0.11545
# Poissons Ratio (z) = 0.37901 0.14938
#
# Static dielectric constant tensor:
#      x y z
#    x 1.745810 0.000000 0.000000 
#    y 0.000000 2.007700 0.000000 
#    z 0.000000 0.000000 1.850790 
# 
# From -- ./inp_files/9601.got.cif
#   From: 2010.05.17/outbox.cif.g08.bks.cpg/sg53_5_cif.got.tgz:9601.got - 2010.06.03 12:45:16.
