data_PCOD9419493
_publ_section_title
;
Structure prediction by ZEFSAII (Michael W. Deem and Ramdas Pophale) SiO2 
 PCOD9419493
Probable space group: P M N A
;
_chemical_formula_sum "Si O2"
_cell_formula_units_Z 40
_cell_length_a 8.879144
_cell_length_b 14.702968
_cell_length_c 15.015443
_cell_angle_alpha 90.000000
_cell_angle_beta 90.000000
_cell_angle_gamma 90.000000
_cell_volume 1960.262632
_symmetry_space_group_name_H-M "P M N A"
_symmetry_group_IT_number 53
_symmetry_cell_setting 'orthorhombic'
loop_
_space_group_symop_operation_xyz
x,y,z
1/2-x,-y,1/2+z
x,-y,-z
1/2-x,y,1/2-z
-x,-y,-z
1/2+x,y,1/2-z
-x,y,z
1/2+x,-y,1/2+z
loop_
_atom_site_type_symbol
_atom_site_label
_atom_site_fract_x
_atom_site_fract_y
_atom_site_fract_z
Si Si1 0.174435 0.891470 0.496064
Si Si2 0.672465 0.561261 0.590572
Si Si3 0.181614 0.748178 0.649834
Si Si4 0.175249 0.392083 0.655952
Si Si5 0.823175 0.781063 0.152921
O O1 0.208415 0.837230 0.587884
O O2 0.280652 0.858057 0.416901
O O3 0.000000 0.867542 0.473538
O O4 0.184439 0.000000 0.500000
O O5 0.665954 0.500000 0.500000
O O6 0.500000 0.561194 0.624849
O O7 0.739315 0.661809 0.600960
O O8 0.788359 0.496300 0.641026
O O9 0.250000 0.755656 0.750000
O O10 0.000000 0.734258 0.655328
O O11 0.250000 0.374128 0.750000
O O12 0.259206 0.311147 0.604832
O O13 0.000000 0.375638 0.651409
O O14 0.750000 0.801230 0.250000
O O15 0.000000 0.769786 0.165561
#
# Coordination Sequence:
#
# PCOD9419493 Si02
#       5
#     8   8   8   8   8
#     4  10  23  44  67  92 123 160 206 264 328 390
#     4  11  23  38  58  86 122 162 205 253 304 364
#     4  11  24  42  65  92 128 172 217 267 322 386
#     4  11  21  35  56  82 115 152 192 236 287 349
#     4  11  22  38  62  92 126 162 204 256 315 380
#
# _framework density 20.405429000000002
#
# number of rings (size 3 to 8) (size 9 to 14) (size 15 to 20)
#    0.000    1.200    0.000    7.800    0.000    7.600 
#    0.000    2.000    0.000    0.000    0.000    0.000 
#    0.000    0.000    0.000    0.000    0.000    0.000 
#
# Total GULP energy -222863.141153 kJ/mol
# GULP energy per Si atom -5571.578529 kJ/mol
# Density = 2.035899 g / cm^3
# Si number density = 20.405429 Si / 1000 Ang^3
#
#
#
# Elastic Constant Matrix: (Units=GPa)
#
#
# Indices 1 2 3 4 5 6 
#
# 1 170.2605 58.2265 50.3335 0.0000 0.0000 0.0000
# 2 58.2265 115.8168 38.9177 0.0000 0.0000 0.0000
# 3 50.3335 38.9177 104.8706 0.0000 0.0000 0.0000
# 4 0.0000 0.0000 0.0000 9.6062 0.0000 0.0000
# 5 0.0000 0.0000 0.0000 0.0000 52.9600 0.0000
# 6 0.0000 0.0000 0.0000 0.0000 0.0000 144.3555
#
#
#
# Elastic Compliance Matrix: (Units=1/GPa)
#
#
# Indices 1 2 3 4 5 6 
#
# 1 0.007653 -0.002985 -0.002565 0.000000 0.000000 0.000000
# 2 -0.002985 0.011029 -0.002660 0.000000 0.000000 0.000000
# 3 -0.002565 -0.002660 0.011754 0.000000 0.000000 0.000000
# 4 0.000000 0.000000 0.000000 0.104099 0.000000 0.000000
# 5 0.000000 0.000000 0.000000 0.000000 0.018882 0.000000
# 6 0.000000 0.000000 0.000000 0.000000 0.000000 0.006927
#
#
# Mechanical properties :
#
#
# Convention : Reuss Voigt Hill
#
# Bulk Modulus (GPa) = 71.35451 76.21148 73.78299
# Shear Modulus (GPa) = 27.55779 57.61568 42.58673
#
# Velocity S-wave (km/s) = 3.67892 5.31947 4.57336
# Velocity P-wave (km/s) = 7.28630 8.66941 8.00778
#
# Compressibility (1/GPa) = 0.01401453
#
# Stress axis : x y z
#
# Youngs Moduli (GPa) = 130.67442 90.66947 85.07868
#
# Poissons Ratio (x) = 0.27068 0.21823
# Poissons Ratio (y) = 0.39011 0.22631
# Poissons Ratio (z) = 0.33519 0.24118
#
# Static dielectric constant tensor:
#      x y z
#    x 1.717920 0.000000 0.000000 
#    y 0.000000 1.862300 0.000000 
#    z 0.000000 0.000000 1.847090 
# 
# From -- ./inp_files/19903.got.cif
#   From: 2010.05.17/outbox.cif.g08.bks.cpg/sg53_10_cif.got.tgz:19903.got - 2010.06.03 12:45:16.
