data_PCOD9419533
_publ_section_title
;
Structure prediction by ZEFSAII (Michael W. Deem and Ramdas Pophale) SiO2 
 PCOD9419533
Probable space group: P M N A
;
_chemical_formula_sum "Si O2"
_cell_formula_units_Z 36
_cell_length_a 18.971989
_cell_length_b 7.974571
_cell_length_c 10.137377
_cell_angle_alpha 90.000000
_cell_angle_beta 90.000000
_cell_angle_gamma 90.000000
_cell_volume 1533.718976
_symmetry_space_group_name_H-M "P M N A"
_symmetry_group_IT_number 53
_symmetry_cell_setting 'orthorhombic'
loop_
_space_group_symop_operation_xyz
x,y,z
1/2-x,-y,1/2+z
x,-y,-z
1/2-x,y,1/2-z
-x,-y,-z
1/2+x,y,1/2-z
-x,y,z
1/2+x,-y,1/2+z
loop_
_atom_site_type_symbol
_atom_site_label
_atom_site_fract_x
_atom_site_fract_y
_atom_site_fract_z
Si Si1 0.853823 0.769333 0.800559
Si Si2 0.766861 0.000000 0.000000
Si Si3 0.863671 0.814898 0.494444
Si Si4 0.000000 0.635993 0.390701
Si Si5 0.500000 0.950839 0.655296
Si Si6 0.122440 0.500000 0.000000
Si Si7 0.000000 0.683423 0.131339
O O1 0.844628 0.753321 0.642808
O O2 0.932448 0.844668 0.808987
O O3 0.810071 0.908203 0.884740
O O4 0.840939 0.594248 0.878461
O O5 0.713262 0.137739 0.936150
O O6 0.921886 0.714367 0.415340
O O7 0.898071 0.000000 0.500000
O O8 0.000000 0.500000 0.500000
O O9 0.000000 0.549772 0.248073
O O10 0.500000 0.141245 0.709317
O O11 0.500000 0.000000 0.500000
O O12 0.070171 0.353258 0.948194
#
# Coordination Sequence:
#
# PCOD9419533 Si02
#       7
#     8   4   8   4   4   4   4
#     4  12  21  42  63  98 130 171 225 278 335 402
#     4  10  24  42  66  90 128 174 228 280 330 400
#     4  10  24  42  67  90 128 179 217 278 334 400
#     4  12  23  42  65  99 137 173 220 282 354 422
#     4  12  19  34  66  94 124 159 226 275 311 383
#     4  11  22  36  64  96 134 173 210 282 352 393
#     4  11  21  37  60 103 133 165 223 280 338 406
#
# _framework density 23.472356999999999
#
# number of rings (size 3 to 8) (size 9 to 14) (size 15 to 20)
#    0.667    0.222    3.333    5.000    0.000    0.000 
#    2.000    0.000    0.000    0.000    0.000    0.000 
#    0.000    0.000    0.000    0.000    0.000    0.000 
#
# Total GULP energy -200481.595729 kJ/mol
# GULP energy per Si atom -5568.933215 kJ/mol
# Density = 2.341893 g / cm^3
# Si number density = 23.472357 Si / 1000 Ang^3
#
#
#
# Elastic Constant Matrix: (Units=GPa)
#
#
# Indices 1 2 3 4 5 6 
#
# 1 130.1446 13.8692 13.4285 0.0000 0.0000 0.0000
# 2 13.8692 63.9056 5.4096 0.0000 0.0000 0.0000
# 3 13.4285 5.4096 99.3799 0.0000 0.0000 0.0000
# 4 0.0000 0.0000 0.0000 27.0864 0.0000 0.0000
# 5 0.0000 0.0000 0.0000 0.0000 17.4807 0.0000
# 6 0.0000 0.0000 0.0000 0.0000 0.0000 -76.2987
#
#
#
# Elastic Compliance Matrix: (Units=1/GPa)
#
#
# Indices 1 2 3 4 5 6 
#
# 1 0.007961 -0.001644 -0.000986 0.000000 0.000000 0.000000
# 2 -0.001644 0.016060 -0.000652 0.000000 0.000000 0.000000
# 3 -0.000986 -0.000652 0.010231 0.000000 0.000000 0.000000
# 4 0.000000 0.000000 0.000000 0.036919 0.000000 0.000000
# 5 0.000000 0.000000 0.000000 0.000000 0.057206 0.000000
# 6 0.000000 0.000000 0.000000 0.000000 0.000000 -0.013106
#
#
# Mechanical properties :
#
#
# Convention : Reuss Voigt Hill
#
# Bulk Modulus (GPa) = 36.11782 39.87162 37.99472
# Shear Modulus (GPa) = 38.14919 11.03519 24.59219
#
# Velocity S-wave (km/s) = 4.03585 2.17061 3.24034
# Velocity P-wave (km/s) = 6.09412 4.82759 5.49745
#
# Compressibility (1/GPa) = 0.02768716
#
# Stress axis : x y z
#
# Youngs Moduli (GPa) = 125.61657 62.26604 97.74081
#
# Poissons Ratio (x) = 0.10238 0.09639
# Poissons Ratio (y) = 0.20654 0.06373
# Poissons Ratio (z) = 0.12388 0.04060
#
# Static dielectric constant tensor:
#      x y z
#    x 1.987830 0.000000 0.000000 
#    y 0.000000 2.549160 0.000000 
#    z 0.000000 0.000000 2.067220 
# 
# From -- ./inp_files/17612.got.cif
#   From: 2010.05.17/outbox.cif.g08.bks.cpg/sg53_9_cif.got.tgz:17612.got - 2010.06.03 12:45:16.
