data_PCOD9419969
_publ_section_title
;
Structure prediction by ZEFSAII (Michael W. Deem and Ramdas Pophale) SiO2 
 PCOD9419969
Probable space group: P M N A
;
_chemical_formula_sum "Si O2"
_cell_formula_units_Z 32
_cell_length_a 31.003942
_cell_length_b 9.637564
_cell_length_c 4.955245
_cell_angle_alpha 90.000000
_cell_angle_beta 90.000000
_cell_angle_gamma 90.000000
_cell_volume 1480.639472
_symmetry_space_group_name_H-M "P M N A"
_symmetry_group_IT_number 53
_symmetry_cell_setting 'orthorhombic'
loop_
_space_group_symop_operation_xyz
x,y,z
1/2-x,-y,1/2+z
x,-y,-z
1/2-x,y,1/2-z
-x,-y,-z
1/2+x,y,1/2-z
-x,y,z
1/2+x,-y,1/2+z
loop_
_atom_site_type_symbol
_atom_site_label
_atom_site_fract_x
_atom_site_fract_y
_atom_site_fract_z
Si Si1 0.664485 0.093929 0.257292
Si Si2 0.220582 0.696537 0.992878
Si Si3 0.138969 0.346832 0.628899
Si Si4 0.546390 0.604083 0.251883
O O1 0.707618 0.153714 0.385537
O O2 0.643514 0.000000 0.500000
O O3 0.645898 0.233798 0.109431
O O4 0.671584 0.000000 0.000000
O O5 0.250000 0.703021 0.250000
O O6 0.174965 0.649851 0.133314
O O7 0.250000 0.628065 0.750000
O O8 0.139877 0.500000 0.500000
O O9 0.091320 0.315354 0.744840
O O10 0.547902 0.500000 0.500000
O O11 0.500000 0.680539 0.255901
O O12 0.546101 0.500000 0.000000
#
# Coordination Sequence:
#
# PCOD9419969 Si02
#       4
#     8   8   8   8
#     4  12  25  47  66  96 132 182 232 285 337 400
#     4  12  25  47  65  99 133 181 233 279 331 400
#     4  11  26  45  73 100 142 181 225 284 353 408
#     4   9  20  38  67 102 133 170 224 283 339 408
#
# _framework density 21.612283000000001
#
# number of rings (size 3 to 8) (size 9 to 14) (size 15 to 20)
#    0.000    1.000    5.000    0.000    7.000    2.000 
#    9.000    0.000    0.000    1.500    0.000    0.000 
#    0.000    0.000    0.000    0.000    0.000    0.000 
#
# Total GULP energy -178148.335775 kJ/mol
# GULP energy per Si atom -5567.135493 kJ/mol
# Density = 2.156309 g / cm^3
# Si number density = 21.612283 Si / 1000 Ang^3
#
#
#
# Elastic Constant Matrix: (Units=GPa)
#
#
# Indices 1 2 3 4 5 6 
#
# 1 197.1945 35.7213 67.5981 0.0000 0.0000 0.0000
# 2 35.7213 119.0057 48.7786 0.0000 0.0000 0.0000
# 3 67.5981 48.7786 197.3301 0.0000 0.0000 0.0000
# 4 0.0000 0.0000 0.0000 34.8565 0.0000 0.0000
# 5 0.0000 0.0000 0.0000 0.0000 19.4209 0.0000
# 6 0.0000 0.0000 0.0000 0.0000 0.0000 9.6624
#
#
#
# Elastic Compliance Matrix: (Units=1/GPa)
#
#
# Indices 1 2 3 4 5 6 
#
# 1 0.005860 -0.001042 -0.001750 0.000000 0.000000 0.000000
# 2 -0.001042 0.009536 -0.002000 0.000000 0.000000 0.000000
# 3 -0.001750 -0.002000 0.006162 0.000000 0.000000 0.000000
# 4 0.000000 0.000000 0.000000 0.028689 0.000000 0.000000
# 5 0.000000 0.000000 0.000000 0.000000 0.051491 0.000000
# 6 0.000000 0.000000 0.000000 0.000000 0.000000 0.103494
#
#
# Mechanical properties :
#
#
# Convention : Reuss Voigt Hill
#
# Bulk Modulus (GPa) = 83.51977 90.85849 87.18913
# Shear Modulus (GPa) = 22.85140 36.88346 29.86743
#
# Velocity S-wave (km/s) = 3.25519 4.13558 3.72151
# Velocity P-wave (km/s) = 7.27027 8.05826 7.67438
#
# Compressibility (1/GPa) = 0.01197321
#
# Stress axis : x y z
#
# Youngs Moduli (GPa) = 170.65832 104.87122 162.29737
#
# Poissons Ratio (x) = 0.10924 0.28399
# Poissons Ratio (y) = 0.17776 0.32464
# Poissons Ratio (z) = 0.29862 0.20977
#
# Static dielectric constant tensor:
#      x y z
#    x 1.941510 0.000000 0.000000 
#    y 0.000000 1.904070 0.000000 
#    z 0.000000 0.000000 1.834410 
# 
# From -- ./inp_files/5033.got.cif
#   From: 2010.05.17/outbox.cif.g08.bks.cpg/sg53_3_cif.got.tgz:5033.got - 2010.06.03 12:45:16.
