data_PCOD9419200
_publ_section_title
;
Structure prediction by ZEFSAII (Michael W. Deem and Ramdas Pophale) SiO2 
 PCOD9419200
Probable space group: P M N A
;
_chemical_formula_sum "Si O2"
_cell_formula_units_Z 36
_cell_length_a 19.000345
_cell_length_b 16.005164
_cell_length_c 5.821876
_cell_angle_alpha 90.000000
_cell_angle_beta 90.000000
_cell_angle_gamma 90.000000
_cell_volume 1770.453670
_symmetry_space_group_name_H-M "P M N A"
_symmetry_group_IT_number 53
_symmetry_cell_setting 'orthorhombic'
loop_
_space_group_symop_operation_xyz
x,y,z
1/2-x,-y,1/2+z
x,-y,-z
1/2-x,y,1/2-z
-x,-y,-z
1/2+x,y,1/2-z
-x,y,z
1/2+x,-y,1/2+z
loop_
_atom_site_type_symbol
_atom_site_label
_atom_site_fract_x
_atom_site_fract_y
_atom_site_fract_z
Si Si1 0.876470 0.500000 0.000000
Si Si2 0.673023 0.346882 0.221535
Si Si3 0.787425 0.100305 0.998953
Si Si4 0.419739 0.218602 0.481180
Si Si5 0.424982 0.632684 0.160577
O O1 0.831122 0.571029 0.877095
O O2 0.923317 0.446740 0.826605
O O3 0.750000 0.310296 0.250000
O O4 0.614044 0.279857 0.291837
O O5 0.647781 0.373921 0.973532
O O6 0.750000 0.122916 0.750000
O O7 0.750000 0.120131 0.250000
O O8 0.863510 0.144887 0.992422
O O9 0.794096 0.000000 0.000000
O O10 0.500000 0.192785 0.430000
O O11 0.422363 0.280420 0.700781
O O12 0.500000 0.629810 0.029923
#
# Coordination Sequence:
#
# PCOD9419200 Si02
#       5
#     4   8   8   8   8
#     4  10  23  36  58  84 117 158 212 262 327 390
#     4  11  24  37  59  85 122 164 212 268 324 386
#     4  10  23  44  71 103 138 175 214 262 323 388
#     4  10  23  40  63  94 127 167 216 262 321 390
#     4  10  22  40  59  86 121 161 207 265 325 386
#
# _framework density 20.333772
#
# number of rings (size 3 to 8) (size 9 to 14) (size 15 to 20)
#    0.000    1.778    0.000    2.333    9.333    5.778 
#    0.000    0.000    0.000    4.000    0.000    0.000 
#    0.000    0.000    0.000    0.000    0.000    0.000 
#
# Total GULP energy -200595.496340 kJ/mol
# GULP energy per Si atom -5572.097121 kJ/mol
# Density = 2.028749 g / cm^3
# Si number density = 20.333772 Si / 1000 Ang^3
#
#
#
# Elastic Constant Matrix: (Units=GPa)
#
#
# Indices 1 2 3 4 5 6 
#
# 1 181.9148 59.3527 59.7651 0.0000 0.0000 0.0000
# 2 59.3527 92.3046 26.3850 0.0000 0.0000 0.0000
# 3 59.7651 26.3850 82.2160 0.0000 0.0000 0.0000
# 4 0.0000 0.0000 0.0000 -29.7121 0.0000 0.0000
# 5 0.0000 0.0000 0.0000 0.0000 30.6636 0.0000
# 6 0.0000 0.0000 0.0000 0.0000 0.0000 67.4636
#
#
#
# Elastic Compliance Matrix: (Units=1/GPa)
#
#
# Indices 1 2 3 4 5 6 
#
# 1 0.008388 -0.004019 -0.004807 0.000000 0.000000 0.000000
# 2 -0.004019 0.013854 -0.001524 0.000000 0.000000 0.000000
# 3 -0.004807 -0.001524 0.016147 0.000000 0.000000 0.000000
# 4 0.000000 0.000000 0.000000 -0.033656 0.000000 0.000000
# 5 0.000000 0.000000 0.000000 0.000000 0.032612 0.000000
# 6 0.000000 0.000000 0.000000 0.000000 0.000000 0.014823
#
#
# Mechanical properties :
#
#
# Convention : Reuss Voigt Hill
#
# Bulk Modulus (GPa) = 56.54012 71.93788 64.23900
# Shear Modulus (GPa) = 63.48025 27.74520 45.61272
#
# Velocity S-wave (km/s) = 5.59347 3.69791 4.74138
# Velocity P-wave (km/s) = 8.34160 7.32721 7.85080
#
# Compressibility (1/GPa) = 0.01768655
#
# Stress axis : x y z
#
# Youngs Moduli (GPa) = 119.22007 72.18226 61.93112
#
# Poissons Ratio (x) = 0.29012 0.29773
# Poissons Ratio (y) = 0.47918 0.09440
# Poissons Ratio (z) = 0.57315 0.11003
#
# Static dielectric constant tensor:
#      x y z
#    x 1.650260 0.000000 0.000000 
#    y 0.000000 1.693800 0.000000 
#    z 0.000000 0.000000 1.849870 
# 
# From -- ./inp_files/2800.got.cif
#   From: 2010.05.17/outbox.cif.g08.bks.cpg/sg53_2_cif.got.tgz:2800.got - 2010.06.03 12:45:16.
