data_PCOD9419092
_publ_section_title
;
Structure prediction by ZEFSAII (Michael W. Deem and Ramdas Pophale) SiO2 
 PCOD9419092
Probable space group: P M N A
;
_chemical_formula_sum "Si O2"
_cell_formula_units_Z 32
_cell_length_a 13.953427
_cell_length_b 10.208339
_cell_length_c 9.590232
_cell_angle_alpha 90.000000
_cell_angle_beta 90.000000
_cell_angle_gamma 90.000000
_cell_volume 1366.045238
_symmetry_space_group_name_H-M "P M N A"
_symmetry_group_IT_number 53
_symmetry_cell_setting 'orthorhombic'
loop_
_space_group_symop_operation_xyz
x,y,z
1/2-x,-y,1/2+z
x,-y,-z
1/2-x,y,1/2-z
-x,-y,-z
1/2+x,y,1/2-z
-x,y,z
1/2+x,-y,1/2+z
loop_
_atom_site_type_symbol
_atom_site_label
_atom_site_fract_x
_atom_site_fract_y
_atom_site_fract_z
Si Si1 0.393772 0.128160 0.672596
Si Si2 0.193154 0.206961 0.540717
Si Si3 0.289710 0.413697 0.387710
Si Si4 0.390877 0.835221 0.755702
O O1 0.500000 0.169340 0.623270
O O2 0.300087 0.175996 0.592972
O O3 0.377380 0.177987 0.831899
O O4 0.390360 0.970354 0.671728
O O5 0.202943 0.354155 0.480710
O O6 0.163829 0.132500 0.399714
O O7 0.346219 0.500000 0.500000
O O8 0.250000 0.485657 0.250000
O O9 0.345323 0.288534 0.323415
O O10 0.500000 0.802822 0.791254
#
# Coordination Sequence:
#
# PCOD9419092 Si02
#       4
#     8   8   8   8
#     4  10  22  37  63 100 134 168 217 270 331 410
#     4  10  22  37  67  90 134 178 211 271 340 391
#     4  10  24  42  66  93 126 179 232 273 323 390
#     4  10  22  40  64  98 133 172 221 272 331 398
#
# _framework density 23.425284000000001
#
# number of rings (size 3 to 8) (size 9 to 14) (size 15 to 20)
#    0.000    2.000    0.000    1.500   17.500    3.500 
#    0.000    2.500    0.000    3.750    0.000    0.000 
#    0.000    0.000    0.000    0.000    0.000    0.000 
#
# Total GULP energy -178754.851392 kJ/mol
# GULP energy per Si atom -5586.089106 kJ/mol
# Density = 2.337197 g / cm^3
# Si number density = 23.425284 Si / 1000 Ang^3
#
#
#
# Elastic Constant Matrix: (Units=GPa)
#
#
# Indices 1 2 3 4 5 6 
#
# 1 121.6853 13.8553 39.4402 0.0000 0.0000 0.0000
# 2 13.8553 55.9931 45.7818 0.0000 0.0000 0.0000
# 3 39.4402 45.7818 148.9709 0.0000 0.0000 0.0000
# 4 0.0000 0.0000 0.0000 49.3371 0.0000 0.0000
# 5 0.0000 0.0000 0.0000 0.0000 23.2780 0.0000
# 6 0.0000 0.0000 0.0000 0.0000 0.0000 6.5559
#
#
#
# Elastic Compliance Matrix: (Units=1/GPa)
#
#
# Indices 1 2 3 4 5 6 
#
# 1 0.008995 -0.000372 -0.002267 0.000000 0.000000 0.000000
# 2 -0.000372 0.023868 -0.007237 0.000000 0.000000 0.000000
# 3 -0.002267 -0.007237 0.009537 0.000000 0.000000 0.000000
# 4 0.000000 0.000000 0.000000 0.020269 0.000000 0.000000
# 5 0.000000 0.000000 0.000000 0.000000 0.042959 0.000000
# 6 0.000000 0.000000 0.000000 0.000000 0.000000 0.152534
#
#
# Mechanical properties :
#
#
# Convention : Reuss Voigt Hill
#
# Bulk Modulus (GPa) = 44.15303 58.31153 51.23228
# Shear Modulus (GPa) = 17.51537 31.00567 24.26052
#
# Velocity S-wave (km/s) = 2.73740 3.64208 3.22165
# Velocity P-wave (km/s) = 5.37406 6.52939 5.97969
#
# Compressibility (1/GPa) = 0.02264850
#
# Stress axis : x y z
#
# Youngs Moduli (GPa) = 111.17171 41.89638 104.85554
#
# Poissons Ratio (x) = 0.01559 0.23772
# Poissons Ratio (y) = 0.04137 0.75881
# Poissons Ratio (z) = 0.25204 0.30319
#
# Static dielectric constant tensor:
#      x y z
#    x 1.875780 0.000000 0.000000 
#    y 0.000000 1.976400 0.000000 
#    z 0.000000 0.000000 1.985990 
# 
# From -- ./inp_files/8136.got.cif
#   From: 2010.05.17/outbox.cif.g08.bks.cpg/sg53_5_cif.got.tgz:8136.got - 2010.06.03 12:45:16.
