data_PCOD9419746
_publ_section_title
;
Structure prediction by ZEFSAII (Michael W. Deem and Ramdas Pophale) SiO2 
 PCOD9419746
Probable space group: P M N A
;
_chemical_formula_sum "Si O2"
_cell_formula_units_Z 48
_cell_length_a 8.445191
_cell_length_b 21.454675
_cell_length_c 14.267248
_cell_angle_alpha 90.000000
_cell_angle_beta 90.000000
_cell_angle_gamma 90.000000
_cell_volume 2585.065947
_symmetry_space_group_name_H-M "P M N A"
_symmetry_group_IT_number 53
_symmetry_cell_setting 'orthorhombic'
loop_
_space_group_symop_operation_xyz
x,y,z
1/2-x,-y,1/2+z
x,-y,-z
1/2-x,y,1/2-z
-x,-y,-z
1/2+x,y,1/2-z
-x,y,z
1/2+x,-y,1/2+z
loop_
_atom_site_type_symbol
_atom_site_label
_atom_site_fract_x
_atom_site_fract_y
_atom_site_fract_z
Si Si1 0.808788 0.534838 0.355679
Si Si2 0.690768 0.605266 0.854538
Si Si3 0.193274 0.659836 0.459089
Si Si4 0.689005 0.907650 0.460819
Si Si5 0.188997 0.030338 0.355374
Si Si6 0.190563 0.785582 0.356412
O O1 0.750000 0.541904 0.250000
O O2 0.759261 0.465007 0.385157
O O3 0.753558 0.595087 0.412114
O O4 0.000000 0.535317 0.359245
O O5 0.750000 0.616690 0.750000
O O6 0.500000 0.604999 0.852281
O O7 0.742431 0.654691 0.932515
O O8 0.245769 0.720501 0.402844
O O9 0.000000 0.660332 0.456822
O O10 0.500000 0.910118 0.461554
O O11 0.750986 0.921131 0.565870
O O12 0.747913 0.843042 0.417856
O O13 0.751361 0.963590 0.394470
O O14 0.250000 0.041242 0.250000
O O15 0.000000 0.030289 0.354937
O O16 0.250000 0.790552 0.250000
O O17 0.000000 0.786668 0.355957
#
# Coordination Sequence:
#
# PCOD9419746 Si02
#       6
#     8   8   8   8   8   8
#     4   9  16  28  48  73  99 128 165 211 263 317
#     4   9  17  31  50  72  97 128 168 214 264 317
#     4   9  18  32  51  72  98 135 175 213 258 316
#     4  11  22  38  58  84 115 149 187 225 267 315
#     4  11  21  37  61  90 119 148 182 223 269 315
#     4  11  22  37  55  77 106 141 179 220 268 322
#
# _framework density 18.568190000000001
#
# number of rings (size 3 to 8) (size 9 to 14) (size 15 to 20)
#    0.000    2.000    0.000    6.000    0.000    2.000 
#    0.000    4.167    0.000    6.000    0.000    0.000 
#    0.000    0.000    0.000    0.000    0.000    0.000 
#
# Total GULP energy -267911.921250 kJ/mol
# GULP energy per Si atom -5581.498359 kJ/mol
# Density = 1.852593 g / cm^3
# Si number density = 18.568190 Si / 1000 Ang^3
#
#
#
# Elastic Constant Matrix: (Units=GPa)
#
#
# Indices 1 2 3 4 5 6 
#
# 1 82.2418 31.4591 44.8392 0.0000 0.0000 0.0000
# 2 31.4591 86.7621 93.2873 0.0000 0.0000 0.0000
# 3 44.8392 93.2873 167.2755 0.0000 0.0000 0.0000
# 4 0.0000 0.0000 0.0000 25.3739 0.0000 0.0000
# 5 0.0000 0.0000 0.0000 0.0000 29.9964 0.0000
# 6 0.0000 0.0000 0.0000 0.0000 0.0000 17.6053
#
#
#
# Elastic Compliance Matrix: (Units=1/GPa)
#
#
# Indices 1 2 3 4 5 6 
#
# 1 0.014488 -0.002691 -0.002383 0.000000 0.000000 0.000000
# 2 -0.002691 0.029288 -0.015612 0.000000 0.000000 0.000000
# 3 -0.002383 -0.015612 0.015323 0.000000 0.000000 0.000000
# 4 0.000000 0.000000 0.000000 0.039411 0.000000 0.000000
# 5 0.000000 0.000000 0.000000 0.000000 0.033337 0.000000
# 6 0.000000 0.000000 0.000000 0.000000 0.000000 0.056801
#
#
# Mechanical properties :
#
#
# Convention : Reuss Voigt Hill
#
# Bulk Modulus (GPa) = 56.41069 75.05005 65.73037
# Shear Modulus (GPa) = 21.19286 25.70805 23.45046
#
# Velocity S-wave (km/s) = 3.38206 3.72495 3.55764
# Velocity P-wave (km/s) = 6.75998 7.68158 7.23547
#
# Compressibility (1/GPa) = 0.01772714
#
# Stress axis : x y z
#
# Youngs Moduli (GPa) = 69.02370 34.14404 65.25965
#
# Poissons Ratio (x) = 0.09189 0.15549
# Poissons Ratio (y) = 0.18576 1.01883
# Poissons Ratio (z) = 0.16446 0.53305
#
# Static dielectric constant tensor:
#      x y z
#    x 1.637460 0.000000 0.000000 
#    y 0.000000 1.635740 0.000000 
#    z 0.000000 0.000000 1.634560 
# 
# From -- ./inp_files/20322.got.cif
#   From: 2010.05.17/outbox.cif.g08.bks.cpg/sg53_11_cif.got.tgz:20322.got - 2010.06.03 12:45:16.
