data_PCOD9419978
_publ_section_title
;
Structure prediction by ZEFSAII (Michael W. Deem and Ramdas Pophale) SiO2 
 PCOD9419978
Probable space group: P M N A
;
_chemical_formula_sum "Si O2"
_cell_formula_units_Z 36
_cell_length_a 13.680176
_cell_length_b 5.078663
_cell_length_c 25.166910
_cell_angle_alpha 90.000000
_cell_angle_beta 90.000000
_cell_angle_gamma 90.000000
_cell_volume 1748.521499
_symmetry_space_group_name_H-M "P M N A"
_symmetry_group_IT_number 53
_symmetry_cell_setting 'orthorhombic'
loop_
_space_group_symop_operation_xyz
x,y,z
1/2-x,-y,1/2+z
x,-y,-z
1/2-x,y,1/2-z
-x,-y,-z
1/2+x,y,1/2-z
-x,y,z
1/2+x,-y,1/2+z
loop_
_atom_site_type_symbol
_atom_site_label
_atom_site_fract_x
_atom_site_fract_y
_atom_site_fract_z
Si Si1 0.388392 0.635516 0.851123
Si Si2 0.146001 0.129878 0.722095
Si Si3 0.893215 0.687339 0.164826
Si Si4 0.314233 0.802027 0.615440
Si Si5 0.500000 0.250374 0.462251
O O1 0.500000 0.619124 0.872413
O O2 0.362426 0.363121 0.821185
O O3 0.299522 0.719149 0.891029
O O4 0.386833 0.864726 0.806503
O O5 0.250000 0.083848 0.750000
O O6 0.093932 0.227581 0.774996
O O7 0.850202 0.395590 0.161919
O O8 0.000000 0.693478 0.138314
O O9 0.826004 0.897757 0.134210
O O10 0.398136 0.755630 0.571316
O O11 0.500000 0.500000 0.500000
O O12 0.500000 0.000000 0.500000
#
# Coordination Sequence:
#
# PCOD9419978 Si02
#       5
#     8   8   8   8   4
#     4  12  24  40  58  88 131 176 214 248 301 360
#     4  12  22  37  56  85 130 179 218 258 278 337
#     4  12  21  35  57  87 124 165 209 249 300 352
#     4  12  23  40  64  88 122 159 199 255 324 379
#     4  12  26  46  70  96 120 146 200 278 350 392
#
# _framework density 20.588823999999999
#
# number of rings (size 3 to 8) (size 9 to 14) (size 15 to 20)
#    0.000    0.000    6.667    5.333    0.000    0.000 
#    0.000    0.000    0.000    1.333    0.000    0.000 
#    0.000    0.000    0.000    0.000    0.000    0.000 
#
# Total GULP energy -200823.701959 kJ/mol
# GULP energy per Si atom -5578.436166 kJ/mol
# Density = 2.054196 g / cm^3
# Si number density = 20.588824 Si / 1000 Ang^3
#
#
#
# Elastic Constant Matrix: (Units=GPa)
#
#
# Indices 1 2 3 4 5 6 
#
# 1 176.7029 5.3296 36.3138 0.0000 0.0000 0.0000
# 2 5.3296 107.9857 8.0886 0.0000 0.0000 0.0000
# 3 36.3138 8.0886 56.6354 0.0000 0.0000 0.0000
# 4 0.0000 0.0000 0.0000 26.7486 0.0000 0.0000
# 5 0.0000 0.0000 0.0000 0.0000 45.9828 0.0000
# 6 0.0000 0.0000 0.0000 0.0000 0.0000 -0.2221
#
#
#
# Elastic Compliance Matrix: (Units=1/GPa)
#
#
# Indices 1 2 3 4 5 6 
#
# 1 0.006518 -0.000009 -0.004178 0.000000 0.000000 0.000000
# 2 -0.000009 0.009361 -0.001331 0.000000 0.000000 0.000000
# 3 -0.004178 -0.001331 0.020526 0.000000 0.000000 0.000000
# 4 0.000000 0.000000 0.000000 0.037385 0.000000 0.000000
# 5 0.000000 0.000000 0.000000 0.000000 0.021747 0.000000
# 6 0.000000 0.000000 0.000000 0.000000 0.000000 -4.502514
#
#
# Mechanical properties :
#
#
# Convention : Reuss Voigt Hill
#
# Bulk Modulus (GPa) = 39.41909 48.97645 44.19777
# Shear Modulus (GPa) = -1.13961 33.94132 16.40086
#
# Velocity S-wave (km/s) = -0.74479 4.06462 2.82546
# Velocity P-wave (km/s) = 4.29509 6.77257 5.67078
#
# Compressibility (1/GPa) = 0.02536842
#
# Stress axis : x y z
#
# Youngs Moduli (GPa) = 153.41880 106.83038 48.71906
#
# Poissons Ratio (x) = 0.00093 0.20355
# Poissons Ratio (y) = 0.00134 0.06486
# Poissons Ratio (z) = 0.64099 0.14222
#
# Static dielectric constant tensor:
#      x y z
#    x 1.996360 0.000000 0.000000 
#    y 0.000000 1.708730 0.000000 
#    z 0.000000 0.000000 1.709620 
# 
# From -- ./inp_files/32143.got.cif
#   From: 2010.05.17/outbox.cif.g08.bks.cpg/sg53_17_cif.got.tgz:32143.got - 2010.06.03 12:45:16.
