data_PCOD9419994
_publ_section_title
;
Structure prediction by ZEFSAII (Michael W. Deem and Ramdas Pophale) SiO2 
 PCOD9419994
Probable space group: P M N A
;
_chemical_formula_sum "Si O2"
_cell_formula_units_Z 24
_cell_length_a 15.638530
_cell_length_b 14.518372
_cell_length_c 4.968220
_cell_angle_alpha 90.000000
_cell_angle_beta 90.000000
_cell_angle_gamma 90.000000
_cell_volume 1128.014459
_symmetry_space_group_name_H-M "P M N A"
_symmetry_group_IT_number 53
_symmetry_cell_setting 'orthorhombic'
loop_
_space_group_symop_operation_xyz
x,y,z
1/2-x,-y,1/2+z
x,-y,-z
1/2-x,y,1/2-z
-x,-y,-z
1/2+x,y,1/2-z
-x,y,z
1/2+x,-y,1/2+z
loop_
_atom_site_type_symbol
_atom_site_label
_atom_site_fract_x
_atom_site_fract_y
_atom_site_fract_z
Si Si1 0.500000 0.432275 0.246630
Si Si2 0.897835 0.828434 0.281400
Si Si3 0.848073 0.287235 0.217226
Si Si4 0.306350 0.000000 0.500000
O O1 0.500000 0.500000 0.500000
O O2 0.582967 0.366800 0.234369
O O3 0.500000 0.500000 0.000000
O O4 0.867494 0.796658 0.575563
O O5 0.000000 0.833100 0.280448
O O6 0.864946 0.749531 0.081480
O O7 0.860375 0.921967 0.154557
O O8 0.750000 0.316119 0.250000
O O9 0.250000 0.038600 0.250000
#
# Coordination Sequence:
#
# PCOD9419994 Si02
#       4
#     4   8   8   4
#     4  12  26  46  72 101 138 169 222 290 348 416
#     4  12  23  44  68  99 139 186 230 280 337 401
#     4  12  25  45  72 101 136 182 226 277 346 413
#     4  12  25  40  63 102 142 184 240 285 330 395
#
# _framework density 21.276323999999999
#
# number of rings (size 3 to 8) (size 9 to 14) (size 15 to 20)
#    0.000    0.000    3.333    8.500    0.000    1.333 
#    0.000    5.000    0.000    0.000    0.000    0.000 
#    0.000    0.000    0.000    0.000    0.000    0.000 
#
# Total GULP energy -134359.790072 kJ/mol
# GULP energy per Si atom -5598.324586 kJ/mol
# Density = 2.122790 g / cm^3
# Si number density = 21.276324 Si / 1000 Ang^3
#
#
#
# Elastic Constant Matrix: (Units=GPa)
#
#
# Indices 1 2 3 4 5 6 
#
# 1 212.3179 64.4584 22.2719 0.0000 0.0000 0.0000
# 2 64.4584 102.3481 2.1991 0.0000 0.0000 0.0000
# 3 22.2719 2.1991 97.0643 0.0000 0.0000 0.0000
# 4 0.0000 0.0000 0.0000 109.1937 0.0000 0.0000
# 5 0.0000 0.0000 0.0000 0.0000 -2.4612 0.0000
# 6 0.0000 0.0000 0.0000 0.0000 0.0000 -86.7113
#
#
#
# Elastic Compliance Matrix: (Units=1/GPa)
#
#
# Indices 1 2 3 4 5 6 
#
# 1 0.005980 -0.003738 -0.001287 0.000000 0.000000 0.000000
# 2 -0.003738 0.012113 0.000583 0.000000 0.000000 0.000000
# 3 -0.001287 0.000583 0.010585 0.000000 0.000000 0.000000
# 4 0.000000 0.000000 0.000000 0.009158 0.000000 0.000000
# 5 0.000000 0.000000 0.000000 0.000000 -0.406306 0.000000
# 6 0.000000 0.000000 0.000000 0.000000 0.000000 -0.011533
#
#
# Mechanical properties :
#
#
# Convention : Reuss Voigt Hill
#
# Bulk Modulus (GPa) = 50.52529 65.50990 58.01759
# Shear Modulus (GPa) = -13.71663 25.52431 5.90384
#
# Velocity S-wave (km/s) = -2.54183 3.46737 1.66759
# Velocity P-wave (km/s) = 3.89669 6.84741 5.57096
#
# Compressibility (1/GPa) = 0.01979207
#
# Stress axis : x y z
#
# Youngs Moduli (GPa) = 167.22558 82.55918 94.47650
#
# Poissons Ratio (x) = 0.30865 0.12163
# Poissons Ratio (y) = 0.62517 -0.05512
# Poissons Ratio (z) = 0.21529 -0.04816
#
# Static dielectric constant tensor:
#      x y z
#    x 1.732450 0.000000 0.000000 
#    y 0.000000 1.752470 0.000000 
#    z 0.000000 0.000000 1.715650 
# 
# From -- ./inp_files/1110.got.cif
#   From: 2010.05.17/outbox.cif.g08.bks.cpg/sg53_1_cif.got.tgz:1110.got - 2010.06.03 12:45:16.
