data_PCOD9419680
_publ_section_title
;
Structure prediction by ZEFSAII (Michael W. Deem and Ramdas Pophale) SiO2 
 PCOD9419680
Probable space group: P M N A
;
_chemical_formula_sum "Si O2"
_cell_formula_units_Z 40
_cell_length_a 7.861241
_cell_length_b 15.700183
_cell_length_c 13.178036
_cell_angle_alpha 90.000000
_cell_angle_beta 90.000000
_cell_angle_gamma 90.000000
_cell_volume 1626.471713
_symmetry_space_group_name_H-M "P M N A"
_symmetry_group_IT_number 53
_symmetry_cell_setting 'orthorhombic'
loop_
_space_group_symop_operation_xyz
x,y,z
1/2-x,-y,1/2+z
x,-y,-z
1/2-x,y,1/2-z
-x,-y,-z
1/2+x,y,1/2-z
-x,y,z
1/2+x,-y,1/2+z
loop_
_atom_site_type_symbol
_atom_site_label
_atom_site_fract_x
_atom_site_fract_y
_atom_site_fract_z
Si Si1 0.805719 0.488328 0.379494
Si Si2 0.291349 0.876209 0.923363
Si Si3 0.690946 0.326840 0.640445
Si Si4 0.301168 0.305860 0.086830
Si Si5 0.203499 0.060994 0.640687
O O1 0.821135 0.500000 0.500000
O O2 0.699627 0.570364 0.349055
O O3 0.727800 0.393804 0.368729
O O4 0.000000 0.493189 0.339442
O O5 0.500000 0.873921 0.920687
O O6 0.228907 0.785728 0.881992
O O7 0.234941 0.962911 0.869100
O O8 0.238332 0.888582 0.041147
O O9 0.750000 0.293378 0.750000
O O10 0.500000 0.298820 0.621747
O O11 0.792067 0.307289 0.536998
O O12 0.500000 0.309212 0.113471
O O13 0.250000 0.095752 0.750000
O O14 0.000000 0.058498 0.633502
#
# Coordination Sequence:
#
# PCOD9419680 Si02
#       5
#     8   8   8   8   8
#     4   8  15  29  48  67  89 120 154 188 232 283
#     4   8  16  32  53  74 100 135 168 198 245 307
#     4  11  21  32  47  68  96 127 161 201 243 288
#     4   9  17  32  52  71  94 125 160 198 242 292
#     4   9  17  32  53  75 100 133 169 203 244 296
#
# _framework density 24.593114
#
# number of rings (size 3 to 8) (size 9 to 14) (size 15 to 20)
#    0.000    3.000    0.000    4.200    0.000    4.400 
#    0.000    7.000    0.000    2.400    0.000    0.000 
#    0.000    0.000    0.000    0.000    0.000    0.000 
#
# Total GULP energy -223214.788409 kJ/mol
# GULP energy per Si atom -5580.369710 kJ/mol
# Density = 2.453714 g / cm^3
# Si number density = 24.593114 Si / 1000 Ang^3
#
#
#
# Elastic Constant Matrix: (Units=GPa)
#
#
# Indices 1 2 3 4 5 6 
#
# 1 37.9358 1.9517 -8.7871 0.0000 0.0000 0.0000
# 2 1.9517 166.2627 -6.5449 0.0000 0.0000 0.0000
# 3 -8.7871 -6.5449 88.1108 0.0000 0.0000 0.0000
# 4 0.0000 0.0000 0.0000 -13.2289 0.0000 0.0000
# 5 0.0000 0.0000 0.0000 0.0000 16.1765 0.0000
# 6 0.0000 0.0000 0.0000 0.0000 0.0000 6.9659
#
#
#
# Elastic Compliance Matrix: (Units=1/GPa)
#
#
# Indices 1 2 3 4 5 6 
#
# 1 0.026991 -0.000211 0.002676 0.000000 0.000000 0.000000
# 2 -0.000211 0.006034 0.000427 0.000000 0.000000 0.000000
# 3 0.002676 0.000427 0.011648 0.000000 0.000000 0.000000
# 4 0.000000 0.000000 0.000000 -0.075592 0.000000 0.000000
# 5 0.000000 0.000000 0.000000 0.000000 0.061818 0.000000
# 6 0.000000 0.000000 0.000000 0.000000 0.000000 0.143557
#
#
# Mechanical properties :
#
#
# Convention : Reuss Voigt Hill
#
# Bulk Modulus (GPa) = 19.81915 29.50540 24.66228
# Shear Modulus (GPa) = 26.95547 22.36201 24.65874
#
# Velocity S-wave (km/s) = 3.31427 3.01870 3.16993
# Velocity P-wave (km/s) = 4.76678 4.91666 4.84230
#
# Compressibility (1/GPa) = 0.05045624
#
# Stress axis : x y z
#
# Youngs Moduli (GPa) = 37.04928 165.73100 85.85200
#
# Poissons Ratio (x) = 0.03505 -0.22974
# Poissons Ratio (y) = 0.00784 -0.03667
# Poissons Ratio (z) = -0.09915 -0.07078
#
# Static dielectric constant tensor:
#      x y z
#    x 1.881870 0.000000 0.000000 
#    y 0.000000 2.015850 0.000000 
#    z 0.000000 0.000000 2.074820 
# 
# From -- ./inp_files/20019.got.cif
#   From: 2010.05.17/outbox.cif.g08.bks.cpg/sg53_11_cif.got.tgz:20019.got - 2010.06.03 12:45:16.
