data_PCOD9419673
_publ_section_title
;
Structure prediction by ZEFSAII (Michael W. Deem and Ramdas Pophale) SiO2 
 PCOD9419673
Probable space group: P M N A
;
_chemical_formula_sum "Si O2"
_cell_formula_units_Z 56
_cell_length_a 16.303339
_cell_length_b 14.992093
_cell_length_c 10.958885
_cell_angle_alpha 90.000000
_cell_angle_beta 90.000000
_cell_angle_gamma 90.000000
_cell_volume 2678.583543
_symmetry_space_group_name_H-M "P M N A"
_symmetry_group_IT_number 53
_symmetry_cell_setting 'orthorhombic'
loop_
_space_group_symop_operation_xyz
x,y,z
1/2-x,-y,1/2+z
x,-y,-z
1/2-x,y,1/2-z
-x,-y,-z
1/2+x,y,1/2-z
-x,y,z
1/2+x,-y,1/2+z
loop_
_atom_site_type_symbol
_atom_site_label
_atom_site_fract_x
_atom_site_fract_y
_atom_site_fract_z
Si Si1 0.660096 0.653586 0.806294
Si Si2 0.595363 0.532455 0.141719
Si Si3 0.597824 0.112972 0.755094
Si Si4 0.838429 0.719716 0.412157
Si Si5 0.796176 0.153876 0.978245
Si Si6 0.088085 0.186871 0.200870
Si Si7 0.855628 0.051607 0.398056
O O1 0.750000 0.673142 0.750000
O O2 0.641582 0.549295 0.795356
O O3 0.594230 0.709512 0.731211
O O4 0.649132 0.690994 0.944995
O O5 0.500000 0.540883 0.178502
O O6 0.640139 0.627400 0.154685
O O7 0.594978 0.500000 0.000000
O O8 0.500000 0.095004 0.750274
O O9 0.612649 0.198563 0.845708
O O10 0.637357 0.126433 0.622047
O O11 0.650603 0.027734 0.800817
O O12 0.747233 0.759818 0.418314
O O13 0.843180 0.169335 0.102915
O O14 0.721987 0.090151 0.026370
O O15 0.105868 0.132626 0.324503
O O16 0.000000 0.159666 0.153153
O O17 0.908185 0.000000 0.500000
#
# Coordination Sequence:
#
# PCOD9419673 Si02
#       7
#     8   8   8   8   8   8   8
#     4  11  20  40  66 103 135 176 222 277 331 408
#     4   9  20  37  63  98 133 168 217 277 335 382
#     4  12  28  46  68  99 135 175 225 281 339 398
#     4  11  22  42  69  94 134 177 228 273 332 401
#     4  12  26  45  69  96 136 180 226 275 341 410
#     4  12  25  42  68  98 135 175 222 282 339 398
#     4  12  26  44  68  95 129 174 226 272 333 402
#
# _framework density 20.906572000000001
#
# number of rings (size 3 to 8) (size 9 to 14) (size 15 to 20)
#    0.000    0.714    4.286    2.571    4.000    5.143 
#    0.000    1.429    0.000    0.000    0.000    4.000 
#    0.000    0.000    0.000    0.000    0.000    0.000 
#
# Total GULP energy -312054.947920 kJ/mol
# GULP energy per Si atom -5572.409784 kJ/mol
# Density = 2.085899 g / cm^3
# Si number density = 20.906572 Si / 1000 Ang^3
#
#
#
# Elastic Constant Matrix: (Units=GPa)
#
#
# Indices 1 2 3 4 5 6 
#
# 1 130.6435 46.3064 43.5596 0.0000 0.0000 0.0000
# 2 46.3064 150.2547 28.9380 0.0000 0.0000 0.0000
# 3 43.5596 28.9380 52.4305 0.0000 0.0000 0.0000
# 4 0.0000 0.0000 0.0000 12.8250 0.0000 0.0000
# 5 0.0000 0.0000 0.0000 0.0000 20.4209 0.0000
# 6 0.0000 0.0000 0.0000 0.0000 0.0000 -6.2915
#
#
#
# Elastic Compliance Matrix: (Units=1/GPa)
#
#
# Indices 1 2 3 4 5 6 
#
# 1 0.011018 -0.001827 -0.008145 0.000000 0.000000 0.000000
# 2 -0.001827 0.007750 -0.002760 0.000000 0.000000 0.000000
# 3 -0.008145 -0.002760 0.027363 0.000000 0.000000 0.000000
# 4 0.000000 0.000000 0.000000 0.077973 0.000000 0.000000
# 5 0.000000 0.000000 0.000000 0.000000 0.048969 0.000000
# 6 0.000000 0.000000 0.000000 0.000000 0.000000 -0.158944
#
#
# Mechanical properties :
#
#
# Convention : Reuss Voigt Hill
#
# Bulk Modulus (GPa) = 48.38584 63.43741 55.91162
# Shear Modulus (GPa) = 107.56946 19.69252 63.63099
#
# Velocity S-wave (km/s) = 7.18082 3.07242 5.52286
# Velocity P-wave (km/s) = 9.58886 6.55709 8.21407
#
# Compressibility (1/GPa) = 0.02066720
#
# Stress axis : x y z
#
# Youngs Moduli (GPa) = 90.76231 129.03471 36.54529
#
# Poissons Ratio (x) = 0.23572 0.29768
# Poissons Ratio (y) = 0.16580 0.10085
# Poissons Ratio (z) = 0.73930 0.35610
#
# Static dielectric constant tensor:
#      x y z
#    x 1.759290 0.000000 0.000000 
#    y 0.000000 1.783540 0.000000 
#    z 0.000000 0.000000 1.811930 
# 
# From -- ./inp_files/16016.got.cif
#   From: 2010.05.17/outbox.cif.g08.bks.cpg/sg53_9_cif.got.tgz:16016.got - 2010.06.03 12:45:16.
