data_PCOD9419697
_publ_section_title
;
Structure prediction by ZEFSAII (Michael W. Deem and Ramdas Pophale) SiO2 
 PCOD9419697
Probable space group: P M N A
;
_chemical_formula_sum "Si O2"
_cell_formula_units_Z 48
_cell_length_a 8.081992
_cell_length_b 17.048340
_cell_length_c 19.053626
_cell_angle_alpha 90.000000
_cell_angle_beta 90.000000
_cell_angle_gamma 90.000000
_cell_volume 2625.295237
_symmetry_space_group_name_H-M "P M N A"
_symmetry_group_IT_number 53
_symmetry_cell_setting 'orthorhombic'
loop_
_space_group_symop_operation_xyz
x,y,z
1/2-x,-y,1/2+z
x,-y,-z
1/2-x,y,1/2-z
-x,-y,-z
1/2+x,y,1/2-z
-x,y,z
1/2+x,-y,1/2+z
loop_
_atom_site_type_symbol
_atom_site_label
_atom_site_fract_x
_atom_site_fract_y
_atom_site_fract_z
Si Si1 0.699196 0.323225 0.600001
Si Si2 0.300290 0.342967 0.330026
Si Si3 0.300390 0.083114 0.529054
Si Si4 0.702404 0.242000 0.458262
Si Si5 0.695905 0.836274 0.171300
Si Si6 0.300073 0.518713 0.330590
O O1 0.500000 0.327579 0.598137
O O2 0.754738 0.297770 0.522614
O O3 0.742344 0.251320 0.651528
O O4 0.762776 0.407427 0.625118
O O5 0.250000 0.328215 0.250000
O O6 0.500000 0.343635 0.332585
O O7 0.240649 0.278263 0.385093
O O8 0.243062 0.431060 0.350471
O O9 0.500000 0.081758 0.525925
O O10 0.242854 0.154920 0.479629
O O11 0.256476 0.106410 0.608941
O O12 0.238615 0.000000 0.500000
O O13 0.500000 0.240995 0.457505
O O14 0.750000 0.857566 0.250000
O O15 0.500000 0.835195 0.168964
O O16 0.250000 0.530983 0.250000
O O17 0.500000 0.518525 0.334909
#
# Coordination Sequence:
#
# PCOD9419697 Si02
#       6
#     8   8   8   8   8   8
#     4   9  17  30  47  69  95 124 160 199 241 286
#     4   9  17  30  46  65  91 124 160 197 236 278
#     4   9  18  35  57  77  99 127 158 197 248 300
#     4   8  15  29  49  70  92 120 155 193 237 289
#     4  11  21  33  51  75 103 132 163 198 239 288
#     4   9  17  27  42  64  91 124 160 197 234 276
#
# _framework density 18.283657999999999
#
# number of rings (size 3 to 8) (size 9 to 14) (size 15 to 20)
#    0.000    2.833    0.000    3.000    0.000    3.000 
#    0.000    7.500    0.000    2.000    0.000    9.333 
#    0.000    0.000    0.000    0.000    0.000    0.000 
#
# Total GULP energy -267529.808812 kJ/mol
# GULP energy per Si atom -5573.537684 kJ/mol
# Density = 1.824204 g / cm^3
# Si number density = 18.283658 Si / 1000 Ang^3
#
#
#
# Elastic Constant Matrix: (Units=GPa)
#
#
# Indices 1 2 3 4 5 6 
#
# 1 10.9810 11.2203 6.4569 0.0000 0.0000 0.0000
# 2 11.2203 151.4600 116.6017 0.0000 0.0000 0.0000
# 3 6.4569 116.6017 131.6796 0.0000 0.0000 0.0000
# 4 0.0000 0.0000 0.0000 17.2933 0.0000 0.0000
# 5 0.0000 0.0000 0.0000 0.0000 23.1666 0.0000
# 6 0.0000 0.0000 0.0000 0.0000 0.0000 13.7128
#
#
#
# Elastic Compliance Matrix: (Units=1/GPa)
#
#
# Indices 1 2 3 4 5 6 
#
# 1 0.099638 -0.011373 0.005185 0.000000 0.000000 0.000000
# 2 -0.011373 0.022041 -0.018959 0.000000 0.000000 0.000000
# 3 0.005185 -0.018959 0.024128 0.000000 0.000000 0.000000
# 4 0.000000 0.000000 0.000000 0.057826 0.000000 0.000000
# 5 0.000000 0.000000 0.000000 0.000000 0.043166 0.000000
# 6 0.000000 0.000000 0.000000 0.000000 0.000000 0.072925
#
#
# Mechanical properties :
#
#
# Convention : Reuss Voigt Hill
#
# Bulk Modulus (GPa) = 10.46981 62.51982 36.49482
# Shear Modulus (GPa) = 12.44227 21.49065 16.96646
#
# Velocity S-wave (km/s) = 2.61149 3.43213 3.04954
# Velocity P-wave (km/s) = 3.85123 7.06928 5.69239
#
# Compressibility (1/GPa) = 0.09551269
#
# Stress axis : x y z
#
# Youngs Moduli (GPa) = 10.03631 45.37033 41.44493
#
# Poissons Ratio (x) = 0.51599 -0.21489
# Poissons Ratio (y) = 0.11414 0.78577
# Poissons Ratio (z) = -0.05204 0.86019
#
# Static dielectric constant tensor:
#      x y z
#    x 1.648070 0.000000 0.000000 
#    y 0.000000 1.644220 0.000000 
#    z 0.000000 0.000000 1.664590 
# 
# From -- ./inp_files/20171.got.cif
#   From: 2010.05.17/outbox.cif.g08.bks.cpg/sg53_11_cif.got.tgz:20171.got - 2010.06.03 12:45:16.
