data_PCOD9419592
_publ_section_title
;
Structure prediction by ZEFSAII (Michael W. Deem and Ramdas Pophale) SiO2 
 PCOD9419592
Probable space group: P M N A
;
_chemical_formula_sum "Si O2"
_cell_formula_units_Z 44
_cell_length_a 27.880953
_cell_length_b 8.296786
_cell_length_c 9.275013
_cell_angle_alpha 90.000000
_cell_angle_beta 90.000000
_cell_angle_gamma 90.000000
_cell_volume 2145.517344
_symmetry_space_group_name_H-M "P M N A"
_symmetry_group_IT_number 53
_symmetry_cell_setting 'orthorhombic'
loop_
_space_group_symop_operation_xyz
x,y,z
1/2-x,-y,1/2+z
x,-y,-z
1/2-x,y,1/2-z
-x,-y,-z
1/2+x,y,1/2-z
-x,y,z
1/2+x,-y,1/2+z
loop_
_atom_site_type_symbol
_atom_site_label
_atom_site_fract_x
_atom_site_fract_y
_atom_site_fract_z
Si Si1 0.137922 0.424679 0.160770
Si Si2 0.250000 0.898055 0.250000
Si Si3 0.115497 0.150388 0.574748
Si Si4 0.946429 0.638882 0.619373
Si Si5 0.698421 0.617400 0.118569
Si Si6 0.648649 0.039789 0.336328
O O1 0.089353 0.429552 0.257958
O O2 0.181721 0.521120 0.238730
O O3 0.146462 0.232712 0.172086
O O4 0.132308 0.500000 0.000000
O O5 0.232518 0.770133 0.368549
O O6 0.203255 0.992036 0.201652
O O7 0.072004 0.202773 0.470206
O O8 0.148401 0.306472 0.567298
O O9 0.141559 0.000000 0.500000
O O10 0.114605 0.076511 0.736271
O O11 0.949067 0.500000 0.500000
O O12 0.000000 0.669412 0.676912
O O13 0.718405 0.500000 0.000000
O O14 0.637490 0.000000 0.500000
#
# Coordination Sequence:
#
# PCOD9419592 Si02
#       6
#     8   4   8   8   8   8
#     4  12  23  42  68  90 132 178 216 262 331 402
#     4  10  26  38  60  94 128 160 222 284 320 378
#     4  11  19  40  66  93 124 168 208 265 325 385
#     4  11  23  42  70 102 128 165 220 269 322 399
#     4  11  21  41  64  91 123 172 223 259 327 389
#     4  11  25  42  62  94 131 173 219 273 334 380
#
# _framework density 20.507874000000001
#
# number of rings (size 3 to 8) (size 9 to 14) (size 15 to 20)
#    0.000    0.909    5.455    2.182    0.000    8.000 
#    0.000    0.000    0.000    1.091    0.000    0.000 
#    0.000    0.000    0.000    0.000    0.000    0.000 
#
# Total GULP energy -245065.303157 kJ/mol
# GULP energy per Si atom -5569.665981 kJ/mol
# Density = 2.046120 g / cm^3
# Si number density = 20.507874 Si / 1000 Ang^3
#
#
#
# Elastic Constant Matrix: (Units=GPa)
#
#
# Indices 1 2 3 4 5 6 
#
# 1 73.4455 33.2920 34.3831 0.0000 0.0000 0.0000
# 2 33.2920 70.0444 8.2841 0.0000 0.0000 0.0000
# 3 34.3831 8.2841 114.7852 0.0000 0.0000 0.0000
# 4 0.0000 0.0000 0.0000 43.8441 0.0000 0.0000
# 5 0.0000 0.0000 0.0000 0.0000 13.3707 0.0000
# 6 0.0000 0.0000 0.0000 0.0000 0.0000 12.6232
#
#
#
# Elastic Compliance Matrix: (Units=1/GPa)
#
#
# Indices 1 2 3 4 5 6 
#
# 1 0.020211 -0.008967 -0.005407 0.000000 0.000000 0.000000
# 2 -0.008967 0.018378 0.001360 0.000000 0.000000 0.000000
# 3 -0.005407 0.001360 0.010233 0.000000 0.000000 0.000000
# 4 0.000000 0.000000 0.000000 0.022808 0.000000 0.000000
# 5 0.000000 0.000000 0.000000 0.000000 0.074791 0.000000
# 6 0.000000 0.000000 0.000000 0.000000 0.000000 0.079219
#
#
# Mechanical properties :
#
#
# Convention : Reuss Voigt Hill
#
# Bulk Modulus (GPa) = 43.87120 45.57705 44.72412
# Shear Modulus (GPa) = 19.28511 26.12199 22.70355
#
# Velocity S-wave (km/s) = 3.06988 3.57284 3.33087
# Velocity P-wave (km/s) = 5.83133 6.26839 6.05380
#
# Compressibility (1/GPa) = 0.02279400
#
# Stress axis : x y z
#
# Youngs Moduli (GPa) = 49.47698 54.41340 97.71889
#
# Poissons Ratio (x) = 0.48792 0.52837
# Poissons Ratio (y) = 0.44366 -0.13286
# Poissons Ratio (z) = 0.26752 -0.07398
#
# Static dielectric constant tensor:
#      x y z
#    x 1.793680 0.000000 0.000000 
#    y 0.000000 1.780530 0.000000 
#    z 0.000000 0.000000 1.918280 
# 
# From -- ./inp_files/12894.got.cif
#   From: 2010.05.17/outbox.cif.g08.bks.cpg/sg53_7_cif.got.tgz:12894.got - 2010.06.03 12:45:16.
