data_PCOD9419590
_publ_section_title
;
Structure prediction by ZEFSAII (Michael W. Deem and Ramdas Pophale) SiO2 
 PCOD9419590
Probable space group: P M N A
;
_chemical_formula_sum "Si O2"
_cell_formula_units_Z 20
_cell_length_a 28.258815
_cell_length_b 5.650856
_cell_length_c 5.095083
_cell_angle_alpha 90.000000
_cell_angle_beta 90.000000
_cell_angle_gamma 90.000000
_cell_volume 813.615942
_symmetry_space_group_name_H-M "P M N A"
_symmetry_group_IT_number 53
_symmetry_cell_setting 'orthorhombic'
loop_
_space_group_symop_operation_xyz
x,y,z
1/2-x,-y,1/2+z
x,-y,-z
1/2-x,y,1/2-z
-x,-y,-z
1/2+x,y,1/2-z
-x,y,z
1/2+x,-y,1/2+z
loop_
_atom_site_type_symbol
_atom_site_label
_atom_site_fract_x
_atom_site_fract_y
_atom_site_fract_z
Si Si1 0.750000 0.345548 0.750000
Si Si2 0.104547 0.662434 0.757606
Si Si3 0.673619 0.000000 0.500000
Si Si4 0.000000 0.247927 0.343330
O O1 0.765960 0.500000 0.500000
O O2 0.707753 0.185858 0.641304
O O3 0.107060 0.500000 0.500000
O O4 0.050283 0.745491 0.801489
O O5 0.118042 0.500000 0.000000
O O6 0.139928 0.880208 0.783225
O O7 0.000000 0.500000 0.500000
O O8 0.000000 0.000000 0.500000
#
# Coordination Sequence:
#
# PCOD9419590 Si02
#       4
#     4   8   4   4
#     4  12  30  56  78 114 160 204 272 342 420 488
#     4  11  28  50  79 119 159 209 268 327 400 490
#     4  12  30  51  86 112 160 213 272 338 418 490
#     4  10  25  51  79 119 172 214 268 333 407 490
#
# _framework density 24.581620999999998
#
# number of rings (size 3 to 8) (size 9 to 14) (size 15 to 20)
#    0.000    0.800    0.000    3.000   11.200   16.800 
#    0.000    0.000    0.000    0.000    0.000    0.000 
#    0.000    0.000    0.000    0.000    0.000    0.000 
#
# Total GULP energy -112144.363690 kJ/mol
# GULP energy per Si atom -5607.218185 kJ/mol
# Density = 2.452567 g / cm^3
# Si number density = 24.581621 Si / 1000 Ang^3
#
#
#
# Elastic Constant Matrix: (Units=GPa)
#
#
# Indices 1 2 3 4 5 6 
#
# 1 206.6959 75.5282 42.5556 0.0000 0.0000 0.0000
# 2 75.5282 139.7939 58.7785 0.0000 0.0000 0.0000
# 3 42.5556 58.7785 148.6592 0.0000 0.0000 0.0000
# 4 0.0000 0.0000 0.0000 46.0276 0.0000 0.0000
# 5 0.0000 0.0000 0.0000 0.0000 74.9831 0.0000
# 6 0.0000 0.0000 0.0000 0.0000 0.0000 169.5848
#
#
#
# Elastic Compliance Matrix: (Units=1/GPa)
#
#
# Indices 1 2 3 4 5 6 
#
# 1 0.006062 -0.003053 -0.000528 0.000000 0.000000 0.000000
# 2 -0.003053 0.010118 -0.003126 0.000000 0.000000 0.000000
# 3 -0.000528 -0.003126 0.008114 0.000000 0.000000 0.000000
# 4 0.000000 0.000000 0.000000 0.021726 0.000000 0.000000
# 5 0.000000 0.000000 0.000000 0.000000 0.013336 0.000000
# 6 0.000000 0.000000 0.000000 0.000000 0.000000 0.005897
#
#
# Mechanical properties :
#
#
# Convention : Reuss Voigt Hill
#
# Bulk Modulus (GPa) = 91.92524 94.31929 93.12227
# Shear Modulus (GPa) = 60.75680 79.33821 70.04751
#
# Velocity S-wave (km/s) = 4.97695 5.68731 5.34394
# Velocity P-wave (km/s) = 8.39665 9.03219 8.72021
#
# Compressibility (1/GPa) = 0.01087841
#
# Stress axis : x y z
#
# Youngs Moduli (GPa) = 164.94859 98.83786 123.24199
#
# Poissons Ratio (x) = 0.30179 0.06510
# Poissons Ratio (y) = 0.50365 0.38530
# Poissons Ratio (z) = 0.08712 0.30900
#
# Static dielectric constant tensor:
#      x y z
#    x 1.941350 0.000000 0.000000 
#    y 0.000000 2.037510 0.000000 
#    z 0.000000 0.000000 1.911470 
# 
# From -- ./inp_files/4809.got.cif
#   From: 2010.05.17/outbox.cif.g08.bks.cpg/sg53_3_cif.got.tgz:4809.got - 2010.06.03 12:45:16.
