data_PCOD9419324
_publ_section_title
;
Structure prediction by ZEFSAII (Michael W. Deem and Ramdas Pophale) SiO2 
 PCOD9419324
Probable space group: P M N A
;
_chemical_formula_sum "Si O2"
_cell_formula_units_Z 56
_cell_length_a 19.808864
_cell_length_b 9.383494
_cell_length_c 15.455224
_cell_angle_alpha 90.000000
_cell_angle_beta 90.000000
_cell_angle_gamma 90.000000
_cell_volume 2872.760726
_symmetry_space_group_name_H-M "P M N A"
_symmetry_group_IT_number 53
_symmetry_cell_setting 'orthorhombic'
loop_
_space_group_symop_operation_xyz
x,y,z
1/2-x,-y,1/2+z
x,-y,-z
1/2-x,y,1/2-z
-x,-y,-z
1/2+x,y,1/2-z
-x,y,z
1/2+x,-y,1/2+z
loop_
_atom_site_type_symbol
_atom_site_label
_atom_site_fract_x
_atom_site_fract_y
_atom_site_fract_z
Si Si1 0.311347 0.830054 0.005485
Si Si2 0.184172 0.646265 0.950217
Si Si3 0.922047 0.981586 0.230260
Si Si4 0.820557 0.249736 0.707109
Si Si5 0.078380 0.773301 0.632170
Si Si6 0.576262 0.861172 0.559036
Si Si7 0.328093 0.581756 0.745975
O O1 0.316153 0.781874 0.105041
O O2 0.251590 0.741839 0.958102
O O3 0.380864 0.793675 0.956297
O O4 0.298592 0.000000 0.000000
O O5 0.124124 0.745612 0.984721
O O6 0.158201 0.603287 0.855085
O O7 0.196416 0.500000 0.000000
O O8 0.878423 0.842988 0.247836
O O9 0.000000 0.946678 0.209429
O O10 0.920472 0.077202 0.316366
O O11 0.896743 0.081300 0.151484
O O12 0.750000 0.205425 0.750000
O O13 0.829584 0.417038 0.725631
O O14 0.120805 0.666262 0.692819
O O15 0.000000 0.731029 0.621525
O O16 0.500000 0.806481 0.572137
O O17 0.573809 0.000000 0.500000
O O18 0.250000 0.632214 0.750000
#
# Coordination Sequence:
#
# PCOD9419324 Si02
#       7
#     8   8   8   8   8   8   8
#     4  12  26  44  68 102 132 172 224 282 331 403
#     4  12  25  40  68  97 133 175 223 280 336 396
#     4  10  22  42  65  94 133 173 221 274 333 403
#     4  11  26  42  67 100 133 171 223 276 331 394
#     4  11  24  44  71  99 132 181 224 270 338 412
#     4  10  23  41  64  96 134 175 223 277 337 403
#     4  11  23  44  65  93 136 177 218 271 335 401
#
# _framework density 19.493442999999999
#
# number of rings (size 3 to 8) (size 9 to 14) (size 15 to 20)
#    0.000    1.000    4.286    2.143    6.000    2.286 
#    0.000    0.714    0.000    0.000    0.000    0.000 
#    0.000    0.000    0.000    0.000    0.000    0.000 
#
# Total GULP energy -312798.165857 kJ/mol
# GULP energy per Si atom -5585.681533 kJ/mol
# Density = 1.944908 g / cm^3
# Si number density = 19.493443 Si / 1000 Ang^3
#
#
#
# Elastic Constant Matrix: (Units=GPa)
#
#
# Indices 1 2 3 4 5 6 
#
# 1 121.7539 61.4086 45.7611 0.0000 0.0000 0.0000
# 2 61.4086 100.9314 53.4060 0.0000 0.0000 0.0000
# 3 45.7611 53.4060 74.8706 0.0000 0.0000 0.0000
# 4 0.0000 0.0000 0.0000 26.3318 0.0000 0.0000
# 5 0.0000 0.0000 0.0000 0.0000 27.5735 0.0000
# 6 0.0000 0.0000 0.0000 0.0000 0.0000 6.7711
#
#
#
# Elastic Compliance Matrix: (Units=1/GPa)
#
#
# Indices 1 2 3 4 5 6 
#
# 1 0.012405 -0.005679 -0.003531 0.000000 0.000000 0.000000
# 2 -0.005679 0.018514 -0.009735 0.000000 0.000000 0.000000
# 3 -0.003531 -0.009735 0.022459 0.000000 0.000000 0.000000
# 4 0.000000 0.000000 0.000000 0.037977 0.000000 0.000000
# 5 0.000000 0.000000 0.000000 0.000000 0.036267 0.000000
# 6 0.000000 0.000000 0.000000 0.000000 0.000000 0.147686
#
#
# Mechanical properties :
#
#
# Convention : Reuss Voigt Hill
#
# Bulk Modulus (GPa) = 64.56940 68.74525 66.65732
# Shear Modulus (GPa) = 15.70550 21.26731 18.48641
#
# Velocity S-wave (km/s) = 2.84153 3.30661 3.08285
# Velocity P-wave (km/s) = 6.63033 7.06545 6.85135
#
# Compressibility (1/GPa) = 0.01548721
#
# Stress axis : x y z
#
# Youngs Moduli (GPa) = 80.61510 54.01273 44.52593
#
# Poissons Ratio (x) = 0.30673 0.15722
# Poissons Ratio (y) = 0.45780 0.43348
# Poissons Ratio (z) = 0.28465 0.52583
#
# Static dielectric constant tensor:
#      x y z
#    x 1.695830 0.000000 0.000000 
#    y 0.000000 1.662480 0.000000 
#    z 0.000000 0.000000 1.711180 
# 
# From -- ./inp_files/24310.got.cif
#   From: 2010.05.17/outbox.cif.g08.bks.cpg/sg53_13_cif.got.tgz:24310.got - 2010.06.03 12:45:16.
