data_PCOD9419748
_publ_section_title
;
Structure prediction by ZEFSAII (Michael W. Deem and Ramdas Pophale) SiO2 
 PCOD9419748
Probable space group: P M N A
;
_chemical_formula_sum "Si O2"
_cell_formula_units_Z 40
_cell_length_a 24.466363
_cell_length_b 9.093551
_cell_length_c 8.554586
_cell_angle_alpha 90.000000
_cell_angle_beta 90.000000
_cell_angle_gamma 90.000000
_cell_volume 1903.276645
_symmetry_space_group_name_H-M "P M N A"
_symmetry_group_IT_number 53
_symmetry_cell_setting 'orthorhombic'
loop_
_space_group_symop_operation_xyz
x,y,z
1/2-x,-y,1/2+z
x,-y,-z
1/2-x,y,1/2-z
-x,-y,-z
1/2+x,y,1/2-z
-x,y,z
1/2+x,-y,1/2+z
loop_
_atom_site_type_symbol
_atom_site_label
_atom_site_fract_x
_atom_site_fract_y
_atom_site_fract_z
Si Si1 0.142106 0.861796 0.397196
Si Si2 0.809577 0.555041 0.319182
Si Si3 0.557598 0.665787 0.935961
Si Si4 0.902849 0.617010 0.886113
Si Si5 0.563472 0.860027 0.392043
O O1 0.180354 0.732383 0.325454
O O2 0.106434 0.768122 0.517620
O O3 0.097820 0.901243 0.263021
O O4 0.164259 0.000000 0.500000
O O5 0.812698 0.500000 0.500000
O O6 0.750000 0.525292 0.250000
O O7 0.852698 0.466252 0.206141
O O8 0.500000 0.721474 0.998506
O O9 0.557821 0.662222 0.751386
O O10 0.564483 0.500000 0.000000
O O11 0.929282 0.500000 0.000000
O O12 0.897489 0.751483 0.005842
O O13 0.500000 0.806263 0.362938
O O14 0.557658 0.000000 0.500000
#
# Coordination Sequence:
#
# PCOD9419748 Si02
#       5
#     8   8   8   8   8
#     4  12  24  45  69  97 140 182 226 284 344 415
#     4  12  26  49  75 102 127 171 234 295 359 415
#     4  11  21  37  63  98 139 181 226 266 322 401
#     4  12  21  41  67 101 134 175 223 283 332 395
#     4  11  25  41  64 102 147 191 228 270 335 408
#
# _framework density 21.016387999999999
#
# number of rings (size 3 to 8) (size 9 to 14) (size 15 to 20)
#    0.000    0.400    6.000    3.000    0.000    6.400 
#    0.000    2.000    0.000    0.000    0.000    0.000 
#    0.000    0.000    0.000    0.000    0.000    0.000 
#
# Total GULP energy -222712.311602 kJ/mol
# GULP energy per Si atom -5567.807790 kJ/mol
# Density = 2.096855 g / cm^3
# Si number density = 21.016388 Si / 1000 Ang^3
#
#
#
# Elastic Constant Matrix: (Units=GPa)
#
#
# Indices 1 2 3 4 5 6 
#
# 1 89.8086 13.5553 14.6741 0.0000 0.0000 0.0000
# 2 13.5553 77.7247 15.5692 0.0000 0.0000 0.0000
# 3 14.6741 15.5692 127.5188 0.0000 0.0000 0.0000
# 4 0.0000 0.0000 0.0000 49.6180 0.0000 0.0000
# 5 0.0000 0.0000 0.0000 0.0000 55.4910 0.0000
# 6 0.0000 0.0000 0.0000 0.0000 0.0000 18.0327
#
#
#
# Elastic Compliance Matrix: (Units=1/GPa)
#
#
# Indices 1 2 3 4 5 6 
#
# 1 0.011588 -0.001798 -0.001114 0.000000 0.000000 0.000000
# 2 -0.001798 0.013467 -0.001437 0.000000 0.000000 0.000000
# 3 -0.001114 -0.001437 0.008146 0.000000 0.000000 0.000000
# 4 0.000000 0.000000 0.000000 0.020154 0.000000 0.000000
# 5 0.000000 0.000000 0.000000 0.000000 0.018021 0.000000
# 6 0.000000 0.000000 0.000000 0.000000 0.000000 0.055455
#
#
# Mechanical properties :
#
#
# Convention : Reuss Voigt Hill
#
# Bulk Modulus (GPa) = 40.81171 42.51659 41.66415
# Shear Modulus (GPa) = 34.79543 41.37857 38.08700
#
# Velocity S-wave (km/s) = 4.07336 4.44201 4.26167
# Velocity P-wave (km/s) = 6.44858 6.82515 6.63954
#
# Compressibility (1/GPa) = 0.02450277
#
# Stress axis : x y z
#
# Youngs Moduli (GPa) = 86.29498 74.25339 122.76459
#
# Poissons Ratio (x) = 0.13350 0.13676
# Poissons Ratio (y) = 0.15514 0.17646
# Poissons Ratio (z) = 0.09613 0.10673
#
# Static dielectric constant tensor:
#      x y z
#    x 1.754230 0.000000 0.000000 
#    y 0.000000 1.402290 0.000000 
#    z 0.000000 0.000000 1.726440 
# 
# From -- ./inp_files/11530.got.cif
#   From: 2010.05.17/outbox.cif.g08.bks.cpg/sg53_6_cif.got.tgz:11530.got - 2010.06.03 12:45:16.
