data_PCOD9419461
_publ_section_title
;
Structure prediction by ZEFSAII (Michael W. Deem and Ramdas Pophale) SiO2 
 PCOD9419461
Probable space group: P M N A
;
_chemical_formula_sum "Si O2"
_cell_formula_units_Z 24
_cell_length_a 18.735250
_cell_length_b 10.539042
_cell_length_c 5.287908
_cell_angle_alpha 90.000000
_cell_angle_beta 90.000000
_cell_angle_gamma 90.000000
_cell_volume 1044.105825
_symmetry_space_group_name_H-M "P M N A"
_symmetry_group_IT_number 53
_symmetry_cell_setting 'orthorhombic'
loop_
_space_group_symop_operation_xyz
x,y,z
1/2-x,-y,1/2+z
x,-y,-z
1/2-x,y,1/2-z
-x,-y,-z
1/2+x,y,1/2-z
-x,y,z
1/2+x,-y,1/2+z
loop_
_atom_site_type_symbol
_atom_site_label
_atom_site_fract_x
_atom_site_fract_y
_atom_site_fract_z
Si Si1 0.674781 0.106629 0.833308
Si Si2 0.344904 0.631699 0.951687
Si Si3 0.083087 0.708843 0.058247
O O1 0.750000 0.051409 0.750000
O O2 0.694214 0.235868 0.988406
O O3 0.623845 0.158680 0.613522
O O4 0.637135 0.000000 0.000000
O O5 0.404575 0.635601 0.175596
O O6 0.304244 0.500000 0.000000
O O7 0.378055 0.642531 0.675524
O O8 0.000000 0.723782 0.006049
#
# Coordination Sequence:
#
# PCOD9419461 Si02
#       3
#     8   8   8
#     4  10  26  44  68  94 132 180 225 274 337 401
#     4  10  23  43  67 100 133 173 219 275 335 401
#     4  10  23  42  68 101 133 171 221 274 334 399
#
# _framework density 22.986173000000001
#
# number of rings (size 3 to 8) (size 9 to 14) (size 15 to 20)
#    2.000    0.000    0.000    2.000    4.667    4.667 
#    6.000    1.667    0.000    0.000    0.000    0.000 
#    0.000    0.000    0.000    0.000    0.000    0.000 
#
# Total GULP energy -133779.563528 kJ/mol
# GULP energy per Si atom -5574.148480 kJ/mol
# Density = 2.293386 g / cm^3
# Si number density = 22.986173 Si / 1000 Ang^3
#
#
#
# Elastic Constant Matrix: (Units=GPa)
#
#
# Indices 1 2 3 4 5 6 
#
# 1 38.3622 2.1037 18.1935 0.0000 0.0000 0.0000
# 2 2.1037 116.0627 46.0232 0.0000 0.0000 0.0000
# 3 18.1935 46.0232 151.3025 0.0000 0.0000 0.0000
# 4 0.0000 0.0000 0.0000 32.2142 0.0000 0.0000
# 5 0.0000 0.0000 0.0000 0.0000 20.5269 0.0000
# 6 0.0000 0.0000 0.0000 0.0000 0.0000 0.8703
#
#
#
# Elastic Compliance Matrix: (Units=1/GPa)
#
#
# Indices 1 2 3 4 5 6 
#
# 1 0.027732 0.000932 -0.003618 0.000000 0.000000 0.000000
# 2 0.000932 0.009829 -0.003102 0.000000 0.000000 0.000000
# 3 -0.003618 -0.003102 0.007988 0.000000 0.000000 0.000000
# 4 0.000000 0.000000 0.000000 0.031042 0.000000 0.000000
# 5 0.000000 0.000000 0.000000 0.000000 0.048717 0.000000
# 6 0.000000 0.000000 0.000000 0.000000 0.000000 1.149033
#
#
# Mechanical properties :
#
#
# Convention : Reuss Voigt Hill
#
# Bulk Modulus (GPa) = 29.43496 48.70757 39.07127
# Shear Modulus (GPa) = 3.85433 26.68274 15.26853
#
# Velocity S-wave (km/s) = 1.29632 3.41077 2.58010
# Velocity P-wave (km/s) = 3.88251 6.06194 5.09024
#
# Compressibility (1/GPa) = 0.03397320
#
# Stress axis : x y z
#
# Youngs Moduli (GPa) = 36.05916 101.73809 125.18945
#
# Poissons Ratio (x) = -0.09483 0.45296
# Poissons Ratio (y) = -0.03361 0.38833
# Poissons Ratio (z) = 0.13047 0.31558
#
# Static dielectric constant tensor:
#      x y z
#    x 1.763830 0.000000 0.000000 
#    y 0.000000 1.946970 0.000000 
#    z 0.000000 0.000000 2.518110 
# 
# From -- ./inp_files/1759.got.cif
#   From: 2010.05.17/outbox.cif.g08.bks.cpg/sg53_1_cif.got.tgz:1759.got - 2010.06.03 12:45:16.
