data_PCOD9419619
_publ_section_title
;
Structure prediction by ZEFSAII (Michael W. Deem and Ramdas Pophale) SiO2 
 PCOD9419619
Probable space group: P M N A
;
_chemical_formula_sum "Si O2"
_cell_formula_units_Z 56
_cell_length_a 27.006924
_cell_length_b 7.935583
_cell_length_c 16.702849
_cell_angle_alpha 90.000000
_cell_angle_beta 90.000000
_cell_angle_gamma 90.000000
_cell_volume 3579.682558
_symmetry_space_group_name_H-M "P M N A"
_symmetry_group_IT_number 53
_symmetry_cell_setting 'orthorhombic'
loop_
_space_group_symop_operation_xyz
x,y,z
1/2-x,-y,1/2+z
x,-y,-z
1/2-x,y,1/2-z
-x,-y,-z
1/2+x,y,1/2-z
-x,y,z
1/2+x,-y,1/2+z
loop_
_atom_site_type_symbol
_atom_site_label
_atom_site_fract_x
_atom_site_fract_y
_atom_site_fract_z
Si Si1 0.308699 0.566534 0.752720
Si Si2 0.846351 0.087536 0.226627
Si Si3 0.702790 0.789205 0.188434
Si Si4 0.284941 0.927757 0.411702
Si Si5 0.943363 0.098410 0.124617
Si Si6 0.056148 0.730312 0.042752
Si Si7 0.344026 0.579704 0.415331
O O1 0.250000 0.592521 0.750000
O O2 0.332681 0.744141 0.774551
O O3 0.316730 0.401904 0.808401
O O4 0.328099 0.520936 0.663452
O O5 0.900700 0.107414 0.189973
O O6 0.837273 0.920428 0.278805
O O7 0.807536 0.060022 0.152478
O O8 0.750000 0.787781 0.250000
O O9 0.730027 0.863216 0.110837
O O10 0.319905 0.763944 0.407238
O O11 0.287380 0.000000 0.500000
O O12 0.000000 0.129820 0.151253
O O13 0.941764 0.909368 0.088471
O O14 0.932645 0.221795 0.049586
O O15 0.097225 0.608810 0.078487
O O16 0.000000 0.667403 0.048934
O O17 0.327638 0.500000 0.500000
#
# Coordination Sequence:
#
# PCOD9419619 Si02
#       7
#     8   8   8   8   8   8   8
#     4  11  19  33  47  65  92 123 163 205 249 288
#     4  11  19  31  53  66  88 133 165 191 244 296
#     4   9  18  34  47  65  94 124 156 199 241 293
#     4  11  19  32  47  69  97 123 162 205 240 290
#     4   9  16  28  45  67  93 124 162 206 239 273
#     4   9  17  29  43  61  96 131 160 203 245 270
#     4  12  21  29  45  69  95 127 171 209 237 276
#
# _framework density 15.643845000000001
#
# number of rings (size 3 to 8) (size 9 to 14) (size 15 to 20)
#    0.000    1.714    5.714    4.714    0.000    0.286 
#    0.000    0.714    0.000    0.857    0.000    0.000 
#    0.000    0.571    0.000    1.286    0.000    0.286 
#
# Total GULP energy -312284.652870 kJ/mol
# GULP energy per Si atom -5576.511658 kJ/mol
# Density = 1.560824 g / cm^3
# Si number density = 15.643845 Si / 1000 Ang^3
#
#
#
# Elastic Constant Matrix: (Units=GPa)
#
#
# Indices 1 2 3 4 5 6 
#
# 1 95.4246 30.4020 15.5971 0.0000 0.0000 0.0000
# 2 30.4020 82.2415 6.3999 0.0000 0.0000 0.0000
# 3 15.5971 6.3999 12.1687 0.0000 0.0000 0.0000
# 4 0.0000 0.0000 0.0000 17.3443 0.0000 0.0000
# 5 0.0000 0.0000 0.0000 0.0000 26.9624 0.0000
# 6 0.0000 0.0000 0.0000 0.0000 0.0000 10.3436
#
#
#
# Elastic Compliance Matrix: (Units=1/GPa)
#
#
# Indices 1 2 3 4 5 6 
#
# 1 0.014454 -0.004068 -0.016387 0.000000 0.000000 0.000000
# 2 -0.004068 0.013823 -0.002056 0.000000 0.000000 0.000000
# 3 -0.016387 -0.002056 0.104263 0.000000 0.000000 0.000000
# 4 0.000000 0.000000 0.000000 0.057656 0.000000 0.000000
# 5 0.000000 0.000000 0.000000 0.000000 0.037089 0.000000
# 6 0.000000 0.000000 0.000000 0.000000 0.000000 0.096678
#
#
# Mechanical properties :
#
#
# Convention : Reuss Voigt Hill
#
# Bulk Modulus (GPa) = 11.42617 32.73698 22.08157
# Shear Modulus (GPa) = 12.55790 20.09246 16.32518
#
# Velocity S-wave (km/s) = 2.83634 3.58770 3.23391
# Velocity P-wave (km/s) = 4.24808 6.17527 5.30001
#
# Compressibility (1/GPa) = 0.08751843
#
# Stress axis : x y z
#
# Youngs Moduli (GPa) = 69.18550 72.34276 9.59118
#
# Poissons Ratio (x) = 0.29429 0.15717
# Poissons Ratio (y) = 0.28144 0.01972
# Poissons Ratio (z) = 1.13372 0.14874
#
# Static dielectric constant tensor:
#      x y z
#    x 1.528160 0.000000 0.000000 
#    y 0.000000 1.573780 0.000000 
#    z 0.000000 0.000000 1.523740 
# 
# From -- ./inp_files/29565.got.cif
#   From: 2010.05.17/outbox.cif.g08.bks.cpg/sg53_15_cif.got.tgz:29565.got - 2010.06.03 12:45:16.
