data_PCOD9419701
_publ_section_title
;
Structure prediction by ZEFSAII (Michael W. Deem and Ramdas Pophale) SiO2 
 PCOD9419701
Probable space group: P M N A
;
_chemical_formula_sum "Si O2"
_cell_formula_units_Z 32
_cell_length_a 8.925609
_cell_length_b 10.557436
_cell_length_c 18.363113
_cell_angle_alpha 90.000000
_cell_angle_beta 90.000000
_cell_angle_gamma 90.000000
_cell_volume 1730.384523
_symmetry_space_group_name_H-M "P M N A"
_symmetry_group_IT_number 53
_symmetry_cell_setting 'orthorhombic'
loop_
_space_group_symop_operation_xyz
x,y,z
1/2-x,-y,1/2+z
x,-y,-z
1/2-x,y,1/2-z
-x,-y,-z
1/2+x,y,1/2-z
-x,y,z
1/2+x,-y,1/2+z
loop_
_atom_site_type_symbol
_atom_site_label
_atom_site_fract_x
_atom_site_fract_y
_atom_site_fract_z
Si Si1 0.677863 0.719391 0.932312
Si Si2 0.178984 0.511429 0.828209
Si Si3 0.172365 0.022950 0.087647
Si Si4 0.180259 0.745502 0.091585
O O1 0.500000 0.706528 0.932232
O O2 0.753745 0.607556 0.887064
O O3 0.726919 0.855040 0.898731
O O4 0.739697 0.718679 0.014863
O O5 0.250000 0.536817 0.750000
O O6 0.213356 0.368034 0.853667
O O7 0.000000 0.525896 0.825664
O O8 0.221540 0.886723 0.118506
O O9 0.000000 0.049653 0.108542
O O10 0.173607 0.000000 0.000000
O O11 0.000000 0.748343 0.078481
#
# Coordination Sequence:
#
# PCOD9419701 Si02
#       4
#     8   8   8   8
#     4  11  21  33  54  84 112 140 177 219 262 312
#     4  11  23  39  56  76 106 142 180 221 267 317
#     4   8  15  31  54  79 107 138 173 216 266 315
#     4   9  19  36  58  81 106 140 178 219 269 319
#
# _framework density 18.492999999999999
#
# number of rings (size 3 to 8) (size 9 to 14) (size 15 to 20)
#    0.000    2.250    0.000    5.250    0.000    9.500 
#    0.000    1.250    0.000    3.000    0.000    0.000 
#    0.000    0.000    0.000    0.000    0.000    0.000 
#
# Total GULP energy -178585.428014 kJ/mol
# GULP energy per Si atom -5580.794625 kJ/mol
# Density = 1.845091 g / cm^3
# Si number density = 18.493000 Si / 1000 Ang^3
#
#
#
# Elastic Constant Matrix: (Units=GPa)
#
#
# Indices 1 2 3 4 5 6 
#
# 1 46.0085 9.3976 4.7584 0.0000 0.0000 0.0000
# 2 9.3976 53.5802 -13.6479 0.0000 0.0000 0.0000
# 3 4.7584 -13.6479 15.0421 0.0000 0.0000 0.0000
# 4 0.0000 0.0000 0.0000 -0.8909 0.0000 0.0000
# 5 0.0000 0.0000 0.0000 0.0000 18.1506 0.0000
# 6 0.0000 0.0000 0.0000 0.0000 0.0000 12.0088
#
#
#
# Elastic Compliance Matrix: (Units=1/GPa)
#
#
# Indices 1 2 3 4 5 6 
#
# 1 0.025039 -0.008336 -0.015484 0.000000 0.000000 0.000000
# 2 -0.008336 0.027048 0.027178 0.000000 0.000000 0.000000
# 3 -0.015484 0.027178 0.096037 0.000000 0.000000 0.000000
# 4 0.000000 0.000000 0.000000 -1.122416 0.000000 0.000000
# 5 0.000000 0.000000 0.000000 0.000000 0.055095 0.000000
# 6 0.000000 0.000000 0.000000 0.000000 0.000000 0.083273
#
#
# Mechanical properties :
#
#
# Convention : Reuss Voigt Hill
#
# Bulk Modulus (GPa) = 6.45820 12.84967 9.65394
# Shear Modulus (GPa) = -6.32089 13.46187 3.57049
#
# Velocity S-wave (km/s) = -1.85079 2.70097 1.39101
# Velocity P-wave (km/s) = 1.03315 4.08540 2.79491
#
# Compressibility (1/GPa) = 0.15484199
#
# Stress axis : x y z
#
# Youngs Moduli (GPa) = 39.93737 36.97068 10.41262
#
# Poissons Ratio (x) = 0.30818 0.16123
# Poissons Ratio (y) = 0.33291 -0.28300
# Poissons Ratio (z) = 0.61839 -1.00480
#
# Static dielectric constant tensor:
#      x y z
#    x 1.611490 0.000000 0.000000 
#    y 0.000000 1.676140 0.000000 
#    z 0.000000 0.000000 1.611350 
# 
# From -- ./inp_files/19525.got.cif
#   From: 2010.05.17/outbox.cif.g08.bks.cpg/sg53_10_cif.got.tgz:19525.got - 2010.06.03 12:45:16.
