data_PCOD9419555
_publ_section_title
;
Structure prediction by ZEFSAII (Michael W. Deem and Ramdas Pophale) SiO2 
 PCOD9419555
Probable space group: P M N A
;
_chemical_formula_sum "Si O2"
_cell_formula_units_Z 20
_cell_length_a 17.560327
_cell_length_b 10.409431
_cell_length_c 5.144698
_cell_angle_alpha 90.000000
_cell_angle_beta 90.000000
_cell_angle_gamma 90.000000
_cell_volume 940.414845
_symmetry_space_group_name_H-M "P M N A"
_symmetry_group_IT_number 53
_symmetry_cell_setting 'orthorhombic'
loop_
_space_group_symop_operation_xyz
x,y,z
1/2-x,-y,1/2+z
x,-y,-z
1/2-x,y,1/2-z
-x,-y,-z
1/2+x,y,1/2-z
-x,y,z
1/2+x,-y,1/2+z
loop_
_atom_site_type_symbol
_atom_site_label
_atom_site_fract_x
_atom_site_fract_y
_atom_site_fract_z
Si Si1 0.412187 0.864852 0.657825
Si Si2 0.303760 0.352928 0.501915
Si Si3 0.803168 0.000000 0.500000
O O1 0.500000 0.838455 0.718304
O O2 0.371200 0.749946 0.507386
O O3 0.360274 0.888290 0.911340
O O4 0.409395 0.000000 0.500000
O O5 0.332445 0.500000 0.500000
O O6 0.250000 0.336167 0.250000
O O7 0.250000 0.336245 0.750000
O O8 0.750000 0.974183 0.250000
#
# Coordination Sequence:
#
# PCOD9419555 Si02
#       3
#     8   8   4
#     4  11  26  43  66 103 141 172 219 280 341 401
#     4  10  24  44  68  97 130 177 233 276 324 398
#     4  12  25  42  67 100 134 178 224 272 329 396
#
# _framework density 21.267209999999999
#
# number of rings (size 3 to 8) (size 9 to 14) (size 15 to 20)
#    0.000    1.200    2.000    1.800   11.200    0.800 
#    0.000    0.000    0.000    7.200    0.000    0.000 
#    0.000    0.000    0.000    0.000    0.000    0.000 
#
# Total GULP energy -111899.239131 kJ/mol
# GULP energy per Si atom -5594.961957 kJ/mol
# Density = 2.121880 g / cm^3
# Si number density = 21.267210 Si / 1000 Ang^3
#
#
#
# Elastic Constant Matrix: (Units=GPa)
#
#
# Indices 1 2 3 4 5 6 
#
# 1 199.7720 100.1573 75.2003 0.0000 0.0000 0.0000
# 2 100.1573 167.9228 40.9823 0.0000 0.0000 0.0000
# 3 75.2003 40.9823 155.4462 0.0000 0.0000 0.0000
# 4 0.0000 0.0000 0.0000 26.2920 0.0000 0.0000
# 5 0.0000 0.0000 0.0000 0.0000 -10.8227 0.0000
# 6 0.0000 0.0000 0.0000 0.0000 0.0000 19.6909
#
#
#
# Elastic Compliance Matrix: (Units=1/GPa)
#
#
# Indices 1 2 3 4 5 6 
#
# 1 0.008175 -0.004180 -0.002853 0.000000 0.000000 0.000000
# 2 -0.004180 0.008502 -0.000219 0.000000 0.000000 0.000000
# 3 -0.002853 -0.000219 0.007871 0.000000 0.000000 0.000000
# 4 0.000000 0.000000 0.000000 0.038034 0.000000 0.000000
# 5 0.000000 0.000000 0.000000 0.000000 -0.092399 0.000000
# 6 0.000000 0.000000 0.000000 0.000000 0.000000 0.050785
#
#
# Mechanical properties :
#
#
# Convention : Reuss Voigt Hill
#
# Bulk Modulus (GPa) = 99.56398 106.20229 102.88313
# Shear Modulus (GPa) = 128.79756 27.48547 78.14151
#
# Velocity S-wave (km/s) = 7.79057 3.59888 6.06815
# Velocity P-wave (km/s) = 11.30670 8.20456 9.87816
#
# Compressibility (1/GPa) = 0.01004379
#
# Stress axis : x y z
#
# Youngs Moduli (GPa) = 122.32054 117.62348 127.04712
#
# Poissons Ratio (x) = 0.49165 0.36246
# Poissons Ratio (y) = 0.51128 0.02787
# Poissons Ratio (z) = 0.34898 0.02580
#
# Static dielectric constant tensor:
#      x y z
#    x 1.732500 0.000000 0.000000 
#    y 0.000000 1.819620 0.000000 
#    z 0.000000 0.000000 1.830940 
# 
# From -- ./inp_files/1729.got.cif
#   From: 2010.05.17/outbox.cif.g08.bks.cpg/sg53_1_cif.got.tgz:1729.got - 2010.06.03 12:45:16.
