data_PCOD9419799
_publ_section_title
;
Structure prediction by ZEFSAII (Michael W. Deem and Ramdas Pophale) SiO2 
 PCOD9419799
Probable space group: P M N A
;
_chemical_formula_sum "Si O2"
_cell_formula_units_Z 44
_cell_length_a 25.973742
_cell_length_b 5.392775
_cell_length_c 15.735427
_cell_angle_alpha 90.000000
_cell_angle_beta 90.000000
_cell_angle_gamma 90.000000
_cell_volume 2204.069860
_symmetry_space_group_name_H-M "P M N A"
_symmetry_group_IT_number 53
_symmetry_cell_setting 'orthorhombic'
loop_
_space_group_symop_operation_xyz
x,y,z
1/2-x,-y,1/2+z
x,-y,-z
1/2-x,y,1/2-z
-x,-y,-z
1/2+x,y,1/2-z
-x,y,z
1/2+x,-y,1/2+z
loop_
_atom_site_type_symbol
_atom_site_label
_atom_site_fract_x
_atom_site_fract_y
_atom_site_fract_z
Si Si1 0.750000 0.191456 0.250000
Si Si2 0.196647 0.750103 0.048671
Si Si3 0.837104 0.462228 0.783588
Si Si4 0.058010 0.452116 0.298721
Si Si5 0.920094 0.952341 0.405575
Si Si6 0.304429 0.173656 0.878783
O O1 0.706169 0.334857 0.302839
O O2 0.719795 0.034413 0.180980
O O3 0.172222 0.739663 0.143330
O O4 0.259013 0.749300 0.058531
O O5 0.180656 0.500000 0.000000
O O6 0.182048 0.000000 0.000000
O O7 0.896437 0.530483 0.770855
O O8 0.818740 0.385205 0.689101
O O9 0.061991 0.698103 0.359121
O O10 0.000000 0.445824 0.264134
O O11 0.067723 0.197484 0.350672
O O12 0.858522 0.917602 0.413514
O O13 0.940887 0.000000 0.500000
#
# Coordination Sequence:
#
# PCOD9419799 Si02
#       6
#     4   8   8   8   8   8
#     4  12  16  38  64  86 118 160 206 248 288 360
#     4  12  25  37  58  93 131 159 196 250 315 375
#     4  11  23  38  63  87 121 164 204 251 297 363
#     4  11  25  43  64  86 114 163 215 251 291 357
#     4  11  24  39  60  92 126 158 198 251 305 355
#     4  11  22  36  60  89 125 167 201 241 298 365
#
# _framework density 19.963069000000001
#
# number of rings (size 3 to 8) (size 9 to 14) (size 15 to 20)
#    0.000    0.727    5.455    2.727    0.000    5.091 
#    0.000    0.000    0.000    1.091    0.000    0.000 
#    0.000    0.000    0.000    0.000    0.000    0.000 
#
# Total GULP energy -245683.472401 kJ/mol
# GULP energy per Si atom -5583.715282 kJ/mol
# Density = 1.991763 g / cm^3
# Si number density = 19.963069 Si / 1000 Ang^3
#
#
#
# Elastic Constant Matrix: (Units=GPa)
#
#
# Indices 1 2 3 4 5 6 
#
# 1 127.0327 4.1632 2.6974 0.0000 0.0000 0.0000
# 2 4.1632 92.7253 8.0984 0.0000 0.0000 0.0000
# 3 2.6974 8.0984 31.6110 0.0000 0.0000 0.0000
# 4 0.0000 0.0000 0.0000 34.4195 0.0000 0.0000
# 5 0.0000 0.0000 0.0000 0.0000 0.4751 0.0000
# 6 0.0000 0.0000 0.0000 0.0000 0.0000 -13.2638
#
#
#
# Elastic Compliance Matrix: (Units=1/GPa)
#
#
# Indices 1 2 3 4 5 6 
#
# 1 0.007895 -0.000302 -0.000596 0.000000 0.000000 0.000000
# 2 -0.000302 0.011043 -0.002803 0.000000 0.000000 0.000000
# 3 -0.000596 -0.002803 0.032404 0.000000 0.000000 0.000000
# 4 0.000000 0.000000 0.000000 0.029053 0.000000 0.000000
# 5 0.000000 0.000000 0.000000 0.000000 2.104957 0.000000
# 6 0.000000 0.000000 0.000000 0.000000 0.000000 -0.075393
#
#
# Mechanical properties :
#
#
# Convention : Reuss Voigt Hill
#
# Bulk Modulus (GPa) = 22.75967 31.25412 27.00690
# Shear Modulus (GPa) = 2.34521 20.08683 11.21602
#
# Velocity S-wave (km/s) = 1.08505 3.17551 2.37288
# Velocity P-wave (km/s) = 3.60491 5.39769 4.58969
#
# Compressibility (1/GPa) = 0.04393736
#
# Stress axis : x y z
#
# Youngs Moduli (GPa) = 126.66950 90.55546 30.86081
#
# Poissons Ratio (x) = 0.02738 0.01840
# Poissons Ratio (y) = 0.03830 0.08651
# Poissons Ratio (z) = 0.07552 0.25385
#
# Static dielectric constant tensor:
#      x y z
#    x 1.720660 0.000000 0.000000 
#    y 0.000000 1.775580 0.000000 
#    z 0.000000 0.000000 1.688460 
# 
# From -- ./inp_files/24849.got.cif
#   From: 2010.05.17/outbox.cif.g08.bks.cpg/sg53_13_cif.got.tgz:24849.got - 2010.06.03 12:45:16.
