data_PCOD9419058
_publ_section_title
;
Structure prediction by ZEFSAII (Michael W. Deem and Ramdas Pophale) SiO2 
 PCOD9419058
Probable space group: P M N A
;
_chemical_formula_sum "Si O2"
_cell_formula_units_Z 40
_cell_length_a 17.659759
_cell_length_b 12.331424
_cell_length_c 9.313746
_cell_angle_alpha 90.000000
_cell_angle_beta 90.000000
_cell_angle_gamma 90.000000
_cell_volume 2028.254243
_symmetry_space_group_name_H-M "P M N A"
_symmetry_group_IT_number 53
_symmetry_cell_setting 'orthorhombic'
loop_
_space_group_symop_operation_xyz
x,y,z
1/2-x,-y,1/2+z
x,-y,-z
1/2-x,y,1/2-z
-x,-y,-z
1/2+x,y,1/2-z
-x,y,z
1/2+x,-y,1/2+z
loop_
_atom_site_type_symbol
_atom_site_label
_atom_site_fract_x
_atom_site_fract_y
_atom_site_fract_z
Si Si1 0.241393 0.108933 0.920818
Si Si2 0.586669 0.397454 0.788406
Si Si3 0.139241 0.384977 0.154720
Si Si4 0.698518 0.664221 0.965032
Si Si5 0.917260 0.212116 0.942192
O O1 0.250000 0.100253 0.750000
O O2 0.153171 0.132505 0.954292
O O3 0.285233 0.214328 0.979716
O O4 0.266366 0.000000 0.000000
O O5 0.500000 0.409057 0.840978
O O6 0.605075 0.496554 0.681385
O O7 0.592220 0.285299 0.700925
O O8 0.649023 0.394571 0.913418
O O9 0.219326 0.386650 0.070190
O O10 0.155577 0.338700 0.313734
O O11 0.088178 0.300856 0.068726
O O12 0.000000 0.160574 0.940868
#
# Coordination Sequence:
#
# PCOD9419058 Si02
#       5
#     8   8   8   8   8
#     4  11  24  42  69  88 116 154 210 264 317 368
#     4  11  22  39  61  91 132 174 206 249 309 372
#     4  10  22  35  60  92 130 164 214 242 295 370
#     4  10  23  40  58  91 125 164 209 260 306 364
#     4  10  22  40  62  91 127 161 202 257 309 365
#
# _framework density 19.721392000000002
#
# number of rings (size 3 to 8) (size 9 to 14) (size 15 to 20)
#    0.000    1.600    2.000    1.800    5.600   15.600 
#    0.000    0.000    0.000    1.200    0.000    0.000 
#    0.000    0.000    0.000    0.000    0.000    0.000 
#
# Total GULP energy -223597.093391 kJ/mol
# GULP energy per Si atom -5589.927335 kJ/mol
# Density = 1.967651 g / cm^3
# Si number density = 19.721392 Si / 1000 Ang^3
#
#
#
# Elastic Constant Matrix: (Units=GPa)
#
#
# Indices 1 2 3 4 5 6 
#
# 1 73.7187 8.4188 9.4028 0.0000 0.0000 0.0000
# 2 8.4188 85.9941 19.7957 0.0000 0.0000 0.0000
# 3 9.4028 19.7957 69.8190 0.0000 0.0000 0.0000
# 4 0.0000 0.0000 0.0000 26.5951 0.0000 0.0000
# 5 0.0000 0.0000 0.0000 0.0000 17.6682 0.0000
# 6 0.0000 0.0000 0.0000 0.0000 0.0000 8.3215
#
#
#
# Elastic Compliance Matrix: (Units=1/GPa)
#
#
# Indices 1 2 3 4 5 6 
#
# 1 0.013881 -0.000993 -0.001588 0.000000 0.000000 0.000000
# 2 -0.000993 0.012512 -0.003414 0.000000 0.000000 0.000000
# 3 -0.001588 -0.003414 0.015504 0.000000 0.000000 0.000000
# 4 0.000000 0.000000 0.000000 0.037601 0.000000 0.000000
# 5 0.000000 0.000000 0.000000 0.000000 0.056599 0.000000
# 6 0.000000 0.000000 0.000000 0.000000 0.000000 0.120171
#
#
# Mechanical properties :
#
#
# Convention : Reuss Voigt Hill
#
# Bulk Modulus (GPa) = 33.43635 33.86293 33.64964
# Shear Modulus (GPa) = 17.97095 23.31124 20.64109
#
# Velocity S-wave (km/s) = 3.02195 3.44179 3.23868
# Velocity P-wave (km/s) = 5.40069 5.74478 5.57539
#
# Compressibility (1/GPa) = 0.02990757
#
# Stress axis : x y z
#
# Youngs Moduli (GPa) = 72.04063 79.92460 64.49756
#
# Poissons Ratio (x) = 0.07940 0.10241
# Poissons Ratio (y) = 0.07157 0.22017
# Poissons Ratio (z) = 0.11438 0.27284
#
# Static dielectric constant tensor:
#      x y z
#    x 1.703440 0.000000 0.000000 
#    y 0.000000 1.673660 0.000000 
#    z 0.000000 0.000000 1.689920 
# 
# From -- ./inp_files/9607.got.cif
#   From: 2010.05.17/outbox.cif.g08.bks.cpg/sg53_5_cif.got.tgz:9607.got - 2010.06.03 12:45:16.
