data_PCOD9419626
_publ_section_title
;
Structure prediction by ZEFSAII (Michael W. Deem and Ramdas Pophale) SiO2 
 PCOD9419626
Probable space group: P M N A
;
_chemical_formula_sum "Si O2"
_cell_formula_units_Z 40
_cell_length_a 18.697216
_cell_length_b 10.051527
_cell_length_c 12.162720
_cell_angle_alpha 90.000000
_cell_angle_beta 90.000000
_cell_angle_gamma 90.000000
_cell_volume 2285.807734
_symmetry_space_group_name_H-M "P M N A"
_symmetry_group_IT_number 53
_symmetry_cell_setting 'orthorhombic'
loop_
_space_group_symop_operation_xyz
x,y,z
1/2-x,-y,1/2+z
x,-y,-z
1/2-x,y,1/2-z
-x,-y,-z
1/2+x,y,1/2-z
-x,y,z
1/2+x,-y,1/2+z
loop_
_atom_site_type_symbol
_atom_site_label
_atom_site_fract_x
_atom_site_fract_y
_atom_site_fract_z
Si Si1 0.000000 0.886771 0.591395
Si Si2 0.711548 0.633675 0.428862
Si Si3 0.856002 0.293787 0.699782
Si Si4 0.147208 0.030365 0.308435
Si Si5 0.789532 0.887676 0.920491
Si Si6 0.500000 0.362962 0.931846
O O1 0.070845 0.912610 0.660320
O O2 0.000000 0.749941 0.525694
O O3 0.000000 0.000000 0.500000
O O4 0.704685 0.500000 0.500000
O O5 0.658321 0.654400 0.324414
O O6 0.790064 0.652008 0.373863
O O7 0.702559 0.750727 0.516988
O O8 0.929830 0.341430 0.644426
O O9 0.852424 0.131227 0.699219
O O10 0.171563 0.095336 0.194630
O O11 0.206665 0.077730 0.395565
O O12 0.819399 0.000000 0.000000
O O13 0.500000 0.500000 0.000000
#
# Coordination Sequence:
#
# PCOD9419626 Si02
#       6
#     4   8   8   8   8   4
#     4  12  22  38  62  87 114 147 199 239 283 337
#     4  11  23  37  61  87 120 154 191 242 287 345
#     4  11  21  40  60  86 118 153 196 237 294 342
#     4  11  21  35  63  90 114 152 198 242 280 342
#     4  11  19  36  60  85 114 154 196 232 288 335
#     4  12  26  40  62  86 120 155 184 239 298 350
#
# _framework density 17.499285
#
# number of rings (size 3 to 8) (size 9 to 14) (size 15 to 20)
#    0.000    0.800    6.000    3.600    0.000    4.800 
#    0.000    2.000    0.000    0.000    0.000    0.000 
#    0.000    0.000    0.000    0.000    0.000    0.000 
#
# Total GULP energy -223307.518470 kJ/mol
# GULP energy per Si atom -5582.687962 kJ/mol
# Density = 1.745946 g / cm^3
# Si number density = 17.499285 Si / 1000 Ang^3
#
#
#
# Elastic Constant Matrix: (Units=GPa)
#
#
# Indices 1 2 3 4 5 6 
#
# 1 133.6985 47.2336 64.3340 0.0000 0.0000 0.0000
# 2 47.2336 182.7933 90.2417 0.0000 0.0000 0.0000
# 3 64.3340 90.2417 138.9493 0.0000 0.0000 0.0000
# 4 0.0000 0.0000 0.0000 35.6091 0.0000 0.0000
# 5 0.0000 0.0000 0.0000 0.0000 7.4588 0.0000
# 6 0.0000 0.0000 0.0000 0.0000 0.0000 11.2172
#
#
#
# Elastic Compliance Matrix: (Units=1/GPa)
#
#
# Indices 1 2 3 4 5 6 
#
# 1 0.009646 -0.000423 -0.004191 0.000000 0.000000 0.000000
# 2 -0.000423 0.008071 -0.005046 0.000000 0.000000 0.000000
# 3 -0.004191 -0.005046 0.012414 0.000000 0.000000 0.000000
# 4 0.000000 0.000000 0.000000 0.028083 0.000000 0.000000
# 5 0.000000 0.000000 0.000000 0.000000 0.134069 0.000000
# 6 0.000000 0.000000 0.000000 0.000000 0.000000 0.089148
#
#
# Mechanical properties :
#
#
# Convention : Reuss Voigt Hill
#
# Bulk Modulus (GPa) = 92.50062 95.45110 93.97586
# Shear Modulus (GPa) = 16.42815 27.76581 22.09698
#
# Velocity S-wave (km/s) = 3.06729 3.98764 3.55736
# Velocity P-wave (km/s) = 8.09437 8.71010 8.40787
#
# Compressibility (1/GPa) = 0.01081074
#
# Stress axis : x y z
#
# Youngs Moduli (GPa) = 103.67232 123.89913 80.55191
#
# Poissons Ratio (x) = 0.05246 0.33760
# Poissons Ratio (y) = 0.04390 0.40645
# Poissons Ratio (z) = 0.43449 0.62517
#
# Static dielectric constant tensor:
#      x y z
#    x 1.403170 0.000000 0.000000 
#    y 0.000000 1.523310 0.000000 
#    z 0.000000 0.000000 1.577350 
# 
# From -- ./inp_files/16733.got.cif
#   From: 2010.05.17/outbox.cif.g08.bks.cpg/sg53_9_cif.got.tgz:16733.got - 2010.06.03 12:45:16.
