data_PCOD9419805
_publ_section_title
;
Structure prediction by ZEFSAII (Michael W. Deem and Ramdas Pophale) SiO2 
 PCOD9419805
Probable space group: P M N A
;
_chemical_formula_sum "Si O2"
_cell_formula_units_Z 48
_cell_length_a 8.655552
_cell_length_b 19.208329
_cell_length_c 13.999653
_cell_angle_alpha 90.000000
_cell_angle_beta 90.000000
_cell_angle_gamma 90.000000
_cell_volume 2327.563975
_symmetry_space_group_name_H-M "P M N A"
_symmetry_group_IT_number 53
_symmetry_cell_setting 'orthorhombic'
loop_
_space_group_symop_operation_xyz
x,y,z
1/2-x,-y,1/2+z
x,-y,-z
1/2-x,y,1/2-z
-x,-y,-z
1/2+x,y,1/2-z
-x,y,z
1/2+x,-y,1/2+z
loop_
_atom_site_type_symbol
_atom_site_label
_atom_site_fract_x
_atom_site_fract_y
_atom_site_fract_z
Si Si1 0.313715 0.396175 0.055425
Si Si2 0.685969 0.541203 0.147202
Si Si3 0.684889 0.750385 0.545934
Si Si4 0.315810 0.888364 0.857442
Si Si5 0.814840 0.186484 0.855082
Si Si6 0.185744 0.031333 0.858616
O O1 0.500000 0.392167 0.056849
O O2 0.268061 0.461570 0.121332
O O3 0.243658 0.322772 0.085090
O O4 0.265939 0.414647 0.946154
O O5 0.750000 0.562665 0.250000
O O6 0.500000 0.543542 0.150696
O O7 0.500000 0.754591 0.553126
O O8 0.757087 0.817746 0.595249
O O9 0.731112 0.757827 0.434331
O O10 0.250000 0.886870 0.750000
O O11 0.500000 0.891224 0.856256
O O12 0.251946 0.960421 0.902636
O O13 0.750000 0.198455 0.750000
O O14 0.769266 0.108914 0.891954
O O15 0.000000 0.186031 0.847847
O O16 0.250000 0.031667 0.750000
O O17 0.000000 0.026244 0.859635
#
# Coordination Sequence:
#
# PCOD9419805 Si02
#       6
#     8   8   8   8   8   8
#     4   9  20  39  57  80 114 148 178 218 267 321
#     4   9  19  37  62  86 111 142 179 218 265 320
#     4  11  23  38  55  81 114 149 185 225 272 326
#     4  11  22  37  56  79 107 143 185 232 281 332
#     4   9  20  36  55  78 108 145 186 230 279 328
#     4   9  16  31  53  76 103 138 181 232 280 326
#
# _framework density 20.622418
#
# number of rings (size 3 to 8) (size 9 to 14) (size 15 to 20)
#    0.000    2.333    0.000    4.500    0.000    5.333 
#    0.000   10.000    0.000    0.000    0.000    0.000 
#    0.000    0.000    0.000    0.000    0.000    0.000 
#
# Total GULP energy -267944.869274 kJ/mol
# GULP energy per Si atom -5582.184777 kJ/mol
# Density = 2.057548 g / cm^3
# Si number density = 20.622418 Si / 1000 Ang^3
#
#
#
# Elastic Constant Matrix: (Units=GPa)
#
#
# Indices 1 2 3 4 5 6 
#
# 1 48.0470 18.4855 -2.8987 0.0000 0.0000 0.0000
# 2 18.4855 76.5544 -15.8997 0.0000 0.0000 0.0000
# 3 -2.8987 -15.8997 40.1860 0.0000 0.0000 0.0000
# 4 0.0000 0.0000 0.0000 15.7719 0.0000 0.0000
# 5 0.0000 0.0000 0.0000 0.0000 24.1638 0.0000
# 6 0.0000 0.0000 0.0000 0.0000 0.0000 32.1545
#
#
#
# Elastic Compliance Matrix: (Units=1/GPa)
#
#
# Indices 1 2 3 4 5 6 
#
# 1 0.022957 -0.005665 -0.000585 0.000000 0.000000 0.000000
# 2 -0.005665 0.015630 0.005775 0.000000 0.000000 0.000000
# 3 -0.000585 0.005775 0.027127 0.000000 0.000000 0.000000
# 4 0.000000 0.000000 0.000000 0.063404 0.000000 0.000000
# 5 0.000000 0.000000 0.000000 0.000000 0.041384 0.000000
# 6 0.000000 0.000000 0.000000 0.000000 0.000000 0.031100
#
#
# Mechanical properties :
#
#
# Convention : Reuss Voigt Hill
#
# Bulk Modulus (GPa) = 15.44061 18.24017 16.84039
# Shear Modulus (GPa) = 22.30743 25.42473 23.86608
#
# Velocity S-wave (km/s) = 3.29250 3.51503 3.40558
# Velocity P-wave (km/s) = 4.68590 5.03368 4.86290
#
# Compressibility (1/GPa) = 0.06476429
#
# Stress axis : x y z
#
# Youngs Moduli (GPa) = 43.55932 63.97939 36.86349
#
# Poissons Ratio (x) = 0.36244 0.02158
# Poissons Ratio (y) = 0.24676 -0.21290
# Poissons Ratio (z) = 0.02550 -0.36951
#
# Static dielectric constant tensor:
#      x y z
#    x 1.702710 0.000000 0.000000 
#    y 0.000000 1.739020 0.000000 
#    z 0.000000 0.000000 1.842840 
# 
# From -- ./inp_files/20190.got.cif
#   From: 2010.05.17/outbox.cif.g08.bks.cpg/sg53_11_cif.got.tgz:20190.got - 2010.06.03 12:45:16.
