data_PCOD9419654
_publ_section_title
;
Structure prediction by ZEFSAII (Michael W. Deem and Ramdas Pophale) SiO2 
 PCOD9419654
Probable space group: P M N A
;
_chemical_formula_sum "Si O2"
_cell_formula_units_Z 48
_cell_length_a 19.157445
_cell_length_b 11.324360
_cell_length_c 11.408375
_cell_angle_alpha 90.000000
_cell_angle_beta 90.000000
_cell_angle_gamma 90.000000
_cell_volume 2474.999085
_symmetry_space_group_name_H-M "P M N A"
_symmetry_group_IT_number 53
_symmetry_cell_setting 'orthorhombic'
loop_
_space_group_symop_operation_xyz
x,y,z
1/2-x,-y,1/2+z
x,-y,-z
1/2-x,y,1/2-z
-x,-y,-z
1/2+x,y,1/2-z
-x,y,z
1/2+x,-y,1/2+z
loop_
_atom_site_type_symbol
_atom_site_label
_atom_site_fract_x
_atom_site_fract_y
_atom_site_fract_z
Si Si1 0.181383 0.283099 0.033408
Si Si2 0.666220 0.899663 0.730286
Si Si3 0.331303 0.827625 0.288596
Si Si4 0.158655 0.726451 0.582685
Si Si5 0.825887 0.472396 0.223993
Si Si6 0.917484 0.659597 0.357919
O O1 0.149724 0.186389 0.122206
O O2 0.264909 0.260713 0.025684
O O3 0.169768 0.410760 0.095904
O O4 0.155965 0.252979 0.903579
O O5 0.750000 0.890828 0.750000
O O6 0.635391 0.847398 0.852400
O O7 0.652055 0.034127 0.696531
O O8 0.250000 0.819520 0.250000
O O9 0.382163 0.778637 0.189655
O O10 0.173040 0.639710 0.690538
O O11 0.108037 0.660741 0.492628
O O12 0.750000 0.530392 0.250000
O O13 0.884391 0.558020 0.275613
O O14 0.000000 0.657321 0.350802
#
# Coordination Sequence:
#
# PCOD9419654 Si02
#       6
#     8   8   8   8   8   8
#     4   9  17  35  60  87 111 142 192 250 292 334
#     4   8  17  32  58  89 114 140 186 246 294 343
#     4  11  20  34  58  86 117 153 193 235 289 352
#     4   9  18  36  57  85 114 143 188 242 297 347
#     4   9  20  37  60  83 110 147 196 246 291 343
#     4  12  25  38  53  82 122 159 193 234 292 356
#
# _framework density 19.393946
#
# number of rings (size 3 to 8) (size 9 to 14) (size 15 to 20)
#    0.000    2.333    1.667    3.500    0.000    2.667 
#    0.000    3.333    0.000    4.000    0.000    0.000 
#    0.000    0.000    0.000    0.000    0.000    0.000 
#
# Total GULP energy -267390.135818 kJ/mol
# GULP energy per Si atom -5570.627830 kJ/mol
# Density = 1.934980 g / cm^3
# Si number density = 19.393946 Si / 1000 Ang^3
#
#
#
# Elastic Constant Matrix: (Units=GPa)
#
#
# Indices 1 2 3 4 5 6 
#
# 1 79.8596 24.2824 21.4746 0.0000 0.0000 0.0000
# 2 24.2824 71.7448 33.1674 0.0000 0.0000 0.0000
# 3 21.4746 33.1674 96.4066 0.0000 0.0000 0.0000
# 4 0.0000 0.0000 0.0000 22.7569 0.0000 0.0000
# 5 0.0000 0.0000 0.0000 0.0000 13.6432 0.0000
# 6 0.0000 0.0000 0.0000 0.0000 0.0000 -59.7585
#
#
#
# Elastic Compliance Matrix: (Units=1/GPa)
#
#
# Indices 1 2 3 4 5 6 
#
# 1 0.014216 -0.003981 -0.001797 0.000000 0.000000 0.000000
# 2 -0.003981 0.017689 -0.005199 0.000000 0.000000 0.000000
# 3 -0.001797 -0.005199 0.012562 0.000000 0.000000 0.000000
# 4 0.000000 0.000000 0.000000 0.043943 0.000000 0.000000
# 5 0.000000 0.000000 0.000000 0.000000 0.073296 0.000000
# 6 0.000000 0.000000 0.000000 0.000000 0.000000 -0.016734
#
#
# Mechanical properties :
#
#
# Convention : Reuss Voigt Hill
#
# Bulk Modulus (GPa) = 44.41876 45.09554 44.75715
# Shear Modulus (GPa) = 28.66497 6.60078 17.63288
#
# Velocity S-wave (km/s) = 3.84870 1.84687 3.01856
# Velocity P-wave (km/s) = 6.53476 5.27738 5.93944
#
# Compressibility (1/GPa) = 0.02251301
#
# Stress axis : x y z
#
# Youngs Moduli (GPa) = 70.34548 56.53233 79.60727
#
# Poissons Ratio (x) = 0.22503 0.14306
# Poissons Ratio (y) = 0.28001 0.41388
# Poissons Ratio (z) = 0.12642 0.29391
#
# Static dielectric constant tensor:
#      x y z
#    x 1.636120 0.000000 0.000000 
#    y 0.000000 1.721030 0.000000 
#    z 0.000000 0.000000 1.696930 
# 
# From -- ./inp_files/16913.got.cif
#   From: 2010.05.17/outbox.cif.g08.bks.cpg/sg53_9_cif.got.tgz:16913.got - 2010.06.03 12:45:16.
