data_PCOD9419204
_publ_section_title
;
Structure prediction by ZEFSAII (Michael W. Deem and Ramdas Pophale) SiO2 
 PCOD9419204
Probable space group: P M N A
;
_chemical_formula_sum "Si O2"
_cell_formula_units_Z 48
_cell_length_a 11.205286
_cell_length_b 7.324754
_cell_length_c 28.349062
_cell_angle_alpha 90.000000
_cell_angle_beta 90.000000
_cell_angle_gamma 90.000000
_cell_volume 2326.776577
_symmetry_space_group_name_H-M "P M N A"
_symmetry_group_IT_number 53
_symmetry_cell_setting 'orthorhombic'
loop_
_space_group_symop_operation_xyz
x,y,z
1/2-x,-y,1/2+z
x,-y,-z
1/2-x,y,1/2-z
-x,-y,-z
1/2+x,y,1/2-z
-x,y,z
1/2+x,-y,1/2+z
loop_
_atom_site_type_symbol
_atom_site_label
_atom_site_fract_x
_atom_site_fract_y
_atom_site_fract_z
Si Si1 0.361644 0.391164 0.616515
Si Si2 0.301706 0.735252 0.201407
Si Si3 0.128706 0.932131 0.639207
Si Si4 0.873205 0.662161 0.724501
Si Si5 0.139133 0.819210 0.914615
Si Si6 0.355847 0.700413 0.483752
O O1 0.500000 0.345771 0.623146
O O2 0.294498 0.343656 0.664281
O O3 0.356165 0.606479 0.602609
O O4 0.314388 0.281928 0.570164
O O5 0.250000 0.815991 0.250000
O O6 0.371213 0.555334 0.217839
O O7 0.367888 0.890920 0.172595
O O8 0.128631 0.758740 0.674027
O O9 0.252637 0.918592 0.611317
O O10 0.000000 0.931434 0.613064
O O11 0.750000 0.712051 0.750000
O O12 0.000000 0.714425 0.748321
O O13 0.000000 0.879307 0.907304
O O14 0.165619 0.825179 0.970790
O O15 0.313796 0.500000 0.500000
O O16 0.500000 0.692926 0.480228
#
# Coordination Sequence:
#
# PCOD9419204 Si02
#       6
#     8   8   8   8   8   8
#     4   9  17  33  60  92 120 149 192 246 299 350
#     4  11  23  38  58  83 117 157 201 244 291 343
#     4  11  23  39  57  83 120 159 195 236 289 349
#     4  10  22  40  60  82 110 150 196 246 295 346
#     4   9  17  34  61  92 120 150 191 241 295 353
#     4   7  12  26  54  89 120 146 181 237 299 350
#
# _framework density 20.629397999999998
#
# number of rings (size 3 to 8) (size 9 to 14) (size 15 to 20)
#    0.000    2.500    1.667    3.000    0.000    4.667 
#    0.000    0.833    0.000   10.500    0.000    0.000 
#    0.000    0.000    0.000    0.000    0.000    0.000 
#
# Total GULP energy -267454.945398 kJ/mol
# GULP energy per Si atom -5571.978029 kJ/mol
# Density = 2.058244 g / cm^3
# Si number density = 20.629398 Si / 1000 Ang^3
#
#
#
# Elastic Constant Matrix: (Units=GPa)
#
#
# Indices 1 2 3 4 5 6 
#
# 1 148.0570 27.1219 69.6527 0.0000 0.0000 0.0000
# 2 27.1219 56.6649 8.1543 0.0000 0.0000 0.0000
# 3 69.6527 8.1543 110.5770 0.0000 0.0000 0.0000
# 4 0.0000 0.0000 0.0000 29.2062 0.0000 0.0000
# 5 0.0000 0.0000 0.0000 0.0000 7.2676 0.0000
# 6 0.0000 0.0000 0.0000 0.0000 0.0000 63.3274
#
#
#
# Elastic Compliance Matrix: (Units=1/GPa)
#
#
# Indices 1 2 3 4 5 6 
#
# 1 0.010465 -0.004104 -0.006289 0.000000 0.000000 0.000000
# 2 -0.004104 0.019446 0.001151 0.000000 0.000000 0.000000
# 3 -0.006289 0.001151 0.012920 0.000000 0.000000 0.000000
# 4 0.000000 0.000000 0.000000 0.034239 0.000000 0.000000
# 5 0.000000 0.000000 0.000000 0.000000 0.137597 0.000000
# 6 0.000000 0.000000 0.000000 0.000000 0.000000 0.015791
#
#
# Mechanical properties :
#
#
# Convention : Reuss Voigt Hill
#
# Bulk Modulus (GPa) = 41.07259 58.35077 49.71168
# Shear Modulus (GPa) = 19.45096 33.98492 26.71794
#
# Velocity S-wave (km/s) = 3.07396 4.06322 3.60271
# Velocity P-wave (km/s) = 5.70543 7.09646 6.43862
#
# Compressibility (1/GPa) = 0.02434714
#
# Stress axis : x y z
#
# Youngs Moduli (GPa) = 95.56097 51.42404 77.39905
#
# Poissons Ratio (x) = 0.21103 0.48676
# Poissons Ratio (y) = 0.39215 -0.08908
# Poissons Ratio (z) = 0.60098 -0.05918
#
# Static dielectric constant tensor:
#      x y z
#    x 1.748070 0.000000 0.000000 
#    y 0.000000 1.784150 0.000000 
#    z 0.000000 0.000000 1.752010 
# 
# From -- ./inp_files/36697.got.cif
#   From: 2010.05.17/outbox.cif.g08.bks.cpg/sg53_19_cif.got.tgz:36697.got - 2010.06.03 12:45:16.
