data_PCOD9419029
_publ_section_title
;
Structure prediction by ZEFSAII (Michael W. Deem and Ramdas Pophale) SiO2 
 PCOD9419029
Probable space group: P M N A
;
_chemical_formula_sum "Si O2"
_cell_formula_units_Z 64
_cell_length_a 18.334905
_cell_length_b 14.921074
_cell_length_c 11.862231
_cell_angle_alpha 90.000000
_cell_angle_beta 90.000000
_cell_angle_gamma 90.000000
_cell_volume 3245.227334
_symmetry_space_group_name_H-M "P M N A"
_symmetry_group_IT_number 53
_symmetry_cell_setting 'orthorhombic'
loop_
_space_group_symop_operation_xyz
x,y,z
1/2-x,-y,1/2+z
x,-y,-z
1/2-x,y,1/2-z
-x,-y,-z
1/2+x,y,1/2-z
-x,y,z
1/2+x,-y,1/2+z
loop_
_atom_site_type_symbol
_atom_site_label
_atom_site_fract_x
_atom_site_fract_y
_atom_site_fract_z
Si Si1 0.835946 0.515814 0.278305
Si Si2 0.167727 0.178720 0.761077
Si Si3 0.914983 0.326402 0.325310
Si Si4 0.689096 0.726303 0.492450
Si Si5 0.831656 0.162182 0.203603
Si Si6 0.849372 0.317992 0.558545
Si Si7 0.579846 0.591620 0.435380
Si Si8 0.087127 0.010551 0.866122
O O1 0.750000 0.505980 0.250000
O O2 0.873649 0.419926 0.298819
O O3 0.847111 0.585705 0.380663
O O4 0.875761 0.565358 0.175226
O O5 0.250000 0.140043 0.750000
O O6 0.176171 0.248473 0.863072
O O7 0.146508 0.236853 0.650484
O O8 0.114914 0.101748 0.807017
O O9 0.873554 0.242932 0.266870
O O10 0.908479 0.312989 0.460420
O O11 0.000000 0.330948 0.290882
O O12 0.677201 0.808580 0.573951
O O13 0.770840 0.691509 0.502558
O O14 0.627868 0.653453 0.516122
O O15 0.750000 0.151132 0.250000
O O16 0.877064 0.071169 0.202475
O O17 0.570630 0.500000 0.500000
O O18 0.500000 0.631249 0.409659
O O19 0.000000 0.006271 0.860348
O O20 0.106756 0.000000 0.000000
#
# Coordination Sequence:
#
# PCOD9419029 Si02
#       8
#     8   8   8   8   8   8   8   8
#     4  12  23  41  67  94 132 179 227 274 319 395
#     4  10  21  43  68  98 129 164 221 274 323 393
#     4  12  28  44  62  97 139 179 222 270 331 398
#     4  11  21  41  67  96 128 166 224 275 323 386
#     4  12  24  45  72  96 131 176 220 273 330 397
#     4  11  23  43  68  97 129 180 224 270 322 392
#     4  11  24  38  58  93 132 169 215 276 337 383
#     4  11  24  42  68 102 134 168 213 275 343 397
#
# _framework density 19.721267000000001
#
# number of rings (size 3 to 8) (size 9 to 14) (size 15 to 20)
#    0.000    0.750    5.000    3.000    1.750    4.500 
#    0.000    0.625    0.000    1.500    0.000    0.000 
#    0.000    0.000    0.000    0.000    0.000    0.000 
#
# Total GULP energy -357458.907937 kJ/mol
# GULP energy per Si atom -5585.295437 kJ/mol
# Density = 1.967638 g / cm^3
# Si number density = 19.721267 Si / 1000 Ang^3
#
#
#
# Elastic Constant Matrix: (Units=GPa)
#
#
# Indices 1 2 3 4 5 6 
#
# 1 122.5122 57.7889 25.0737 0.0000 0.0000 0.0000
# 2 57.7889 98.3815 9.5592 0.0000 0.0000 0.0000
# 3 25.0737 9.5592 59.7935 0.0000 0.0000 0.0000
# 4 0.0000 0.0000 0.0000 25.5226 0.0000 0.0000
# 5 0.0000 0.0000 0.0000 0.0000 22.2536 0.0000
# 6 0.0000 0.0000 0.0000 0.0000 0.0000 -7.9033
#
#
#
# Elastic Compliance Matrix: (Units=1/GPa)
#
#
# Indices 1 2 3 4 5 6 
#
# 1 0.012175 -0.006761 -0.004025 0.000000 0.000000 0.000000
# 2 -0.006761 0.014079 0.000584 0.000000 0.000000 0.000000
# 3 -0.004025 0.000584 0.018319 0.000000 0.000000 0.000000
# 4 0.000000 0.000000 0.000000 0.039181 0.000000 0.000000
# 5 0.000000 0.000000 0.000000 0.000000 0.044937 0.000000
# 6 0.000000 0.000000 0.000000 0.000000 0.000000 -0.126530
#
#
# Mechanical properties :
#
#
# Convention : Reuss Voigt Hill
#
# Bulk Modulus (GPa) = 41.37294 51.72565 46.54929
# Shear Modulus (GPa) = 163.29861 20.52561 91.91211
#
# Velocity S-wave (km/s) = 9.10950 3.22962 6.83423
# Velocity P-wave (km/s) = 11.47469 6.33976 9.26987
#
# Compressibility (1/GPa) = 0.02417039
#
# Stress axis : x y z
#
# Youngs Moduli (GPa) = 82.13488 71.02846 54.58950
#
# Poissons Ratio (x) = 0.48019 0.21971
# Poissons Ratio (y) = 0.55528 -0.03189
# Poissons Ratio (z) = 0.33057 -0.04149
#
# Static dielectric constant tensor:
#      x y z
#    x 1.803800 0.000000 0.000000 
#    y 0.000000 1.683940 0.000000 
#    z 0.000000 0.000000 1.738160 
# 
# From -- ./inp_files/17071.got.cif
#   From: 2010.05.17/outbox.cif.g08.bks.cpg/sg53_9_cif.got.tgz:17071.got - 2010.06.03 12:45:16.
