data_PCOD9419658
_publ_section_title
;
Structure prediction by ZEFSAII (Michael W. Deem and Ramdas Pophale) SiO2 
 PCOD9419658
Probable space group: P M N A
;
_chemical_formula_sum "Si O2"
_cell_formula_units_Z 64
_cell_length_a 8.283396
_cell_length_b 16.006075
_cell_length_c 24.427425
_cell_angle_alpha 90.000000
_cell_angle_beta 90.000000
_cell_angle_gamma 90.000000
_cell_volume 3238.701780
_symmetry_space_group_name_H-M "P M N A"
_symmetry_group_IT_number 53
_symmetry_cell_setting 'orthorhombic'
loop_
_space_group_symop_operation_xyz
x,y,z
1/2-x,-y,1/2+z
x,-y,-z
1/2-x,y,1/2-z
-x,-y,-z
1/2+x,y,1/2-z
-x,y,z
1/2+x,-y,1/2+z
loop_
_atom_site_type_symbol
_atom_site_label
_atom_site_fract_x
_atom_site_fract_y
_atom_site_fract_z
Si Si1 0.803663 0.655013 0.500838
Si Si2 0.809648 0.907524 0.120817
Si Si3 0.806236 0.245149 0.312286
Si Si4 0.691288 0.749050 0.188035
Si Si5 0.192636 0.849837 0.495254
Si Si6 0.802799 0.593809 0.619816
Si Si7 0.697649 0.592180 0.117347
Si Si8 0.806363 0.907902 0.887065
O O1 0.757922 0.752396 0.498401
O O2 0.749997 0.614545 0.557760
O O3 0.751737 0.609558 0.445330
O O4 0.000000 0.652450 0.501435
O O5 0.731857 0.833083 0.155144
O O6 0.000000 0.903817 0.131054
O O7 0.751410 0.001155 0.134075
O O8 0.775834 0.891711 0.056737
O O9 0.750000 0.240026 0.250000
O O10 0.749740 0.331614 0.340532
O O11 0.744364 0.167148 0.347606
O O12 0.000000 0.244056 0.314321
O O13 0.750000 0.752667 0.250000
O O14 0.500000 0.740533 0.188908
O O15 0.755907 0.667921 0.155377
O O16 0.235353 0.891753 0.552719
O O17 0.000000 0.852890 0.486719
O O18 0.751443 0.500343 0.635258
O O19 0.000000 0.594584 0.619793
O O20 0.500000 0.593566 0.117497
O O21 0.000000 0.909537 0.891610
#
# Coordination Sequence:
#
# PCOD9419658 Si02
#       8
#     8   8   8   8   8   8   8   8
#     4   9  15  28  53  87 119 148 185 231 284 340
#     4  11  24  41  61  87 119 156 196 241 296 352
#     4  11  23  40  61  86 116 154 201 247 296 349
#     4  11  23  40  61  86 116 154 201 247 296 349
#     4  11  20  35  61  93 123 156 195 236 289 350
#     4   9  17  31  55  87 120 153 191 237 289 347
#     4   9  17  31  55  87 120 153 191 237 289 347
#     4  11  24  41  61  87 119 156 196 241 296 352
#
# _framework density 19.761004
#
# number of rings (size 3 to 8) (size 9 to 14) (size 15 to 20)
#    0.000    1.750    2.500    2.625    0.000    6.000 
#    0.000    0.000    0.000    2.250    0.000    1.750 
#    0.000    0.000    0.000    0.000    0.000    0.000 
#
# Total GULP energy -357557.571578 kJ/mol
# GULP energy per Si atom -5586.837056 kJ/mol
# Density = 1.971603 g / cm^3
# Si number density = 19.761004 Si / 1000 Ang^3
#
#
#
# Elastic Constant Matrix: (Units=GPa)
#
#
# Indices 1 2 3 4 5 6 
#
# 1 8.3993 1.1954 -11.2738 0.0000 0.0000 0.0000
# 2 1.1954 157.5022 46.4856 0.0000 0.0000 0.0000
# 3 -11.2738 46.4856 105.6028 0.0000 0.0000 0.0000
# 4 0.0000 0.0000 0.0000 -9.3516 0.0000 0.0000
# 5 0.0000 0.0000 0.0000 0.0000 19.1147 0.0000
# 6 0.0000 0.0000 0.0000 0.0000 0.0000 -10.6366
#
#
#
# Elastic Compliance Matrix: (Units=1/GPa)
#
#
# Indices 1 2 3 4 5 6 
#
# 1 0.144530 -0.006495 0.018288 0.000000 0.000000 0.000000
# 2 -0.006495 0.007589 -0.004034 0.000000 0.000000 0.000000
# 3 0.018288 -0.004034 0.013198 0.000000 0.000000 0.000000
# 4 0.000000 0.000000 0.000000 -0.106934 0.000000 0.000000
# 5 0.000000 0.000000 0.000000 0.000000 0.052316 0.000000
# 6 0.000000 0.000000 0.000000 0.000000 0.000000 -0.094015
#
#
# Mechanical properties :
#
#
# Convention : Reuss Voigt Hill
#
# Bulk Modulus (GPa) = 5.52988 38.25762 21.89375
# Shear Modulus (GPa) = 81.37749 15.49845 48.43797
#
# Velocity S-wave (km/s) = 6.42419 2.80356 4.95632
# Velocity P-wave (km/s) = 7.60470 5.46646 6.62245
#
# Compressibility (1/GPa) = 0.18083585
#
# Stress axis : x y z
#
# Youngs Moduli (GPa) = 6.91900 131.76952 75.77145
#
# Poissons Ratio (x) = 0.85579 -1.38574
# Poissons Ratio (y) = 0.04494 0.30566
# Poissons Ratio (z) = -0.12654 0.53155
#
# Static dielectric constant tensor:
#      x y z
#    x 1.692940 0.000000 0.000000 
#    y 0.000000 1.706070 0.000000 
#    z 0.000000 0.000000 1.650800 
# 
# From -- ./inp_files/34145.got.cif
#   From: 2010.05.17/outbox.cif.g08.bks.cpg/sg53_18_cif.got.tgz:34145.got - 2010.06.03 12:45:16.
