data_PCOD9419246
_publ_section_title
;
Structure prediction by ZEFSAII (Michael W. Deem and Ramdas Pophale) SiO2 
 PCOD9419246
Probable space group: P M N A
;
_chemical_formula_sum "Si O2"
_cell_formula_units_Z 60
_cell_length_a 24.240138
_cell_length_b 18.950453
_cell_length_c 6.370898
_cell_angle_alpha 90.000000
_cell_angle_beta 90.000000
_cell_angle_gamma 90.000000
_cell_volume 2926.545872
_symmetry_space_group_name_H-M "P M N A"
_symmetry_group_IT_number 53
_symmetry_cell_setting 'orthorhombic'
loop_
_space_group_symop_operation_xyz
x,y,z
1/2-x,-y,1/2+z
x,-y,-z
1/2-x,y,1/2-z
-x,-y,-z
1/2+x,y,1/2-z
-x,y,z
1/2+x,-y,1/2+z
loop_
_atom_site_type_symbol
_atom_site_label
_atom_site_fract_x
_atom_site_fract_y
_atom_site_fract_z
Si Si1 0.750000 0.372424 0.750000
Si Si2 0.836477 0.677681 0.908738
Si Si3 0.065109 0.676603 0.234423
Si Si4 0.841264 0.835225 0.762245
Si Si5 0.116229 0.067930 0.867900
Si Si6 0.853694 0.581174 0.508230
Si Si7 0.784359 0.927658 0.430759
Si Si8 0.060317 0.168479 0.563600
O O1 0.713118 0.331571 0.576535
O O2 0.702869 0.414475 0.874306
O O3 0.828282 0.753882 0.803475
O O4 0.839600 0.616341 0.733290
O O5 0.895455 0.676471 0.029895
O O6 0.097882 0.626859 0.398368
O O7 0.066476 0.755524 0.327425
O O8 0.000000 0.658277 0.201746
O O9 0.853963 0.877535 0.974158
O O10 0.797727 0.876549 0.619320
O O11 0.895546 0.838045 0.618471
O O12 0.160305 0.047352 0.688652
O O13 0.069906 0.110026 0.742067
O O14 0.098878 0.000000 0.000000
O O15 0.871167 0.500000 0.500000
O O16 0.750000 0.889692 0.250000
O O17 0.754835 0.000000 0.500000
O O18 0.000000 0.162211 0.470720
#
# Coordination Sequence:
#
# PCOD9419246 Si02
#       8
#     4   8   8   8   8   8   8   8
#     4  10  26  42  68  96 136 170 226 268 318 394
#     4  11  23  46  66  99 131 178 221 269 332 389
#     4  10  22  42  69 103 135 170 224 274 325 399
#     4  11  23  42  64  90 130 168 214 271 324 381
#     4  11  22  41  62  88 125 165 210 269 326 380
#     4  11  25  45  70  98 136 175 219 269 330 391
#     4  11  24  41  60  87 120 165 216 264 325 395
#     4  10  22  40  65  95 126 166 217 266 321 390
#
# _framework density 20.501985999999999
#
# number of rings (size 3 to 8) (size 9 to 14) (size 15 to 20)
#    0.000    1.333    4.000    0.800    1.867    3.733 
#    7.200    1.333    0.000    0.000    0.000    0.000 
#    0.000    0.000    0.000    0.000    0.000    0.000 
#
# Total GULP energy -335223.568372 kJ/mol
# GULP energy per Si atom -5587.059473 kJ/mol
# Density = 2.045532 g / cm^3
# Si number density = 20.501986 Si / 1000 Ang^3
#
#
#
# Elastic Constant Matrix: (Units=GPa)
#
#
# Indices 1 2 3 4 5 6 
#
# 1 114.0983 34.4207 36.6572 0.0000 0.0000 0.0000
# 2 34.4207 122.7149 45.7941 0.0000 0.0000 0.0000
# 3 36.6572 45.7941 103.7988 0.0000 0.0000 0.0000
# 4 0.0000 0.0000 0.0000 22.5856 0.0000 0.0000
# 5 0.0000 0.0000 0.0000 0.0000 28.0996 0.0000
# 6 0.0000 0.0000 0.0000 0.0000 0.0000 16.7362
#
#
#
# Elastic Compliance Matrix: (Units=1/GPa)
#
#
# Indices 1 2 3 4 5 6 
#
# 1 0.010214 -0.001818 -0.002805 0.000000 0.000000 0.000000
# 2 -0.001818 0.010079 -0.003804 0.000000 0.000000 0.000000
# 3 -0.002805 -0.003804 0.012303 0.000000 0.000000 0.000000
# 4 0.000000 0.000000 0.000000 0.044276 0.000000 0.000000
# 5 0.000000 0.000000 0.000000 0.000000 0.035588 0.000000
# 6 0.000000 0.000000 0.000000 0.000000 0.000000 0.059751
#
#
# Mechanical properties :
#
#
# Convention : Reuss Voigt Hill
#
# Bulk Modulus (GPa) = 63.53020 63.81735 63.67377
# Shear Modulus (GPa) = 25.73177 28.40028 27.06603
#
# Velocity S-wave (km/s) = 3.54656 3.72593 3.63735
# Velocity P-wave (km/s) = 6.91559 7.05018 6.98321
#
# Compressibility (1/GPa) = 0.01574055
#
# Stress axis : x y z
#
# Youngs Moduli (GPa) = 97.90416 99.21932 81.28059
#
# Poissons Ratio (x) = 0.18040 0.22799
# Poissons Ratio (y) = 0.17801 0.30922
# Poissons Ratio (z) = 0.27462 0.37747
#
# Static dielectric constant tensor:
#      x y z
#    x 1.738040 0.000000 0.000000 
#    y 0.000000 1.713460 0.000000 
#    z 0.000000 0.000000 1.653340 
# 
# From -- ./inp_files/3836.got.cif
#   From: 2010.05.17/outbox.cif.g08.bks.cpg/sg53_2_cif.got.tgz:3836.got - 2010.06.03 12:45:16.
