data_PCOD9419829
_publ_section_title
;
Structure prediction by ZEFSAII (Michael W. Deem and Ramdas Pophale) SiO2 
 PCOD9419829
Probable space group: P M N A
;
_chemical_formula_sum "Si O2"
_cell_formula_units_Z 24
_cell_length_a 28.793944
_cell_length_b 7.255201
_cell_length_c 4.997006
_cell_angle_alpha 90.000000
_cell_angle_beta 90.000000
_cell_angle_gamma 90.000000
_cell_volume 1043.903792
_symmetry_space_group_name_H-M "P M N A"
_symmetry_group_IT_number 53
_symmetry_cell_setting 'orthorhombic'
loop_
_space_group_symop_operation_xyz
x,y,z
1/2-x,-y,1/2+z
x,-y,-z
1/2-x,y,1/2-z
-x,-y,-z
1/2+x,y,1/2-z
-x,y,z
1/2+x,-y,1/2+z
loop_
_atom_site_type_symbol
_atom_site_label
_atom_site_fract_x
_atom_site_fract_y
_atom_site_fract_z
Si Si1 0.205054 0.198690 0.386851
Si Si2 0.448927 0.636147 0.247868
Si Si3 0.352474 0.709372 0.396624
O O1 0.250000 0.289899 0.250000
O O2 0.181649 0.290576 0.643108
O O3 0.219996 0.000000 0.500000
O O4 0.167640 0.180680 0.149247
O O5 0.452563 0.500000 0.500000
O O6 0.500000 0.723787 0.208237
O O7 0.404178 0.762604 0.299457
O O8 0.439226 0.500000 0.000000
O O9 0.355121 0.500000 0.500000
#
# Coordination Sequence:
#
# PCOD9419829 Si02
#       3
#     8   8   8
#     4  12  25  43  61  81 118 164 199 234 296 366
#     4   9  17  32  56  87 121 152 185 232 292 352
#     4  11  22  39  64  93 118 147 197 253 291 331
#
# _framework density 22.990621999999998
#
# number of rings (size 3 to 8) (size 9 to 14) (size 15 to 20)
#    0.000    1.333    0.000    9.000    0.000    2.667 
#    0.000    3.333    0.000    6.000    0.000    0.000 
#    0.000    0.000    0.000    0.000    0.000    0.000 
#
# Total GULP energy -134119.114411 kJ/mol
# GULP energy per Si atom -5588.296434 kJ/mol
# Density = 2.293829 g / cm^3
# Si number density = 22.990622 Si / 1000 Ang^3
#
#
#
# Elastic Constant Matrix: (Units=GPa)
#
#
# Indices 1 2 3 4 5 6 
#
# 1 175.4663 4.7254 64.3828 0.0000 0.0000 0.0000
# 2 4.7254 13.9326 8.4944 0.0000 0.0000 0.0000
# 3 64.3828 8.4944 185.3855 0.0000 0.0000 0.0000
# 4 0.0000 0.0000 0.0000 36.9541 0.0000 0.0000
# 5 0.0000 0.0000 0.0000 0.0000 35.9793 0.0000
# 6 0.0000 0.0000 0.0000 0.0000 0.0000 -16.8912
#
#
#
# Elastic Compliance Matrix: (Units=1/GPa)
#
#
# Indices 1 2 3 4 5 6 
#
# 1 0.006541 -0.000857 -0.002232 0.000000 0.000000 0.000000
# 2 -0.000857 0.073949 -0.003091 0.000000 0.000000 0.000000
# 3 -0.002232 -0.003091 0.006311 0.000000 0.000000 0.000000
# 4 0.000000 0.000000 0.000000 0.027061 0.000000 0.000000
# 5 0.000000 0.000000 0.000000 0.000000 0.027794 0.000000
# 6 0.000000 0.000000 0.000000 0.000000 0.000000 -0.059203
#
#
# Mechanical properties :
#
#
# Convention : Reuss Voigt Hill
#
# Bulk Modulus (GPa) = 13.43353 58.88772 36.16063
# Shear Modulus (GPa) = 41.79624 31.02057 36.40840
#
# Velocity S-wave (km/s) = 4.26839 3.67723 3.98379
# Velocity P-wave (km/s) = 5.49071 6.61050 6.07646
#
# Compressibility (1/GPa) = 0.07444060
#
# Stress axis : x y z
#
# Youngs Moduli (GPa) = 152.87398 13.52280 158.45130
#
# Poissons Ratio (x) = 0.01160 0.35374
# Poissons Ratio (y) = 0.13109 0.48970
# Poissons Ratio (z) = 0.34128 0.04179
#
# Static dielectric constant tensor:
#      x y z
#    x 1.951780 0.000000 0.000000 
#    y 0.000000 1.892660 0.000000 
#    z 0.000000 0.000000 1.809220 
# 
# From -- ./inp_files/4069.got.cif
#   From: 2010.05.17/outbox.cif.g08.bks.cpg/sg53_3_cif.got.tgz:4069.got - 2010.06.03 12:45:16.
