data_PCOD9419270
_publ_section_title
;
Structure prediction by ZEFSAII (Michael W. Deem and Ramdas Pophale) SiO2 
 PCOD9419270
Probable space group: P M N A
;
_chemical_formula_sum "Si O2"
_cell_formula_units_Z 48
_cell_length_a 15.060954
_cell_length_b 17.724604
_cell_length_c 9.999509
_cell_angle_alpha 90.000000
_cell_angle_beta 90.000000
_cell_angle_gamma 90.000000
_cell_volume 2669.363383
_symmetry_space_group_name_H-M "P M N A"
_symmetry_group_IT_number 53
_symmetry_cell_setting 'orthorhombic'
loop_
_space_group_symop_operation_xyz
x,y,z
1/2-x,-y,1/2+z
x,-y,-z
1/2-x,y,1/2-z
-x,-y,-z
1/2+x,y,1/2-z
-x,y,z
1/2+x,-y,1/2+z
loop_
_atom_site_type_symbol
_atom_site_label
_atom_site_fract_x
_atom_site_fract_y
_atom_site_fract_z
Si Si1 0.250000 0.315791 0.750000
Si Si2 0.753529 0.806079 0.480989
Si Si3 0.105669 0.069920 0.596981
Si Si4 0.750000 0.285869 0.250000
Si Si5 0.395141 0.598370 0.645501
Si Si6 0.104450 0.074106 0.910885
Si Si7 0.396067 0.424671 0.672521
O O1 0.255611 0.261460 0.623753
O O2 0.334765 0.370024 0.757051
O O3 0.837320 0.858170 0.445162
O O4 0.764492 0.768376 0.624263
O O5 0.667546 0.859563 0.463257
O O6 0.123807 0.056359 0.754659
O O7 0.000000 0.082527 0.582892
O O8 0.129473 0.000000 0.500000
O O9 0.667332 0.340400 0.285756
O O10 0.500000 0.613023 0.667975
O O11 0.375323 0.512974 0.693407
O O12 0.381606 0.594961 0.484626
O O13 0.000000 0.094739 0.920184
O O14 0.119020 0.000000 0.000000
O O15 0.500000 0.413826 0.699865
#
# Coordination Sequence:
#
# PCOD9419270 Si02
#       7
#     4   8   8   4   8   8   8
#     4  12  21  38  59  88 120 154 192 240 299 348
#     4  12  25  38  57  87 122 156 187 239 296 349
#     4  10  22  41  63  86 116 153 194 242 293 344
#     4  12  25  38  57  90 124 156 194 240 299 352
#     4   9  19  39  61  85 117 156 201 243 286 348
#     4  10  22  41  64  87 112 152 202 241 282 348
#     4   9  19  37  64  87 112 157 203 240 287 351
#
# _framework density 17.981815000000001
#
# number of rings (size 3 to 8) (size 9 to 14) (size 15 to 20)
#    0.000    1.667    3.333    2.000    2.333    2.667 
#    0.000    0.000    0.000    2.000    0.000    0.000 
#    0.000    0.000    0.000    0.000    0.000    0.000 
#
# Total GULP energy -268020.561394 kJ/mol
# GULP energy per Si atom -5583.761696 kJ/mol
# Density = 1.794089 g / cm^3
# Si number density = 17.981815 Si / 1000 Ang^3
#
#
#
# Elastic Constant Matrix: (Units=GPa)
#
#
# Indices 1 2 3 4 5 6 
#
# 1 77.4366 73.3463 43.7342 0.0000 0.0000 0.0000
# 2 73.3463 119.9354 62.5600 0.0000 0.0000 0.0000
# 3 43.7342 62.5600 110.5345 0.0000 0.0000 0.0000
# 4 0.0000 0.0000 0.0000 28.1865 0.0000 0.0000
# 5 0.0000 0.0000 0.0000 0.0000 23.4861 0.0000
# 6 0.0000 0.0000 0.0000 0.0000 0.0000 -558.5688
#
#
#
# Elastic Compliance Matrix: (Units=1/GPa)
#
#
# Indices 1 2 3 4 5 6 
#
# 1 0.031059 -0.017855 -0.002183 0.000000 0.000000 0.000000
# 2 -0.017855 0.022095 -0.005441 0.000000 0.000000 0.000000
# 3 -0.002183 -0.005441 0.012990 0.000000 0.000000 0.000000
# 4 0.000000 0.000000 0.000000 0.035478 0.000000 0.000000
# 5 0.000000 0.000000 0.000000 0.000000 0.042578 0.000000
# 6 0.000000 0.000000 0.000000 0.000000 0.000000 -0.001790
#
#
# Mechanical properties :
#
#
# Convention : Reuss Voigt Hill
#
# Bulk Modulus (GPa) = 65.85065 74.13192 69.99129
# Shear Modulus (GPa) = 25.19775 -92.82818 -33.81521
#
# Velocity S-wave (km/s) = 3.74744 -7.19273 -4.34120
# Velocity P-wave (km/s) = 7.44477 5.25976 3.72556
#
# Compressibility (1/GPa) = 0.01518588
#
# Stress axis : x y z
#
# Youngs Moduli (GPa) = 32.19690 45.25884 76.98209
#
# Poissons Ratio (x) = 0.80811 0.16806
# Poissons Ratio (y) = 0.57488 0.41884
# Poissons Ratio (z) = 0.07029 0.24624
#
# Static dielectric constant tensor:
#      x y z
#    x 1.606000 0.000000 0.000000 
#    y 0.000000 1.586140 0.000000 
#    z 0.000000 0.000000 1.573850 
# 
# From -- ./inp_files/10048.got.cif
#   From: 2010.05.17/outbox.cif.g08.bks.cpg/sg53_6_cif.got.tgz:10048.got - 2010.06.03 12:45:16.
