data_PCOD9419565
_publ_section_title
;
Structure prediction by ZEFSAII (Michael W. Deem and Ramdas Pophale) SiO2 
 PCOD9419565
Probable space group: P M N A
;
_chemical_formula_sum "Si O2"
_cell_formula_units_Z 16
_cell_length_a 23.100788
_cell_length_b 5.694983
_cell_length_c 5.059890
_cell_angle_alpha 90.000000
_cell_angle_beta 90.000000
_cell_angle_gamma 90.000000
_cell_volume 665.672019
_symmetry_space_group_name_H-M "P M N A"
_symmetry_group_IT_number 53
_symmetry_cell_setting 'orthorhombic'
loop_
_space_group_symop_operation_xyz
x,y,z
1/2-x,-y,1/2+z
x,-y,-z
1/2-x,y,1/2-z
-x,-y,-z
1/2+x,y,1/2-z
-x,y,z
1/2+x,-y,1/2+z
loop_
_atom_site_type_symbol
_atom_site_label
_atom_site_fract_x
_atom_site_fract_y
_atom_site_fract_z
Si Si1 0.905456 0.500000 0.000000
Si Si2 0.500000 0.171967 0.253878
Si Si3 0.686078 0.169819 0.750108
O O1 0.945028 0.339131 0.190844
O O2 0.864664 0.650004 0.192685
O O3 0.500000 0.000000 0.500000
O O4 0.500000 0.000000 0.000000
O O5 0.750000 0.285370 0.750000
O O6 0.686934 0.000000 0.500000
O O7 0.677614 0.000000 0.000000
#
# Coordination Sequence:
#
# PCOD9419565 Si02
#       3
#     4   4   8
#     4  11  26  48  80 104 144 201 242 296 374 435
#     4  11  28  51  73 106 145 189 252 311 357 422
#     4  10  24  45  71 110 152 188 237 297 359 439
#
# _framework density 24.035857
#
# number of rings (size 3 to 8) (size 9 to 14) (size 15 to 20)
#    0.000    1.500    0.000    1.500    0.000   24.000 
#    0.000    8.750    0.000    0.000    0.000    0.000 
#    0.000    0.000    0.000    0.000    0.000    0.000 
#
# Total GULP energy -89664.707963 kJ/mol
# GULP energy per Si atom -5604.044248 kJ/mol
# Density = 2.398115 g / cm^3
# Si number density = 24.035857 Si / 1000 Ang^3
#
#
#
# Elastic Constant Matrix: (Units=GPa)
#
#
# Indices 1 2 3 4 5 6 
#
# 1 245.4853 134.5736 82.7983 0.0000 0.0000 0.0000
# 2 134.5736 137.9754 81.8557 0.0000 0.0000 0.0000
# 3 82.7983 81.8557 220.9402 0.0000 0.0000 0.0000
# 4 0.0000 0.0000 0.0000 53.6761 0.0000 0.0000
# 5 0.0000 0.0000 0.0000 0.0000 16.0918 0.0000
# 6 0.0000 0.0000 0.0000 0.0000 0.0000 70.2713
#
#
#
# Elastic Compliance Matrix: (Units=1/GPa)
#
#
# Indices 1 2 3 4 5 6 
#
# 1 0.008758 -0.008453 -0.000150 0.000000 0.000000 0.000000
# 2 -0.008453 0.017448 -0.003296 0.000000 0.000000 0.000000
# 3 -0.000150 -0.003296 0.005804 0.000000 0.000000 0.000000
# 4 0.000000 0.000000 0.000000 0.018630 0.000000 0.000000
# 5 0.000000 0.000000 0.000000 0.000000 0.062143 0.000000
# 6 0.000000 0.000000 0.000000 0.000000 0.000000 0.014231
#
#
# Mechanical properties :
#
#
# Convention : Reuss Voigt Hill
#
# Bulk Modulus (GPa) = 121.80082 133.65066 127.72574
# Shear Modulus (GPa) = 32.56253 48.35271 40.45762
#
# Velocity S-wave (km/s) = 3.68468 4.49005 4.10716
# Velocity P-wave (km/s) = 8.29983 9.08879 8.70326
#
# Compressibility (1/GPa) = 0.00821013
#
# Stress axis : x y z
#
# Youngs Moduli (GPa) = 114.17877 57.31336 172.30149
#
# Poissons Ratio (x) = 0.48447 0.02592
# Poissons Ratio (y) = 0.96516 0.56798
# Poissons Ratio (z) = 0.01718 0.18893
#
# Static dielectric constant tensor:
#      x y z
#    x 2.050140 0.000000 0.000000 
#    y 0.000000 1.809700 0.000000 
#    z 0.000000 0.000000 1.853620 
# 
# From -- ./inp_files/2381.got.cif
#   From: 2010.05.17/outbox.cif.g08.bks.cpg/sg53_2_cif.got.tgz:2381.got - 2010.06.03 12:45:16.
