data_PCOD9419114
_publ_section_title
;
Structure prediction by ZEFSAII (Michael W. Deem and Ramdas Pophale) SiO2 
 PCOD9419114
Probable space group: P M N A
;
_chemical_formula_sum "Si O2"
_cell_formula_units_Z 40
_cell_length_a 19.119721
_cell_length_b 12.227422
_cell_length_c 7.328937
_cell_angle_alpha 90.000000
_cell_angle_beta 90.000000
_cell_angle_gamma 90.000000
_cell_volume 1713.394783
_symmetry_space_group_name_H-M "P M N A"
_symmetry_group_IT_number 53
_symmetry_cell_setting 'orthorhombic'
loop_
_space_group_symop_operation_xyz
x,y,z
1/2-x,-y,1/2+z
x,-y,-z
1/2-x,y,1/2-z
-x,-y,-z
1/2+x,y,1/2-z
-x,y,z
1/2+x,-y,1/2+z
loop_
_atom_site_type_symbol
_atom_site_label
_atom_site_fract_x
_atom_site_fract_y
_atom_site_fract_z
Si Si1 0.327655 0.671963 0.242762
Si Si2 0.421415 0.046461 0.296103
Si Si3 0.684297 0.897383 0.117623
Si Si4 0.670645 0.737720 0.671467
Si Si5 0.079779 0.472571 0.217607
O O1 0.250000 0.620702 0.250000
O O2 0.330569 0.768839 0.093982
O O3 0.334728 0.723017 0.448583
O O4 0.384277 0.580243 0.201362
O O5 0.500000 0.076742 0.241347
O O6 0.368862 0.148776 0.283878
O O7 0.422887 0.000000 0.500000
O O8 0.388743 0.946550 0.185542
O O9 0.750000 0.887636 0.250000
O O10 0.710475 0.000000 0.000000
O O11 0.750000 0.741481 0.750000
O O12 0.628298 0.632843 0.742866
O O13 0.000000 0.454621 0.275961
O O14 0.078744 0.500000 0.000000
#
# Coordination Sequence:
#
# PCOD9419114 Si02
#       5
#     8   8   8   8   8
#     4  10  22  38  60  95 122 166 214 265 319 374
#     4  11  23  39  60  90 128 168 210 259 321 387
#     4  11  24  40  65  92 127 167 217 266 321 381
#     4  11  22  38  66  94 124 164 214 264 319 385
#     4   9  19  38  64  92 125 165 213 262 317 385
#
# _framework density 23.345465000000001
#
# number of rings (size 3 to 8) (size 9 to 14) (size 15 to 20)
#    0.000    1.600    2.000    2.400    8.400    2.000 
#    0.000    0.000    0.000    1.200    0.000    0.000 
#    0.000    0.000    0.000    0.000    0.000    0.000 
#
# Total GULP energy -223347.983425 kJ/mol
# GULP energy per Si atom -5583.699586 kJ/mol
# Density = 2.329233 g / cm^3
# Si number density = 23.345465 Si / 1000 Ang^3
#
#
#
# Elastic Constant Matrix: (Units=GPa)
#
#
# Indices 1 2 3 4 5 6 
#
# 1 205.5392 109.9371 17.1471 0.0000 0.0000 0.0000
# 2 109.9371 186.1137 29.0910 0.0000 0.0000 0.0000
# 3 17.1471 29.0910 43.4277 0.0000 0.0000 0.0000
# 4 0.0000 0.0000 0.0000 22.1855 0.0000 0.0000
# 5 0.0000 0.0000 0.0000 0.0000 26.7826 0.0000
# 6 0.0000 0.0000 0.0000 0.0000 0.0000 47.8357
#
#
#
# Elastic Compliance Matrix: (Units=1/GPa)
#
#
# Indices 1 2 3 4 5 6 
#
# 1 0.007112 -0.004202 0.000007 0.000000 0.000000 0.000000
# 2 -0.004202 0.008484 -0.004024 0.000000 0.000000 0.000000
# 3 0.000007 -0.004024 0.025720 0.000000 0.000000 0.000000
# 4 0.000000 0.000000 0.000000 0.045075 0.000000 0.000000
# 5 0.000000 0.000000 0.000000 0.000000 0.037338 0.000000
# 6 0.000000 0.000000 0.000000 0.000000 0.000000 0.020905
#
#
# Mechanical properties :
#
#
# Convention : Reuss Voigt Hill
#
# Bulk Modulus (GPa) = 40.19774 83.04791 61.62282
# Shear Modulus (GPa) = 29.52194 37.95445 33.73819
#
# Velocity S-wave (km/s) = 3.55993 4.03646 3.80566
# Velocity P-wave (km/s) = 5.84410 7.57461 6.76492
#
# Compressibility (1/GPa) = 0.02487702
#
# Stress axis : x y z
#
# Youngs Moduli (GPa) = 140.59944 117.86346 38.88056
#
# Poissons Ratio (x) = 0.49530 -0.00026
# Poissons Ratio (y) = 0.59085 0.15646
# Poissons Ratio (z) = -0.00095 0.47431
#
# Static dielectric constant tensor:
#      x y z
#    x 1.822020 0.000000 0.000000 
#    y 0.000000 2.125540 0.000000 
#    z 0.000000 0.000000 2.127770 
# 
# From -- ./inp_files/9657.got.cif
#   From: 2010.05.17/outbox.cif.g08.bks.cpg/sg53_5_cif.got.tgz:9657.got - 2010.06.03 12:45:16.
