data_PCOD9419245
_publ_section_title
;
Structure prediction by ZEFSAII (Michael W. Deem and Ramdas Pophale) SiO2 
 PCOD9419245
Probable space group: P M N A
;
_chemical_formula_sum "Si O2"
_cell_formula_units_Z 40
_cell_length_a 27.649337
_cell_length_b 8.437258
_cell_length_c 7.605597
_cell_angle_alpha 90.000000
_cell_angle_beta 90.000000
_cell_angle_gamma 90.000000
_cell_volume 1774.268576
_symmetry_space_group_name_H-M "P M N A"
_symmetry_group_IT_number 53
_symmetry_cell_setting 'orthorhombic'
loop_
_space_group_symop_operation_xyz
x,y,z
1/2-x,-y,1/2+z
x,-y,-z
1/2-x,y,1/2-z
-x,-y,-z
1/2+x,y,1/2-z
-x,y,z
1/2+x,-y,1/2+z
loop_
_atom_site_type_symbol
_atom_site_label
_atom_site_fract_x
_atom_site_fract_y
_atom_site_fract_z
Si Si1 0.053629 0.813516 0.537632
Si Si2 0.655709 0.211526 0.417933
Si Si3 0.551160 0.186749 0.457924
Si Si4 0.696414 0.900649 0.257820
Si Si5 0.343971 0.322923 0.035210
O O1 0.051029 0.796711 0.747751
O O2 0.099599 0.709999 0.483596
O O3 0.000000 0.774421 0.465119
O O4 0.062579 0.000000 0.500000
O O5 0.603950 0.247520 0.508544
O O6 0.694091 0.217082 0.574355
O O7 0.659197 0.036616 0.322461
O O8 0.662313 0.312012 0.244680
O O9 0.500000 0.253636 0.526808
O O10 0.550993 0.000000 0.500000
O O11 0.750000 0.971253 0.250000
O O12 0.683255 0.810874 0.079473
O O13 0.328592 0.500000 0.000000
#
# Coordination Sequence:
#
# PCOD9419245 Si02
#       5
#     8   8   8   8   8
#     4   9  18  33  59  90 119 157 207 254 294 352
#     4  10  22  40  65  93 120 153 211 264 304 361
#     4   9  15  28  52  86 120 146 181 244 309 352
#     4  11  24  41  64  90 112 156 212 269 315 354
#     4  11  24  41  60  89 132 168 196 245 311 385
#
# _framework density 22.544502000000001
#
# number of rings (size 3 to 8) (size 9 to 14) (size 15 to 20)
#    0.000    2.000    2.000    3.000    5.600    1.200 
#    3.600    0.000    0.000    0.000    0.000    7.000 
#    0.000    0.000    0.000    0.000    0.000    0.000 
#
# Total GULP energy -222935.796612 kJ/mol
# GULP energy per Si atom -5573.394915 kJ/mol
# Density = 2.249319 g / cm^3
# Si number density = 22.544502 Si / 1000 Ang^3
#
#
#
# Elastic Constant Matrix: (Units=GPa)
#
#
# Indices 1 2 3 4 5 6 
#
# 1 87.1051 -8.9606 7.1065 0.0000 0.0000 0.0000
# 2 -8.9606 16.1533 -15.7628 0.0000 0.0000 0.0000
# 3 7.1065 -15.7628 57.9776 0.0000 0.0000 0.0000
# 4 0.0000 0.0000 0.0000 22.7182 0.0000 0.0000
# 5 0.0000 0.0000 0.0000 0.0000 25.0612 0.0000
# 6 0.0000 0.0000 0.0000 0.0000 0.0000 2.1466
#
#
#
# Elastic Compliance Matrix: (Units=1/GPa)
#
#
# Indices 1 2 3 4 5 6 
#
# 1 0.012184 0.007216 0.000468 0.000000 0.000000 0.000000
# 2 0.007216 0.088536 0.023186 0.000000 0.000000 0.000000
# 3 0.000468 0.023186 0.023495 0.000000 0.000000 0.000000
# 4 0.000000 0.000000 0.000000 0.044018 0.000000 0.000000
# 5 0.000000 0.000000 0.000000 0.000000 0.039902 0.000000
# 6 0.000000 0.000000 0.000000 0.000000 0.000000 0.465845
#
#
# Mechanical properties :
#
#
# Convention : Reuss Voigt Hill
#
# Bulk Modulus (GPa) = 5.37759 14.00024 9.68891
# Shear Modulus (GPa) = 7.41593 21.90874 14.66234
#
# Velocity S-wave (km/s) = 1.81566 3.12075 2.55301
# Velocity P-wave (km/s) = 2.60499 4.38281 3.60520
#
# Compressibility (1/GPa) = 0.18595704
#
# Stress axis : x y z
#
# Youngs Moduli (GPa) = 82.07151 11.29484 42.56314
#
# Poissons Ratio (x) = -0.08150 -0.01994
# Poissons Ratio (y) = -0.59224 -0.98689
# Poissons Ratio (z) = -0.03844 -0.26189
#
# Static dielectric constant tensor:
#      x y z
#    x 1.909320 0.000000 0.000000 
#    y 0.000000 1.879020 0.000000 
#    z 0.000000 0.000000 1.907340 
# 
# From -- ./inp_files/12263.got.cif
#   From: 2010.05.17/outbox.cif.g08.bks.cpg/sg53_7_cif.got.tgz:12263.got - 2010.06.03 12:45:16.
