data_PCOD9419055
_publ_section_title
;
Structure prediction by ZEFSAII (Michael W. Deem and Ramdas Pophale) SiO2 
 PCOD9419055
Probable space group: P M N A
;
_chemical_formula_sum "Si O2"
_cell_formula_units_Z 48
_cell_length_a 18.341258
_cell_length_b 9.030738
_cell_length_c 14.355489
_cell_angle_alpha 90.000000
_cell_angle_beta 90.000000
_cell_angle_gamma 90.000000
_cell_volume 2377.772793
_symmetry_space_group_name_H-M "P M N A"
_symmetry_group_IT_number 53
_symmetry_cell_setting 'orthorhombic'
loop_
_space_group_symop_operation_xyz
x,y,z
1/2-x,-y,1/2+z
x,-y,-z
1/2-x,y,1/2-z
-x,-y,-z
1/2+x,y,1/2-z
-x,y,z
1/2+x,-y,1/2+z
loop_
_atom_site_type_symbol
_atom_site_label
_atom_site_fract_x
_atom_site_fract_y
_atom_site_fract_z
Si Si1 0.000000 0.267917 0.600306
Si Si2 0.250000 0.389451 0.250000
Si Si3 0.354825 0.385740 0.649895
Si Si4 0.500000 0.492754 0.265892
Si Si5 0.335607 0.157794 0.134534
Si Si6 0.738709 0.333692 0.972594
Si Si7 0.000000 0.246207 0.387151
Si Si8 0.850127 0.828772 0.320245
O O1 0.000000 0.316667 0.492184
O O2 0.072268 0.177791 0.627022
O O3 0.000000 0.400267 0.674913
O O4 0.206344 0.494648 0.180158
O O5 0.311212 0.283688 0.206644
O O6 0.430378 0.467806 0.671017
O O7 0.325300 0.337437 0.548686
O O8 0.355909 0.242414 0.717925
O O9 0.500000 0.338825 0.209783
O O10 0.421838 0.165599 0.114057
O O11 0.319988 0.994126 0.171936
O O12 0.288853 0.210995 0.045442
O O13 0.700221 0.282756 0.877845
O O14 0.713710 0.500000 0.000000
#
# Coordination Sequence:
#
# PCOD9419055 Si02
#       8
#     4   4   8   4   8   8   4   8
#     4  10  22  34  59  90 132 165 208 251 318 394
#     4  12  22  40  62  92 128 166 212 262 306 380
#     4  11  22  43  64  87 126 168 216 257 306 377
#     4  10  23  40  63  90 119 174 215 258 315 377
#     4  12  26  38  63  95 131 167 207 261 322 379
#     4  12  23  39  62  90 126 162 211 264 302 368
#     4  12  22  36  61  94 134 162 205 256 323 394
#     4  11  23  40  59  92 132 170 205 251 323 382
#
# _framework density 20.186959000000002
#
# number of rings (size 3 to 8) (size 9 to 14) (size 15 to 20)
#    0.000    0.667    6.667    1.250    4.667    0.667 
#    0.000    0.417    0.000    0.000    0.000    2.333 
#    0.000    0.000    0.000    0.000    0.000    0.000 
#
# Total GULP energy -267673.161820 kJ/mol
# GULP energy per Si atom -5576.524205 kJ/mol
# Density = 2.014101 g / cm^3
# Si number density = 20.186959 Si / 1000 Ang^3
#
#
#
# Elastic Constant Matrix: (Units=GPa)
#
#
# Indices 1 2 3 4 5 6 
#
# 1 112.4057 46.9266 35.9031 0.0000 0.0000 0.0000
# 2 46.9266 108.7712 20.6540 0.0000 0.0000 0.0000
# 3 35.9031 20.6540 40.1006 0.0000 0.0000 0.0000
# 4 0.0000 0.0000 0.0000 15.1727 0.0000 0.0000
# 5 0.0000 0.0000 0.0000 0.0000 29.7780 0.0000
# 6 0.0000 0.0000 0.0000 0.0000 0.0000 -18.0096
#
#
#
# Elastic Compliance Matrix: (Units=1/GPa)
#
#
# Indices 1 2 3 4 5 6 
#
# 1 0.013885 -0.004023 -0.010359 0.000000 0.000000 0.000000
# 2 -0.004023 0.011356 -0.002247 0.000000 0.000000 0.000000
# 3 -0.010359 -0.002247 0.035369 0.000000 0.000000 0.000000
# 4 0.000000 0.000000 0.000000 0.065908 0.000000 0.000000
# 5 0.000000 0.000000 0.000000 0.000000 0.033582 0.000000
# 6 0.000000 0.000000 0.000000 0.000000 0.000000 -0.055526
#
#
# Mechanical properties :
#
#
# Convention : Reuss Voigt Hill
#
# Bulk Modulus (GPa) = 36.56098 52.02721 44.29410
# Shear Modulus (GPa) = 34.02525 15.90780 24.96653
#
# Velocity S-wave (km/s) = 4.10995 2.81022 3.52058
# Velocity P-wave (km/s) = 6.37752 6.02979 6.20609
#
# Compressibility (1/GPa) = 0.02735157
#
# Stress axis : x y z
#
# Youngs Moduli (GPa) = 72.02171 88.05960 28.27302
#
# Poissons Ratio (x) = 0.35428 0.29289
# Poissons Ratio (y) = 0.28975 0.06353
# Poissons Ratio (z) = 0.74609 0.19786
#
# Static dielectric constant tensor:
#      x y z
#    x 1.758880 0.000000 0.000000 
#    y 0.000000 1.717920 0.000000 
#    z 0.000000 0.000000 1.787020 
# 
# From -- ./inp_files/23726.got.cif
#   From: 2010.05.17/outbox.cif.g08.bks.cpg/sg53_12_cif.got.tgz:23726.got - 2010.06.03 12:45:16.
