data_PCOD9419008
_publ_section_title
;
Structure prediction by ZEFSAII (Michael W. Deem and Ramdas Pophale) SiO2 
 PCOD9419008
Probable space group: P M N A
;
_chemical_formula_sum "Si O2"
_cell_formula_units_Z 52
_cell_length_a 28.166893
_cell_length_b 5.558039
_cell_length_c 16.269792
_cell_angle_alpha 90.000000
_cell_angle_beta 90.000000
_cell_angle_gamma 90.000000
_cell_volume 2547.079700
_symmetry_space_group_name_H-M "P M N A"
_symmetry_group_IT_number 53
_symmetry_cell_setting 'orthorhombic'
loop_
_space_group_symop_operation_xyz
x,y,z
1/2-x,-y,1/2+z
x,-y,-z
1/2-x,y,1/2-z
-x,-y,-z
1/2+x,y,1/2-z
-x,y,z
1/2+x,-y,1/2+z
loop_
_atom_site_type_symbol
_atom_site_label
_atom_site_fract_x
_atom_site_fract_y
_atom_site_fract_z
Si Si1 0.125297 0.749619 0.548399
Si Si2 0.405222 0.000000 0.500000
Si Si3 0.706544 0.584424 0.694517
Si Si4 0.260712 0.248188 0.046200
Si Si5 0.113038 0.158687 0.266330
Si Si6 0.445547 0.371751 0.378552
Si Si7 0.133338 0.770535 0.150245
O O1 0.112577 0.500000 0.500000
O O2 0.182445 0.740877 0.561272
O O3 0.103304 0.779348 0.639488
O O4 0.115155 0.000000 0.500000
O O5 0.437312 0.211055 0.460337
O O6 0.370827 0.040743 0.577395
O O7 0.750000 0.500948 0.750000
O O8 0.730829 0.758571 0.629500
O O9 0.661667 0.702864 0.740580
O O10 0.682773 0.361785 0.649091
O O11 0.249263 0.500000 0.000000
O O12 0.251752 0.000000 0.000000
O O13 0.070641 0.227415 0.203696
O O14 0.124214 0.883948 0.239929
O O15 0.500000 0.445619 0.373964
O O16 0.408879 0.590655 0.374768
#
# Coordination Sequence:
#
# PCOD9419008 Si02
#       7
#     8   4   8   8   8   8   8
#     4  10  22  40  67  91 124 166 221 274 327 390
#     4  10  21  42  62  96 132 170 210 262 327 394
#     4  11  23  40  60  83 126 173 216 269 323 383
#     4  10  23  39  57  88 120 167 221 267 314 379
#     4  10  23  41  62  91 125 167 214 267 338 391
#     4  10  22  41  67  95 127 166 212 264 327 403
#     4  10  24  38  62  91 128 174 215 267 323 404
#
# _framework density 20.415537
#
# number of rings (size 3 to 8) (size 9 to 14) (size 15 to 20)
#    0.000    1.846    1.538    0.692    6.462    9.231 
#    5.538    0.000    0.000    0.923    0.000    0.000 
#    0.000    0.000    0.000    0.000    0.000    0.000 
#
# Total GULP energy -289987.533310 kJ/mol
# GULP energy per Si atom -5576.683333 kJ/mol
# Density = 2.036907 g / cm^3
# Si number density = 20.415537 Si / 1000 Ang^3
#
#
#
# Elastic Constant Matrix: (Units=GPa)
#
#
# Indices 1 2 3 4 5 6 
#
# 1 80.6295 7.0834 15.7110 0.0000 0.0000 0.0000
# 2 7.0834 71.8048 30.6247 0.0000 0.0000 0.0000
# 3 15.7110 30.6247 122.1558 0.0000 0.0000 0.0000
# 4 0.0000 0.0000 0.0000 29.0038 0.0000 0.0000
# 5 0.0000 0.0000 0.0000 0.0000 7.5106 0.0000
# 6 0.0000 0.0000 0.0000 0.0000 0.0000 -7.2862
#
#
#
# Elastic Compliance Matrix: (Units=1/GPa)
#
#
# Indices 1 2 3 4 5 6 
#
# 1 0.012746 -0.000625 -0.001483 0.000000 0.000000 0.000000
# 2 -0.000625 0.015625 -0.003837 0.000000 0.000000 0.000000
# 3 -0.001483 -0.003837 0.009339 0.000000 0.000000 0.000000
# 4 0.000000 0.000000 0.000000 0.034478 0.000000 0.000000
# 5 0.000000 0.000000 0.000000 0.000000 0.133145 0.000000
# 6 0.000000 0.000000 0.000000 0.000000 0.000000 -0.137245
#
#
# Mechanical properties :
#
#
# Convention : Reuss Voigt Hill
#
# Bulk Modulus (GPa) = 38.72837 42.38092 40.55464
# Shear Modulus (GPa) = 56.44373 20.59037 38.51705
#
# Velocity S-wave (km/s) = 5.26379 3.17923 4.34828
# Velocity P-wave (km/s) = 7.48027 5.85499 6.71697
#
# Compressibility (1/GPa) = 0.02582086
#
# Stress axis : x y z
#
# Youngs Moduli (GPa) = 78.45462 64.00131 107.07974
#
# Poissons Ratio (x) = 0.04000 0.15876
# Poissons Ratio (y) = 0.04904 0.41084
# Poissons Ratio (z) = 0.11632 0.24556
#
# Static dielectric constant tensor:
#      x y z
#    x 1.678480 0.000000 0.000000 
#    y 0.000000 1.833330 0.000000 
#    z 0.000000 0.000000 1.770260 
# 
# From -- ./inp_files/25136.got.cif
#   From: 2010.05.17/outbox.cif.g08.bks.cpg/sg53_13_cif.got.tgz:25136.got - 2010.06.03 12:45:16.
