data_PCOD9419049
_publ_section_title
;
Structure prediction by ZEFSAII (Michael W. Deem and Ramdas Pophale) SiO2 
 PCOD9419049
Probable space group: P M N A
;
_chemical_formula_sum "Si O2"
_cell_formula_units_Z 64
_cell_length_a 27.054147
_cell_length_b 9.699129
_cell_length_c 13.931109
_cell_angle_alpha 90.000000
_cell_angle_beta 90.000000
_cell_angle_gamma 90.000000
_cell_volume 3655.546151
_symmetry_space_group_name_H-M "P M N A"
_symmetry_group_IT_number 53
_symmetry_cell_setting 'orthorhombic'
loop_
_space_group_symop_operation_xyz
x,y,z
1/2-x,-y,1/2+z
x,-y,-z
1/2-x,y,1/2-z
-x,-y,-z
1/2+x,y,1/2-z
-x,y,z
1/2+x,-y,1/2+z
loop_
_atom_site_type_symbol
_atom_site_label
_atom_site_fract_x
_atom_site_fract_y
_atom_site_fract_z
Si Si1 0.751745 0.349485 0.532090
Si Si2 0.849070 0.257228 0.242690
Si Si3 0.700111 0.040440 0.386931
Si Si4 0.694646 0.554306 0.208529
Si Si5 0.306095 0.105299 0.082859
Si Si6 0.658787 0.771088 0.349599
Si Si7 0.444525 0.309453 0.581635
Si Si8 0.055296 0.624669 0.856044
O O1 0.732751 0.500000 0.500000
O O2 0.796602 0.394195 0.601650
O O3 0.777289 0.238978 0.461984
O O4 0.703591 0.279415 0.580401
O O5 0.820463 0.185006 0.153202
O O6 0.823539 0.400563 0.273529
O O7 0.843242 0.158939 0.335868
O O8 0.903117 0.299965 0.205718
O O9 0.758673 0.028862 0.371320
O O10 0.690555 0.000000 0.500000
O O11 0.673408 0.925036 0.324044
O O12 0.750000 0.562918 0.250000
O O13 0.660962 0.662654 0.263907
O O14 0.324765 0.000000 0.000000
O O15 0.604039 0.774324 0.391845
O O16 0.500000 0.258362 0.606328
O O17 0.442935 0.327073 0.466792
O O18 0.438295 0.459431 0.631987
O O19 0.000000 0.650582 0.818799
#
# Coordination Sequence:
#
# PCOD9419049 Si02
#       8
#     8   8   8   8   8   8   8   8
#     4  11  22  35  54  79 112 145 191 240 276 331
#     4  12  22  37  58  80 113 151 194 232 283 346
#     4  11  23  36  50  81 115 158 185 220 274 350
#     4  10  22  33  51  82 107 146 190 238 278 334
#     4  11  23  38  54  81 115 152 193 233 285 338
#     4  11  21  34  54  76 114 153 185 223 288 329
#     4   9  18  33  56  84 113 143 188 237 285 339
#     4   9  19  34  55  85 112 142 185 240 290 335
#
# _framework density 17.507645
#
# number of rings (size 3 to 8) (size 9 to 14) (size 15 to 20)
#    0.000    1.500    5.000    2.625    5.250    1.000 
#    0.000    0.625    0.000    2.625    0.000    2.625 
#    0.000    0.000    0.000    0.000    0.000    0.000 
#
# Total GULP energy -356550.700742 kJ/mol
# GULP energy per Si atom -5571.104699 kJ/mol
# Density = 1.746780 g / cm^3
# Si number density = 17.507645 Si / 1000 Ang^3
#
#
#
# Elastic Constant Matrix: (Units=GPa)
#
#
# Indices 1 2 3 4 5 6 
#
# 1 103.6866 28.4751 40.2550 0.0000 0.0000 0.0000
# 2 28.4751 75.1730 28.6976 0.0000 0.0000 0.0000
# 3 40.2550 28.6976 60.0021 0.0000 0.0000 0.0000
# 4 0.0000 0.0000 0.0000 28.9641 0.0000 0.0000
# 5 0.0000 0.0000 0.0000 0.0000 24.0748 0.0000
# 6 0.0000 0.0000 0.0000 0.0000 0.0000 18.0203
#
#
#
# Elastic Compliance Matrix: (Units=1/GPa)
#
#
# Indices 1 2 3 4 5 6 
#
# 1 0.013281 -0.001993 -0.007957 0.000000 0.000000 0.000000
# 2 -0.001993 0.016573 -0.006589 0.000000 0.000000 0.000000
# 3 -0.007957 -0.006589 0.025156 0.000000 0.000000 0.000000
# 4 0.000000 0.000000 0.000000 0.034525 0.000000 0.000000
# 5 0.000000 0.000000 0.000000 0.000000 0.041537 0.000000
# 6 0.000000 0.000000 0.000000 0.000000 0.000000 0.055493
#
#
# Mechanical properties :
#
#
# Convention : Reuss Voigt Hill
#
# Bulk Modulus (GPa) = 45.59711 48.19079 46.89395
# Shear Modulus (GPa) = 22.03084 23.64078 22.83581
#
# Velocity S-wave (km/s) = 3.55118 3.67865 3.61547
# Velocity P-wave (km/s) = 6.55097 6.75489 6.65371
#
# Compressibility (1/GPa) = 0.02193122
#
# Stress axis : x y z
#
# Youngs Moduli (GPa) = 75.29570 60.33849 39.75233
#
# Poissons Ratio (x) = 0.12027 0.31630
# Poissons Ratio (y) = 0.15008 0.26194
# Poissons Ratio (z) = 0.59911 0.39759
#
# Static dielectric constant tensor:
#      x y z
#    x 1.578080 0.000000 0.000000 
#    y 0.000000 1.676600 0.000000 
#    z 0.000000 0.000000 1.690620 
# 
# From -- ./inp_files/24747.got.cif
#   From: 2010.05.17/outbox.cif.g08.bks.cpg/sg53_13_cif.got.tgz:24747.got - 2010.06.03 12:45:16.
