data_PCOD9419208
_publ_section_title
;
Structure prediction by ZEFSAII (Michael W. Deem and Ramdas Pophale) SiO2 
 PCOD9419208
Probable space group: P M N A
;
_chemical_formula_sum "Si O2"
_cell_formula_units_Z 64
_cell_length_a 8.660939
_cell_length_b 12.195269
_cell_length_c 31.750920
_cell_angle_alpha 90.000000
_cell_angle_beta 90.000000
_cell_angle_gamma 90.000000
_cell_volume 3353.610941
_symmetry_space_group_name_H-M "P M N A"
_symmetry_group_IT_number 53
_symmetry_cell_setting 'orthorhombic'
loop_
_space_group_symop_operation_xyz
x,y,z
1/2-x,-y,1/2+z
x,-y,-z
1/2-x,y,1/2-z
-x,-y,-z
1/2+x,y,1/2-z
-x,y,z
1/2+x,-y,1/2+z
loop_
_atom_site_type_symbol
_atom_site_label
_atom_site_fract_x
_atom_site_fract_y
_atom_site_fract_z
Si Si1 0.685984 0.735933 0.043448
Si Si2 0.814826 0.495251 0.825885
Si Si3 0.814990 0.733820 0.294851
Si Si4 0.313557 0.878403 0.624879
Si Si5 0.686116 0.265103 0.294958
Si Si6 0.686406 0.877022 0.124705
Si Si7 0.184680 0.272915 0.046291
Si Si8 0.184912 0.501202 0.579689
O O1 0.500000 0.742529 0.039256
O O2 0.733970 0.811643 0.082654
O O3 0.725284 0.610297 0.055161
O O4 0.763021 0.766802 0.999493
O O5 0.742123 0.389289 0.804107
O O6 0.765509 0.609676 0.804641
O O7 0.762330 0.498563 0.874428
O O8 0.000000 0.487941 0.823761
O O9 0.750000 0.771168 0.250000
O O10 0.763559 0.810090 0.333763
O O11 0.000000 0.733973 0.293581
O O12 0.500000 0.882976 0.625276
O O13 0.263384 0.811636 0.666417
O O14 0.267382 0.810036 0.583430
O O15 0.248523 0.000303 0.624685
O O16 0.750000 0.229445 0.250000
O O17 0.500000 0.263512 0.293933
O O18 0.500000 0.878815 0.125029
O O19 0.260331 0.390733 0.055567
O O20 0.000000 0.284573 0.047979
O O21 0.000000 0.502878 0.584866
#
# Coordination Sequence:
#
# PCOD9419208 Si02
#       8
#     8   8   8   8   8   8   8   8
#     4  10  22  41  61  88 123 157 196 246 300 357
#     4  11  21  37  62  91 125 160 197 244 301 361
#     4  11  23  41  62  91 125 159 200 247 299 357
#     4  10  23  43  61  83 120 157 199 252 301 349
#     4  10  22  40  60  87 122 155 193 244 294 351
#     4  10  23  43  63  85 118 157 204 252 297 354
#     4  11  23  40  61  90 124 157 199 248 298 360
#     4  11  21  37  62  90 124 161 196 242 301 361
#
# _framework density 19.083908000000001
#
# number of rings (size 3 to 8) (size 9 to 14) (size 15 to 20)
#    0.000    1.500    2.500    2.250    0.000    8.500 
#    0.000    5.000    0.000    0.000    0.000    0.000 
#    0.000    0.000    0.000    0.000    0.000    0.000 
#
# Total GULP energy -357786.709991 kJ/mol
# GULP energy per Si atom -5590.417344 kJ/mol
# Density = 1.904047 g / cm^3
# Si number density = 19.083908 Si / 1000 Ang^3
#
#
#
# Elastic Constant Matrix: (Units=GPa)
#
#
# Indices 1 2 3 4 5 6 
#
# 1 25.5489 29.8028 31.1706 0.0000 0.0000 0.0000
# 2 29.8028 155.4585 83.6622 0.0000 0.0000 0.0000
# 3 31.1706 83.6622 182.1287 0.0000 0.0000 0.0000
# 4 0.0000 0.0000 0.0000 1.2323 0.0000 0.0000
# 5 0.0000 0.0000 0.0000 0.0000 37.4877 0.0000
# 6 0.0000 0.0000 0.0000 0.0000 0.0000 34.1110
#
#
#
# Elastic Compliance Matrix: (Units=1/GPa)
#
#
# Indices 1 2 3 4 5 6 
#
# 1 0.055050 -0.007284 -0.006076 0.000000 0.000000 0.000000
# 2 -0.007284 0.009509 -0.003121 0.000000 0.000000 0.000000
# 3 -0.006076 -0.003121 0.007964 0.000000 0.000000 0.000000
# 4 0.000000 0.000000 0.000000 0.811486 0.000000 0.000000
# 5 0.000000 0.000000 0.000000 0.000000 0.026675 0.000000
# 6 0.000000 0.000000 0.000000 0.000000 0.000000 0.029316
#
#
# Mechanical properties :
#
#
# Convention : Reuss Voigt Hill
#
# Bulk Modulus (GPa) = 25.27737 72.48971 48.88354
# Shear Modulus (GPa) = 5.07023 29.13291 17.10157
#
# Velocity S-wave (km/s) = 1.63174 3.91137 2.99678
# Velocity P-wave (km/s) = 4.10174 7.64628 6.13555
#
# Compressibility (1/GPa) = 0.03956107
#
# Stress axis : x y z
#
# Youngs Moduli (GPa) = 18.16541 105.16636 125.56119
#
# Poissons Ratio (x) = 0.76601 0.76287
# Poissons Ratio (y) = 0.13231 0.39192
# Poissons Ratio (z) = 0.11037 0.32826
#
# Static dielectric constant tensor:
#      x y z
#    x 1.646890 0.000000 0.000000 
#    y 0.000000 1.634660 0.000000 
#    z 0.000000 0.000000 1.661430 
# 
# From -- ./inp_files/38285.got.cif
#   From: 2010.05.17/outbox.cif.g08.bks.cpg/sg53_20_cif.got.tgz:38285.got - 2010.06.03 12:45:16.
