data_PCOD9419659
_publ_section_title
;
Structure prediction by ZEFSAII (Michael W. Deem and Ramdas Pophale) SiO2 
 PCOD9419659
Probable space group: P M N A
;
_chemical_formula_sum "Si O2"
_cell_formula_units_Z 48
_cell_length_a 25.095466
_cell_length_b 10.117145
_cell_length_c 10.232170
_cell_angle_alpha 90.000000
_cell_angle_beta 90.000000
_cell_angle_gamma 90.000000
_cell_volume 2597.891362
_symmetry_space_group_name_H-M "P M N A"
_symmetry_group_IT_number 53
_symmetry_cell_setting 'orthorhombic'
loop_
_space_group_symop_operation_xyz
x,y,z
1/2-x,-y,1/2+z
x,-y,-z
1/2-x,y,1/2-z
-x,-y,-z
1/2+x,y,1/2-z
-x,y,z
1/2+x,-y,1/2+z
loop_
_atom_site_type_symbol
_atom_site_label
_atom_site_fract_x
_atom_site_fract_y
_atom_site_fract_z
Si Si1 0.386363 0.243564 0.260242
Si Si2 0.698272 0.841525 0.519004
Si Si3 0.822077 0.159203 0.489629
Si Si4 0.440944 0.989860 0.343422
Si Si5 0.436970 0.482713 0.657318
Si Si6 0.361491 0.238497 0.730886
O O1 0.340914 0.211644 0.368861
O O2 0.359933 0.218851 0.120665
O O3 0.431427 0.134076 0.285910
O O4 0.412082 0.385875 0.279998
O O5 0.760318 0.820337 0.548293
O O6 0.681928 0.770586 0.384334
O O7 0.690950 0.000000 0.500000
O O8 0.834760 0.227384 0.627945
O O9 0.830191 0.000000 0.500000
O O10 0.500000 0.939695 0.314412
O O11 0.435616 0.000000 0.500000
O O12 0.397244 0.892302 0.287430
O O13 0.432700 0.500000 0.500000
O O14 0.500000 0.466282 0.687367
O O15 0.401054 0.360415 0.705063
#
# Coordination Sequence:
#
# PCOD9419659 Si02
#       6
#     8   8   8   8   8   8
#     4  12  21  41  62  95 124 165 208 257 312 368
#     4  11  20  39  66  95 123 167 215 261 306 361
#     4  11  24  39  64  95 133 165 203 257 322 371
#     4  11  20  35  62  90 115 154 217 267 300 356
#     4  11  24  43  68  92 123 166 211 261 314 368
#     4  12  21  41  62  95 124 165 208 257 312 368
#
# _framework density 18.476521999999999
#
# number of rings (size 3 to 8) (size 9 to 14) (size 15 to 20)
#    0.000    0.667    6.667    2.000    0.000    6.000 
#    0.000   10.000    0.000    0.000    0.000    0.000 
#    0.000    0.000    0.000    0.000    0.000    0.000 
#
# Total GULP energy -268260.519732 kJ/mol
# GULP energy per Si atom -5588.760828 kJ/mol
# Density = 1.843447 g / cm^3
# Si number density = 18.476522 Si / 1000 Ang^3
#
#
#
# Elastic Constant Matrix: (Units=GPa)
#
#
# Indices 1 2 3 4 5 6 
#
# 1 68.5609 12.8568 -3.7251 0.0000 0.0000 0.0000
# 2 12.8568 95.6809 -0.9786 0.0000 0.0000 0.0000
# 3 -3.7251 -0.9786 59.0700 0.0000 0.0000 0.0000
# 4 0.0000 0.0000 0.0000 24.4018 0.0000 0.0000
# 5 0.0000 0.0000 0.0000 0.0000 32.3907 0.0000
# 6 0.0000 0.0000 0.0000 0.0000 0.0000 26.7253
#
#
#
# Elastic Compliance Matrix: (Units=1/GPa)
#
#
# Indices 1 2 3 4 5 6 
#
# 1 0.015012 -0.002008 0.000913 0.000000 0.000000 0.000000
# 2 -0.002008 0.010722 0.000051 0.000000 0.000000 0.000000
# 3 0.000913 0.000051 0.016988 0.000000 0.000000 0.000000
# 4 0.000000 0.000000 0.000000 0.040981 0.000000 0.000000
# 5 0.000000 0.000000 0.000000 0.000000 0.030873 0.000000
# 6 0.000000 0.000000 0.000000 0.000000 0.000000 0.037418
#
#
# Mechanical properties :
#
#
# Convention : Reuss Voigt Hill
#
# Bulk Modulus (GPa) = 24.60982 26.62422 25.61702
# Shear Modulus (GPa) = 29.82871 31.04749 30.43810
#
# Velocity S-wave (km/s) = 4.02233 4.10368 4.06321
# Velocity P-wave (km/s) = 5.90937 6.07410 5.99230
#
# Compressibility (1/GPa) = 0.04063418
#
# Stress axis : x y z
#
# Youngs Moduli (GPa) = 66.61472 93.26862 58.86672
#
# Poissons Ratio (x) = 0.18726 -0.05377
# Poissons Ratio (y) = 0.13375 -0.00300
# Poissons Ratio (z) = -0.06085 -0.00476
#
# Static dielectric constant tensor:
#      x y z
#    x 1.624290 0.000000 0.000000 
#    y 0.000000 1.611860 0.000000 
#    z 0.000000 0.000000 1.663260 
# 
# From -- ./inp_files/12995.got.cif
#   From: 2010.05.17/outbox.cif.g08.bks.cpg/sg53_7_cif.got.tgz:12995.got - 2010.06.03 12:45:16.
