data_PCOD9419962
_publ_section_title
;
Structure prediction by ZEFSAII (Michael W. Deem and Ramdas Pophale) SiO2 
 PCOD9419962
Probable space group: P M N A
;
_chemical_formula_sum "Si O2"
_cell_formula_units_Z 32
_cell_length_a 12.703922
_cell_length_b 5.243967
_cell_length_c 18.983228
_cell_angle_alpha 90.000000
_cell_angle_beta 90.000000
_cell_angle_gamma 90.000000
_cell_volume 1264.642674
_symmetry_space_group_name_H-M "P M N A"
_symmetry_group_IT_number 53
_symmetry_cell_setting 'orthorhombic'
loop_
_space_group_symop_operation_xyz
x,y,z
1/2-x,-y,1/2+z
x,-y,-z
1/2-x,y,1/2-z
-x,-y,-z
1/2+x,y,1/2-z
-x,y,z
1/2+x,-y,1/2+z
loop_
_atom_site_type_symbol
_atom_site_label
_atom_site_fract_x
_atom_site_fract_y
_atom_site_fract_z
Si Si1 0.000000 0.412918 0.746388
Si Si2 0.204685 0.220272 0.677509
Si Si3 0.887327 0.829155 0.569007
Si Si4 0.830461 0.423826 0.076353
Si Si5 0.000000 0.102207 0.157320
O O1 0.891300 0.400096 0.702537
O O2 0.000000 0.684871 0.782774
O O3 0.000000 0.173706 0.803777
O O4 0.250000 0.108716 0.750000
O O5 0.299300 0.358040 0.633983
O O6 0.144547 0.011086 0.632638
O O7 0.786924 0.659747 0.559050
O O8 0.000000 0.699765 0.578931
O O9 0.894310 0.000000 0.500000
O O10 0.898990 0.193942 0.110096
O O11 0.877734 0.500000 0.000000
#
# Coordination Sequence:
#
# PCOD9419962 Si02
#       5
#     4   8   8   8   4
#     4  12  28  50  75 115 154 204 265 321 392 451
#     4  12  25  45  73 107 154 197 258 318 389 459
#     4  11  25  45  73 109 151 201 256 325 391 466
#     4  12  27  47  76 113 154 206 261 320 394 467
#     4  12  29  54  78 113 160 210 259 323 382 474
#
# _framework density 25.303588000000001
#
# number of rings (size 3 to 8) (size 9 to 14) (size 15 to 20)
#    0.000    0.250    6.250    1.875    5.250    1.500 
#    0.000    1.875    0.000    0.000    0.000    0.000 
#    0.000    0.000    0.000    0.000    0.000    0.000 
#
# Total GULP energy -178968.309314 kJ/mol
# GULP energy per Si atom -5592.759666 kJ/mol
# Density = 2.524600 g / cm^3
# Si number density = 25.303588 Si / 1000 Ang^3
#
#
#
# Elastic Constant Matrix: (Units=GPa)
#
#
# Indices 1 2 3 4 5 6 
#
# 1 170.3578 34.4503 40.3326 0.0000 0.0000 0.0000
# 2 34.4503 56.2248 21.0910 0.0000 0.0000 0.0000
# 3 40.3326 21.0910 142.4181 0.0000 0.0000 0.0000
# 4 0.0000 0.0000 0.0000 39.4853 0.0000 0.0000
# 5 0.0000 0.0000 0.0000 0.0000 1314.2116 0.0000
# 6 0.0000 0.0000 0.0000 0.0000 0.0000 49.1669
#
#
#
# Elastic Compliance Matrix: (Units=1/GPa)
#
#
# Indices 1 2 3 4 5 6 
#
# 1 0.006961 -0.003733 -0.001418 0.000000 0.000000 0.000000
# 2 -0.003733 0.020834 -0.002028 0.000000 0.000000 0.000000
# 3 -0.001418 -0.002028 0.007724 0.000000 0.000000 0.000000
# 4 0.000000 0.000000 0.000000 0.025326 0.000000 0.000000
# 5 0.000000 0.000000 0.000000 0.000000 0.000761 0.000000
# 6 0.000000 0.000000 0.000000 0.000000 0.000000 0.020339
#
#
# Mechanical properties :
#
#
# Convention : Reuss Voigt Hill
#
# Bulk Modulus (GPa) = 47.26100 62.30537 54.78319
# Shear Modulus (GPa) = 48.37656 298.78122 173.57889
#
# Velocity S-wave (km/s) = 4.37721 10.87819 8.29141
# Velocity P-wave (km/s) = 6.65318 13.50765 10.64709
#
# Compressibility (1/GPa) = 0.02115909
#
# Stress axis : x y z
#
# Youngs Moduli (GPa) = 143.66377 47.99896 129.47266
#
# Poissons Ratio (x) = 0.17918 0.18365
# Poissons Ratio (y) = 0.53628 0.26259
# Poissons Ratio (z) = 0.20378 0.09735
#
# Static dielectric constant tensor:
#      x y z
#    x 2.075630 0.000000 0.000000 
#    y 0.000000 2.056820 0.000000 
#    z 0.000000 0.000000 1.634430 
# 
# From -- ./inp_files/27853.got.cif
#   From: 2010.05.17/outbox.cif.g08.bks.cpg/sg53_14_cif.got.tgz:27853.got - 2010.06.03 12:45:16.
