data_PCOD9419439
_publ_section_title
;
Structure prediction by ZEFSAII (Michael W. Deem and Ramdas Pophale) SiO2 
 PCOD9419439
Probable space group: P M N A
;
_chemical_formula_sum "Si O2"
_cell_formula_units_Z 48
_cell_length_a 19.245895
_cell_length_b 7.908173
_cell_length_c 13.092456
_cell_angle_alpha 90.000000
_cell_angle_beta 90.000000
_cell_angle_gamma 90.000000
_cell_volume 1992.670065
_symmetry_space_group_name_H-M "P M N A"
_symmetry_group_IT_number 53
_symmetry_cell_setting 'orthorhombic'
loop_
_space_group_symop_operation_xyz
x,y,z
1/2-x,-y,1/2+z
x,-y,-z
1/2-x,y,1/2-z
-x,-y,-z
1/2+x,y,1/2-z
-x,y,z
1/2+x,-y,1/2+z
loop_
_atom_site_type_symbol
_atom_site_label
_atom_site_fract_x
_atom_site_fract_y
_atom_site_fract_z
Si Si1 0.847108 0.379461 0.097618
Si Si2 0.223315 0.127685 0.418446
Si Si3 0.424970 0.226083 0.102670
Si Si4 0.920096 0.433822 0.714172
Si Si5 0.077124 0.936037 0.834229
Si Si6 0.321931 0.156179 0.763516
O O1 0.772656 0.284484 0.108375
O O2 0.874019 0.489802 0.193207
O O3 0.900234 0.220765 0.095921
O O4 0.846483 0.500000 0.000000
O O5 0.146331 0.183268 0.453151
O O6 0.255691 0.000000 0.500000
O O7 0.205169 0.004230 0.325940
O O8 0.500000 0.185618 0.054664
O O9 0.422213 0.424291 0.128017
O O10 0.424663 0.138135 0.216684
O O11 0.880042 0.266700 0.681280
O O12 0.000000 0.402494 0.745907
O O13 0.000000 0.996341 0.858523
O O14 0.135500 0.080857 0.832200
O O15 0.250000 0.257824 0.750000
#
# Coordination Sequence:
#
# PCOD9419439 Si02
#       6
#     8   8   8   8   8   8
#     4  11  24  39  62  91 133 170 211 260 321 375
#     4  11  25  41  60  95 132 166 213 263 320 383
#     4   8  18  38  63  88 118 159 208 258 313 371
#     4  10  23  41  67  99 124 163 219 265 313 387
#     4   9  18  37  62  89 120 160 209 255 302 377
#     4  11  22  39  66  92 124 169 210 259 317 375
#
# _framework density 24.088282
#
# number of rings (size 3 to 8) (size 9 to 14) (size 15 to 20)
#    0.000    2.000    1.667    2.000    4.667    2.333 
#    0.000    0.000    0.000    6.500    0.000    0.000 
#    0.000    0.000    0.000    0.000    0.000    0.000 
#
# Total GULP energy -267968.431729 kJ/mol
# GULP energy per Si atom -5582.675661 kJ/mol
# Density = 2.403346 g / cm^3
# Si number density = 24.088282 Si / 1000 Ang^3
#
#
#
# Elastic Constant Matrix: (Units=GPa)
#
#
# Indices 1 2 3 4 5 6 
#
# 1 213.6838 66.4678 41.1120 0.0000 0.0000 0.0000
# 2 66.4678 89.2618 30.1653 0.0000 0.0000 0.0000
# 3 41.1120 30.1653 55.7129 0.0000 0.0000 0.0000
# 4 0.0000 0.0000 0.0000 26.4992 0.0000 0.0000
# 5 0.0000 0.0000 0.0000 0.0000 8.3992 0.0000
# 6 0.0000 0.0000 0.0000 0.0000 0.0000 34.9516
#
#
#
# Elastic Compliance Matrix: (Units=1/GPa)
#
#
# Indices 1 2 3 4 5 6 
#
# 1 0.006388 -0.003872 -0.002617 0.000000 0.000000 0.000000
# 2 -0.003872 0.016059 -0.005838 0.000000 0.000000 0.000000
# 3 -0.002617 -0.005838 0.023041 0.000000 0.000000 0.000000
# 4 0.000000 0.000000 0.000000 0.037737 0.000000 0.000000
# 5 0.000000 0.000000 0.000000 0.000000 0.119059 0.000000
# 6 0.000000 0.000000 0.000000 0.000000 0.000000 0.028611
#
#
# Mechanical properties :
#
#
# Convention : Reuss Voigt Hill
#
# Bulk Modulus (GPa) = 47.99832 70.46097 59.22964
# Shear Modulus (GPa) = 19.04808 28.69757 23.87283
#
# Velocity S-wave (km/s) = 2.81510 3.45534 3.15152
# Velocity P-wave (km/s) = 5.52591 6.72561 6.15506
#
# Compressibility (1/GPa) = 0.02083406
#
# Stress axis : x y z
#
# Youngs Moduli (GPa) = 156.54820 62.26971 43.40046
#
# Poissons Ratio (x) = 0.24112 0.11359
# Poissons Ratio (y) = 0.60618 0.25336
# Poissons Ratio (z) = 0.40972 0.36351
#
# Static dielectric constant tensor:
#      x y z
#    x 2.015780 0.000000 0.000000 
#    y 0.000000 1.943900 0.000000 
#    z 0.000000 0.000000 2.029190 
# 
# From -- ./inp_files/23624.got.cif
#   From: 2010.05.17/outbox.cif.g08.bks.cpg/sg53_12_cif.got.tgz:23624.got - 2010.06.03 12:45:16.
