data_PCOD9419016
_publ_section_title
;
Structure prediction by ZEFSAII (Michael W. Deem and Ramdas Pophale) SiO2 
 PCOD9419016
Probable space group: P M N A
;
_chemical_formula_sum "Si O2"
_cell_formula_units_Z 60
_cell_length_a 9.477078
_cell_length_b 17.052700
_cell_length_c 18.302112
_cell_angle_alpha 90.000000
_cell_angle_beta 90.000000
_cell_angle_gamma 90.000000
_cell_volume 2957.800074
_symmetry_space_group_name_H-M "P M N A"
_symmetry_group_IT_number 53
_symmetry_cell_setting 'orthorhombic'
loop_
_space_group_symop_operation_xyz
x,y,z
1/2-x,-y,1/2+z
x,-y,-z
1/2-x,y,1/2-z
-x,-y,-z
1/2+x,y,1/2-z
-x,y,z
1/2+x,-y,1/2+z
loop_
_atom_site_type_symbol
_atom_site_label
_atom_site_fract_x
_atom_site_fract_y
_atom_site_fract_z
Si Si1 0.833272 0.629820 0.919081
Si Si2 0.330522 0.651249 0.070878
Si Si3 0.842802 0.101677 0.042341
Si Si4 0.775487 0.017510 0.848919
Si Si5 0.831571 0.470183 0.826560
Si Si6 0.000000 0.981762 0.721691
Si Si7 0.666629 0.164457 0.911249
Si Si8 0.163241 0.220336 0.177449
O O1 0.819757 0.547769 0.876920
O O2 0.794690 0.698995 0.862505
O O3 0.000000 0.640617 0.938747
O O4 0.737823 0.634856 0.991248
O O5 0.500000 0.635947 0.070594
O O6 0.247231 0.598445 0.129126
O O7 0.308662 0.742821 0.090144
O O8 0.828782 0.154078 0.116094
O O9 0.000000 0.118595 0.012541
O O10 0.833948 0.014410 0.074585
O O11 0.723700 0.131481 0.987893
O O12 0.624762 0.977189 0.839076
O O13 0.747077 0.110700 0.852418
O O14 0.880179 0.995411 0.785071
O O15 0.750000 0.481658 0.750000
O O16 0.000000 0.455172 0.815646
O O17 0.500000 0.150753 0.902326
O O18 0.250000 0.203054 0.250000
O O19 0.000000 0.226589 0.200280
#
# Coordination Sequence:
#
# PCOD9419016 Si02
#       8
#     8   8   8   8   8   4   8   8
#     4  10  21  42  66  94 130 171 211 257 318 383
#     4  11  24  43  66  97 130 168 217 267 320 381
#     4  11  24  39  64  92 127 166 215 263 318 382
#     4  11  23  43  63  92 124 168 215 265 320 380
#     4  11  24  43  68  98 131 170 214 262 320 383
#     4  10  24  42  64  90 126 164 214 264 328 384
#     4  11  25  44  63  92 127 168 218 268 317 376
#     4  10  22  37  58  91 128 166 204 256 311 374
#
# _framework density 20.285346000000001
#
# number of rings (size 3 to 8) (size 9 to 14) (size 15 to 20)
#    0.000    1.333    2.667    2.000    3.733    5.333 
#    2.400    0.000    0.000    0.000    0.000    0.000 
#    0.000    0.000    0.000    0.000    0.000    0.000 
#
# Total GULP energy -334250.023251 kJ/mol
# GULP energy per Si atom -5570.833721 kJ/mol
# Density = 2.023918 g / cm^3
# Si number density = 20.285346 Si / 1000 Ang^3
#
#
#
# Elastic Constant Matrix: (Units=GPa)
#
#
# Indices 1 2 3 4 5 6 
#
# 1 91.8825 20.5398 3.8056 0.0000 0.0000 0.0000
# 2 20.5398 94.3541 -5.0964 0.0000 0.0000 0.0000
# 3 3.8056 -5.0964 20.8449 0.0000 0.0000 0.0000
# 4 0.0000 0.0000 0.0000 -94.6801 0.0000 0.0000
# 5 0.0000 0.0000 0.0000 0.0000 56.6355 0.0000
# 6 0.0000 0.0000 0.0000 0.0000 0.0000 11.1844
#
#
#
# Elastic Compliance Matrix: (Units=1/GPa)
#
#
# Indices 1 2 3 4 5 6 
#
# 1 0.011596 -0.002674 -0.002771 0.000000 0.000000 0.000000
# 2 -0.002674 0.011357 0.003265 0.000000 0.000000 0.000000
# 3 -0.002771 0.003265 0.049277 0.000000 0.000000 0.000000
# 4 0.000000 0.000000 0.000000 -0.010562 0.000000 0.000000
# 5 0.000000 0.000000 0.000000 0.000000 0.017657 0.000000
# 6 0.000000 0.000000 0.000000 0.000000 0.000000 0.089410
#
#
# Mechanical properties :
#
#
# Convention : Reuss Voigt Hill
#
# Bulk Modulus (GPa) = 14.73399 27.28661 21.01030
# Shear Modulus (GPa) = 25.54688 7.15014 16.34851
#
# Velocity S-wave (km/s) = 3.55262 1.87948 2.84197
# Velocity P-wave (km/s) = 4.90992 4.26503 4.59879
#
# Compressibility (1/GPa) = 0.06787029
#
# Stress axis : x y z
#
# Youngs Moduli (GPa) = 86.23677 88.05283 20.29327
#
# Poissons Ratio (x) = 0.23545 0.05623
# Poissons Ratio (y) = 0.23060 -0.06625
# Poissons Ratio (z) = 0.23895 -0.28748
#
# Static dielectric constant tensor:
#      x y z
#    x 1.705680 0.000000 0.000000 
#    y 0.000000 1.774200 0.000000 
#    z 0.000000 0.000000 1.761290 
# 
# From -- ./inp_files/26613.got.cif
#   From: 2010.05.17/outbox.cif.g08.bks.cpg/sg53_14_cif.got.tgz:26613.got - 2010.06.03 12:45:16.
