data_PCOD9419189
_publ_section_title
;
Structure prediction by ZEFSAII (Michael W. Deem and Ramdas Pophale) SiO2 
 PCOD9419189
Probable space group: P M N A
;
_chemical_formula_sum "Si O2"
_cell_formula_units_Z 64
_cell_length_a 17.804444
_cell_length_b 5.082061
_cell_length_c 31.027855
_cell_angle_alpha 90.000000
_cell_angle_beta 90.000000
_cell_angle_gamma 90.000000
_cell_volume 2807.501796
_symmetry_space_group_name_H-M "P M N A"
_symmetry_group_IT_number 53
_symmetry_cell_setting 'orthorhombic'
loop_
_space_group_symop_operation_xyz
x,y,z
1/2-x,-y,1/2+z
x,-y,-z
1/2-x,y,1/2-z
-x,-y,-z
1/2+x,y,1/2-z
-x,y,z
1/2+x,-y,1/2+z
loop_
_atom_site_type_symbol
_atom_site_label
_atom_site_fract_x
_atom_site_fract_y
_atom_site_fract_z
Si Si1 0.918041 0.802526 0.824711
Si Si2 0.415281 0.380065 0.902077
Si Si3 0.369094 0.895613 0.952350
Si Si4 0.810092 0.149542 0.779726
Si Si5 0.191791 0.969339 0.050303
Si Si6 0.584637 0.536130 0.767930
Si Si7 0.333292 0.560079 0.605414
Si Si8 0.700152 0.476137 0.167231
O O1 0.920389 0.698166 0.775999
O O2 0.896083 0.569746 0.857334
O O3 0.000000 0.913051 0.835521
O O4 0.849887 0.006087 0.819565
O O5 0.500000 0.455656 0.890422
O O6 0.385941 0.596406 0.937455
O O7 0.359085 0.364815 0.861792
O O8 0.413309 0.090421 0.921417
O O9 0.280505 0.959767 0.947858
O O10 0.389762 0.000000 0.000000
O O11 0.750000 0.993910 0.750000
O O12 0.874039 0.271774 0.748985
O O13 0.757322 0.371692 0.801284
O O14 0.147980 0.194668 0.075439
O O15 0.178207 0.695189 0.075520
O O16 0.171655 0.000000 0.000000
O O17 0.500000 0.491961 0.783805
O O18 0.640810 0.671320 0.802038
O O19 0.256189 0.631645 0.630983
#
# Coordination Sequence:
#
# PCOD9419189 Si02
#       8
#     8   8   8   8   8   8   8   8
#     4  11  25  42  66 101 139 180 233 285 351 417
#     4  12  25  41  62  93 136 179 225 282 346 404
#     4  11  23  42  65  92 129 175 227 285 341 410
#     4  10  22  39  66  92 129 183 237 288 333 401
#     4  11  23  44  71 104 135 172 225 289 353 419
#     4  10  22  41  61  91 135 182 229 281 344 401
#     4  12  23  41  73 102 134 179 228 288 344 411
#     4  11  22  41  62  95 132 178 233 284 331 398
#
# _framework density 22.796068000000002
#
# number of rings (size 3 to 8) (size 9 to 14) (size 15 to 20)
#    0.000    1.000    3.750    2.625    1.750    3.500 
#    2.250    0.000    0.000    2.250    0.000    0.000 
#    0.000    0.000    0.000    0.000    0.000    0.000 
#
# Total GULP energy -357062.543617 kJ/mol
# GULP energy per Si atom -5579.102244 kJ/mol
# Density = 2.274418 g / cm^3
# Si number density = 22.796068 Si / 1000 Ang^3
#
#
#
# Elastic Constant Matrix: (Units=GPa)
#
#
# Indices 1 2 3 4 5 6 
#
# 1 82.3238 6.2698 19.9970 0.0000 0.0000 0.0000
# 2 6.2698 61.8772 14.3445 0.0000 0.0000 0.0000
# 3 19.9970 14.3445 113.7778 0.0000 0.0000 0.0000
# 4 0.0000 0.0000 0.0000 26.8304 0.0000 0.0000
# 5 0.0000 0.0000 0.0000 0.0000 8.2076 0.0000
# 6 0.0000 0.0000 0.0000 0.0000 0.0000 14.5149
#
#
#
# Elastic Compliance Matrix: (Units=1/GPa)
#
#
# Indices 1 2 3 4 5 6 
#
# 1 0.012727 -0.000794 -0.002137 0.000000 0.000000 0.000000
# 2 -0.000794 0.016697 -0.001966 0.000000 0.000000 0.000000
# 3 -0.002137 -0.001966 0.009412 0.000000 0.000000 0.000000
# 4 0.000000 0.000000 0.000000 0.037271 0.000000 0.000000
# 5 0.000000 0.000000 0.000000 0.000000 0.121838 0.000000
# 6 0.000000 0.000000 0.000000 0.000000 0.000000 0.068895
#
#
# Mechanical properties :
#
#
# Convention : Reuss Voigt Hill
#
# Bulk Modulus (GPa) = 34.43119 37.68907 36.06013
# Shear Modulus (GPa) = 17.46333 24.40173 20.93253
#
# Velocity S-wave (km/s) = 2.77080 3.27530 3.03355
# Velocity P-wave (km/s) = 5.03718 5.55630 5.30310
#
# Compressibility (1/GPa) = 0.02904344
#
# Stress axis : x y z
#
# Youngs Moduli (GPa) = 78.57527 59.89045 106.24297
#
# Poissons Ratio (x) = 0.04757 0.22700
# Poissons Ratio (y) = 0.06241 0.20882
# Poissons Ratio (z) = 0.16789 0.11771
#
# Static dielectric constant tensor:
#      x y z
#    x 1.910760 0.000000 0.000000 
#    y 0.000000 1.903880 0.000000 
#    z 0.000000 0.000000 1.950360 
# 
# From -- ./inp_files/39037.got.cif
#   From: 2010.05.17/outbox.cif.g08.bks.cpg/sg53_20_cif.got.tgz:39037.got - 2010.06.03 12:45:16.
