data_PCOD9419351
_publ_section_title
;
Structure prediction by ZEFSAII (Michael W. Deem and Ramdas Pophale) SiO2 
 PCOD9419351
Probable space group: P M N A
;
_chemical_formula_sum "Si O2"
_cell_formula_units_Z 40
_cell_length_a 17.717134
_cell_length_b 12.598401
_cell_length_c 8.207708
_cell_angle_alpha 90.000000
_cell_angle_beta 90.000000
_cell_angle_gamma 90.000000
_cell_volume 1832.022465
_symmetry_space_group_name_H-M "P M N A"
_symmetry_group_IT_number 53
_symmetry_cell_setting 'orthorhombic'
loop_
_space_group_symop_operation_xyz
x,y,z
1/2-x,-y,1/2+z
x,-y,-z
1/2-x,y,1/2-z
-x,-y,-z
1/2+x,y,1/2-z
-x,y,z
1/2+x,-y,1/2+z
loop_
_atom_site_type_symbol
_atom_site_label
_atom_site_fract_x
_atom_site_fract_y
_atom_site_fract_z
Si Si1 0.661790 0.566516 0.222257
Si Si2 0.586276 0.854557 0.688927
Si Si3 0.914319 0.234862 0.826933
Si Si4 0.909632 0.360880 0.380785
Si Si5 0.170612 0.948876 0.322576
O O1 0.750000 0.546511 0.250000
O O2 0.635264 0.660067 0.339525
O O3 0.615304 0.457663 0.236144
O O4 0.637968 0.615115 0.044769
O O5 0.500000 0.884665 0.732237
O O6 0.587633 0.822216 0.500762
O O7 0.606799 0.752155 0.798133
O O8 0.638970 0.954324 0.716397
O O9 0.884557 0.151375 0.693515
O O10 0.000000 0.265412 0.787974
O O11 0.000000 0.367265 0.411483
O O12 0.250000 0.912639 0.250000
O O13 0.177635 0.000000 0.500000
#
# Coordination Sequence:
#
# PCOD9419351 Si02
#       5
#     8   8   8   8   8
#     4  11  23  38  61  93 125 160 207 260 312 362
#     4  10  23  41  63  90 121 160 204 250 300 364
#     4  11  23  41  64  91 125 162 204 252 305 369
#     4  10  22  43  66  89 124 171 215 252 306 380
#     4  12  25  41  63  90 122 159 201 253 310 366
#
# _framework density 21.833794999999999
#
# number of rings (size 3 to 8) (size 9 to 14) (size 15 to 20)
#    0.000    1.200    0.000    6.600    0.000   11.200 
#    0.000    3.000    0.000    0.000    0.000    0.000 
#    0.000    0.000    0.000    0.000    0.000    0.000 
#
# Total GULP energy -223776.959983 kJ/mol
# GULP energy per Si atom -5594.424000 kJ/mol
# Density = 2.178410 g / cm^3
# Si number density = 21.833795 Si / 1000 Ang^3
#
#
#
# Elastic Constant Matrix: (Units=GPa)
#
#
# Indices 1 2 3 4 5 6 
#
# 1 79.6955 18.3917 11.1839 0.0000 0.0000 0.0000
# 2 18.3917 74.7709 -4.2244 0.0000 0.0000 0.0000
# 3 11.1839 -4.2244 48.1457 0.0000 0.0000 0.0000
# 4 0.0000 0.0000 0.0000 28.5505 0.0000 0.0000
# 5 0.0000 0.0000 0.0000 0.0000 41.3562 0.0000
# 6 0.0000 0.0000 0.0000 0.0000 0.0000 5.8765
#
#
#
# Elastic Compliance Matrix: (Units=1/GPa)
#
#
# Indices 1 2 3 4 5 6 
#
# 1 0.013879 -0.003614 -0.003541 0.000000 0.000000 0.000000
# 2 -0.003614 0.014382 0.002101 0.000000 0.000000 0.000000
# 3 -0.003541 0.002101 0.021777 0.000000 0.000000 0.000000
# 4 0.000000 0.000000 0.000000 0.035026 0.000000 0.000000
# 5 0.000000 0.000000 0.000000 0.000000 0.024180 0.000000
# 6 0.000000 0.000000 0.000000 0.000000 0.000000 0.170168
#
#
# Mechanical properties :
#
#
# Convention : Reuss Voigt Hill
#
# Bulk Modulus (GPa) = 25.04336 28.14605 26.59470
# Shear Modulus (GPa) = 16.51097 26.97406 21.74251
#
# Velocity S-wave (km/s) = 2.75291 3.51868 3.15908
# Velocity P-wave (km/s) = 4.64754 5.42468 5.05108
#
# Compressibility (1/GPa) = 0.03993074
#
# Stress axis : x y z
#
# Youngs Moduli (GPa) = 72.05307 69.53224 45.91954
#
# Poissons Ratio (x) = 0.25128 0.16260
# Poissons Ratio (y) = 0.26039 -0.09649
# Poissons Ratio (z) = 0.25514 -0.14611
#
# Static dielectric constant tensor:
#      x y z
#    x 1.766960 0.000000 0.000000 
#    y 0.000000 1.767170 0.000000 
#    z 0.000000 0.000000 1.843910 
# 
# From -- ./inp_files/8416.got.cif
#   From: 2010.05.17/outbox.cif.g08.bks.cpg/sg53_5_cif.got.tgz:8416.got - 2010.06.03 12:45:16.
