data_PCOD9419314
_publ_section_title
;
Structure prediction by ZEFSAII (Michael W. Deem and Ramdas Pophale) SiO2 
 PCOD9419314
Probable space group: P M N A
;
_chemical_formula_sum "Si O2"
_cell_formula_units_Z 28
_cell_length_a 31.839107
_cell_length_b 7.542047
_cell_length_c 6.463099
_cell_angle_alpha 90.000000
_cell_angle_beta 90.000000
_cell_angle_gamma 90.000000
_cell_volume 1551.997157
_symmetry_space_group_name_H-M "P M N A"
_symmetry_group_IT_number 53
_symmetry_cell_setting 'orthorhombic'
loop_
_space_group_symop_operation_xyz
x,y,z
1/2-x,-y,1/2+z
x,-y,-z
1/2-x,y,1/2-z
-x,-y,-z
1/2+x,y,1/2-z
-x,y,z
1/2+x,-y,1/2+z
loop_
_atom_site_type_symbol
_atom_site_label
_atom_site_fract_x
_atom_site_fract_y
_atom_site_fract_z
Si Si1 0.297245 0.344518 0.831299
Si Si2 0.000000 0.920255 0.746041
Si Si3 0.592954 0.843429 0.669675
Si Si4 0.842375 0.000000 0.500000
Si Si5 0.138057 0.500000 0.000000
O O1 0.250000 0.326456 0.750000
O O2 0.313488 0.156069 0.911907
O O3 0.330878 0.409702 0.663784
O O4 0.296739 0.500000 0.000000
O O5 0.954696 0.827623 0.749224
O O6 0.000000 0.000000 0.500000
O O7 0.000000 0.000000 0.000000
O O8 0.609112 0.656074 0.587427
O O9 0.593262 0.000000 0.500000
O O10 0.626492 0.908635 0.837228
#
# Coordination Sequence:
#
# PCOD9419314 Si02
#       5
#     8   4   8   4   4
#     4  12  26  42  66  96 132 172 223 283 339 403
#     4  10  22  41  70 103 141 184 229 289 350 415
#     4  11  23  41  68  98 135 174 226 274 345 410
#     4  12  24  41  70  96 126 178 224 273 340 418
#     4  12  24  41  68  96 130 178 224 275 340 406
#
# _framework density 18.041271999999999
#
# number of rings (size 3 to 8) (size 9 to 14) (size 15 to 20)
#    0.000    0.571    8.571    0.000    0.000    4.000 
#    0.000    0.000    0.000    5.143    0.000    0.000 
#    0.000    0.000    0.000    0.000    0.000    0.000 
#
# Total GULP energy -155873.872541 kJ/mol
# GULP energy per Si atom -5566.924019 kJ/mol
# Density = 1.800021 g / cm^3
# Si number density = 18.041272 Si / 1000 Ang^3
#
#
#
# Elastic Constant Matrix: (Units=GPa)
#
#
# Indices 1 2 3 4 5 6 
#
# 1 216.2259 114.7482 86.9638 0.0000 0.0000 0.0000
# 2 114.7482 186.6966 82.0261 0.0000 0.0000 0.0000
# 3 86.9638 82.0261 105.4969 0.0000 0.0000 0.0000
# 4 0.0000 0.0000 0.0000 40.3710 0.0000 0.0000
# 5 0.0000 0.0000 0.0000 0.0000 62.0264 0.0000
# 6 0.0000 0.0000 0.0000 0.0000 0.0000 20.8034
#
#
#
# Elastic Compliance Matrix: (Units=1/GPa)
#
#
# Indices 1 2 3 4 5 6 
#
# 1 0.007907 -0.003032 -0.004161 0.000000 0.000000 0.000000
# 2 -0.003032 0.009298 -0.004730 0.000000 0.000000 0.000000
# 3 -0.004161 -0.004730 0.016586 0.000000 0.000000 0.000000
# 4 0.000000 0.000000 0.000000 0.024770 0.000000 0.000000
# 5 0.000000 0.000000 0.000000 0.000000 0.016122 0.000000
# 6 0.000000 0.000000 0.000000 0.000000 0.000000 0.048069
#
#
# Mechanical properties :
#
#
# Convention : Reuss Voigt Hill
#
# Bulk Modulus (GPa) = 100.54093 119.54398 110.04246
# Shear Modulus (GPa) = 33.35247 39.61891 36.48569
#
# Velocity S-wave (km/s) = 4.30429 4.69125 4.50193
# Velocity P-wave (km/s) = 8.97507 9.78514 9.38884
#
# Compressibility (1/GPa) = 0.00994620
#
# Stress axis : x y z
#
# Youngs Moduli (GPa) = 126.46716 107.55054 60.29007
#
# Poissons Ratio (x) = 0.32608 0.25085
# Poissons Ratio (y) = 0.38344 0.28518
# Poissons Ratio (z) = 0.52619 0.50872
#
# Static dielectric constant tensor:
#      x y z
#    x 1.576790 0.000000 0.000000 
#    y 0.000000 1.585590 0.000000 
#    z 0.000000 0.000000 1.725950 
# 
# From -- ./inp_files/4151.got.cif
#   From: 2010.05.17/outbox.cif.g08.bks.cpg/sg53_3_cif.got.tgz:4151.got - 2010.06.03 12:45:16.
