data_PCOD9419111
_publ_section_title
;
Structure prediction by ZEFSAII (Michael W. Deem and Ramdas Pophale) SiO2 
 PCOD9419111
Probable space group: P M N A
;
_chemical_formula_sum "Si O2"
_cell_formula_units_Z 28
_cell_length_a 8.440276
_cell_length_b 5.133001
_cell_length_c 27.573521
_cell_angle_alpha 90.000000
_cell_angle_beta 90.000000
_cell_angle_gamma 90.000000
_cell_volume 1194.593711
_symmetry_space_group_name_H-M "P M N A"
_symmetry_group_IT_number 53
_symmetry_cell_setting 'orthorhombic'
loop_
_space_group_symop_operation_xyz
x,y,z
1/2-x,-y,1/2+z
x,-y,-z
1/2-x,y,1/2-z
-x,-y,-z
1/2+x,y,1/2-z
-x,y,z
1/2+x,-y,1/2+z
loop_
_atom_site_type_symbol
_atom_site_label
_atom_site_fract_x
_atom_site_fract_y
_atom_site_fract_z
Si Si1 0.815138 0.727786 0.696449
Si Si2 0.324633 0.433835 0.443090
Si Si3 0.817903 0.781921 0.145126
Si Si4 0.500000 0.753701 0.965292
O O1 0.750000 0.783516 0.750000
O O2 0.786464 0.981992 0.663861
O O3 0.000000 0.664938 0.698647
O O4 0.724962 0.480436 0.674249
O O5 0.332397 0.500000 0.500000
O O6 0.500000 0.323511 0.429658
O O7 0.302610 0.691760 0.410714
O O8 0.165242 0.266223 0.436404
O O9 0.000000 0.852655 0.154496
O O10 0.500000 0.500000 0.000000
O O11 0.500000 0.000000 0.000000
#
# Coordination Sequence:
#
# PCOD9419111 Si02
#       4
#     8   8   8   4
#     4  12  26  45  70  99 135 175 224 283 345 412
#     4   9  21  42  67  97 137 181 226 276 333 398
#     4  11  24  44  70 100 136 179 227 279 340 409
#     4  10  22  38  60  90 126 170 218 270 320 382
#
# _framework density 23.438931
#
# number of rings (size 3 to 8) (size 9 to 14) (size 15 to 20)
#    0.000    1.429    0.000    4.286    4.000    5.143 
#    0.000    8.571    0.000    0.000    0.000    0.000 
#    0.000    0.000    0.000    0.000    0.000    0.000 
#
# Total GULP energy -156749.326941 kJ/mol
# GULP energy per Si atom -5598.190248 kJ/mol
# Density = 2.338558 g / cm^3
# Si number density = 23.438931 Si / 1000 Ang^3
#
#
#
# Elastic Constant Matrix: (Units=GPa)
#
#
# Indices 1 2 3 4 5 6 
#
# 1 155.5836 8.4625 10.3344 0.0000 0.0000 0.0000
# 2 8.4625 105.8860 34.5688 0.0000 0.0000 0.0000
# 3 10.3344 34.5688 137.9248 0.0000 0.0000 0.0000
# 4 0.0000 0.0000 0.0000 31.2479 0.0000 0.0000
# 5 0.0000 0.0000 0.0000 0.0000 30.9126 0.0000
# 6 0.0000 0.0000 0.0000 0.0000 0.0000 21.5123
#
#
#
# Elastic Compliance Matrix: (Units=1/GPa)
#
#
# Indices 1 2 3 4 5 6 
#
# 1 0.006474 -0.000391 -0.000387 0.000000 0.000000 0.000000
# 2 -0.000391 0.010309 -0.002555 0.000000 0.000000 0.000000
# 3 -0.000387 -0.002555 0.007920 0.000000 0.000000 0.000000
# 4 0.000000 0.000000 0.000000 0.032002 0.000000 0.000000
# 5 0.000000 0.000000 0.000000 0.000000 0.032349 0.000000
# 6 0.000000 0.000000 0.000000 0.000000 0.000000 0.046485
#
#
# Mechanical properties :
#
#
# Convention : Reuss Voigt Hill
#
# Bulk Modulus (GPa) = 55.43891 56.23620 55.83755
# Shear Modulus (GPa) = 33.73408 39.80313 36.76860
#
# Velocity S-wave (km/s) = 3.79784 4.12535 3.96498
# Velocity P-wave (km/s) = 6.55250 6.83638 6.69594
#
# Compressibility (1/GPa) = 0.01803787
#
# Stress axis : x y z
#
# Youngs Moduli (GPa) = 154.45461 96.99904 126.26894
#
# Poissons Ratio (x) = 0.03793 0.04888
# Poissons Ratio (y) = 0.06040 0.32257
# Poissons Ratio (z) = 0.05979 0.24779
#
# Static dielectric constant tensor:
#      x y z
#    x 1.914710 0.000000 0.000000 
#    y 0.000000 1.804730 0.000000 
#    z 0.000000 0.000000 1.885420 
# 
# From -- ./inp_files/35877.got.cif
#   From: 2010.05.17/outbox.cif.g08.bks.cpg/sg53_18_cif.got.tgz:35877.got - 2010.06.03 12:45:16.
