data_PCOD9419649
_publ_section_title
;
Structure prediction by ZEFSAII (Michael W. Deem and Ramdas Pophale) SiO2 
 PCOD9419649
Probable space group: P M N A
;
_chemical_formula_sum "Si O2"
_cell_formula_units_Z 40
_cell_length_a 21.388400
_cell_length_b 5.073288
_cell_length_c 20.639537
_cell_angle_alpha 90.000000
_cell_angle_beta 90.000000
_cell_angle_gamma 90.000000
_cell_volume 2239.586110
_symmetry_space_group_name_H-M "P M N A"
_symmetry_group_IT_number 53
_symmetry_cell_setting 'orthorhombic'
loop_
_space_group_symop_operation_xyz
x,y,z
1/2-x,-y,1/2+z
x,-y,-z
1/2-x,y,1/2-z
-x,-y,-z
1/2+x,y,1/2-z
-x,y,z
1/2+x,-y,1/2+z
loop_
_atom_site_type_symbol
_atom_site_label
_atom_site_fract_x
_atom_site_fract_y
_atom_site_fract_z
Si Si1 0.352799 0.104651 0.230144
Si Si2 0.427777 0.378318 0.811415
Si Si3 0.604120 0.745314 0.042014
Si Si4 0.748645 0.647019 0.436252
Si Si5 0.731017 0.867644 0.646327
O O1 0.387895 0.358474 0.201223
O O2 0.323163 0.154396 0.300465
O O3 0.294011 0.040084 0.183395
O O4 0.398598 0.856700 0.230602
O O5 0.500000 0.427937 0.796821
O O6 0.421543 0.278436 0.885640
O O7 0.679650 0.725383 0.048109
O O8 0.582042 0.500000 0.000000
O O9 0.588206 0.000000 0.000000
O O10 0.722611 0.500000 0.500000
O O11 0.745787 0.418642 0.382526
O O12 0.717936 0.913176 0.408603
#
# Coordination Sequence:
#
# PCOD9419649 Si02
#       5
#     8   8   8   8   8
#     4  11  22  38  56  81 107 146 192 229 291 326
#     4  12  24  39  55  77 112 149 199 240 269 320
#     4  11  21  34  52  73 109 151 193 228 260 306
#     4  11  20  33  55  85 115 144 179 226 283 331
#     4  11  20  36  59  80 111 143 183 233 278 353
#
# _framework density 17.860443
#
# number of rings (size 3 to 8) (size 9 to 14) (size 15 to 20)
#    0.000    0.800    4.000    6.000    0.000    4.000 
#    0.000    0.000    0.000    0.000    0.000    0.000 
#    0.000   56.000    0.000    0.000    0.000    0.000 
#
# Total GULP energy -223518.144071 kJ/mol
# GULP energy per Si atom -5587.953602 kJ/mol
# Density = 1.781979 g / cm^3
# Si number density = 17.860443 Si / 1000 Ang^3
#
#
#
# Elastic Constant Matrix: (Units=GPa)
#
#
# Indices 1 2 3 4 5 6 
#
# 1 68.5561 25.9665 36.6610 0.0000 0.0000 0.0000
# 2 25.9665 111.9368 18.9250 0.0000 0.0000 0.0000
# 3 36.6610 18.9250 50.9317 0.0000 0.0000 0.0000
# 4 0.0000 0.0000 0.0000 29.3324 0.0000 0.0000
# 5 0.0000 0.0000 0.0000 0.0000 8.4277 0.0000
# 6 0.0000 0.0000 0.0000 0.0000 0.0000 8.4357
#
#
#
# Elastic Compliance Matrix: (Units=1/GPa)
#
#
# Indices 1 2 3 4 5 6 
#
# 1 0.024561 -0.002890 -0.016605 0.000000 0.000000 0.000000
# 2 -0.002890 0.009873 -0.001588 0.000000 0.000000 0.000000
# 3 -0.016605 -0.001588 0.032177 0.000000 0.000000 0.000000
# 4 0.000000 0.000000 0.000000 0.034092 0.000000 0.000000
# 5 0.000000 0.000000 0.000000 0.000000 0.118656 0.000000
# 6 0.000000 0.000000 0.000000 0.000000 0.000000 0.118544
#
#
# Mechanical properties :
#
#
# Convention : Reuss Voigt Hill
#
# Bulk Modulus (GPa) = 40.91075 43.83660 42.37367
# Shear Modulus (GPa) = 12.87937 19.23063 16.05500
#
# Velocity S-wave (km/s) = 2.68827 3.28490 3.00144
# Velocity P-wave (km/s) = 5.70887 6.24377 5.98230
#
# Compressibility (1/GPa) = 0.02444345
#
# Stress axis : x y z
#
# Youngs Moduli (GPa) = 40.71478 101.29110 31.07819
#
# Poissons Ratio (x) = 0.29274 0.51606
# Poissons Ratio (y) = 0.11767 0.04935
# Poissons Ratio (z) = 0.67608 0.16086
#
# Static dielectric constant tensor:
#      x y z
#    x 1.597260 0.000000 0.000000 
#    y 0.000000 1.613100 0.000000 
#    z 0.000000 0.000000 1.623380 
# 
# From -- ./inp_files/29210.got.cif
#   From: 2010.05.17/outbox.cif.g08.bks.cpg/sg53_15_cif.got.tgz:29210.got - 2010.06.03 12:45:16.
