data_PCOD9419373
_publ_section_title
;
Structure prediction by ZEFSAII (Michael W. Deem and Ramdas Pophale) SiO2 
 PCOD9419373
Probable space group: P M N A
;
_chemical_formula_sum "Si O2"
_cell_formula_units_Z 28
_cell_length_a 20.323940
_cell_length_b 5.494895
_cell_length_c 10.530855
_cell_angle_alpha 90.000000
_cell_angle_beta 90.000000
_cell_angle_gamma 90.000000
_cell_volume 1176.063943
_symmetry_space_group_name_H-M "P M N A"
_symmetry_group_IT_number 53
_symmetry_cell_setting 'orthorhombic'
loop_
_space_group_symop_operation_xyz
x,y,z
1/2-x,-y,1/2+z
x,-y,-z
1/2-x,y,1/2-z
-x,-y,-z
1/2+x,y,1/2-z
-x,y,z
1/2+x,-y,1/2+z
loop_
_atom_site_type_symbol
_atom_site_label
_atom_site_fract_x
_atom_site_fract_y
_atom_site_fract_z
Si Si1 0.000000 0.931470 0.849300
Si Si2 0.233850 0.816783 0.616818
Si Si3 0.500000 0.213666 0.894838
Si Si4 0.875951 0.736241 0.926891
Si Si5 0.621875 0.500000 0.000000
O O1 0.932380 0.789693 0.824804
O O2 0.000000 0.148938 0.752476
O O3 0.000000 0.000000 0.000000
O O4 0.250000 0.952317 0.750000
O O5 0.302148 0.667498 0.611412
O O6 0.170630 0.647736 0.594156
O O7 0.229532 0.000000 0.500000
O O8 0.430214 0.341955 0.920782
O O9 0.500000 0.000000 0.000000
O O10 0.901853 0.500000 0.000000
O O11 0.869184 0.000000 0.000000
#
# Coordination Sequence:
#
# PCOD9419373 Si02
#       5
#     4   8   4   8   4
#     4  10  24  45  74 105 151 197 261 326 385 469
#     4  11  26  46  74 111 157 206 262 328 396 482
#     4  11  27  51  76 111 152 209 264 329 407 473
#     4  10  22  44  67 110 150 201 253 320 391 463
#     4  11  26  50  76 109 160 212 266 323 404 502
#
# _framework density 23.808228
#
# number of rings (size 3 to 8) (size 9 to 14) (size 15 to 20)
#    0.000    1.429    1.429    1.286    8.000    5.714 
#   10.286    0.000    0.000    0.000    0.000    0.000 
#    0.000    0.000    0.000    0.000    0.000    0.000 
#
# Total GULP energy -155971.644804 kJ/mol
# GULP energy per Si atom -5570.415886 kJ/mol
# Density = 2.375404 g / cm^3
# Si number density = 23.808228 Si / 1000 Ang^3
#
#
#
# Elastic Constant Matrix: (Units=GPa)
#
#
# Indices 1 2 3 4 5 6 
#
# 1 253.5395 51.9358 45.1582 0.0000 0.0000 0.0000
# 2 51.9358 83.7912 49.9426 0.0000 0.0000 0.0000
# 3 45.1582 49.9426 155.2396 0.0000 0.0000 0.0000
# 4 0.0000 0.0000 0.0000 32.2263 0.0000 0.0000
# 5 0.0000 0.0000 0.0000 0.0000 27.1290 0.0000
# 6 0.0000 0.0000 0.0000 0.0000 0.0000 26.3157
#
#
#
# Elastic Compliance Matrix: (Units=1/GPa)
#
#
# Indices 1 2 3 4 5 6 
#
# 1 0.004551 -0.002514 -0.000515 0.000000 0.000000 0.000000
# 2 -0.002514 0.016154 -0.004466 0.000000 0.000000 0.000000
# 3 -0.000515 -0.004466 0.008028 0.000000 0.000000 0.000000
# 4 0.000000 0.000000 0.000000 0.031031 0.000000 0.000000
# 5 0.000000 0.000000 0.000000 0.000000 0.036861 0.000000
# 6 0.000000 0.000000 0.000000 0.000000 0.000000 0.038000
#
#
# Mechanical properties :
#
#
# Convention : Reuss Voigt Hill
#
# Bulk Modulus (GPa) = 72.75874 87.40483 80.08178
# Shear Modulus (GPa) = 32.42635 40.16977 36.29806
#
# Velocity S-wave (km/s) = 3.69451 4.11204 3.90885
# Velocity P-wave (km/s) = 6.98755 7.70304 7.35400
#
# Compressibility (1/GPa) = 0.01374405
#
# Stress axis : x y z
#
# Youngs Moduli (GPa) = 219.74089 61.90320 124.56075
#
# Poissons Ratio (x) = 0.15560 0.06416
# Poissons Ratio (y) = 0.55236 0.55627
# Poissons Ratio (z) = 0.11319 0.27645
#
# Static dielectric constant tensor:
#      x y z
#    x 1.957150 0.000000 0.000000 
#    y 0.000000 2.067780 0.000000 
#    z 0.000000 0.000000 1.289230 
# 
# From -- ./inp_files/17348.got.cif
#   From: 2010.05.17/outbox.cif.g08.bks.cpg/sg53_9_cif.got.tgz:17348.got - 2010.06.03 12:45:16.
