data_PCOD9419928
_publ_section_title
;
Structure prediction by ZEFSAII (Michael W. Deem and Ramdas Pophale) SiO2 
 PCOD9419928
Probable space group: P M N A
;
_chemical_formula_sum "Si O2"
_cell_formula_units_Z 64
_cell_length_a 18.771460
_cell_length_b 20.680284
_cell_length_c 7.845376
_cell_angle_alpha 90.000000
_cell_angle_beta 90.000000
_cell_angle_gamma 90.000000
_cell_volume 3045.568090
_symmetry_space_group_name_H-M "P M N A"
_symmetry_group_IT_number 53
_symmetry_cell_setting 'orthorhombic'
loop_
_space_group_symop_operation_xyz
x,y,z
1/2-x,-y,1/2+z
x,-y,-z
1/2-x,y,1/2-z
-x,-y,-z
1/2+x,y,1/2-z
-x,y,z
1/2+x,-y,1/2+z
loop_
_atom_site_type_symbol
_atom_site_label
_atom_site_fract_x
_atom_site_fract_y
_atom_site_fract_z
Si Si1 0.670534 0.413884 0.184594
Si Si2 0.416384 0.101763 0.541732
Si Si3 0.913104 0.062234 0.610961
Si Si4 0.417853 0.469703 0.688970
Si Si5 0.670053 0.647005 0.187129
Si Si6 0.921709 0.244077 0.803417
Si Si7 0.913108 0.843239 0.684035
Si Si8 0.918688 0.296855 0.186803
O O1 0.750000 0.427373 0.250000
O O2 0.623711 0.478060 0.198469
O O3 0.632710 0.356981 0.290369
O O4 0.671492 0.385433 0.996486
O O5 0.500000 0.085303 0.516333
O O6 0.387178 0.056156 0.692606
O O7 0.411950 0.169827 0.644602
O O8 0.388191 0.116069 0.351840
O O9 0.891083 0.123464 0.492922
O O10 0.000000 0.064812 0.621190
O O11 0.894228 0.000000 0.500000
O O12 0.416212 0.500000 0.500000
O O13 0.500000 0.461419 0.740418
O O14 0.377266 0.401945 0.700073
O O15 0.750000 0.651225 0.250000
O O16 0.634675 0.717591 0.192250
O O17 0.000000 0.250508 0.723136
O O18 0.921711 0.277537 0.989042
O O19 0.894203 0.768172 0.714187
O O20 0.000000 0.844345 0.689922
O O21 0.000000 0.313296 0.240933
#
# Coordination Sequence:
#
# PCOD9419928 Si02
#       8
#     8   8   8   8   8   8   8   8
#     4  12  25  39  57  81 111 144 178 226 274 326
#     4   8  15  27  43  65  97 137 177 220 270 323
#     4   9  16  24  38  64 100 139 179 221 265 323
#     4  11  24  43  64  83 109 143 180 221 268 325
#     4  12  25  39  57  81 111 144 178 226 274 326
#     4   9  18  34  55  78 105 140 181 225 274 328
#     4   8  15  27  43  65  97 137 177 220 270 323
#     4   9  18  34  55  78 105 140 181 225 274 328
#
# _framework density 21.014143000000001
#
# number of rings (size 3 to 8) (size 9 to 14) (size 15 to 20)
#    0.000    2.250    0.000    5.250    1.750    5.000 
#    0.000    2.500    0.000    0.000    0.000    0.000 
#    0.000    1.000    0.500    0.000    0.000    0.000 
#
# Total GULP energy -357243.843243 kJ/mol
# GULP energy per Si atom -5581.935051 kJ/mol
# Density = 2.096631 g / cm^3
# Si number density = 21.014143 Si / 1000 Ang^3
#
#
#
# Elastic Constant Matrix: (Units=GPa)
#
#
# Indices 1 2 3 4 5 6 
#
# 1 69.8974 7.1787 -0.1848 0.0000 0.0000 0.0000
# 2 7.1787 30.8594 -19.8377 0.0000 0.0000 0.0000
# 3 -0.1848 -19.8377 71.6621 0.0000 0.0000 0.0000
# 4 0.0000 0.0000 0.0000 47.9864 0.0000 0.0000
# 5 0.0000 0.0000 0.0000 0.0000 -18.4959 0.0000
# 6 0.0000 0.0000 0.0000 0.0000 0.0000 -14.3430
#
#
#
# Elastic Compliance Matrix: (Units=1/GPa)
#
#
# Indices 1 2 3 4 5 6 
#
# 1 0.014729 -0.004138 -0.001108 0.000000 0.000000 0.000000
# 2 -0.004138 0.040583 0.011224 0.000000 0.000000 0.000000
# 3 -0.001108 0.011224 0.017058 0.000000 0.000000 0.000000
# 4 0.000000 0.000000 0.000000 0.020839 0.000000 0.000000
# 5 0.000000 0.000000 0.000000 0.000000 -0.054066 0.000000
# 6 0.000000 0.000000 0.000000 0.000000 0.000000 -0.069720
#
#
# Mechanical properties :
#
#
# Convention : Reuss Voigt Hill
#
# Bulk Modulus (GPa) = 11.85885 16.30348 14.08116
# Shear Modulus (GPa) = -346.64573 15.38032 -165.63270
#
# Velocity S-wave (km/s) = -12.85754 2.70831 -8.88767
# Velocity P-wave (km/s) = 14.65491 4.18988 9.93004
#
# Compressibility (1/GPa) = 0.08432524
#
# Stress axis : x y z
#
# Youngs Moduli (GPa) = 67.89425 24.64101 58.62191
#
# Poissons Ratio (x) = 0.10197 0.06493
# Poissons Ratio (y) = 0.28097 -0.65795
# Poissons Ratio (z) = 0.07520 -0.27656
#
# Static dielectric constant tensor:
#      x y z
#    x 1.714020 0.000000 0.000000 
#    y 0.000000 1.808350 0.000000 
#    z 0.000000 0.000000 1.851180 
# 
# From -- ./inp_files/10271.got.cif
#   From: 2010.05.17/outbox.cif.g08.bks.cpg/sg53_6_cif.got.tgz:10271.got - 2010.06.03 12:45:16.
