data_PCOD9419779
_publ_section_title
;
Structure prediction by ZEFSAII (Michael W. Deem and Ramdas Pophale) SiO2 
 PCOD9419779
Probable space group: P M N A
;
_chemical_formula_sum "Si O2"
_cell_formula_units_Z 32
_cell_length_a 18.450336
_cell_length_b 7.313027
_cell_length_c 11.638761
_cell_angle_alpha 90.000000
_cell_angle_beta 90.000000
_cell_angle_gamma 90.000000
_cell_volume 1570.392478
_symmetry_space_group_name_H-M "P M N A"
_symmetry_group_IT_number 53
_symmetry_cell_setting 'orthorhombic'
loop_
_space_group_symop_operation_xyz
x,y,z
1/2-x,-y,1/2+z
x,-y,-z
1/2-x,y,1/2-z
-x,-y,-z
1/2+x,y,1/2-z
-x,y,z
1/2+x,-y,1/2+z
loop_
_atom_site_type_symbol
_atom_site_label
_atom_site_fract_x
_atom_site_fract_y
_atom_site_fract_z
Si Si1 0.159357 0.692255 0.461891
Si Si2 0.181484 0.428553 0.875784
Si Si3 0.826631 0.796466 0.722684
Si Si4 0.915161 0.133832 0.751042
O O1 0.124294 0.500000 0.500000
O O2 0.235806 0.642786 0.398332
O O3 0.172961 0.782227 0.585068
O O4 0.109624 0.805443 0.376793
O O5 0.175078 0.600818 0.788087
O O6 0.131706 0.265143 0.832425
O O7 0.157547 0.500000 0.000000
O O8 0.750000 0.890891 0.750000
O O9 0.890922 0.924342 0.765252
O O10 0.000000 0.158762 0.767400
#
# Coordination Sequence:
#
# PCOD9419779 Si02
#       4
#     8   8   8   8
#     4  11  21  43  75 100 123 168 228 287 332 376
#     4  11  23  45  73  99 128 174 233 283 324 385
#     4  12  22  42  73 101 128 169 226 284 336 383
#     4  12  28  43  62 101 144 179 217 266 338 412
#
# _framework density 20.377071999999998
#
# number of rings (size 3 to 8) (size 9 to 14) (size 15 to 20)
#    0.000    0.500    7.500    3.000    0.000    5.000 
#    0.000    1.250    0.000    0.000    0.000    0.000 
#    0.000    0.000    0.000    0.000    0.000    0.000 
#
# Total GULP energy -178795.452828 kJ/mol
# GULP energy per Si atom -5587.357901 kJ/mol
# Density = 2.033069 g / cm^3
# Si number density = 20.377072 Si / 1000 Ang^3
#
#
#
# Elastic Constant Matrix: (Units=GPa)
#
#
# Indices 1 2 3 4 5 6 
#
# 1 86.8021 52.4387 30.8164 0.0000 0.0000 0.0000
# 2 52.4387 103.7225 31.4421 0.0000 0.0000 0.0000
# 3 30.8164 31.4421 101.6342 0.0000 0.0000 0.0000
# 4 0.0000 0.0000 0.0000 21.4146 0.0000 0.0000
# 5 0.0000 0.0000 0.0000 0.0000 11.7668 0.0000
# 6 0.0000 0.0000 0.0000 0.0000 0.0000 -277.9261
#
#
#
# Elastic Compliance Matrix: (Units=1/GPa)
#
#
# Indices 1 2 3 4 5 6 
#
# 1 0.017279 -0.007887 -0.002799 0.000000 0.000000 0.000000
# 2 -0.007887 0.014239 -0.002014 0.000000 0.000000 0.000000
# 3 -0.002799 -0.002014 0.011311 0.000000 0.000000 0.000000
# 4 0.000000 0.000000 0.000000 0.046697 0.000000 0.000000
# 5 0.000000 0.000000 0.000000 0.000000 0.084985 0.000000
# 6 0.000000 0.000000 0.000000 0.000000 0.000000 -0.003598
#
#
# Mechanical properties :
#
#
# Convention : Reuss Voigt Hill
#
# Bulk Modulus (GPa) = 57.37540 57.95034 57.66287
# Shear Modulus (GPa) = 24.73751 -37.11818 -6.19033
#
# Velocity S-wave (km/s) = 3.48801 -4.27261 -1.74485
# Velocity P-wave (km/s) = 6.66630 2.03972 4.92951
#
# Compressibility (1/GPa) = 0.01742907
#
# Stress axis : x y z
#
# Youngs Moduli (GPa) = 57.87382 70.22965 88.41056
#
# Poissons Ratio (x) = 0.55391 0.24747
# Poissons Ratio (y) = 0.45646 0.17802
# Poissons Ratio (z) = 0.16200 0.14141
#
# Static dielectric constant tensor:
#      x y z
#    x 1.694400 0.000000 0.000000 
#    y 0.000000 1.774590 0.000000 
#    z 0.000000 0.000000 1.863870 
# 
# From -- ./inp_files/15418.got.cif
#   From: 2010.05.17/outbox.cif.g08.bks.cpg/sg53_8_cif.got.tgz:15418.got - 2010.06.03 12:45:16.
