data_PCOD9419003
_publ_section_title
;
Structure prediction by ZEFSAII (Michael W. Deem and Ramdas Pophale) SiO2 
 PCOD9419003
Probable space group: P M N A
;
_chemical_formula_sum "Si O2"
_cell_formula_units_Z 52
_cell_length_a 19.486067
_cell_length_b 21.792696
_cell_length_c 6.355191
_cell_angle_alpha 90.000000
_cell_angle_beta 90.000000
_cell_angle_gamma 90.000000
_cell_volume 2698.756862
_symmetry_space_group_name_H-M "P M N A"
_symmetry_group_IT_number 53
_symmetry_cell_setting 'orthorhombic'
loop_
_space_group_symop_operation_xyz
x,y,z
1/2-x,-y,1/2+z
x,-y,-z
1/2-x,y,1/2-z
-x,-y,-z
1/2+x,y,1/2-z
-x,y,z
1/2+x,-y,1/2+z
loop_
_atom_site_type_symbol
_atom_site_label
_atom_site_fract_x
_atom_site_fract_y
_atom_site_fract_z
Si Si1 0.426775 0.446747 0.170110
Si Si2 0.920906 0.217046 0.866112
Si Si3 0.680767 0.134083 0.893194
Si Si4 0.884237 0.671960 0.414183
Si Si5 0.250000 0.395153 0.750000
Si Si6 0.675190 0.235169 0.235554
Si Si7 0.181200 0.500000 0.000000
Si Si8 0.715809 0.000000 0.000000
O O1 0.500000 0.441869 0.285971
O O2 0.367398 0.468548 0.325820
O O3 0.429896 0.500000 0.000000
O O4 0.417280 0.385812 0.030682
O O5 0.884946 0.164773 0.721013
O O6 0.920547 0.284466 0.756584
O O7 0.000000 0.202014 0.919537
O O8 0.867345 0.221749 0.057090
O O9 0.750000 0.141133 0.750000
O O10 0.689180 0.174174 0.101942
O O11 0.675991 0.063152 0.958221
O O12 0.814141 0.646520 0.312198
O O13 0.869486 0.719437 0.598478
O O14 0.227663 0.443274 0.928027
O O15 0.750000 0.265667 0.250000
O O16 0.750000 0.008219 0.250000
#
# Coordination Sequence:
#
# PCOD9419003 Si02
#       8
#     8   8   8   8   4   8   4   4
#     4  11  24  44  63  86 119 163 208 259 329 409
#     4  11  25  44  66  98 140 179 225 284 348 411
#     4  10  21  41  69 102 141 181 233 284 335 402
#     4  11  25  41  61  91 125 162 216 273 338 410
#     4  12  24  42  64  92 118 160 204 276 338 406
#     4  11  22  38  67  94 129 175 226 280 337 404
#     4  12  25  44  62  90 123 158 206 276 338 404
#     4  10  22  38  73 114 149 190 248 302 348 408
#
# _framework density 19.268132000000001
#
# number of rings (size 3 to 8) (size 9 to 14) (size 15 to 20)
#    0.000    1.077    3.077    3.000    8.615    3.077 
#    0.000    0.385    0.000    0.923    0.000    0.000 
#    0.000    0.000    0.000    0.000    0.000    0.000 
#
# Total GULP energy -289590.025526 kJ/mol
# GULP energy per Si atom -5569.038952 kJ/mol
# Density = 1.922428 g / cm^3
# Si number density = 19.268132 Si / 1000 Ang^3
#
#
#
# Elastic Constant Matrix: (Units=GPa)
#
#
# Indices 1 2 3 4 5 6 
#
# 1 97.4085 20.4154 29.8270 0.0000 0.0000 0.0000
# 2 20.4154 140.8391 31.4313 0.0000 0.0000 0.0000
# 3 29.8270 31.4313 83.8435 0.0000 0.0000 0.0000
# 4 0.0000 0.0000 0.0000 -10.1554 0.0000 0.0000
# 5 0.0000 0.0000 0.0000 0.0000 88.3972 0.0000
# 6 0.0000 0.0000 0.0000 0.0000 0.0000 -8.5376
#
#
#
# Elastic Compliance Matrix: (Units=1/GPa)
#
#
# Indices 1 2 3 4 5 6 
#
# 1 0.011609 -0.000831 -0.003819 0.000000 0.000000 0.000000
# 2 -0.000831 0.007808 -0.002632 0.000000 0.000000 0.000000
# 3 -0.003819 -0.002632 0.014272 0.000000 0.000000 0.000000
# 4 0.000000 0.000000 0.000000 -0.098470 0.000000 0.000000
# 5 0.000000 0.000000 0.000000 0.000000 0.011313 0.000000
# 6 0.000000 0.000000 0.000000 0.000000 0.000000 -0.117129
#
#
# Mechanical properties :
#
#
# Convention : Reuss Voigt Hill
#
# Bulk Modulus (GPa) = 52.28012 53.93761 53.10887
# Shear Modulus (GPa) = -33.40926 29.96868 -1.72029
#
# Velocity S-wave (km/s) = -4.16855 3.94807 -0.94592
# Velocity P-wave (km/s) = 2.00570 6.98834 5.14100
#
# Compressibility (1/GPa) = 0.01912773
#
# Stress axis : x y z
#
# Youngs Moduli (GPa) = 86.13698 128.07387 70.06742
#
# Poissons Ratio (x) = 0.10638 0.26756
# Poissons Ratio (y) = 0.07155 0.18439
# Poissons Ratio (z) = 0.32892 0.33703
#
# Static dielectric constant tensor:
#      x y z
#    x 1.913930 0.000000 0.000000 
#    y 0.000000 1.635200 0.000000 
#    z 0.000000 0.000000 1.732180 
# 
# From -- ./inp_files/3032.got.cif
#   From: 2010.05.17/outbox.cif.g08.bks.cpg/sg53_2_cif.got.tgz:3032.got - 2010.06.03 12:45:16.
