data_PCOD9419506
_publ_section_title
;
Structure prediction by ZEFSAII (Michael W. Deem and Ramdas Pophale) SiO2 
 PCOD9419506
Probable space group: P M N A
;
_chemical_formula_sum "Si O2"
_cell_formula_units_Z 32
_cell_length_a 18.710055
_cell_length_b 11.898962
_cell_length_c 6.775891
_cell_angle_alpha 90.000000
_cell_angle_beta 90.000000
_cell_angle_gamma 90.000000
_cell_volume 1508.518195
_symmetry_space_group_name_H-M "P M N A"
_symmetry_group_IT_number 53
_symmetry_cell_setting 'orthorhombic'
loop_
_space_group_symop_operation_xyz
x,y,z
1/2-x,-y,1/2+z
x,-y,-z
1/2-x,y,1/2-z
-x,-y,-z
1/2+x,y,1/2-z
-x,y,z
1/2+x,-y,1/2+z
loop_
_atom_site_type_symbol
_atom_site_label
_atom_site_fract_x
_atom_site_fract_y
_atom_site_fract_z
Si Si1 0.584985 0.735903 0.096994
Si Si2 0.417057 0.976950 0.234833
Si Si3 0.822699 0.385707 0.877062
Si Si4 0.668378 0.192519 0.295506
O O1 0.500000 0.734433 0.059549
O O2 0.613405 0.630371 0.220074
O O3 0.600924 0.845259 0.234927
O O4 0.628623 0.753198 0.894814
O O5 0.500000 0.990727 0.285379
O O6 0.373105 0.076180 0.337131
O O7 0.409952 0.000000 0.000000
O O8 0.750000 0.378270 0.750000
O O9 0.824935 0.500000 0.000000
O O10 0.827630 0.285587 0.035417
O O11 0.750000 0.161380 0.250000
#
# Coordination Sequence:
#
# PCOD9419506 Si02
#       4
#     8   8   8   8
#     4  10  23  45  70 104 142 176 221 279 344 411
#     4   8  17  37  65  97 139 176 204 261 340 404
#     4  12  27  45  69  95 132 183 238 290 349 400
#     4  11  21  40  68 100 135 181 227 277 336 411
#
# _framework density 21.212871
#
# number of rings (size 3 to 8) (size 9 to 14) (size 15 to 20)
#    0.000    1.750    2.500    3.000    0.000    4.500 
#    4.500    3.750    0.000    0.000    0.000    0.000 
#    0.000    0.000    0.000    0.000    0.000    0.000 
#
# Total GULP energy -178747.301191 kJ/mol
# GULP energy per Si atom -5585.853162 kJ/mol
# Density = 2.116459 g / cm^3
# Si number density = 21.212871 Si / 1000 Ang^3
#
#
#
# Elastic Constant Matrix: (Units=GPa)
#
#
# Indices 1 2 3 4 5 6 
#
# 1 115.9945 73.6584 70.3092 0.0000 0.0000 0.0000
# 2 73.6584 117.2898 81.9079 0.0000 0.0000 0.0000
# 3 70.3092 81.9079 116.3686 0.0000 0.0000 0.0000
# 4 0.0000 0.0000 0.0000 54.1702 0.0000 0.0000
# 5 0.0000 0.0000 0.0000 0.0000 28.3456 0.0000
# 6 0.0000 0.0000 0.0000 0.0000 0.0000 26.3919
#
#
#
# Elastic Compliance Matrix: (Units=1/GPa)
#
#
# Indices 1 2 3 4 5 6 
#
# 1 0.015694 -0.006361 -0.005005 0.000000 0.000000 0.000000
# 2 -0.006361 0.019346 -0.009774 0.000000 0.000000 0.000000
# 3 -0.005005 -0.009774 0.018497 0.000000 0.000000 0.000000
# 4 0.000000 0.000000 0.000000 0.018460 0.000000 0.000000
# 5 0.000000 0.000000 0.000000 0.000000 0.035279 0.000000
# 6 0.000000 0.000000 0.000000 0.000000 0.000000 0.037890
#
#
# Mechanical properties :
#
#
# Convention : Reuss Voigt Hill
#
# Bulk Modulus (GPa) = 88.82944 89.04488 88.93716
# Shear Modulus (GPa) = 26.15087 30.03337 28.09212
#
# Velocity S-wave (km/s) = 3.51491 3.76681 3.64304
# Velocity P-wave (km/s) = 7.64454 7.80938 7.72740
#
# Compressibility (1/GPa) = 0.01125753
#
# Stress axis : x y z
#
# Youngs Moduli (GPa) = 63.71837 51.69095 54.06277
#
# Poissons Ratio (x) = 0.32878 0.27060
# Poissons Ratio (y) = 0.40528 0.52840
# Poissons Ratio (z) = 0.31893 0.50522
#
# Static dielectric constant tensor:
#      x y z
#    x 1.725250 0.000000 0.000000 
#    y 0.000000 1.785260 0.000000 
#    z 0.000000 0.000000 1.827730 
# 
# From -- ./inp_files/8004.got.cif
#   From: 2010.05.17/outbox.cif.g08.bks.cpg/sg53_5_cif.got.tgz:8004.got - 2010.06.03 12:45:16.
