data_PCOD9419603
_publ_section_title
;
Structure prediction by ZEFSAII (Michael W. Deem and Ramdas Pophale) SiO2 
 PCOD9419603
Probable space group: P M N A
;
_chemical_formula_sum "Si O2"
_cell_formula_units_Z 20
_cell_length_a 30.261662
_cell_length_b 5.284862
_cell_length_c 4.970154
_cell_angle_alpha 90.000000
_cell_angle_beta 90.000000
_cell_angle_gamma 90.000000
_cell_volume 794.870306
_symmetry_space_group_name_H-M "P M N A"
_symmetry_group_IT_number 53
_symmetry_cell_setting 'orthorhombic'
loop_
_space_group_symop_operation_xyz
x,y,z
1/2-x,-y,1/2+z
x,-y,-z
1/2-x,y,1/2-z
-x,-y,-z
1/2+x,y,1/2-z
-x,y,z
1/2+x,-y,1/2+z
loop_
_atom_site_type_symbol
_atom_site_label
_atom_site_fract_x
_atom_site_fract_y
_atom_site_fract_z
Si Si1 0.355782 0.822021 0.756322
Si Si2 0.777866 0.500000 0.500000
Si Si3 0.574287 0.500000 0.000000
Si Si4 0.000000 0.248779 0.815331
O O1 0.309637 0.694518 0.842734
O O2 0.352542 0.000000 0.500000
O O3 0.393485 0.609630 0.770498
O O4 0.368537 0.000000 0.000000
O O5 0.750000 0.614761 0.250000
O O6 0.542517 0.286714 0.874477
O O7 0.000000 0.500000 0.000000
O O8 0.000000 0.000000 0.000000
#
# Coordination Sequence:
#
# PCOD9419603 Si02
#       4
#     8   4   4   4
#     4  11  26  46  78 112 154 208 263 328 405 481
#     4  11  24  47  74 113 158 197 262 329 400 483
#     4  10  28  47  74 116 158 204 274 333 400 492
#     4  11  28  49  79 114 164 214 274 340 412 480
#
# _framework density 25.161337
#
# number of rings (size 3 to 8) (size 9 to 14) (size 15 to 20)
#    0.000    1.200    0.000    2.400   11.200    8.000 
#    0.000    3.000    0.000    0.000    0.000    0.000 
#    0.000    0.000    0.000    0.000    0.000    0.000 
#
# Total GULP energy -112069.196010 kJ/mol
# GULP energy per Si atom -5603.459800 kJ/mol
# Density = 2.510407 g / cm^3
# Si number density = 25.161337 Si / 1000 Ang^3
#
#
#
# Elastic Constant Matrix: (Units=GPa)
#
#
# Indices 1 2 3 4 5 6 
#
# 1 181.0608 72.0150 96.9465 0.0000 0.0000 0.0000
# 2 72.0150 147.9783 95.3176 0.0000 0.0000 0.0000
# 3 96.9465 95.3176 232.4946 0.0000 0.0000 0.0000
# 4 0.0000 0.0000 0.0000 77.8059 0.0000 0.0000
# 5 0.0000 0.0000 0.0000 0.0000 -12.9827 0.0000
# 6 0.0000 0.0000 0.0000 0.0000 0.0000 28.5551
#
#
#
# Elastic Compliance Matrix: (Units=1/GPa)
#
#
# Indices 1 2 3 4 5 6 
#
# 1 0.007629 -0.002261 -0.002254 0.000000 0.000000 0.000000
# 2 -0.002261 0.009853 -0.003097 0.000000 0.000000 0.000000
# 3 -0.002254 -0.003097 0.006511 0.000000 0.000000 0.000000
# 4 0.000000 0.000000 0.000000 0.012852 0.000000 0.000000
# 5 0.000000 0.000000 0.000000 0.000000 -0.077026 0.000000
# 6 0.000000 0.000000 0.000000 0.000000 0.000000 0.035020
#
#
# Mechanical properties :
#
#
# Convention : Reuss Voigt Hill
#
# Bulk Modulus (GPa) = 114.03736 121.12133 117.57934
# Shear Modulus (GPa) = 385.02312 38.49264 211.75788
#
# Velocity S-wave (km/s) = 12.38361 3.91555 9.18383
# Velocity P-wave (km/s) = 15.80800 8.28761 12.62096
#
# Compressibility (1/GPa) = 0.00876906
#
# Stress axis : x y z
#
# Youngs Moduli (GPa) = 131.07376 101.49605 153.59063
#
# Poissons Ratio (x) = 0.22945 0.34626
# Poissons Ratio (y) = 0.29632 0.47562
# Poissons Ratio (z) = 0.29550 0.31430
#
# Static dielectric constant tensor:
#      x y z
#    x 2.041930 0.000000 0.000000 
#    y 0.000000 1.920890 0.000000 
#    z 0.000000 0.000000 1.976700 
# 
# From -- ./inp_files/4815.got.cif
#   From: 2010.05.17/outbox.cif.g08.bks.cpg/sg53_3_cif.got.tgz:4815.got - 2010.06.03 12:45:16.
