data_PCOD9419769
_publ_section_title
;
Structure prediction by ZEFSAII (Michael W. Deem and Ramdas Pophale) SiO2 
 PCOD9419769
Probable space group: P M N A
;
_chemical_formula_sum "Si O2"
_cell_formula_units_Z 64
_cell_length_a 29.848711
_cell_length_b 9.710556
_cell_length_c 11.641357
_cell_angle_alpha 90.000000
_cell_angle_beta 90.000000
_cell_angle_gamma 90.000000
_cell_volume 3374.219151
_symmetry_space_group_name_H-M "P M N A"
_symmetry_group_IT_number 53
_symmetry_cell_setting 'orthorhombic'
loop_
_space_group_symop_operation_xyz
x,y,z
1/2-x,-y,1/2+z
x,-y,-z
1/2-x,y,1/2-z
-x,-y,-z
1/2+x,y,1/2-z
-x,y,z
1/2+x,-y,1/2+z
loop_
_atom_site_type_symbol
_atom_site_label
_atom_site_fract_x
_atom_site_fract_y
_atom_site_fract_z
Si Si1 0.445781 0.826611 0.630526
Si Si2 0.852386 0.763267 0.759149
Si Si3 0.380178 0.272849 0.773537
Si Si4 0.165938 0.665995 0.502128
Si Si5 0.760232 0.273929 0.885506
Si Si6 0.161535 0.493227 0.880091
Si Si7 0.947948 0.843671 0.127676
Si Si8 0.172100 0.042521 0.875458
O O1 0.500000 0.795184 0.648382
O O2 0.405851 0.765930 0.709586
O O3 0.431688 0.795441 0.498297
O O4 0.441143 0.992443 0.641929
O O5 0.844343 0.726991 0.626744
O O6 0.828939 0.644705 0.834957
O O7 0.830074 0.906842 0.797995
O O8 0.366640 0.270425 0.905077
O O9 0.365083 0.417609 0.720776
O O10 0.429944 0.239305 0.735989
O O11 0.354581 0.157893 0.696543
O O12 0.161482 0.500000 0.500000
O O13 0.215999 0.702312 0.459336
O O14 0.750000 0.284192 0.750000
O O15 0.796154 0.395098 0.906692
O O16 0.781983 0.123554 0.903085
O O17 0.135397 0.500000 0.000000
O O18 0.000000 0.823948 0.119099
O O19 0.152984 0.000000 0.000000
#
# Coordination Sequence:
#
# PCOD9419769 Si02
#       8
#     8   8   8   8   8   8   8   8
#     4   9  18  35  64 101 136 163 209 268 332 408
#     4  12  23  40  67  98 130 177 220 261 344 397
#     4  11  21  41  62  87 132 165 218 266 318 386
#     4  12  25  46  66  86 126 188 233 267 313 406
#     4  11  22  44  61  84 126 166 220 273 320 376
#     4  11  22  37  64  89 118 169 217 270 325 383
#     4   9  17  34  64  98 132 169 204 266 338 400
#     4  11  23  39  63  95 128 159 205 282 338 383
#
# _framework density 18.967352000000002
#
# number of rings (size 3 to 8) (size 9 to 14) (size 15 to 20)
#    0.000    1.250    5.000    4.125    0.000    1.500 
#    0.000    3.125    0.000    4.500    0.000    0.000 
#    0.000    0.000    0.000    0.000    0.000    0.000 
#
# Total GULP energy -356902.741774 kJ/mol
# GULP energy per Si atom -5576.605340 kJ/mol
# Density = 1.892418 g / cm^3
# Si number density = 18.967352 Si / 1000 Ang^3
#
#
#
# Elastic Constant Matrix: (Units=GPa)
#
#
# Indices 1 2 3 4 5 6 
#
# 1 68.4256 32.0024 52.3212 0.0000 0.0000 0.0000
# 2 32.0024 91.6186 31.0198 0.0000 0.0000 0.0000
# 3 52.3212 31.0198 139.7180 0.0000 0.0000 0.0000
# 4 0.0000 0.0000 0.0000 33.0713 0.0000 0.0000
# 5 0.0000 0.0000 0.0000 0.0000 30.8649 0.0000
# 6 0.0000 0.0000 0.0000 0.0000 0.0000 14.5426
#
#
#
# Elastic Compliance Matrix: (Units=1/GPa)
#
#
# Indices 1 2 3 4 5 6 
#
# 1 0.022765 -0.005477 -0.007309 0.000000 0.000000 0.000000
# 2 -0.005477 0.013120 -0.000862 0.000000 0.000000 0.000000
# 3 -0.007309 -0.000862 0.010086 0.000000 0.000000 0.000000
# 4 0.000000 0.000000 0.000000 0.030238 0.000000 0.000000
# 5 0.000000 0.000000 0.000000 0.000000 0.032399 0.000000
# 6 0.000000 0.000000 0.000000 0.000000 0.000000 0.068763
#
#
# Mechanical properties :
#
#
# Convention : Reuss Voigt Hill
#
# Bulk Modulus (GPa) = 53.54867 58.93877 56.24372
# Shear Modulus (GPa) = 23.70897 27.99034 25.84966
#
# Velocity S-wave (km/s) = 3.53935 3.84567 3.69568
# Velocity P-wave (km/s) = 6.70791 7.13163 6.92301
#
# Compressibility (1/GPa) = 0.01867460
#
# Stress axis : x y z
#
# Youngs Moduli (GPa) = 43.92761 76.22100 99.15131
#
# Poissons Ratio (x) = 0.41747 0.72468
# Poissons Ratio (y) = 0.24060 0.08544
# Poissons Ratio (z) = 0.32106 0.06568
#
# Static dielectric constant tensor:
#      x y z
#    x 1.745510 0.000000 0.000000 
#    y 0.000000 1.679760 0.000000 
#    z 0.000000 0.000000 1.674000 
# 
# From -- ./inp_files/19062.got.cif
#   From: 2010.05.17/outbox.cif.g08.bks.cpg/sg53_10_cif.got.tgz:19062.got - 2010.06.03 12:45:16.
