data_PCOD9419955
_publ_section_title
;
Structure prediction by ZEFSAII (Michael W. Deem and Ramdas Pophale) SiO2 
 PCOD9419955
Probable space group: P M N A
;
_chemical_formula_sum "Si O2"
_cell_formula_units_Z 34
_cell_length_a 20.470821
_cell_length_b 7.903085
_cell_length_c 9.948448
_cell_angle_alpha 90.000000
_cell_angle_beta 90.000000
_cell_angle_gamma 90.000000
_cell_volume 1609.486165
_symmetry_space_group_name_H-M "P M N A"
_symmetry_group_IT_number 53
_symmetry_cell_setting 'orthorhombic'
loop_
_space_group_symop_operation_xyz
x,y,z
1/2-x,-y,1/2+z
x,-y,-z
1/2-x,y,1/2-z
-x,-y,-z
1/2+x,y,1/2-z
-x,y,z
1/2+x,-y,1/2+z
loop_
_atom_site_type_symbol
_atom_site_label
_atom_site_fract_x
_atom_site_fract_y
_atom_site_fract_z
Si Si1 0.328313 0.802588 0.727656
Si Si2 0.107290 0.847415 0.299092
Si Si3 0.925796 0.295215 0.995442
Si Si4 0.692689 0.469720 0.855344
Si Si5 0.500000 0.000000 0.000000
O O1 0.250000 0.797244 0.750000
O O2 0.366078 0.774928 0.586019
O O3 0.349862 0.986097 0.773988
O O4 0.348437 0.635474 0.812271
O O5 0.148344 0.693635 0.358429
O O6 0.055213 0.907677 0.406186
O O7 0.080961 0.778815 0.154983
O O8 0.000000 0.250567 0.045547
O O9 0.921316 0.500000 0.000000
O O10 0.750000 0.440276 0.750000
O O11 0.723623 0.500000 0.000000
#
# Coordination Sequence:
#
# PCOD9419955 Si02
#       5
#     8   8   8   8   2
#     4  11  26  45  75 114 151 192 256 312 390 463
#     4  12  25  49  73 105 154 201 256 321 380 463
#     4  11  24  48  81 115 149 204 260 321 388 465
#     4  11  26  47  74 108 153 201 251 319 386 458
#     4  12  28  48  70 104 150 200 268 306 382 452
#
# _framework density 21.124755
#
# number of rings (size 3 to 8) (size 9 to 14) (size 15 to 20)
#    0.000    0.706    3.529    2.824    8.235    0.941 
#   12.706    1.765    0.000    0.000    0.000    0.000 
#    0.000    0.000    0.000    0.000    0.000    0.000 
#
# Total GULP energy -189323.093591 kJ/mol
# GULP energy per Si atom -5568.326282 kJ/mol
# Density = 2.107667 g / cm^3
# Si number density = 21.124755 Si / 1000 Ang^3
#
#
#
# Elastic Constant Matrix: (Units=GPa)
#
#
# Indices 1 2 3 4 5 6 
#
# 1 147.6848 71.8630 80.4256 0.0000 0.0000 0.0000
# 2 71.8630 173.1728 55.6829 0.0000 0.0000 0.0000
# 3 80.4256 55.6829 165.0824 0.0000 0.0000 0.0000
# 4 0.0000 0.0000 0.0000 62.3929 0.0000 0.0000
# 5 0.0000 0.0000 0.0000 0.0000 17.2745 0.0000
# 6 0.0000 0.0000 0.0000 0.0000 0.0000 -11.2271
#
#
#
# Elastic Compliance Matrix: (Units=1/GPa)
#
#
# Indices 1 2 3 4 5 6 
#
# 1 0.010467 -0.003033 -0.004076 0.000000 0.000000 0.000000
# 2 -0.003033 0.007356 -0.001004 0.000000 0.000000 0.000000
# 3 -0.004076 -0.001004 0.008382 0.000000 0.000000 0.000000
# 4 0.000000 0.000000 0.000000 0.016027 0.000000 0.000000
# 5 0.000000 0.000000 0.000000 0.000000 0.057889 0.000000
# 6 0.000000 0.000000 0.000000 0.000000 0.000000 -0.089070
#
#
# Mechanical properties :
#
#
# Convention : Reuss Voigt Hill
#
# Bulk Modulus (GPa) = 100.20805 100.20921 100.20863
# Shear Modulus (GPa) = 163.38534 32.21929 97.80231
#
# Velocity S-wave (km/s) = 8.80403 3.90961 6.81161
# Velocity P-wave (km/s) = 12.28362 8.24135 10.45962
#
# Compressibility (1/GPa) = 0.00997924
#
# Stress axis : x y z
#
# Youngs Moduli (GPa) = 95.54053 135.94664 119.30314
#
# Poissons Ratio (x) = 0.41230 0.48631
# Poissons Ratio (y) = 0.28975 0.11974
# Poissons Ratio (z) = 0.38945 0.13644
#
# Static dielectric constant tensor:
#      x y z
#    x 1.763570 0.000000 0.000000 
#    y 0.000000 1.754120 0.000000 
#    z 0.000000 0.000000 1.779970 
# 
# From -- ./inp_files/10584.got.cif
#   From: 2010.05.17/outbox.cif.g08.bks.cpg/sg53_6_cif.got.tgz:10584.got - 2010.06.03 12:45:16.
