data_PCOD9419102
_publ_section_title
;
Structure prediction by ZEFSAII (Michael W. Deem and Ramdas Pophale) SiO2 
 PCOD9419102
Probable space group: P M N A
;
_chemical_formula_sum "Si O2"
_cell_formula_units_Z 20
_cell_length_a 16.372409
_cell_length_b 9.441534
_cell_length_c 5.338926
_cell_angle_alpha 90.000000
_cell_angle_beta 90.000000
_cell_angle_gamma 90.000000
_cell_volume 825.294685
_symmetry_space_group_name_H-M "P M N A"
_symmetry_group_IT_number 53
_symmetry_cell_setting 'orthorhombic'
loop_
_space_group_symop_operation_xyz
x,y,z
1/2-x,-y,1/2+z
x,-y,-z
1/2-x,y,1/2-z
-x,-y,-z
1/2+x,y,1/2-z
-x,y,z
1/2+x,-y,1/2+z
loop_
_atom_site_type_symbol
_atom_site_label
_atom_site_fract_x
_atom_site_fract_y
_atom_site_fract_z
Si Si1 0.909822 0.332453 0.951626
Si Si2 0.750000 0.596098 0.250000
Si Si3 0.901796 0.075080 0.254321
O O1 0.832803 0.314644 0.772910
O O2 0.000000 0.286893 0.856744
O O3 0.914856 0.500000 0.000000
O O4 0.891113 0.242018 0.200500
O O5 0.755725 0.500000 0.500000
O O6 0.000000 0.055987 0.262338
O O7 0.867606 0.000000 0.500000
O O8 0.872327 0.000000 0.000000
#
# Coordination Sequence:
#
# PCOD9419102 Si02
#       3
#     8   4   8
#     4   9  19  37  63  94 129 171 217 267 330 400
#     4  10  22  38  58  90 130 168 218 282 334 388
#     4   9  18  33  55  86 122 157 197 251 316 383
#
# _framework density 24.233768000000001
#
# number of rings (size 3 to 8) (size 9 to 14) (size 15 to 20)
#    0.000    2.800    0.000    0.000    0.000    7.200 
#    0.000   12.000    0.000   12.000    0.000    0.000 
#    0.000    1.600    0.000    0.000    0.000    0.400 
#
# Total GULP energy -111608.282318 kJ/mol
# GULP energy per Si atom -5580.414116 kJ/mol
# Density = 2.417861 g / cm^3
# Si number density = 24.233768 Si / 1000 Ang^3
#
#
#
# Elastic Constant Matrix: (Units=GPa)
#
#
# Indices 1 2 3 4 5 6 
#
# 1 169.0566 4.0029 45.1521 0.0000 0.0000 0.0000
# 2 4.0029 167.6247 77.1480 0.0000 0.0000 0.0000
# 3 45.1521 77.1480 191.7170 0.0000 0.0000 0.0000
# 4 0.0000 0.0000 0.0000 41.8330 0.0000 0.0000
# 5 0.0000 0.0000 0.0000 0.0000 15.1331 0.0000
# 6 0.0000 0.0000 0.0000 0.0000 0.0000 -22.9095
#
#
#
# Elastic Compliance Matrix: (Units=1/GPa)
#
#
# Indices 1 2 3 4 5 6 
#
# 1 0.006371 0.000661 -0.001766 0.000000 0.000000 0.000000
# 2 0.000661 0.007390 -0.003130 0.000000 0.000000 0.000000
# 3 -0.001766 -0.003130 0.006891 0.000000 0.000000 0.000000
# 4 0.000000 0.000000 0.000000 0.023905 0.000000 0.000000
# 5 0.000000 0.000000 0.000000 0.000000 0.066080 0.000000
# 6 0.000000 0.000000 0.000000 0.000000 0.000000 -0.043650
#
#
# Mechanical properties :
#
#
# Convention : Reuss Voigt Hill
#
# Bulk Modulus (GPa) = 82.08361 86.77827 84.43094
# Shear Modulus (GPa) = 62.87805 33.61768 48.24786
#
# Velocity S-wave (km/s) = 5.09929 3.72859 4.46683
# Velocity P-wave (km/s) = 8.28345 7.37720 7.84342
#
# Compressibility (1/GPa) = 0.01218270
#
# Stress axis : x y z
#
# Youngs Moduli (GPa) = 156.95321 135.31311 145.10857
#
# Poissons Ratio (x) = -0.08942 0.25633
# Poissons Ratio (y) = -0.10372 0.45412
# Poissons Ratio (z) = 0.27725 0.42347
#
# Static dielectric constant tensor:
#      x y z
#    x 1.961460 0.000000 0.000000 
#    y 0.000000 2.021190 0.000000 
#    z 0.000000 0.000000 1.944170 
# 
# From -- ./inp_files/1666.got.cif
#   From: 2010.05.17/outbox.cif.g08.bks.cpg/sg53_1_cif.got.tgz:1666.got - 2010.06.03 12:45:16.
