data_PCOD9419886
_publ_section_title
;
Structure prediction by ZEFSAII (Michael W. Deem and Ramdas Pophale) SiO2 
 PCOD9419886
Probable space group: P M N A
;
_chemical_formula_sum "Si O2"
_cell_formula_units_Z 64
_cell_length_a 15.210069
_cell_length_b 11.106331
_cell_length_c 17.329564
_cell_angle_alpha 90.000000
_cell_angle_beta 90.000000
_cell_angle_gamma 90.000000
_cell_volume 2927.449642
_symmetry_space_group_name_H-M "P M N A"
_symmetry_group_IT_number 53
_symmetry_cell_setting 'orthorhombic'
loop_
_space_group_symop_operation_xyz
x,y,z
1/2-x,-y,1/2+z
x,-y,-z
1/2-x,y,1/2-z
-x,-y,-z
1/2+x,y,1/2-z
-x,y,z
1/2+x,-y,1/2+z
loop_
_atom_site_type_symbol
_atom_site_label
_atom_site_fract_x
_atom_site_fract_y
_atom_site_fract_z
Si Si1 0.599447 0.975171 0.862663
Si Si2 0.315626 0.208684 0.816757
Si Si3 0.237833 0.157900 0.068073
Si Si4 0.399560 0.950775 0.679463
Si Si5 0.283238 0.566575 0.925636
Si Si6 0.349887 0.196663 0.590352
Si Si7 0.100148 0.538964 0.291296
Si Si8 0.594643 0.534698 0.388683
O O1 0.500000 0.946866 0.887718
O O2 0.677261 0.926188 0.916658
O O3 0.609709 0.938229 0.772111
O O4 0.616545 0.116823 0.853164
O O5 0.250000 0.157951 0.750000
O O6 0.245221 0.241969 0.880759
O O7 0.365407 0.324339 0.787403
O O8 0.173123 0.131005 0.139219
O O9 0.276970 0.291130 0.065723
O O10 0.174646 0.143951 0.993417
O O11 0.500000 0.917641 0.660119
O O12 0.385232 0.087303 0.644470
O O13 0.335753 0.531435 0.848494
O O14 0.182691 0.521884 0.921203
O O15 0.324042 0.500000 0.000000
O O16 0.403839 0.320580 0.595693
O O17 0.100524 0.502979 0.202130
O O18 0.000000 0.532983 0.319738
O O19 0.500000 0.487060 0.415716
#
# Coordination Sequence:
#
# PCOD9419886 Si02
#       8
#     8   8   8   8   8   8   8   8
#     4  11  24  43  67 100 139 181 224 273 337 411
#     4  12  18  37  70  98 133 174 217 271 338 401
#     4  12  26  43  66  96 138 181 228 276 346 407
#     4  11  24  42  68 101 135 176 224 276 343 421
#     4  12  25  47  65  92 135 187 230 283 343 406
#     4  12  22  41  68 100 137 174 217 279 347 412
#     4  11  23  40  68 103 132 171 230 288 341 403
#     4  11  23  41  69 102 132 171 226 292 349 404
#
# _framework density 21.862033
#
# number of rings (size 3 to 8) (size 9 to 14) (size 15 to 20)
#    0.000    0.500    6.250    1.875    0.000    7.000 
#    0.000    5.625    0.000    0.000    0.000    0.000 
#    0.000    0.000    0.000    0.000    0.000    0.000 
#
# Total GULP energy -357413.520972 kJ/mol
# GULP energy per Si atom -5584.586265 kJ/mol
# Density = 2.181227 g / cm^3
# Si number density = 21.862033 Si / 1000 Ang^3
#
#
#
# Elastic Constant Matrix: (Units=GPa)
#
#
# Indices 1 2 3 4 5 6 
#
# 1 114.6327 -13.0833 42.0610 0.0000 0.0000 0.0000
# 2 -13.0833 36.3619 1.7198 0.0000 0.0000 0.0000
# 3 42.0610 1.7198 67.7666 0.0000 0.0000 0.0000
# 4 0.0000 0.0000 0.0000 18.0537 0.0000 0.0000
# 5 0.0000 0.0000 0.0000 0.0000 59.5721 0.0000
# 6 0.0000 0.0000 0.0000 0.0000 0.0000 -14.2689
#
#
#
# Elastic Compliance Matrix: (Units=1/GPa)
#
#
# Indices 1 2 3 4 5 6 
#
# 1 0.012046 0.004694 -0.007596 0.000000 0.000000 0.000000
# 2 0.004694 0.029363 -0.003658 0.000000 0.000000 0.000000
# 3 -0.007596 -0.003658 0.019564 0.000000 0.000000 0.000000
# 4 0.000000 0.000000 0.000000 0.055390 0.000000 0.000000
# 5 0.000000 0.000000 0.000000 0.000000 0.016786 0.000000
# 6 0.000000 0.000000 0.000000 0.000000 0.000000 -0.070082
#
#
# Mechanical properties :
#
#
# Convention : Reuss Voigt Hill
#
# Bulk Modulus (GPa) = 20.89774 31.12844 26.01309
# Shear Modulus (GPa) = 54.26524 25.20896 39.73710
#
# Velocity S-wave (km/s) = 4.98754 3.39941 4.26799
# Velocity P-wave (km/s) = 6.53813 5.44770 6.01766
#
# Compressibility (1/GPa) = 0.04785206
#
# Stress axis : x y z
#
# Youngs Moduli (GPa) = 83.01295 34.05627 51.11434
#
# Poissons Ratio (x) = -0.15985 0.38826
# Poissons Ratio (y) = -0.38963 0.18700
# Poissons Ratio (z) = 0.63056 0.12459
#
# Static dielectric constant tensor:
#      x y z
#    x 1.785540 0.000000 0.000000 
#    y 0.000000 1.932790 0.000000 
#    z 0.000000 0.000000 1.910410 
# 
# From -- ./inp_files/28571.got.cif
#   From: 2010.05.17/outbox.cif.g08.bks.cpg/sg53_15_cif.got.tgz:28571.got - 2010.06.03 12:45:16.
