data_PCOD9419909
_publ_section_title
;
Structure prediction by ZEFSAII (Michael W. Deem and Ramdas Pophale) SiO2 
 PCOD9419909
Probable space group: P M N A
;
_chemical_formula_sum "Si O2"
_cell_formula_units_Z 28
_cell_length_a 15.529453
_cell_length_b 5.564557
_cell_length_c 13.818783
_cell_angle_alpha 90.000000
_cell_angle_beta 90.000000
_cell_angle_gamma 90.000000
_cell_volume 1194.143588
_symmetry_space_group_name_H-M "P M N A"
_symmetry_group_IT_number 53
_symmetry_cell_setting 'orthorhombic'
loop_
_space_group_symop_operation_xyz
x,y,z
1/2-x,-y,1/2+z
x,-y,-z
1/2-x,y,1/2-z
-x,-y,-z
1/2+x,y,1/2-z
-x,y,z
1/2+x,-y,1/2+z
loop_
_atom_site_type_symbol
_atom_site_label
_atom_site_fract_x
_atom_site_fract_y
_atom_site_fract_z
Si Si1 0.250000 0.705278 0.250000
Si Si2 0.904342 0.945158 0.752493
Si Si3 0.823148 0.644755 0.587362
Si Si4 0.130712 0.751713 0.950822
O O1 0.213325 0.544754 0.335337
O O2 0.170466 0.870469 0.218991
O O3 0.879296 0.829593 0.649380
O O4 0.898972 0.752305 0.839172
O O5 0.000000 0.048766 0.749131
O O6 0.867131 0.500000 0.500000
O O7 0.735095 0.759122 0.547064
O O8 0.105180 0.500000 0.000000
O O9 0.099413 0.000000 0.000000
#
# Coordination Sequence:
#
# PCOD9419909 Si02
#       4
#     4   8   8   8
#     4  12  22  50  68 102 142 192 236 300 368 428
#     4  12  26  43  70 107 143 187 244 302 363 437
#     4  11  24  43  73  99 139 194 242 292 362 435
#     4  11  23  44  76 106 141 192 240 304 368 430
#
# _framework density 23.447768
#
# number of rings (size 3 to 8) (size 9 to 14) (size 15 to 20)
#    0.000    0.571    5.714    3.429    0.000    2.857 
#    0.000    1.429    0.000    0.857    0.000    0.000 
#    0.000    0.000    0.000    0.000    0.000    0.000 
#
# Total GULP energy -156716.021483 kJ/mol
# GULP energy per Si atom -5597.000767 kJ/mol
# Density = 2.339440 g / cm^3
# Si number density = 23.447768 Si / 1000 Ang^3
#
#
#
# Elastic Constant Matrix: (Units=GPa)
#
#
# Indices 1 2 3 4 5 6 
#
# 1 109.2343 17.5991 -23.9142 0.0000 0.0000 0.0000
# 2 17.5991 111.3224 24.8990 0.0000 0.0000 0.0000
# 3 -23.9142 24.8990 77.7822 0.0000 0.0000 0.0000
# 4 0.0000 0.0000 0.0000 41.4701 0.0000 0.0000
# 5 0.0000 0.0000 0.0000 0.0000 2.9069 0.0000
# 6 0.0000 0.0000 0.0000 0.0000 0.0000 -44.9720
#
#
#
# Elastic Compliance Matrix: (Units=1/GPa)
#
#
# Indices 1 2 3 4 5 6 
#
# 1 0.010448 -0.002553 0.004030 0.000000 0.000000 0.000000
# 2 -0.002553 0.010300 -0.004082 0.000000 0.000000 0.000000
# 3 0.004030 -0.004082 0.015402 0.000000 0.000000 0.000000
# 4 0.000000 0.000000 0.000000 0.024114 0.000000 0.000000
# 5 0.000000 0.000000 0.000000 0.000000 0.344015 0.000000
# 6 0.000000 0.000000 0.000000 0.000000 0.000000 -0.022236
#
#
# Mechanical properties :
#
#
# Convention : Reuss Voigt Hill
#
# Bulk Modulus (GPa) = 32.32192 37.27855 34.80024
# Shear Modulus (GPa) = 12.57653 18.53131 15.55392
#
# Velocity S-wave (km/s) = 2.31847 2.81432 2.57834
# Velocity P-wave (km/s) = 4.58057 5.14719 4.87212
#
# Compressibility (1/GPa) = 0.03093876
#
# Stress axis : x y z
#
# Youngs Moduli (GPa) = 95.71093 97.09190 64.92678
#
# Poissons Ratio (x) = 0.24788 -0.26162
# Poissons Ratio (y) = 0.24435 0.26503
# Poissons Ratio (z) = -0.38567 0.39632
#
# Static dielectric constant tensor:
#      x y z
#    x 1.890260 0.000000 0.000000 
#    y 0.000000 1.940680 0.000000 
#    z 0.000000 0.000000 1.934130 
# 
# From -- ./inp_files/23100.got.cif
#   From: 2010.05.17/outbox.cif.g08.bks.cpg/sg53_12_cif.got.tgz:23100.got - 2010.06.03 12:45:16.
