data_PCOD9419617
_publ_section_title
;
Structure prediction by ZEFSAII (Michael W. Deem and Ramdas Pophale) SiO2 
 PCOD9419617
Probable space group: P M N A
;
_chemical_formula_sum "Si O2"
_cell_formula_units_Z 40
_cell_length_a 17.271699
_cell_length_b 8.127359
_cell_length_c 11.612501
_cell_angle_alpha 90.000000
_cell_angle_beta 90.000000
_cell_angle_gamma 90.000000
_cell_volume 1630.085067
_symmetry_space_group_name_H-M "P M N A"
_symmetry_group_IT_number 53
_symmetry_cell_setting 'orthorhombic'
loop_
_space_group_symop_operation_xyz
x,y,z
1/2-x,-y,1/2+z
x,-y,-z
1/2-x,y,1/2-z
-x,-y,-z
1/2+x,y,1/2-z
-x,y,z
1/2+x,-y,1/2+z
loop_
_atom_site_type_symbol
_atom_site_label
_atom_site_fract_x
_atom_site_fract_y
_atom_site_fract_z
Si Si1 0.829961 0.701562 0.314194
Si Si2 0.594003 0.658471 0.573242
Si Si3 0.589298 0.121497 0.624226
Si Si4 0.407219 0.617383 0.845382
Si Si5 0.328315 0.071664 0.187727
O O1 0.750000 0.658862 0.250000
O O2 0.894430 0.732581 0.215186
O O3 0.864544 0.549754 0.383329
O O4 0.815928 0.887029 0.364564
O O5 0.620421 0.500000 0.500000
O O6 0.500000 0.664694 0.566490
O O7 0.623492 0.813910 0.496124
O O8 0.610674 0.632746 0.707383
O O9 0.500000 0.094602 0.606816
O O10 0.618199 0.973397 0.702828
O O11 0.500000 0.612755 0.864062
O O12 0.368802 0.788500 0.887362
O O13 0.250000 0.128026 0.250000
#
# Coordination Sequence:
#
# PCOD9419617 Si02
#       5
#     8   8   8   8   8
#     4   9  18  30  42  56  82 119 148 177 212 243
#     4   9  15  24  39  63  89 112 140 171 200 243
#     4   9  15  27  43  59  84 114 143 169 200 245
#     4  11  19  27  45  65  86 118 147 172 208 250
#     4   9  19  31  41  57  84 118 149 179 210 241
#
# _framework density 24.538596999999999
#
# number of rings (size 3 to 8) (size 9 to 14) (size 15 to 20)
#    1.200    1.400    2.000    1.800    0.000    0.800 
#    0.000    3.000    0.000    0.000    0.000    0.000 
#    0.000    0.000    0.000  126.000    0.000    0.000 
#
# Total GULP energy -222825.155103 kJ/mol
# GULP energy per Si atom -5570.628878 kJ/mol
# Density = 2.448275 g / cm^3
# Si number density = 24.538597 Si / 1000 Ang^3
#
#
#
# Elastic Constant Matrix: (Units=GPa)
#
#
# Indices 1 2 3 4 5 6 
#
# 1 112.4992 63.8970 -7.2246 0.0000 0.0000 0.0000
# 2 63.8970 173.7691 -0.6325 0.0000 0.0000 0.0000
# 3 -7.2246 -0.6325 61.0190 0.0000 0.0000 0.0000
# 4 0.0000 0.0000 0.0000 17.1187 0.0000 0.0000
# 5 0.0000 0.0000 0.0000 0.0000 -22.2535 0.0000
# 6 0.0000 0.0000 0.0000 0.0000 0.0000 41.4707
#
#
#
# Elastic Compliance Matrix: (Units=1/GPa)
#
#
# Indices 1 2 3 4 5 6 
#
# 1 0.011338 -0.004164 0.001299 0.000000 0.000000 0.000000
# 2 -0.004164 0.007284 -0.000418 0.000000 0.000000 0.000000
# 3 0.001299 -0.000418 0.016538 0.000000 0.000000 0.000000
# 4 0.000000 0.000000 0.000000 0.058416 0.000000 0.000000
# 5 0.000000 0.000000 0.000000 0.000000 -0.044937 0.000000
# 6 0.000000 0.000000 0.000000 0.000000 0.000000 0.024113
#
#
# Mechanical properties :
#
#
# Convention : Reuss Voigt Hill
#
# Bulk Modulus (GPa) = 34.97145 51.04079 43.00612
# Shear Modulus (GPa) = 56.27522 26.68367 41.47944
#
# Velocity S-wave (km/s) = 4.79407 3.30118 4.11588
# Velocity P-wave (km/s) = 6.70274 5.94775 6.33650
#
# Compressibility (1/GPa) = 0.02859475
#
# Stress axis : x y z
#
# Youngs Moduli (GPa) = 88.20224 137.27807 60.46740
#
# Poissons Ratio (x) = 0.57166 -0.07856
# Poissons Ratio (y) = 0.36730 0.02525
# Poissons Ratio (z) = -0.11459 0.05732
#
# Static dielectric constant tensor:
#      x y z
#    x 1.922820 0.000000 0.000000 
#    y 0.000000 2.156060 0.000000 
#    z 0.000000 0.000000 1.501410 
# 
# From -- ./inp_files/32196.got.cif
#   From: 2010.05.17/outbox.cif.g08.bks.cpg/sg53_17_cif.got.tgz:32196.got - 2010.06.03 12:45:16.
