data_PCOD9419567
_publ_section_title
;
Structure prediction by ZEFSAII (Michael W. Deem and Ramdas Pophale) SiO2 
 PCOD9419567
Probable space group: P M N A
;
_chemical_formula_sum "Si O2"
_cell_formula_units_Z 40
_cell_length_a 16.789018
_cell_length_b 6.746754
_cell_length_c 16.395118
_cell_angle_alpha 90.000000
_cell_angle_beta 90.000000
_cell_angle_gamma 90.000000
_cell_volume 1857.097548
_symmetry_space_group_name_H-M "P M N A"
_symmetry_group_IT_number 53
_symmetry_cell_setting 'orthorhombic'
loop_
_space_group_symop_operation_xyz
x,y,z
1/2-x,-y,1/2+z
x,-y,-z
1/2-x,y,1/2-z
-x,-y,-z
1/2+x,y,1/2-z
-x,y,z
1/2+x,-y,1/2+z
loop_
_atom_site_type_symbol
_atom_site_label
_atom_site_fract_x
_atom_site_fract_y
_atom_site_fract_z
Si Si1 0.000000 0.538395 0.720685
Si Si2 0.000000 0.709713 0.539741
Si Si3 0.500000 0.801322 0.441937
Si Si4 0.360663 0.500000 0.500000
Si Si5 0.857523 0.000000 0.500000
Si Si6 0.867565 0.208852 0.253926
Si Si7 0.745427 0.785960 0.614397
Si Si8 0.000000 0.099182 0.748356
O O1 0.000000 0.661429 0.636290
O O2 0.924707 0.611975 0.771695
O O3 0.000000 0.309167 0.705559
O O4 0.000000 0.500000 0.500000
O O5 0.920247 0.821167 0.509926
O O6 0.421736 0.663712 0.460615
O O7 0.500000 0.868414 0.346613
O O8 0.500000 0.000000 0.500000
O O9 0.300391 0.371749 0.442199
O O10 0.794095 0.961444 0.571556
O O11 0.818826 0.132606 0.177361
O O12 0.812465 0.299393 0.324418
O O13 0.923484 0.026786 0.278394
#
# Coordination Sequence:
#
# PCOD9419567 Si02
#       8
#     4   4   4   4   4   8   8   4
#     4  11  22  45  67  97 136 183 236 288 347 437
#     4  11  26  44  70  97 135 188 241 293 342 442
#     4  11  24  47  73 107 139 194 236 290 349 444
#     4  11  26  44  72 105 146 178 238 297 362 418
#     4  11  26  44  70  97 138 186 230 293 366 418
#     4  10  24  46  64  99 139 181 227 292 354 418
#     4  11  24  45  68  98 142 179 228 299 353 411
#     4  11  24  40  74  96 132 189 234 275 353 440
#
# _framework density 21.538986000000001
#
# number of rings (size 3 to 8) (size 9 to 14) (size 15 to 20)
#    0.000    1.200    2.000    2.400    8.400    3.200 
#    0.000    2.000    0.000    0.000    0.000    0.000 
#    0.000    0.000    0.000    0.000    0.000    0.000 
#
# Total GULP energy -222906.664211 kJ/mol
# GULP energy per Si atom -5572.666605 kJ/mol
# Density = 2.148996 g / cm^3
# Si number density = 21.538986 Si / 1000 Ang^3
#
#
#
# Elastic Constant Matrix: (Units=GPa)
#
#
# Indices 1 2 3 4 5 6 
#
# 1 164.3853 62.4116 58.5121 0.0000 0.0000 0.0000
# 2 62.4116 129.9674 42.7388 0.0000 0.0000 0.0000
# 3 58.5121 42.7388 99.8956 0.0000 0.0000 0.0000
# 4 0.0000 0.0000 0.0000 33.0132 0.0000 0.0000
# 5 0.0000 0.0000 0.0000 0.0000 35.1287 0.0000
# 6 0.0000 0.0000 0.0000 0.0000 0.0000 0.4865
#
#
#
# Elastic Compliance Matrix: (Units=1/GPa)
#
#
# Indices 1 2 3 4 5 6 
#
# 1 0.008503 -0.002846 -0.003763 0.000000 0.000000 0.000000
# 2 -0.002846 0.009906 -0.002571 0.000000 0.000000 0.000000
# 3 -0.003763 -0.002571 0.013315 0.000000 0.000000 0.000000
# 4 0.000000 0.000000 0.000000 0.030291 0.000000 0.000000
# 5 0.000000 0.000000 0.000000 0.000000 0.028467 0.000000
# 6 0.000000 0.000000 0.000000 0.000000 0.000000 2.055603
#
#
# Mechanical properties :
#
#
# Convention : Reuss Voigt Hill
#
# Bulk Modulus (GPa) = 74.82934 80.17480 77.50207
# Shear Modulus (GPa) = 2.30532 29.09806 15.70169
#
# Velocity S-wave (km/s) = 1.03567 3.67951 2.70291
# Velocity P-wave (km/s) = 6.02054 7.44014 6.76767
#
# Compressibility (1/GPa) = 0.01336374
#
# Stress axis : x y z
#
# Youngs Moduli (GPa) = 117.60312 100.94456 75.10486
#
# Poissons Ratio (x) = 0.28727 0.28262
# Poissons Ratio (y) = 0.33468 0.19312
# Poissons Ratio (z) = 0.44254 0.25957
#
# Static dielectric constant tensor:
#      x y z
#    x 1.839820 0.000000 0.000000 
#    y 0.000000 1.105110 0.000000 
#    z 0.000000 0.000000 2.386340 
# 
# From -- ./inp_files/32712.got.cif
#   From: 2010.05.17/outbox.cif.g08.bks.cpg/sg53_17_cif.got.tgz:32712.got - 2010.06.03 12:45:16.
