data_PCOD9419374
_publ_section_title
;
Structure prediction by ZEFSAII (Michael W. Deem and Ramdas Pophale) SiO2 
 PCOD9419374
Probable space group: P M N A
;
_chemical_formula_sum "Si O2"
_cell_formula_units_Z 20
_cell_length_a 29.592907
_cell_length_b 5.220688
_cell_length_c 4.198266
_cell_angle_alpha 90.000000
_cell_angle_beta 90.000000
_cell_angle_gamma 90.000000
_cell_volume 648.612510
_symmetry_space_group_name_H-M "P M N A"
_symmetry_group_IT_number 53
_symmetry_cell_setting 'orthorhombic'
loop_
_space_group_symop_operation_xyz
x,y,z
1/2-x,-y,1/2+z
x,-y,-z
1/2-x,y,1/2-z
-x,-y,-z
1/2+x,y,1/2-z
-x,y,z
1/2+x,-y,1/2+z
loop_
_atom_site_type_symbol
_atom_site_label
_atom_site_fract_x
_atom_site_fract_y
_atom_site_fract_z
Si Si1 0.714763 0.500000 0.500000
Si Si2 0.631743 0.247331 0.771286
Si Si3 0.950322 0.749701 0.733548
O O1 0.750000 0.389401 0.250000
O O2 0.679813 0.282491 0.606932
O O3 0.590523 0.248548 0.501626
O O4 0.631371 0.500000 0.000000
O O5 0.633644 0.000000 0.000000
O O6 0.951071 0.500000 0.500000
O O7 0.000000 0.751315 0.888749
O O8 0.949918 0.000000 0.500000
#
# Coordination Sequence:
#
# PCOD9419374 Si02
#       3
#     4   8   8
#     4  12  26  52  73 108 141 194 252 316 370 440
#     4  10  22  44  69 101 142 185 236 297 365 434
#     4   8  14  28  57  94 133 176 223 278 346 428
#
# _framework density 30.835052000000001
#
# number of rings (size 3 to 8) (size 9 to 14) (size 15 to 20)
#    0.000    2.400    2.000    0.000    0.000    1.600 
#    7.200    1.000    0.000    0.000    0.000   28.000 
#    0.000    0.000    0.000    0.000    0.000    2.400 
#
# Total GULP energy -111598.354115 kJ/mol
# GULP energy per Si atom -5579.917706 kJ/mol
# Density = 3.076487 g / cm^3
# Si number density = 30.835052 Si / 1000 Ang^3
#
#
#
# Elastic Constant Matrix: (Units=GPa)
#
#
# Indices 1 2 3 4 5 6 
#
# 1 426.7818 67.9917 178.9013 0.0000 0.0000 0.0000
# 2 67.9917 385.4907 171.6558 0.0000 0.0000 0.0000
# 3 178.9013 171.6558 252.3963 0.0000 0.0000 0.0000
# 4 0.0000 0.0000 0.0000 119.8545 0.0000 0.0000
# 5 0.0000 0.0000 0.0000 0.0000 89.7365 0.0000
# 6 0.0000 0.0000 0.0000 0.0000 0.0000 -1.4246
#
#
#
# Elastic Compliance Matrix: (Units=1/GPa)
#
#
# Indices 1 2 3 4 5 6 
#
# 1 0.003457 0.000691 -0.002920 0.000000 0.000000 0.000000
# 2 0.000691 0.003859 -0.003114 0.000000 0.000000 0.000000
# 3 -0.002920 -0.003114 0.008150 0.000000 0.000000 0.000000
# 4 0.000000 0.000000 0.000000 0.008343 0.000000 0.000000
# 5 0.000000 0.000000 0.000000 0.000000 0.011144 0.000000
# 6 0.000000 0.000000 0.000000 0.000000 0.000000 -0.701958
#
#
# Mechanical properties :
#
#
# Convention : Reuss Voigt Hill
#
# Bulk Modulus (GPa) = 209.26174 211.30736 210.28455
# Shear Modulus (GPa) = -7.63680 84.70796 38.53558
#
# Velocity S-wave (km/s) = -1.57545 5.24700 3.53899
# Velocity P-wave (km/s) = 8.04381 10.26572 9.22193
#
# Compressibility (1/GPa) = 0.00477870
#
# Stress axis : x y z
#
# Youngs Moduli (GPa) = 289.25247 259.14090 122.70481
#
# Poissons Ratio (x) = -0.17895 0.35831
# Poissons Ratio (y) = -0.19974 0.38209
# Poissons Ratio (z) = 0.84466 0.80694
#
# Static dielectric constant tensor:
#      x y z
#    x 2.439860 0.000000 0.000000 
#    y 0.000000 2.463010 0.000000 
#    z 0.000000 0.000000 0.803410 
# 
# From -- ./inp_files/4725.got.cif
#   From: 2010.05.17/outbox.cif.g08.bks.cpg/sg53_3_cif.got.tgz:4725.got - 2010.06.03 12:45:16.
