data_PCOD9419326
_publ_section_title
;
Structure prediction by ZEFSAII (Michael W. Deem and Ramdas Pophale) SiO2 
 PCOD9419326
Probable space group: P M N A
;
_chemical_formula_sum "Si O2"
_cell_formula_units_Z 40
_cell_length_a 15.060716
_cell_length_b 14.554430
_cell_length_c 7.696479
_cell_angle_alpha 90.000000
_cell_angle_beta 90.000000
_cell_angle_gamma 90.000000
_cell_volume 1687.069249
_symmetry_space_group_name_H-M "P M N A"
_symmetry_group_IT_number 53
_symmetry_cell_setting 'orthorhombic'
loop_
_space_group_symop_operation_xyz
x,y,z
1/2-x,-y,1/2+z
x,-y,-z
1/2-x,y,1/2-z
-x,-y,-z
1/2+x,y,1/2-z
-x,y,z
1/2+x,-y,1/2+z
loop_
_atom_site_type_symbol
_atom_site_label
_atom_site_fract_x
_atom_site_fract_y
_atom_site_fract_z
Si Si1 0.796890 0.392288 0.532540
Si Si2 0.149154 0.077557 0.211332
Si Si3 0.101648 0.871781 0.164258
Si Si4 0.896913 0.400210 0.905217
Si Si5 0.397171 0.773618 0.991481
O O1 0.789172 0.500000 0.500000
O O2 0.859752 0.398191 0.706757
O O3 0.694521 0.356377 0.519530
O O4 0.850334 0.318025 0.423328
O O5 0.250000 0.054541 0.250000
O O6 0.112478 0.145047 0.355442
O O7 0.101181 0.979525 0.214560
O O8 0.146175 0.126280 0.023691
O O9 0.139398 0.810861 0.322112
O O10 0.000000 0.843593 0.137279
O O11 0.000000 0.365821 0.914053
O O12 0.901540 0.500000 0.000000
O O13 0.500000 0.753496 0.016828
#
# Coordination Sequence:
#
# PCOD9419326 Si02
#       5
#     8   8   8   8   8
#     4  10  22  42  65  95 135 175 224 281 333 396
#     4  11  24  40  67 102 134 174 221 284 346 413
#     4  10  23  44  69  95 134 178 226 280 342 415
#     4   9  19  39  65  91 122 170 224 275 337 398
#     4  11  24  43  69  99 136 184 233 283 341 408
#
# _framework density 23.709758000000001
#
# number of rings (size 3 to 8) (size 9 to 14) (size 15 to 20)
#    0.000    1.800    0.000    3.600    5.600    6.400 
#   10.800    0.000    0.000    1.200    0.000    0.000 
#    0.000    0.000    0.000    0.000    0.000    0.000 
#
# Total GULP energy -222892.910522 kJ/mol
# GULP energy per Si atom -5572.322763 kJ/mol
# Density = 2.365579 g / cm^3
# Si number density = 23.709758 Si / 1000 Ang^3
#
#
#
# Elastic Constant Matrix: (Units=GPa)
#
#
# Indices 1 2 3 4 5 6 
#
# 1 146.5067 31.8544 20.3153 0.0000 0.0000 0.0000
# 2 31.8544 110.8385 28.5792 0.0000 0.0000 0.0000
# 3 20.3153 28.5792 78.3685 0.0000 0.0000 0.0000
# 4 0.0000 0.0000 0.0000 12.2730 0.0000 0.0000
# 5 0.0000 0.0000 0.0000 0.0000 37.0263 0.0000
# 6 0.0000 0.0000 0.0000 0.0000 0.0000 70.3876
#
#
#
# Elastic Compliance Matrix: (Units=1/GPa)
#
#
# Indices 1 2 3 4 5 6 
#
# 1 0.007392 -0.001799 -0.001260 0.000000 0.000000 0.000000
# 2 -0.001799 0.010397 -0.003325 0.000000 0.000000 0.000000
# 3 -0.001260 -0.003325 0.014299 0.000000 0.000000 0.000000
# 4 0.000000 0.000000 0.000000 0.081480 0.000000 0.000000
# 5 0.000000 0.000000 0.000000 0.000000 0.027008 0.000000
# 6 0.000000 0.000000 0.000000 0.000000 0.000000 0.014207
#
#
# Mechanical properties :
#
#
# Convention : Reuss Voigt Hill
#
# Bulk Modulus (GPa) = 51.76251 55.24572 53.50412
# Shear Modulus (GPa) = 28.73723 40.93504 34.83614
#
# Velocity S-wave (km/s) = 3.48522 4.15963 3.83727
# Velocity P-wave (km/s) = 6.17048 6.81333 6.49986
#
# Compressibility (1/GPa) = 0.01931900
#
# Stress axis : x y z
#
# Youngs Moduli (GPa) = 135.28916 96.18530 69.93325
#
# Poissons Ratio (x) = 0.17308 0.08811
# Poissons Ratio (y) = 0.24344 0.23252
# Poissons Ratio (z) = 0.17045 0.31981
#
# Static dielectric constant tensor:
#      x y z
#    x 1.995290 0.000000 0.000000 
#    y 0.000000 1.923070 0.000000 
#    z 0.000000 0.000000 -1.471070 
# 
# From -- ./inp_files/8409.got.cif
#   From: 2010.05.17/outbox.cif.g08.bks.cpg/sg53_5_cif.got.tgz:8409.got - 2010.06.03 12:45:16.
