data_PCOD9419496
_publ_section_title
;
Structure prediction by ZEFSAII (Michael W. Deem and Ramdas Pophale) SiO2 
 PCOD9419496
Probable space group: P M N A
;
_chemical_formula_sum "Si O2"
_cell_formula_units_Z 48
_cell_length_a 17.207634
_cell_length_b 14.417603
_cell_length_c 9.260029
_cell_angle_alpha 90.000000
_cell_angle_beta 90.000000
_cell_angle_gamma 90.000000
_cell_volume 2297.346852
_symmetry_space_group_name_H-M "P M N A"
_symmetry_group_IT_number 53
_symmetry_cell_setting 'orthorhombic'
loop_
_space_group_symop_operation_xyz
x,y,z
1/2-x,-y,1/2+z
x,-y,-z
1/2-x,y,1/2-z
-x,-y,-z
1/2+x,y,1/2-z
-x,y,z
1/2+x,-y,1/2+z
loop_
_atom_site_type_symbol
_atom_site_label
_atom_site_fract_x
_atom_site_fract_y
_atom_site_fract_z
Si Si1 0.306260 0.739275 0.621329
Si Si2 0.411114 0.573398 0.121619
Si Si3 0.193146 0.248600 0.617601
Si Si4 0.592185 0.090784 0.406749
Si Si5 0.589215 0.896834 0.938646
Si Si6 0.669978 0.461281 0.340472
O O1 0.250000 0.774013 0.750000
O O2 0.249791 0.704117 0.497691
O O3 0.358572 0.819124 0.553057
O O4 0.350185 0.647941 0.672495
O O5 0.500000 0.593105 0.084392
O O6 0.367592 0.670212 0.148253
O O7 0.398995 0.517868 0.268262
O O8 0.381123 0.500000 0.000000
O O9 0.250000 0.220201 0.750000
O O10 0.148279 0.166527 0.531172
O O11 0.500000 0.102602 0.431485
O O12 0.604606 0.089979 0.232877
O O13 0.615756 0.000000 0.500000
O O14 0.500000 0.860960 0.952825
O O15 0.591699 0.000000 0.000000
O O16 0.681115 0.500000 0.500000
O O17 0.750000 0.475295 0.250000
#
# Coordination Sequence:
#
# PCOD9419496 Si02
#       6
#     8   8   8   8   8   8
#     4  11  22  40  64  96 132 171 224 274 339 399
#     4  11  24  42  67  98 134 181 236 284 341 409
#     4  12  25  42  65 100 137 179 223 280 341 410
#     4  10  23  44  68  95 130 172 219 276 338 400
#     4  10  23  45  69  94 130 174 220 273 339 405
#     4  11  22  40  65  94 133 175 217 277 340 407
#
# _framework density 20.893666
#
# number of rings (size 3 to 8) (size 9 to 14) (size 15 to 20)
#    0.000    1.167    1.667    5.500    2.333    1.667 
#    0.000    2.500    0.000    0.000    0.000    0.000 
#    0.000    0.000    0.000    0.000    0.000    0.000 
#
# Total GULP energy -267755.038714 kJ/mol
# GULP energy per Si atom -5578.229973 kJ/mol
# Density = 2.084611 g / cm^3
# Si number density = 20.893666 Si / 1000 Ang^3
#
#
#
# Elastic Constant Matrix: (Units=GPa)
#
#
# Indices 1 2 3 4 5 6 
#
# 1 59.0565 54.9343 39.0657 0.0000 0.0000 0.0000
# 2 54.9343 129.0262 32.5109 0.0000 0.0000 0.0000
# 3 39.0657 32.5109 93.9333 0.0000 0.0000 0.0000
# 4 0.0000 0.0000 0.0000 33.7426 0.0000 0.0000
# 5 0.0000 0.0000 0.0000 0.0000 22.0206 0.0000
# 6 0.0000 0.0000 0.0000 0.0000 0.0000 9.4933
#
#
#
# Elastic Compliance Matrix: (Units=1/GPa)
#
#
# Indices 1 2 3 4 5 6 
#
# 1 0.035402 -0.012449 -0.010415 0.000000 0.000000 0.000000
# 2 -0.012449 0.012868 0.000723 0.000000 0.000000 0.000000
# 3 -0.010415 0.000723 0.014727 0.000000 0.000000 0.000000
# 4 0.000000 0.000000 0.000000 0.029636 0.000000 0.000000
# 5 0.000000 0.000000 0.000000 0.000000 0.045412 0.000000
# 6 0.000000 0.000000 0.000000 0.000000 0.000000 0.105337
#
#
# Mechanical properties :
#
#
# Convention : Reuss Voigt Hill
#
# Bulk Modulus (GPa) = 53.42658 59.44865 56.43761
# Shear Modulus (GPa) = 17.01255 23.41832 20.21544
#
# Velocity S-wave (km/s) = 2.85659 3.35152 3.11390
# Velocity P-wave (km/s) = 6.04205 6.59482 6.32448
#
# Compressibility (1/GPa) = 0.01871727
#
# Stress axis : x y z
#
# Youngs Moduli (GPa) = 28.24711 77.71113 67.90330
#
# Poissons Ratio (x) = 0.96739 0.70719
# Poissons Ratio (y) = 0.35163 -0.04912
# Poissons Ratio (z) = 0.29419 -0.05622
#
# Static dielectric constant tensor:
#      x y z
#    x 1.772630 0.000000 0.000000 
#    y 0.000000 1.744980 0.000000 
#    z 0.000000 0.000000 1.811140 
# 
# From -- ./inp_files/9984.got.cif
#   From: 2010.05.17/outbox.cif.g08.bks.cpg/sg53_5_cif.got.tgz:9984.got - 2010.06.03 12:45:16.
