data_PCOD9419458
_publ_section_title
;
Structure prediction by ZEFSAII (Michael W. Deem and Ramdas Pophale) SiO2 
 PCOD9419458
Probable space group: P M N A
;
_chemical_formula_sum "Si O2"
_cell_formula_units_Z 36
_cell_length_a 7.522574
_cell_length_b 25.069999
_cell_length_c 8.143227
_cell_angle_alpha 90.000000
_cell_angle_beta 90.000000
_cell_angle_gamma 90.000000
_cell_volume 1535.738693
_symmetry_space_group_name_H-M "P M N A"
_symmetry_group_IT_number 53
_symmetry_cell_setting 'orthorhombic'
loop_
_space_group_symop_operation_xyz
x,y,z
1/2-x,-y,1/2+z
x,-y,-z
1/2-x,y,1/2-z
-x,-y,-z
1/2+x,y,1/2-z
-x,y,z
1/2+x,-y,1/2+z
loop_
_atom_site_type_symbol
_atom_site_label
_atom_site_fract_x
_atom_site_fract_y
_atom_site_fract_z
Si Si1 0.198086 0.328363 0.560705
Si Si2 0.788197 0.056947 0.558550
Si Si3 0.211750 0.828265 0.559951
Si Si4 0.500000 0.254077 0.495957
Si Si5 0.788568 0.442051 0.057911
O O1 0.250000 0.317378 0.750000
O O2 0.345015 0.298698 0.455717
O O3 0.205966 0.391651 0.533572
O O4 0.000000 0.308722 0.528692
O O5 0.750000 0.063426 0.750000
O O6 0.729611 0.110396 0.466543
O O7 0.000000 0.055027 0.533478
O O8 0.713827 0.000000 0.500000
O O9 0.250000 0.814080 0.750000
O O10 0.341617 0.789633 0.461460
O O11 0.000000 0.823354 0.526778
O O12 0.750000 0.436496 0.250000
O O13 0.000000 0.439932 0.028402
O O14 0.723401 0.500000 0.000000
#
# Coordination Sequence:
#
# PCOD9419458 Si02
#       5
#     8   8   8   4   8
#     4  12  25  48  73 102 140 185 233 288 348 407
#     4  10  23  42  67 103 137 175 224 282 348 419
#     4  11  24  46  71 101 138 184 233 286 348 408
#     4  12  26  46  70 104 134 190 230 298 332 412
#     4  11  24  44  71 107 143 181 228 285 350 417
#
# _framework density 23.441489000000001
#
# number of rings (size 3 to 8) (size 9 to 14) (size 15 to 20)
#    0.000    0.889    3.333    2.667    1.556    5.778 
#    8.000    0.000    0.000    0.000    0.000    0.000 
#    0.000    0.000    0.000    0.000    0.000    0.000 
#
# Total GULP energy -200468.350179 kJ/mol
# GULP energy per Si atom -5568.565283 kJ/mol
# Density = 2.338814 g / cm^3
# Si number density = 23.441489 Si / 1000 Ang^3
#
#
#
# Elastic Constant Matrix: (Units=GPa)
#
#
# Indices 1 2 3 4 5 6 
#
# 1 202.0424 61.4237 1.6925 0.0000 0.0000 0.0000
# 2 61.4237 159.0721 -3.7788 0.0000 0.0000 0.0000
# 3 1.6925 -3.7788 51.8439 0.0000 0.0000 0.0000
# 4 0.0000 0.0000 0.0000 15.4413 0.0000 0.0000
# 5 0.0000 0.0000 0.0000 0.0000 7.7207 0.0000
# 6 0.0000 0.0000 0.0000 0.0000 0.0000 38.6308
#
#
#
# Elastic Compliance Matrix: (Units=1/GPa)
#
#
# Indices 1 2 3 4 5 6 
#
# 1 0.005614 -0.002176 -0.000342 0.000000 0.000000 0.000000
# 2 -0.002176 0.007141 0.000592 0.000000 0.000000 0.000000
# 3 -0.000342 0.000592 0.019343 0.000000 0.000000 0.000000
# 4 0.000000 0.000000 0.000000 0.064762 0.000000 0.000000
# 5 0.000000 0.000000 0.000000 0.000000 0.129521 0.000000
# 6 0.000000 0.000000 0.000000 0.000000 0.000000 0.025886
#
#
# Mechanical properties :
#
#
# Convention : Reuss Voigt Hill
#
# Bulk Modulus (GPa) = 35.40444 59.07037 47.23741
# Shear Modulus (GPa) = 18.82999 35.93329 27.38164
#
# Velocity S-wave (km/s) = 2.83729 3.91947 3.42143
# Velocity P-wave (km/s) = 5.08623 6.76289 5.98358
#
# Compressibility (1/GPa) = 0.02824505
#
# Stress axis : x y z
#
# Youngs Moduli (GPa) = 178.13252 140.04281 51.69848
#
# Poissons Ratio (x) = 0.30471 0.01767
# Poissons Ratio (y) = 0.38758 -0.03058
# Poissons Ratio (z) = 0.06090 -0.08284
#
# Static dielectric constant tensor:
#      x y z
#    x 1.867240 0.000000 0.000000 
#    y 0.000000 1.921640 0.000000 
#    z 0.000000 0.000000 1.926990 
# 
# From -- ./inp_files/6287.got.cif
#   From: 2010.05.17/outbox.cif.g08.bks.cpg/sg53_4_cif.got.tgz:6287.got - 2010.06.03 12:45:16.
