data_PCOD9419995
_publ_section_title
;
Structure prediction by ZEFSAII (Michael W. Deem and Ramdas Pophale) SiO2 
 PCOD9419995
Probable space group: P M N A
;
_chemical_formula_sum "Si O2"
_cell_formula_units_Z 26
_cell_length_a 14.288209
_cell_length_b 6.905053
_cell_length_c 11.857855
_cell_angle_alpha 90.000000
_cell_angle_beta 90.000000
_cell_angle_gamma 90.000000
_cell_volume 1169.905940
_symmetry_space_group_name_H-M "P M N A"
_symmetry_group_IT_number 53
_symmetry_cell_setting 'orthorhombic'
loop_
_space_group_symop_operation_xyz
x,y,z
1/2-x,-y,1/2+z
x,-y,-z
1/2-x,y,1/2-z
-x,-y,-z
1/2+x,y,1/2-z
-x,y,z
1/2+x,-y,1/2+z
loop_
_atom_site_type_symbol
_atom_site_label
_atom_site_fract_x
_atom_site_fract_y
_atom_site_fract_z
Si Si1 0.179888 0.728316 0.414801
Si Si2 0.608009 0.057448 0.256114
Si Si3 0.323871 0.000000 0.500000
Si Si4 0.000000 0.500000 0.500000
Si Si5 0.250000 0.405002 0.250000
O O1 0.156278 0.899279 0.324811
O O2 0.230937 0.552029 0.352300
O O3 0.083078 0.656192 0.466081
O O4 0.253055 0.818914 0.502158
O O5 0.500000 0.080476 0.224516
O O6 0.617854 0.987839 0.385626
O O7 0.661009 0.262386 0.253120
#
# Coordination Sequence:
#
# PCOD9419995 Si02
#       5
#     8   8   4   2   4
#     4  12  26  47  74 108 151 196 249 315 368 449
#     4  12  26  47  76 107 152 196 250 314 379 445
#     4  12  23  51  72 102 152 198 241 316 389 438
#     4  12  28  42  80 114 142 196 268 290 372 450
#     4  12  24  50  70 106 152 194 240 314 374 442
#
# _framework density 22.224008999999999
#
# number of rings (size 3 to 8) (size 9 to 14) (size 15 to 20)
#    0.000    0.000    7.692    2.308    2.154    0.615 
#    0.000    1.538    0.000    0.000    0.000    0.000 
#    0.000    0.000    0.000    0.000    0.000    0.000 
#
# Total GULP energy -145093.606307 kJ/mol
# GULP energy per Si atom -5580.523320 kJ/mol
# Density = 2.217343 g / cm^3
# Si number density = 22.224009 Si / 1000 Ang^3
#
#
#
# Elastic Constant Matrix: (Units=GPa)
#
#
# Indices 1 2 3 4 5 6 
#
# 1 127.7448 56.4981 12.7719 0.0000 0.0000 0.0000
# 2 56.4981 153.4732 30.0866 0.0000 0.0000 0.0000
# 3 12.7719 30.0866 68.5234 0.0000 0.0000 0.0000
# 4 0.0000 0.0000 0.0000 43.9773 0.0000 0.0000
# 5 0.0000 0.0000 0.0000 0.0000 21.7155 0.0000
# 6 0.0000 0.0000 0.0000 0.0000 0.0000 10.3297
#
#
#
# Elastic Compliance Matrix: (Units=1/GPa)
#
#
# Indices 1 2 3 4 5 6 
#
# 1 0.009355 -0.003394 -0.000253 0.000000 0.000000 0.000000
# 2 -0.003394 0.008361 -0.003038 0.000000 0.000000 0.000000
# 3 -0.000253 -0.003038 0.015975 0.000000 0.000000 0.000000
# 4 0.000000 0.000000 0.000000 0.022739 0.000000 0.000000
# 5 0.000000 0.000000 0.000000 0.000000 0.046050 0.000000
# 6 0.000000 0.000000 0.000000 0.000000 0.000000 0.096809
#
#
# Mechanical properties :
#
#
# Convention : Reuss Voigt Hill
#
# Bulk Modulus (GPa) = 49.21576 60.93940 55.07758
# Shear Modulus (GPa) = 22.78606 31.89680 27.34143
#
# Velocity S-wave (km/s) = 3.20549 3.79257 3.51132
# Velocity P-wave (km/s) = 5.99113 6.83068 6.42463
#
# Compressibility (1/GPa) = 0.02031870
#
# Stress axis : x y z
#
# Youngs Moduli (GPa) = 106.90019 119.60463 62.59832
#
# Poissons Ratio (x) = 0.40594 0.01586
# Poissons Ratio (y) = 0.36282 0.19020
# Poissons Ratio (z) = 0.02708 0.36341
#
# Static dielectric constant tensor:
#      x y z
#    x 1.764870 0.000000 0.000000 
#    y 0.000000 1.824900 0.000000 
#    z 0.000000 0.000000 1.889310 
# 
# From -- ./inp_files/22080.got.cif
#   From: 2010.05.17/outbox.cif.g08.bks.cpg/sg53_12_cif.got.tgz:22080.got - 2010.06.03 12:45:16.
