data_PCOD9419169
_publ_section_title
;
Structure prediction by ZEFSAII (Michael W. Deem and Ramdas Pophale) SiO2 
 PCOD9419169
Probable space group: P M N A
;
_chemical_formula_sum "Si O2"
_cell_formula_units_Z 56
_cell_length_a 15.268147
_cell_length_b 8.382926
_cell_length_c 21.803825
_cell_angle_alpha 90.000000
_cell_angle_beta 90.000000
_cell_angle_gamma 90.000000
_cell_volume 2790.709641
_symmetry_space_group_name_H-M "P M N A"
_symmetry_group_IT_number 53
_symmetry_cell_setting 'orthorhombic'
loop_
_space_group_symop_operation_xyz
x,y,z
1/2-x,-y,1/2+z
x,-y,-z
1/2-x,y,1/2-z
-x,-y,-z
1/2+x,y,1/2-z
-x,y,z
1/2+x,-y,1/2+z
loop_
_atom_site_type_symbol
_atom_site_label
_atom_site_fract_x
_atom_site_fract_y
_atom_site_fract_z
Si Si1 0.314218 0.187738 0.504800
Si Si2 0.236354 0.012584 0.320068
Si Si3 0.101009 0.493552 0.789416
Si Si4 0.220169 0.679443 0.879237
Si Si5 0.596669 0.824142 0.371483
Si Si6 0.400935 0.724747 0.178411
Si Si7 0.837476 0.590829 0.442010
O O1 0.335197 0.260314 0.438272
O O2 0.387007 0.208949 0.556898
O O3 0.227952 0.276669 0.530202
O O4 0.297485 0.000000 0.500000
O O5 0.250000 0.059656 0.250000
O O6 0.220010 0.170964 0.359421
O O7 0.325195 0.934305 0.346868
O O8 0.162629 0.876189 0.319695
O O9 0.161672 0.623955 0.821850
O O10 0.102164 0.341908 0.835184
O O11 0.130253 0.416072 0.724593
O O12 0.000000 0.548410 0.782907
O O13 0.276616 0.533391 0.904787
O O14 0.500000 0.893504 0.361643
O O15 0.500000 0.764756 0.198128
O O16 0.399507 0.664214 0.108875
O O17 0.878264 0.500000 0.500000
#
# Coordination Sequence:
#
# PCOD9419169 Si02
#       7
#     8   8   8   8   8   8   8
#     4  11  20  39  62  91 129 172 216 253 311 377
#     4  12  24  40  65  92 124 170 208 261 320 375
#     4  10  22  39  61  92 129 165 211 260 312 381
#     4  11  23  38  63  93 130 167 211 256 317 383
#     4  11  22  39  63  94 130 172 215 254 307 385
#     4  11  23  43  68  91 123 168 216 266 321 379
#     4  10  22  39  64  94 126 164 214 265 317 380
#
# _framework density 20.066579000000001
#
# number of rings (size 3 to 8) (size 9 to 14) (size 15 to 20)
#    0.000    1.143    5.714    0.000    2.000    1.714 
#    0.000    2.143    0.000    8.143    0.000    0.000 
#    0.000    0.000    0.000    0.000    0.000    0.000 
#
# Total GULP energy -312747.166820 kJ/mol
# GULP energy per Si atom -5584.770836 kJ/mol
# Density = 2.002091 g / cm^3
# Si number density = 20.066579 Si / 1000 Ang^3
#
#
#
# Elastic Constant Matrix: (Units=GPa)
#
#
# Indices 1 2 3 4 5 6 
#
# 1 62.4063 21.8805 22.9458 0.0000 0.0000 0.0000
# 2 21.8805 56.7840 24.1508 0.0000 0.0000 0.0000
# 3 22.9458 24.1508 125.1013 0.0000 0.0000 0.0000
# 4 0.0000 0.0000 0.0000 34.7183 0.0000 0.0000
# 5 0.0000 0.0000 0.0000 0.0000 18.3962 0.0000
# 6 0.0000 0.0000 0.0000 0.0000 0.0000 -1.8130
#
#
#
# Elastic Compliance Matrix: (Units=1/GPa)
#
#
# Indices 1 2 3 4 5 6 
#
# 1 0.019100 -0.006395 -0.002269 0.000000 0.000000 0.000000
# 2 -0.006395 0.021327 -0.002944 0.000000 0.000000 0.000000
# 3 -0.002269 -0.002944 0.008978 0.000000 0.000000 0.000000
# 4 0.000000 0.000000 0.000000 0.028803 0.000000 0.000000
# 5 0.000000 0.000000 0.000000 0.000000 0.054359 0.000000
# 6 0.000000 0.000000 0.000000 0.000000 0.000000 -0.551574
#
#
# Mechanical properties :
#
#
# Convention : Reuss Voigt Hill
#
# Bulk Modulus (GPa) = 38.18337 42.47175 40.32756
# Shear Modulus (GPa) = -12.91787 21.94794 4.51504
#
# Velocity S-wave (km/s) = -2.53998 3.31079 1.50164
# Velocity P-wave (km/s) = 3.23538 5.98552 4.81114
#
# Compressibility (1/GPa) = 0.02618941
#
# Stress axis : x y z
#
# Youngs Moduli (GPa) = 52.35493 46.88896 111.38286
#
# Poissons Ratio (x) = 0.29985 0.25271
# Poissons Ratio (y) = 0.33481 0.32794
# Poissons Ratio (z) = 0.11878 0.13805
#
# Static dielectric constant tensor:
#      x y z
#    x 1.704760 0.000000 0.000000 
#    y 0.000000 1.703850 0.000000 
#    z 0.000000 0.000000 1.742790 
# 
# From -- ./inp_files/32459.got.cif
#   From: 2010.05.17/outbox.cif.g08.bks.cpg/sg53_17_cif.got.tgz:32459.got - 2010.06.03 12:45:16.
