data_PCOD9419463
_publ_section_title
;
Structure prediction by ZEFSAII (Michael W. Deem and Ramdas Pophale) SiO2 
 PCOD9419463
Probable space group: P M N A
;
_chemical_formula_sum "Si O2"
_cell_formula_units_Z 30
_cell_length_a 14.420362
_cell_length_b 17.123325
_cell_length_c 4.896955
_cell_angle_alpha 90.000000
_cell_angle_beta 90.000000
_cell_angle_gamma 90.000000
_cell_volume 1209.178386
_symmetry_space_group_name_H-M "P M N A"
_symmetry_group_IT_number 53
_symmetry_cell_setting 'orthorhombic'
loop_
_space_group_symop_operation_xyz
x,y,z
1/2-x,-y,1/2+z
x,-y,-z
1/2-x,y,1/2-z
-x,-y,-z
1/2+x,y,1/2-z
-x,y,z
1/2+x,-y,1/2+z
loop_
_atom_site_type_symbol
_atom_site_label
_atom_site_fract_x
_atom_site_fract_y
_atom_site_fract_z
Si Si1 0.250000 0.050511 0.250000
Si Si2 0.000000 0.500000 0.500000
Si Si3 0.110938 0.167220 0.548190
Si Si4 0.610501 0.267884 0.451389
Si Si5 0.852686 0.431975 0.814271
O O1 0.171772 0.100216 0.409430
O O2 0.292608 0.000000 0.500000
O O3 0.081149 0.566423 0.445126
O O4 0.137858 0.195763 0.850422
O O5 0.000000 0.149568 0.540827
O O6 0.128389 0.242392 0.355920
O O7 0.500000 0.277174 0.488623
O O8 0.653141 0.349122 0.541290
O O9 0.750000 0.457655 0.750000
O O10 0.898883 0.500000 0.000000
#
# Coordination Sequence:
#
# PCOD9419463 Si02
#       5
#     4   2   8   8   8
#     4  12  26  44  72 102 134 172 216 266 340 414
#     4  12  26  48  64  92 152 176 250 302 354 410
#     4  10  24  44  67 102 134 173 222 270 340 406
#     4  10  23  42  69  95 135 180 227 285 339 401
#     4  12  27  42  67  99 136 191 243 294 361 410
#
# _framework density 24.810233
#
# number of rings (size 3 to 8) (size 9 to 14) (size 15 to 20)
#    0.000    1.067    2.667    2.000    7.467    1.067 
#    0.000    0.000    0.000    0.000    0.000    0.000 
#    0.000    0.000    0.000    0.000    0.000    0.000 
#
# Total GULP energy -167533.753623 kJ/mol
# GULP energy per Si atom -5584.458454 kJ/mol
# Density = 2.475376 g / cm^3
# Si number density = 24.810233 Si / 1000 Ang^3
#
#
#
# Elastic Constant Matrix: (Units=GPa)
#
#
# Indices 1 2 3 4 5 6 
#
# 1 116.5188 11.0275 2.8192 0.0000 0.0000 0.0000
# 2 11.0275 82.8078 7.1683 0.0000 0.0000 0.0000
# 3 2.8192 7.1683 86.8944 0.0000 0.0000 0.0000
# 4 0.0000 0.0000 0.0000 36.5063 0.0000 0.0000
# 5 0.0000 0.0000 0.0000 0.0000 35.0162 0.0000
# 6 0.0000 0.0000 0.0000 0.0000 0.0000 47.4905
#
#
#
# Elastic Compliance Matrix: (Units=1/GPa)
#
#
# Indices 1 2 3 4 5 6 
#
# 1 0.008695 -0.001142 -0.000188 0.000000 0.000000 0.000000
# 2 -0.001142 0.012313 -0.000979 0.000000 0.000000 0.000000
# 3 -0.000188 -0.000979 0.011595 0.000000 0.000000 0.000000
# 4 0.000000 0.000000 0.000000 0.027393 0.000000 0.000000
# 5 0.000000 0.000000 0.000000 0.000000 0.028558 0.000000
# 6 0.000000 0.000000 0.000000 0.000000 0.000000 0.021057
#
#
# Mechanical properties :
#
#
# Convention : Reuss Voigt Hill
#
# Bulk Modulus (GPa) = 35.73169 36.47232 36.10200
# Shear Modulus (GPa) = 40.46758 41.48301 40.97529
#
# Velocity S-wave (km/s) = 4.04305 4.09346 4.06833
# Velocity P-wave (km/s) = 6.01899 6.08887 6.05403
#
# Compressibility (1/GPa) = 0.02798636
#
# Stress axis : x y z
#
# Youngs Moduli (GPa) = 115.00997 81.21553 86.24365
#
# Poissons Ratio (x) = 0.09272 0.01621
# Poissons Ratio (y) = 0.13130 0.08441
# Poissons Ratio (z) = 0.02161 0.07949
#
# Static dielectric constant tensor:
#      x y z
#    x 1.921540 0.000000 0.000000 
#    y 0.000000 1.969880 0.000000 
#    z 0.000000 0.000000 2.293870 
# 
# From -- ./inp_files/1241.got.cif
#   From: 2010.05.17/outbox.cif.g08.bks.cpg/sg53_1_cif.got.tgz:1241.got - 2010.06.03 12:45:16.
