data_PCOD9419425
_publ_section_title
;
Structure prediction by ZEFSAII (Michael W. Deem and Ramdas Pophale) SiO2 
 PCOD9419425
Probable space group: P M N A
;
_chemical_formula_sum "Si O2"
_cell_formula_units_Z 36
_cell_length_a 16.783124
_cell_length_b 5.145311
_cell_length_c 17.992927
_cell_angle_alpha 90.000000
_cell_angle_beta 90.000000
_cell_angle_gamma 90.000000
_cell_volume 1553.768281
_symmetry_space_group_name_H-M "P M N A"
_symmetry_group_IT_number 53
_symmetry_cell_setting 'orthorhombic'
loop_
_space_group_symop_operation_xyz
x,y,z
1/2-x,-y,1/2+z
x,-y,-z
1/2-x,y,1/2-z
-x,-y,-z
1/2+x,y,1/2-z
-x,y,z
1/2+x,-y,1/2+z
loop_
_atom_site_type_symbol
_atom_site_label
_atom_site_fract_x
_atom_site_fract_y
_atom_site_fract_z
Si Si1 0.376304 0.242757 0.956195
Si Si2 0.657926 0.492588 0.266965
Si Si3 0.592410 0.321131 0.425283
Si Si4 0.281443 0.000000 0.500000
Si Si5 0.091283 0.981406 0.294797
O O1 0.398324 0.170296 0.872824
O O2 0.280147 0.211043 0.966624
O O3 0.400552 0.500000 0.000000
O O4 0.410735 0.000000 0.000000
O O5 0.750000 0.438511 0.250000
O O6 0.620487 0.443136 0.347947
O O7 0.644787 0.799093 0.256094
O O8 0.614756 0.284070 0.211341
O O9 0.596980 0.500000 0.500000
O O10 0.500000 0.234203 0.419779
O O11 0.658654 0.102588 0.438411
O O12 0.000000 0.959848 0.271548
#
# Coordination Sequence:
#
# PCOD9419425 Si02
#       5
#     8   8   8   4   8
#     4  10  23  41  71 100 141 183 241 291 349 433
#     4  12  28  47  75 105 145 195 245 301 370 449
#     4  11  25  43  69 103 142 188 241 304 366 431
#     4  10  23  40  71  96 138 180 236 294 339 432
#     4  12  26  47  72 106 147 188 237 304 372 434
#
# _framework density 23.169478999999999
#
# number of rings (size 3 to 8) (size 9 to 14) (size 15 to 20)
#    0.667    0.222    0.000    6.333    9.333    0.889 
#    0.000    0.000    0.000    0.000    0.000    0.000 
#    0.000    0.000    0.000    0.000    0.000    0.000 
#
# Total GULP energy -200861.554696 kJ/mol
# GULP energy per Si atom -5579.487630 kJ/mol
# Density = 2.311674 g / cm^3
# Si number density = 23.169479 Si / 1000 Ang^3
#
#
#
# Elastic Constant Matrix: (Units=GPa)
#
#
# Indices 1 2 3 4 5 6 
#
# 1 139.5146 15.1916 6.6124 0.0000 0.0000 0.0000
# 2 15.1916 102.2916 4.5698 0.0000 0.0000 0.0000
# 3 6.6124 4.5698 64.7617 0.0000 0.0000 0.0000
# 4 0.0000 0.0000 0.0000 36.2025 0.0000 0.0000
# 5 0.0000 0.0000 0.0000 0.0000 75.8968 0.0000
# 6 0.0000 0.0000 0.0000 0.0000 0.0000 2.9878
#
#
#
# Elastic Compliance Matrix: (Units=1/GPa)
#
#
# Indices 1 2 3 4 5 6 
#
# 1 0.007315 -0.001056 -0.000672 0.000000 0.000000 0.000000
# 2 -0.001056 0.009959 -0.000595 0.000000 0.000000 0.000000
# 3 -0.000672 -0.000595 0.015552 0.000000 0.000000 0.000000
# 4 0.000000 0.000000 0.000000 0.027622 0.000000 0.000000
# 5 0.000000 0.000000 0.000000 0.000000 0.013176 0.000000
# 6 0.000000 0.000000 0.000000 0.000000 0.000000 0.334697
#
#
# Mechanical properties :
#
#
# Convention : Reuss Voigt Hill
#
# Bulk Modulus (GPa) = 35.48761 39.92395 37.70578
# Shear Modulus (GPa) = 11.83822 41.69701 26.76762
#
# Velocity S-wave (km/s) = 2.26285 4.24683 3.40265
# Velocity P-wave (km/s) = 4.70926 6.42776 5.63441
#
# Compressibility (1/GPa) = 0.02817885
#
# Stress axis : x y z
#
# Youngs Moduli (GPa) = 136.71300 100.40746 64.30099
#
# Poissons Ratio (x) = 0.10606 0.04323
# Poissons Ratio (y) = 0.14441 0.03825
# Poissons Ratio (z) = 0.09191 0.05973
#
# Static dielectric constant tensor:
#      x y z
#    x 1.823370 0.000000 0.000000 
#    y 0.000000 1.418610 0.000000 
#    z 0.000000 0.000000 2.066200 
# 
# From -- ./inp_files/28769.got.cif
#   From: 2010.05.17/outbox.cif.g08.bks.cpg/sg53_15_cif.got.tgz:28769.got - 2010.06.03 12:45:16.
