data_PCOD9419889
_publ_section_title
;
Structure prediction by ZEFSAII (Michael W. Deem and Ramdas Pophale) SiO2 
 PCOD9419889
Probable space group: P M N A
;
_chemical_formula_sum "Si O2"
_cell_formula_units_Z 48
_cell_length_a 17.601001
_cell_length_b 14.110481
_cell_length_c 10.140925
_cell_angle_alpha 90.000000
_cell_angle_beta 90.000000
_cell_angle_gamma 90.000000
_cell_volume 2518.585836
_symmetry_space_group_name_H-M "P M N A"
_symmetry_group_IT_number 53
_symmetry_cell_setting 'orthorhombic'
loop_
_space_group_symop_operation_xyz
x,y,z
1/2-x,-y,1/2+z
x,-y,-z
1/2-x,y,1/2-z
-x,-y,-z
1/2+x,y,1/2-z
-x,y,z
1/2+x,-y,1/2+z
loop_
_atom_site_type_symbol
_atom_site_label
_atom_site_fract_x
_atom_site_fract_y
_atom_site_fract_z
Si Si1 0.909900 0.889187 0.475819
Si Si2 0.909542 0.608079 0.155269
Si Si3 0.912367 0.888411 0.972553
Si Si4 0.160777 0.794610 0.725200
Si Si5 0.661328 0.201428 0.723599
Si Si6 0.909501 0.608233 0.840006
O O1 0.863579 0.826116 0.579900
O O2 0.885635 0.858710 0.329952
O O3 0.000000 0.874736 0.494802
O O4 0.893340 0.000000 0.500000
O O5 0.863897 0.689117 0.229663
O O6 0.889999 0.500406 0.194260
O O7 0.000000 0.621017 0.176002
O O8 0.896396 0.618164 0.997537
O O9 0.861176 0.835410 0.079265
O O10 0.000000 0.857251 0.988221
O O11 0.884106 0.861869 0.827672
O O12 0.908469 0.000000 0.000000
O O13 0.250000 0.805294 0.750000
O O14 0.135127 0.688049 0.760880
O O15 0.750000 0.190462 0.750000
O O16 0.000000 0.620875 0.818984
#
# Coordination Sequence:
#
# PCOD9419889 Si02
#       6
#     8   8   8   8   8   8
#     4  11  25  43  60  83 122 167 201 238 298 361
#     4   9  18  36  64  91 115 152 203 252 295 349
#     4  11  23  41  66  89 112 157 219 260 284 347
#     4  12  24  38  61  92 126 157 193 250 308 358
#     4  12  24  38  61  92 126 157 193 250 308 358
#     4   9  18  36  64  91 115 152 203 252 295 349
#
# _framework density 19.058315
#
# number of rings (size 3 to 8) (size 9 to 14) (size 15 to 20)
#    0.000    1.333    1.667    6.000    0.000    7.333 
#    0.000    0.833    0.000    3.000    0.000    0.000 
#    0.000    0.000    0.000    0.000    0.000    0.000 
#
# Total GULP energy -268397.463957 kJ/mol
# GULP energy per Si atom -5591.613832 kJ/mol
# Density = 1.901494 g / cm^3
# Si number density = 19.058315 Si / 1000 Ang^3
#
#
#
# Elastic Constant Matrix: (Units=GPa)
#
#
# Indices 1 2 3 4 5 6 
#
# 1 68.2912 20.3399 -18.4815 0.0000 0.0000 0.0000
# 2 20.3399 77.6632 -15.3722 0.0000 0.0000 0.0000
# 3 -18.4815 -15.3722 16.5481 0.0000 0.0000 0.0000
# 4 0.0000 0.0000 0.0000 28.9588 0.0000 0.0000
# 5 0.0000 0.0000 0.0000 0.0000 11.4191 0.0000
# 6 0.0000 0.0000 0.0000 0.0000 0.0000-1560.1903
#
#
#
# Elastic Compliance Matrix: (Units=1/GPa)
#
#
# Indices 1 2 3 4 5 6 
#
# 1 0.021056 -0.001054 0.022538 0.000000 0.000000 0.000000
# 2 -0.001054 0.015830 0.013528 0.000000 0.000000 0.000000
# 3 0.022538 0.013528 0.098168 0.000000 0.000000 0.000000
# 4 0.000000 0.000000 0.000000 0.034532 0.000000 0.000000
# 5 0.000000 0.000000 0.000000 0.000000 0.087573 0.000000
# 6 0.000000 0.000000 0.000000 0.000000 0.000000 -0.000641
#
#
# Mechanical properties :
#
#
# Convention : Reuss Voigt Hill
#
# Bulk Modulus (GPa) = 4.87619 15.05276 9.96447
# Shear Modulus (GPa) = 19.61919 -292.22807 -136.30444
#
# Velocity S-wave (km/s) = 3.21195 -12.39623 -8.46611
# Velocity P-wave (km/s) = 4.03976 14.03472 9.50404
#
# Compressibility (1/GPa) = 0.20507815
#
# Stress axis : x y z
#
# Youngs Moduli (GPa) = 47.49170 63.17213 10.18665
#
# Poissons Ratio (x) = 0.06656 -0.22958
# Poissons Ratio (y) = 0.05004 -0.13781
# Poissons Ratio (z) = -1.07035 -0.85461
#
# Static dielectric constant tensor:
#      x y z
#    x 1.632420 0.000000 0.000000 
#    y 0.000000 1.670560 0.000000 
#    z 0.000000 0.000000 1.620750 
# 
# From -- ./inp_files/9987.got.cif
#   From: 2010.05.17/outbox.cif.g08.bks.cpg/sg53_5_cif.got.tgz:9987.got - 2010.06.03 12:45:16.
