data_PCOD9419865
_publ_section_title
;
Structure prediction by ZEFSAII (Michael W. Deem and Ramdas Pophale) SiO2 
 PCOD9419865
Probable space group: P M N A
;
_chemical_formula_sum "Si O2"
_cell_formula_units_Z 40
_cell_length_a 8.144402
_cell_length_b 27.336051
_cell_length_c 9.277431
_cell_angle_alpha 90.000000
_cell_angle_beta 90.000000
_cell_angle_gamma 90.000000
_cell_volume 2065.488165
_symmetry_space_group_name_H-M "P M N A"
_symmetry_group_IT_number 53
_symmetry_cell_setting 'orthorhombic'
loop_
_space_group_symop_operation_xyz
x,y,z
1/2-x,-y,1/2+z
x,-y,-z
1/2-x,y,1/2-z
-x,-y,-z
1/2+x,y,1/2-z
-x,y,z
1/2+x,-y,1/2+z
loop_
_atom_site_type_symbol
_atom_site_label
_atom_site_fract_x
_atom_site_fract_y
_atom_site_fract_z
Si Si1 0.801316 0.952339 0.083473
Si Si2 0.303926 0.644304 0.585041
Si Si3 0.802048 0.846349 0.082334
Si Si4 0.801175 0.739731 0.082851
Si Si5 0.303835 0.452192 0.915505
O O1 0.750000 0.955396 0.250000
O O2 0.744771 0.899108 0.023895
O O3 0.000000 0.952654 0.077159
O O4 0.739473 0.000000 0.000000
O O5 0.250000 0.640525 0.750000
O O6 0.500000 0.646211 0.581528
O O7 0.240057 0.694055 0.510163
O O8 0.250122 0.597069 0.495206
O O9 0.750000 0.846520 0.250000
O O10 0.744540 0.793341 0.026873
O O11 0.000000 0.846326 0.074249
O O12 0.750000 0.734421 0.250000
O O13 0.000000 0.739560 0.079462
O O14 0.250000 0.452543 0.750000
O O15 0.500000 0.453906 0.918834
O O16 0.239359 0.500000 0.000000
#
# Coordination Sequence:
#
# PCOD9419865 Si02
#       5
#     8   8   8   8   8
#     4   9  17  29  46  68  94 126 163 204 250 300
#     4  11  23  38  56  79 109 143 178 216 260 309
#     4   8  14  27  46  67  93 124 161 204 249 298
#     4   9  18  32  52  76  99 128 167 211 256 303
#     4  11  24  41  62  87 114 144 178 216 258 305
#
# _framework density 19.365883
#
# number of rings (size 3 to 8) (size 9 to 14) (size 15 to 20)
#    0.000    2.400    0.000    2.400    0.000    6.800 
#    0.000    1.000    0.000    0.000    0.000    0.000 
#    0.000    0.000    0.000    0.000    0.000    0.000 
#
# Total GULP energy -223020.436748 kJ/mol
# GULP energy per Si atom -5575.510919 kJ/mol
# Density = 1.932180 g / cm^3
# Si number density = 19.365883 Si / 1000 Ang^3
#
#
#
# Elastic Constant Matrix: (Units=GPa)
#
#
# Indices 1 2 3 4 5 6 
#
# 1 21.6388 22.0879 9.1773 0.0000 0.0000 0.0000
# 2 22.0879 256.1392 102.1646 0.0000 0.0000 0.0000
# 3 9.1773 102.1646 108.0424 0.0000 0.0000 0.0000
# 4 0.0000 0.0000 0.0000 34.3351 0.0000 0.0000
# 5 0.0000 0.0000 0.0000 0.0000 26.3241 0.0000
# 6 0.0000 0.0000 0.0000 0.0000 0.0000 116.9754
#
#
#
# Elastic Compliance Matrix: (Units=1/GPa)
#
#
# Indices 1 2 3 4 5 6 
#
# 1 0.050679 -0.004260 -0.000277 0.000000 0.000000 0.000000
# 2 -0.004260 0.006626 -0.005904 0.000000 0.000000 0.000000
# 3 -0.000277 -0.005904 0.014862 0.000000 0.000000 0.000000
# 4 0.000000 0.000000 0.000000 0.029125 0.000000 0.000000
# 5 0.000000 0.000000 0.000000 0.000000 0.037988 0.000000
# 6 0.000000 0.000000 0.000000 0.000000 0.000000 0.008549
#
#
# Mechanical properties :
#
#
# Convention : Reuss Voigt Hill
#
# Bulk Modulus (GPa) = 19.49841 72.51999 46.00920
# Shear Modulus (GPa) = 26.90988 52.35296 39.63142
#
# Velocity S-wave (km/s) = 3.73171 5.20503 4.52868
# Velocity P-wave (km/s) = 5.35330 8.58205 7.15225
#
# Compressibility (1/GPa) = 0.05128624
#
# Stress axis : x y z
#
# Youngs Moduli (GPa) = 19.73206 150.91162 67.28578
#
# Poissons Ratio (x) = 0.64288 0.01861
# Poissons Ratio (y) = 0.08406 0.39726
# Poissons Ratio (z) = 0.00546 0.89099
#
# Static dielectric constant tensor:
#      x y z
#    x 1.672500 0.000000 0.000000 
#    y 0.000000 1.749520 0.000000 
#    z 0.000000 0.000000 1.603030 
# 
# From -- ./inp_files/6266.got.cif
#   From: 2010.05.17/outbox.cif.g08.bks.cpg/sg53_4_cif.got.tgz:6266.got - 2010.06.03 12:45:16.
