data_PCOD9419010
_publ_section_title
;
Structure prediction by ZEFSAII (Michael W. Deem and Ramdas Pophale) SiO2 
 PCOD9419010
Probable space group: P M N A
;
_chemical_formula_sum "Si O2"
_cell_formula_units_Z 56
_cell_length_a 14.767977
_cell_length_b 12.497301
_cell_length_c 13.823518
_cell_angle_alpha 90.000000
_cell_angle_beta 90.000000
_cell_angle_gamma 90.000000
_cell_volume 2551.266460
_symmetry_space_group_name_H-M "P M N A"
_symmetry_group_IT_number 53
_symmetry_cell_setting 'orthorhombic'
loop_
_space_group_symop_operation_xyz
x,y,z
1/2-x,-y,1/2+z
x,-y,-z
1/2-x,y,1/2-z
-x,-y,-z
1/2+x,y,1/2-z
-x,y,z
1/2+x,-y,1/2+z
loop_
_atom_site_type_symbol
_atom_site_label
_atom_site_fract_x
_atom_site_fract_y
_atom_site_fract_z
Si Si1 0.308328 0.415403 0.153237
Si Si2 0.892897 0.216928 0.239051
Si Si3 0.216922 0.750921 0.957917
Si Si4 0.896150 0.841179 0.474093
Si Si5 0.896463 0.363099 0.668258
Si Si6 0.608276 0.020306 0.788768
Si Si7 0.110862 0.783040 0.156817
O O1 0.250000 0.433551 0.250000
O O2 0.370981 0.315619 0.189091
O O3 0.253375 0.368614 0.062945
O O4 0.352575 0.528386 0.132866
O O5 0.842626 0.229691 0.137120
O O6 0.000000 0.215406 0.224155
O O7 0.862058 0.100475 0.275291
O O8 0.305464 0.826150 0.964765
O O9 0.159065 0.765982 0.054824
O O10 0.896499 0.732049 0.409905
O O11 0.879315 0.934626 0.396397
O O12 0.000000 0.852153 0.515299
O O13 0.861518 0.310331 0.767908
O O14 0.000000 0.390987 0.689007
O O15 0.500000 0.021049 0.775335
O O16 0.641071 0.106067 0.708847
O O17 0.000000 0.783151 0.148262
#
# Coordination Sequence:
#
# PCOD9419010 Si02
#       7
#     8   8   8   8   8   8   8
#     4  10  23  39  54  81 126 167 205 240 302 370
#     4  10  21  42  64  85 123 168 206 245 305 375
#     4  11  23  38  57  99 125 158 200 258 312 352
#     4   9  20  39  62  93 122 156 207 255 305 358
#     4   9  19  38  64  86 114 164 210 246 304 372
#     4   8  17  38  65  88 119 163 203 247 305 371
#     4   9  19  38  64  96 123 152 202 258 311 359
#
# _framework density 21.949883
#
# number of rings (size 3 to 8) (size 9 to 14) (size 15 to 20)
#    0.000    2.571    0.000    2.571    2.000    4.000 
#   12.857    3.571    0.000    6.857    0.000    0.000 
#    0.000    0.000    0.000    0.000    0.000    0.000 
#
# Total GULP energy -312798.298522 kJ/mol
# GULP energy per Si atom -5585.683902 kJ/mol
# Density = 2.189992 g / cm^3
# Si number density = 21.949883 Si / 1000 Ang^3
#
#
#
# Elastic Constant Matrix: (Units=GPa)
#
#
# Indices 1 2 3 4 5 6 
#
# 1 98.6924 42.2178 46.7468 0.0000 0.0000 0.0000
# 2 42.2178 156.9271 42.8478 0.0000 0.0000 0.0000
# 3 46.7468 42.8478 95.3283 0.0000 0.0000 0.0000
# 4 0.0000 0.0000 0.0000 14.2062 0.0000 0.0000
# 5 0.0000 0.0000 0.0000 0.0000 29.7696 0.0000
# 6 0.0000 0.0000 0.0000 0.0000 0.0000 -2.5137
#
#
#
# Elastic Compliance Matrix: (Units=1/GPa)
#
#
# Indices 1 2 3 4 5 6 
#
# 1 0.013793 -0.002125 -0.005809 0.000000 0.000000 0.000000
# 2 -0.002125 0.007591 -0.002370 0.000000 0.000000 0.000000
# 3 -0.005809 -0.002370 0.014404 0.000000 0.000000 0.000000
# 4 0.000000 0.000000 0.000000 0.070392 0.000000 0.000000
# 5 0.000000 0.000000 0.000000 0.000000 0.033591 0.000000
# 6 0.000000 0.000000 0.000000 0.000000 0.000000 -0.397815
#
#
# Mechanical properties :
#
#
# Convention : Reuss Voigt Hill
#
# Bulk Modulus (GPa) = 65.87282 68.28584 67.07933
# Shear Modulus (GPa) = -21.51677 22.90144 0.69233
#
# Velocity S-wave (km/s) = -3.13432 3.23360 0.56223
# Velocity P-wave (km/s) = 4.12033 6.71707 5.57208
#
# Compressibility (1/GPa) = 0.01518077
#
# Stress axis : x y z
#
# Youngs Moduli (GPa) = 72.50224 131.73286 69.42594
#
# Poissons Ratio (x) = 0.27988 0.40327
# Poissons Ratio (y) = 0.15404 0.16455
# Poissons Ratio (z) = 0.42114 0.31223
#
# Static dielectric constant tensor:
#      x y z
#    x 1.831340 0.000000 0.000000 
#    y 0.000000 1.818010 0.000000 
#    z 0.000000 0.000000 1.809240 
# 
# From -- ./inp_files/22805.got.cif
#   From: 2010.05.17/outbox.cif.g08.bks.cpg/sg53_12_cif.got.tgz:22805.got - 2010.06.03 12:45:16.
