data_PCOD9419683
_publ_section_title
;
Structure prediction by ZEFSAII (Michael W. Deem and Ramdas Pophale) SiO2 
 PCOD9419683
Probable space group: P M N A
;
_chemical_formula_sum "Si O2"
_cell_formula_units_Z 40
_cell_length_a 18.294686
_cell_length_b 12.298560
_cell_length_c 8.175165
_cell_angle_alpha 90.000000
_cell_angle_beta 90.000000
_cell_angle_gamma 90.000000
_cell_volume 1839.398174
_symmetry_space_group_name_H-M "P M N A"
_symmetry_group_IT_number 53
_symmetry_cell_setting 'orthorhombic'
loop_
_space_group_symop_operation_xyz
x,y,z
1/2-x,-y,1/2+z
x,-y,-z
1/2-x,y,1/2-z
-x,-y,-z
1/2+x,y,1/2-z
-x,y,z
1/2+x,-y,1/2+z
loop_
_atom_site_type_symbol
_atom_site_label
_atom_site_fract_x
_atom_site_fract_y
_atom_site_fract_z
Si Si1 0.582894 0.451900 0.813159
Si Si2 0.588243 0.767062 0.030526
Si Si3 0.085559 0.034768 0.731755
Si Si4 0.164497 0.653344 0.779340
Si Si5 0.585872 0.830372 0.567042
O O1 0.500000 0.463091 0.751320
O O2 0.601139 0.325189 0.831119
O O3 0.636623 0.530020 0.716242
O O4 0.583084 0.500000 0.000000
O O5 0.500000 0.771089 0.008583
O O6 0.614380 0.886300 0.088549
O O7 0.624862 0.715514 0.871605
O O8 0.000000 0.016323 0.694308
O O9 0.112731 0.918332 0.796092
O O10 0.088421 0.108820 0.894483
O O11 0.250000 0.657062 0.750000
O O12 0.135432 0.724258 0.929392
O O13 0.500000 0.804441 0.598516
#
# Coordination Sequence:
#
# PCOD9419683 Si02
#       5
#     8   8   8   8   8
#     4   8  15  31  54  74  95 129 172 216 256 296
#     4   9  17  34  59  81 100 130 175 219 259 308
#     4   8  16  32  55  78  99 129 171 216 259 304
#     4  11  21  32  47  74 108 138 172 210 253 308
#     4   9  17  33  54  75 102 133 167 213 264 304
#
# _framework density 21.746244000000001
#
# number of rings (size 3 to 8) (size 9 to 14) (size 15 to 20)
#    0.000    3.000    0.000    4.200    0.000    0.800 
#    0.000   15.000    0.000    4.800    0.000    0.000 
#    0.000    0.000    0.000    0.000    0.000    0.000 
#
# Total GULP energy -223138.979949 kJ/mol
# GULP energy per Si atom -5578.474499 kJ/mol
# Density = 2.169675 g / cm^3
# Si number density = 21.746244 Si / 1000 Ang^3
#
#
#
# Elastic Constant Matrix: (Units=GPa)
#
#
# Indices 1 2 3 4 5 6 
#
# 1 41.1375 34.8140 -2.5743 0.0000 0.0000 0.0000
# 2 34.8140 110.6087 4.2668 0.0000 0.0000 0.0000
# 3 -2.5743 4.2668 48.1867 0.0000 0.0000 0.0000
# 4 0.0000 0.0000 0.0000 26.6070 0.0000 0.0000
# 5 0.0000 0.0000 0.0000 0.0000 140.5142 0.0000
# 6 0.0000 0.0000 0.0000 0.0000 0.0000 1.1645
#
#
#
# Elastic Compliance Matrix: (Units=1/GPa)
#
#
# Indices 1 2 3 4 5 6 
#
# 1 0.033489 -0.010646 0.002732 0.000000 0.000000 0.000000
# 2 -0.010646 0.012456 -0.001672 0.000000 0.000000 0.000000
# 3 0.002732 -0.001672 0.021047 0.000000 0.000000 0.000000
# 4 0.000000 0.000000 0.000000 0.037584 0.000000 0.000000
# 5 0.000000 0.000000 0.000000 0.000000 0.007117 0.000000
# 6 0.000000 0.000000 0.000000 0.000000 0.000000 0.858773
#
#
# Mechanical properties :
#
#
# Convention : Reuss Voigt Hill
#
# Bulk Modulus (GPa) = 20.91173 30.32734 25.61953
# Shear Modulus (GPa) = 4.97226 44.55223 24.76225
#
# Velocity S-wave (km/s) = 1.51376 4.53120 3.37811
# Velocity P-wave (km/s) = 3.56264 6.43055 5.19829
#
# Compressibility (1/GPa) = 0.04782005
#
# Stress axis : x y z
#
# Youngs Moduli (GPa) = 29.86025 80.28109 47.51366
#
# Poissons Ratio (x) = 0.85468 -0.12980
# Poissons Ratio (y) = 0.31790 0.07943
# Poissons Ratio (z) = -0.08157 0.13421
#
# Static dielectric constant tensor:
#      x y z
#    x 1.712230 0.000000 0.000000 
#    y 0.000000 1.838170 0.000000 
#    z 0.000000 0.000000 1.902870 
# 
# From -- ./inp_files/8419.got.cif
#   From: 2010.05.17/outbox.cif.g08.bks.cpg/sg53_5_cif.got.tgz:8419.got - 2010.06.03 12:45:16.
