data_PCOD9419202
_publ_section_title
;
Structure prediction by ZEFSAII (Michael W. Deem and Ramdas Pophale) SiO2 
 PCOD9419202
Probable space group: P M N A
;
_chemical_formula_sum "Si O2"
_cell_formula_units_Z 40
_cell_length_a 8.453949
_cell_length_b 13.195673
_cell_length_c 18.839082
_cell_angle_alpha 90.000000
_cell_angle_beta 90.000000
_cell_angle_gamma 90.000000
_cell_volume 2101.604089
_symmetry_space_group_name_H-M "P M N A"
_symmetry_group_IT_number 53
_symmetry_cell_setting 'orthorhombic'
loop_
_space_group_symop_operation_xyz
x,y,z
1/2-x,-y,1/2+z
x,-y,-z
1/2-x,y,1/2-z
-x,-y,-z
1/2+x,y,1/2-z
-x,y,z
1/2+x,-y,1/2+z
loop_
_atom_site_type_symbol
_atom_site_label
_atom_site_fract_x
_atom_site_fract_y
_atom_site_fract_z
Si Si1 0.307537 0.116320 0.579995
Si Si2 0.811004 0.697475 0.670257
Si Si3 0.191090 0.113041 0.083582
Si Si4 0.810113 0.691226 0.169790
Si Si5 0.691515 0.498601 0.081906
O O1 0.500000 0.116368 0.580499
O O2 0.260307 0.134741 0.498081
O O3 0.253369 0.205328 0.631625
O O4 0.258064 0.002316 0.600395
O O5 0.750000 0.686188 0.750000
O O6 0.755974 0.802590 0.635821
O O7 0.755261 0.603676 0.621594
O O8 0.000000 0.695364 0.671374
O O9 0.000000 0.115617 0.085861
O O10 0.750000 0.684597 0.250000
O O11 0.752312 0.595795 0.124266
O O12 0.000000 0.691720 0.170310
O O13 0.500000 0.500545 0.082621
O O14 0.743778 0.500000 0.000000
#
# Coordination Sequence:
#
# PCOD9419202 Si02
#       5
#     8   8   8   8   8
#     4   8  17  34  57  83 110 143 180 222 270 321
#     4  11  23  37  54  79 111 144 179 221 270 321
#     4   9  17  35  60  82 108 142 182 224 268 319
#     4  11  22  36  55  81 112 145 183 223 269 323
#     4  10  22  40  60  82 109 140 177 225 277 326
#
# _framework density 19.033079000000001
#
# number of rings (size 3 to 8) (size 9 to 14) (size 15 to 20)
#    0.000    2.200    0.000    4.200    0.000    4.400 
#    0.000    7.000    0.000    0.000    0.000    0.000 
#    0.000    0.000    0.000    0.000    0.000    0.000 
#
# Total GULP energy -223396.141597 kJ/mol
# GULP energy per Si atom -5584.903540 kJ/mol
# Density = 1.898976 g / cm^3
# Si number density = 19.033079 Si / 1000 Ang^3
#
#
#
# Elastic Constant Matrix: (Units=GPa)
#
#
# Indices 1 2 3 4 5 6 
#
# 1 16.4578 21.7744 25.0481 0.0000 0.0000 0.0000
# 2 21.7744 149.5352 110.6732 0.0000 0.0000 0.0000
# 3 25.0481 110.6732 169.8774 0.0000 0.0000 0.0000
# 4 0.0000 0.0000 0.0000 -47.5892 0.0000 0.0000
# 5 0.0000 0.0000 0.0000 0.0000 -17.5653 0.0000
# 6 0.0000 0.0000 0.0000 0.0000 0.0000 -40.2398
#
#
#
# Elastic Compliance Matrix: (Units=1/GPa)
#
#
# Indices 1 2 3 4 5 6 
#
# 1 0.080775 -0.005691 -0.008202 0.000000 0.000000 0.000000
# 2 -0.005691 0.013315 -0.007836 0.000000 0.000000 0.000000
# 3 -0.008202 -0.007836 0.012201 0.000000 0.000000 0.000000
# 4 0.000000 0.000000 0.000000 -0.021013 0.000000 0.000000
# 5 0.000000 0.000000 0.000000 0.000000 -0.056930 0.000000
# 6 0.000000 0.000000 0.000000 0.000000 0.000000 -0.024851
#
#
# Mechanical properties :
#
#
# Convention : Reuss Voigt Hill
#
# Bulk Modulus (GPa) = 15.91528 72.31798 44.11663
# Shear Modulus (GPa) = 73.63813 -9.18722 32.22545
#
# Velocity S-wave (km/s) = 6.22684 -2.19942 4.11923
# Velocity P-wave (km/s) = 7.75101 5.62392 6.77151
#
# Compressibility (1/GPa) = 0.06283271
#
# Stress axis : x y z
#
# Youngs Moduli (GPa) = 12.38006 75.10094 81.96140
#
# Poissons Ratio (x) = 0.42742 0.67227
# Poissons Ratio (y) = 0.07046 0.64222
# Poissons Ratio (z) = 0.10155 0.58847
#
# Static dielectric constant tensor:
#      x y z
#    x 1.650070 0.000000 0.000000 
#    y 0.000000 1.648220 0.000000 
#    z 0.000000 0.000000 1.630250 
# 
# From -- ./inp_files/25842.got.cif
#   From: 2010.05.17/outbox.cif.g08.bks.cpg/sg53_13_cif.got.tgz:25842.got - 2010.06.03 12:45:16.
