data_PCOD9419043
_publ_section_title
;
Structure prediction by ZEFSAII (Michael W. Deem and Ramdas Pophale) SiO2 
 PCOD9419043
Probable space group: P M N A
;
_chemical_formula_sum "Si O2"
_cell_formula_units_Z 20
_cell_length_a 28.627545
_cell_length_b 5.018556
_cell_length_c 5.118959
_cell_angle_alpha 90.000000
_cell_angle_beta 90.000000
_cell_angle_gamma 90.000000
_cell_volume 735.435402
_symmetry_space_group_name_H-M "P M N A"
_symmetry_group_IT_number 53
_symmetry_cell_setting 'orthorhombic'
loop_
_space_group_symop_operation_xyz
x,y,z
1/2-x,-y,1/2+z
x,-y,-z
1/2-x,y,1/2-z
-x,-y,-z
1/2+x,y,1/2-z
-x,y,z
1/2+x,-y,1/2+z
loop_
_atom_site_type_symbol
_atom_site_label
_atom_site_fract_x
_atom_site_fract_y
_atom_site_fract_z
Si Si1 0.250000 0.802083 0.250000
Si Si2 0.830544 0.500000 0.000000
Si Si3 0.500000 0.688717 0.250493
Si Si4 0.102895 0.228008 0.677659
O O1 0.206202 0.602201 0.217275
O O2 0.248661 0.000000 0.500000
O O3 0.869087 0.273768 0.943642
O O4 0.500000 0.500000 0.500000
O O5 0.450941 0.839634 0.240171
O O6 0.500000 0.500000 0.000000
O O7 0.104491 0.500000 0.500000
O O8 0.124501 0.000000 0.500000
#
# Coordination Sequence:
#
# PCOD9419043 Si02
#       4
#     4   4   4   8
#     4  12  30  52  80 110 160 210 278 354 428 498
#     4  12  28  49  78 114 156 211 280 336 426 492
#     4  10  21  48  74 121 167 215 264 330 402 489
#     4  11  26  47  79 118 164 214 270 334 408 494
#
# _framework density 27.194775
#
# number of rings (size 3 to 8) (size 9 to 14) (size 15 to 20)
#    0.000    0.800    2.000    3.000   14.000    0.000 
#    0.000    4.000    0.000    0.000    0.000    0.000 
#    0.000    0.000    0.000    0.000    0.000    0.000 
#
# Total GULP energy -111676.106421 kJ/mol
# GULP energy per Si atom -5583.805321 kJ/mol
# Density = 2.713288 g / cm^3
# Si number density = 27.194775 Si / 1000 Ang^3
#
#
#
# Elastic Constant Matrix: (Units=GPa)
#
#
# Indices 1 2 3 4 5 6 
#
# 1 203.7959 26.0307 23.2068 0.0000 0.0000 0.0000
# 2 26.0307 155.9762 79.6313 0.0000 0.0000 0.0000
# 3 23.2068 79.6313 205.2373 0.0000 0.0000 0.0000
# 4 0.0000 0.0000 0.0000 77.9076 0.0000 0.0000
# 5 0.0000 0.0000 0.0000 0.0000 -774.0680 0.0000
# 6 0.0000 0.0000 0.0000 0.0000 0.0000 -303.9131
#
#
#
# Elastic Compliance Matrix: (Units=1/GPa)
#
#
# Indices 1 2 3 4 5 6 
#
# 1 0.005029 -0.000685 -0.000303 0.000000 0.000000 0.000000
# 2 -0.000685 0.008088 -0.003061 0.000000 0.000000 0.000000
# 3 -0.000303 -0.003061 0.006094 0.000000 0.000000 0.000000
# 4 0.000000 0.000000 0.000000 0.012836 0.000000 0.000000
# 5 0.000000 0.000000 0.000000 0.000000 -0.001292 0.000000
# 6 0.000000 0.000000 0.000000 0.000000 0.000000 -0.003290
#
#
# Mechanical properties :
#
#
# Convention : Reuss Voigt Hill
#
# Bulk Modulus (GPa) = 89.97249 91.41630 90.69439
# Shear Modulus (GPa) = 127.33649 -170.93867 -21.80109
#
# Velocity S-wave (km/s) = 6.85022 -7.93685 -2.83444
# Velocity P-wave (km/s) = 9.78385 7.09247 4.76553
#
# Compressibility (1/GPa) = 0.01111451
#
# Stress axis : x y z
#
# Youngs Moduli (GPa) = 198.85405 123.63847 164.08964
#
# Poissons Ratio (x) = 0.08464 0.04972
# Poissons Ratio (y) = 0.13613 0.50224
# Poissons Ratio (z) = 0.06026 0.37843
#
# Static dielectric constant tensor:
#      x y z
#    x 2.119680 0.000000 0.000000 
#    y 0.000000 2.047800 0.000000 
#    z 0.000000 0.000000 2.171130 
# 
# From -- ./inp_files/3987.got.cif
#   From: 2010.05.17/outbox.cif.g08.bks.cpg/sg53_2_cif.got.tgz:3987.got - 2010.06.03 12:45:16.
