data_PCOD9419924
_publ_section_title
;
Structure prediction by ZEFSAII (Michael W. Deem and Ramdas Pophale) SiO2 
 PCOD9419924
Probable space group: P M N A
;
_chemical_formula_sum "Si O2"
_cell_formula_units_Z 40
_cell_length_a 21.326543
_cell_length_b 5.460754
_cell_length_c 16.357516
_cell_angle_alpha 90.000000
_cell_angle_beta 90.000000
_cell_angle_gamma 90.000000
_cell_volume 1904.980038
_symmetry_space_group_name_H-M "P M N A"
_symmetry_group_IT_number 53
_symmetry_cell_setting 'orthorhombic'
loop_
_space_group_symop_operation_xyz
x,y,z
1/2-x,-y,1/2+z
x,-y,-z
1/2-x,y,1/2-z
-x,-y,-z
1/2+x,y,1/2-z
-x,y,z
1/2+x,-y,1/2+z
loop_
_atom_site_type_symbol
_atom_site_label
_atom_site_fract_x
_atom_site_fract_y
_atom_site_fract_z
Si Si1 0.393729 0.000000 0.000000
Si Si2 0.750000 0.356353 0.250000
Si Si3 0.000000 0.736861 0.310527
Si Si4 0.632940 0.292112 0.720246
Si Si5 0.203827 0.035826 0.644033
Si Si6 0.183960 0.748363 0.052741
Si Si7 0.500000 0.751258 0.916750
O O1 0.349856 0.032556 0.922637
O O2 0.439736 0.782463 0.974287
O O3 0.817530 0.491024 0.240853
O O4 0.758248 0.207481 0.335035
O O5 0.936243 0.705268 0.258147
O O6 0.000000 0.501753 0.369750
O O7 0.000000 0.003175 0.357181
O O8 0.670623 0.083215 0.769448
O O9 0.631250 0.257243 0.623164
O O10 0.252851 0.230047 0.607925
O O11 0.183216 0.500000 0.000000
O O12 0.181534 0.000000 0.000000
#
# Coordination Sequence:
#
# PCOD9419924 Si02
#       7
#     4   4   4   8   8   8   4
#     4  11  24  42  68 108 152 185 240 290 372 433
#     4  12  22  44  74 102 152 186 256 296 360 432
#     4  12  28  49  76 101 148 203 243 287 375 442
#     4  12  26  45  71 108 143 196 245 301 365 446
#     4  12  23  41  71 106 146 189 235 303 366 435
#     4  12  26  43  69 104 141 180 241 309 365 421
#     4  11  26  48  66 107 152 195 231 290 349 474
#
# _framework density 20.997595
#
# number of rings (size 3 to 8) (size 9 to 14) (size 15 to 20)
#    0.000    0.200    7.000    2.400    0.000    3.200 
#    3.600    1.000    0.000    0.000    0.000    0.000 
#    0.000    0.000    0.000    0.000    0.000    0.000 
#
# Total GULP energy -223178.635414 kJ/mol
# GULP energy per Si atom -5579.465885 kJ/mol
# Density = 2.094980 g / cm^3
# Si number density = 20.997595 Si / 1000 Ang^3
#
#
#
# Elastic Constant Matrix: (Units=GPa)
#
#
# Indices 1 2 3 4 5 6 
#
# 1 120.9155 51.2084 50.9629 0.0000 0.0000 0.0000
# 2 51.2084 127.9510 62.8619 0.0000 0.0000 0.0000
# 3 50.9629 62.8619 127.5288 0.0000 0.0000 0.0000
# 4 0.0000 0.0000 0.0000 37.6271 0.0000 0.0000
# 5 0.0000 0.0000 0.0000 0.0000 58.0108 0.0000
# 6 0.0000 0.0000 0.0000 0.0000 0.0000 -6.1037
#
#
#
# Elastic Compliance Matrix: (Units=1/GPa)
#
#
# Indices 1 2 3 4 5 6 
#
# 1 0.010692 -0.002876 -0.002855 0.000000 0.000000 0.000000
# 2 -0.002876 0.011087 -0.004315 0.000000 0.000000 0.000000
# 3 -0.002855 -0.004315 0.011109 0.000000 0.000000 0.000000
# 4 0.000000 0.000000 0.000000 0.026577 0.000000 0.000000
# 5 0.000000 0.000000 0.000000 0.000000 0.017238 0.000000
# 6 0.000000 0.000000 0.000000 0.000000 0.000000 -0.163835
#
#
# Mechanical properties :
#
#
# Convention : Reuss Voigt Hill
#
# Bulk Modulus (GPa) = 78.15829 78.49576 78.32702
# Shear Modulus (GPa) = -79.65016 31.99765 -23.82626
#
# Velocity S-wave (km/s) = -6.16566 3.90792 -3.37221
# Velocity P-wave (km/s) = 3.65839 7.60439 4.71397
#
# Compressibility (1/GPa) = 0.01279455
#
# Stress axis : x y z
#
# Youngs Moduli (GPa) = 93.53112 90.19651 90.01421
#
# Poissons Ratio (x) = 0.25945 0.25696
# Poissons Ratio (y) = 0.26904 0.38846
# Poissons Ratio (z) = 0.26700 0.38924
#
# Static dielectric constant tensor:
#      x y z
#    x 1.771180 0.000000 0.000000 
#    y 0.000000 1.877290 0.000000 
#    z 0.000000 0.000000 1.815130 
# 
# From -- ./inp_files/29247.got.cif
#   From: 2010.05.17/outbox.cif.g08.bks.cpg/sg53_15_cif.got.tgz:29247.got - 2010.06.03 12:45:16.
