data_PCOD9419669
_publ_section_title
;
Structure prediction by ZEFSAII (Michael W. Deem and Ramdas Pophale) SiO2 
 PCOD9419669
Probable space group: P M N A
;
_chemical_formula_sum "Si O2"
_cell_formula_units_Z 48
_cell_length_a 23.347268
_cell_length_b 9.300497
_cell_length_c 11.908342
_cell_angle_alpha 90.000000
_cell_angle_beta 90.000000
_cell_angle_gamma 90.000000
_cell_volume 2585.791624
_symmetry_space_group_name_H-M "P M N A"
_symmetry_group_IT_number 53
_symmetry_cell_setting 'orthorhombic'
loop_
_space_group_symop_operation_xyz
x,y,z
1/2-x,-y,1/2+z
x,-y,-z
1/2-x,y,1/2-z
-x,-y,-z
1/2+x,y,1/2-z
-x,y,z
1/2+x,-y,1/2+z
loop_
_atom_site_type_symbol
_atom_site_label
_atom_site_fract_x
_atom_site_fract_y
_atom_site_fract_z
Si Si1 0.659618 0.275607 0.249593
Si Si2 0.751667 0.652514 0.939886
Si Si3 0.566216 0.571267 0.664367
Si Si4 0.341814 0.046273 0.688353
Si Si5 0.278592 0.902715 0.095610
Si Si6 0.931846 0.742883 0.066914
O O1 0.692612 0.331679 0.361525
O O2 0.701499 0.300172 0.145562
O O3 0.605097 0.375398 0.235930
O O4 0.640316 0.111718 0.269883
O O5 0.747377 0.500000 0.000000
O O6 0.747765 0.761620 0.042314
O O7 0.500000 0.571468 0.691369
O O8 0.580710 0.408281 0.629515
O O9 0.573700 0.687262 0.561954
O O10 0.279640 0.014742 0.631926
O O11 0.320862 0.127798 0.801361
O O12 0.387612 0.134688 0.612670
O O13 0.307354 0.000000 0.000000
O O14 0.000000 0.781303 0.083260
#
# Coordination Sequence:
#
# PCOD9419669 Si02
#       6
#     8   8   8   8   8   8
#     4  11  22  37  55  85 114 144 187 230 274 331
#     4  11  24  36  55  83 116 147 183 231 273 334
#     4   9  20  37  56  81 116 147 180 232 281 325
#     4  11  22  34  60  83 110 151 185 226 277 335
#     4  11  20  38  54  81 117 147 177 225 285 326
#     4   9  20  37  57  84 112 145 186 229 280 333
#
# _framework density 18.56298
#
# number of rings (size 3 to 8) (size 9 to 14) (size 15 to 20)
#    0.000    1.667    3.333    3.000    7.000    2.000 
#    0.000    1.667    0.000    2.000    0.000    0.000 
#    0.000    0.000    0.000    0.000    0.000    0.000 
#
# Total GULP energy -267358.657350 kJ/mol
# GULP energy per Si atom -5569.972028 kJ/mol
# Density = 1.852073 g / cm^3
# Si number density = 18.562980 Si / 1000 Ang^3
#
#
#
# Elastic Constant Matrix: (Units=GPa)
#
#
# Indices 1 2 3 4 5 6 
#
# 1 61.7698 21.3126 16.3709 0.0000 0.0000 0.0000
# 2 21.3126 66.6905 12.5636 0.0000 0.0000 0.0000
# 3 16.3709 12.5636 27.0824 0.0000 0.0000 0.0000
# 4 0.0000 0.0000 0.0000 21.8501 0.0000 0.0000
# 5 0.0000 0.0000 0.0000 0.0000 26.5309 0.0000
# 6 0.0000 0.0000 0.0000 0.0000 0.0000 20.2863
#
#
#
# Elastic Compliance Matrix: (Units=1/GPa)
#
#
# Indices 1 2 3 4 5 6 
#
# 1 0.020499 -0.004620 -0.010248 0.000000 0.000000 0.000000
# 2 -0.004620 0.017472 -0.005312 0.000000 0.000000 0.000000
# 3 -0.010248 -0.005312 0.045584 0.000000 0.000000 0.000000
# 4 0.000000 0.000000 0.000000 0.045766 0.000000 0.000000
# 5 0.000000 0.000000 0.000000 0.000000 0.037692 0.000000
# 6 0.000000 0.000000 0.000000 0.000000 0.000000 0.049294
#
#
# Mechanical properties :
#
#
# Convention : Reuss Voigt Hill
#
# Bulk Modulus (GPa) = 23.15180 28.44854 25.80017
# Shear Modulus (GPa) = 18.44562 20.75318 19.59940
#
# Velocity S-wave (km/s) = 3.15569 3.34726 3.25288
# Velocity P-wave (km/s) = 5.07710 5.50432 5.29502
#
# Compressibility (1/GPa) = 0.04319319
#
# Stress axis : x y z
#
# Youngs Moduli (GPa) = 48.78188 57.23449 21.93771
#
# Poissons Ratio (x) = 0.26445 0.22482
# Poissons Ratio (y) = 0.22540 0.11654
# Poissons Ratio (z) = 0.49992 0.30405
#
# Static dielectric constant tensor:
#      x y z
#    x 1.642920 0.000000 0.000000 
#    y 0.000000 1.722560 0.000000 
#    z 0.000000 0.000000 1.678350 
# 
# From -- ./inp_files/18261.got.cif
#   From: 2010.05.17/outbox.cif.g08.bks.cpg/sg53_10_cif.got.tgz:18261.got - 2010.06.03 12:45:16.
