data_PCOD9419309
_publ_section_title
;
Structure prediction by ZEFSAII (Michael W. Deem and Ramdas Pophale) SiO2 
 PCOD9419309
Probable space group: P M N A
;
_chemical_formula_sum "Si O2"
_cell_formula_units_Z 56
_cell_length_a 13.572967
_cell_length_b 12.635468
_cell_length_c 13.953459
_cell_angle_alpha 90.000000
_cell_angle_beta 90.000000
_cell_angle_gamma 90.000000
_cell_volume 2393.029244
_symmetry_space_group_name_H-M "P M N A"
_symmetry_group_IT_number 53
_symmetry_cell_setting 'orthorhombic'
loop_
_space_group_symop_operation_xyz
x,y,z
1/2-x,-y,1/2+z
x,-y,-z
1/2-x,y,1/2-z
-x,-y,-z
1/2+x,y,1/2-z
-x,y,z
1/2+x,-y,1/2+z
loop_
_atom_site_type_symbol
_atom_site_label
_atom_site_fract_x
_atom_site_fract_y
_atom_site_fract_z
Si Si1 0.773729 0.064669 0.139010
Si Si2 0.231481 0.173322 0.863378
Si Si3 0.117349 0.443474 0.405586
Si Si4 0.884235 0.203358 0.473914
Si Si5 0.108203 0.499653 0.791291
Si Si6 0.116451 0.349855 0.959410
Si Si7 0.668775 0.281441 0.336811
O O1 0.750000 0.047202 0.250000
O O2 0.820432 0.118707 0.412908
O O3 0.645558 0.159017 0.359161
O O4 0.706006 0.946690 0.396200
O O5 0.250000 0.181072 0.750000
O O6 0.143299 0.249805 0.893512
O O7 0.329114 0.206676 0.923497
O O8 0.154883 0.500000 0.500000
O O9 0.122296 0.316846 0.420215
O O10 0.161630 0.501646 0.311667
O O11 0.000000 0.464886 0.399876
O O12 0.000000 0.176590 0.482199
O O13 0.141601 0.448975 0.891196
O O14 0.099381 0.626707 0.798713
O O15 0.000000 0.449684 0.780944
O O16 0.000000 0.355814 0.985019
O O17 0.179605 0.328598 0.055217
O O18 0.750000 0.276982 0.250000
#
# Coordination Sequence:
#
# PCOD9419309 Si02
#       7
#     8   8   8   8   8   8   8
#     4  10  22  44  67  98 146 180 230 305 358 419
#     4  11  26  45  68 101 143 188 238 300 359 419
#     4   9  19  36  61  98 140 176 218 285 348 408
#     4  11  23  43  75 104 137 188 242 294 359 429
#     4  10  22  41  67  99 136 177 233 290 345 425
#     4  11  25  46  71  99 142 194 237 290 362 434
#     4  11  22  41  68  97 134 179 229 295 350 417
#
# _framework density 23.401302000000001
#
# number of rings (size 3 to 8) (size 9 to 14) (size 15 to 20)
#    0.000    1.571    1.429    3.000    2.000    3.429 
#    2.571    7.143    0.000    0.000    0.000    0.000 
#    0.000    0.000    0.000    0.000    0.000    0.000 
#
# Total GULP energy -311941.074861 kJ/mol
# GULP energy per Si atom -5570.376337 kJ/mol
# Density = 2.334804 g / cm^3
# Si number density = 23.401302 Si / 1000 Ang^3
#
#
#
# Elastic Constant Matrix: (Units=GPa)
#
#
# Indices 1 2 3 4 5 6 
#
# 1 87.7553 5.2763 30.7526 0.0000 0.0000 0.0000
# 2 5.2763 121.2578 20.2653 0.0000 0.0000 0.0000
# 3 30.7526 20.2653 184.2329 0.0000 0.0000 0.0000
# 4 0.0000 0.0000 0.0000 39.6513 0.0000 0.0000
# 5 0.0000 0.0000 0.0000 0.0000 16.9779 0.0000
# 6 0.0000 0.0000 0.0000 0.0000 0.0000 -12.7305
#
#
#
# Elastic Compliance Matrix: (Units=1/GPa)
#
#
# Indices 1 2 3 4 5 6 
#
# 1 0.012108 -0.000193 -0.002000 0.000000 0.000000 0.000000
# 2 -0.000193 0.008404 -0.000892 0.000000 0.000000 0.000000
# 3 -0.002000 -0.000892 0.005860 0.000000 0.000000 0.000000
# 4 0.000000 0.000000 0.000000 0.025220 0.000000 0.000000
# 5 0.000000 0.000000 0.000000 0.000000 0.058900 0.000000
# 6 0.000000 0.000000 0.000000 0.000000 0.000000 -0.078552
#
#
# Mechanical properties :
#
#
# Convention : Reuss Voigt Hill
#
# Bulk Modulus (GPa) = 49.49903 56.20384 52.85144
# Shear Modulus (GPa) = 111.49732 31.24319 71.37026
#
# Velocity S-wave (km/s) = 6.91008 3.65787 5.52853
# Velocity P-wave (km/s) = 9.21215 6.47376 7.96158
#
# Compressibility (1/GPa) = 0.02020242
#
# Stress axis : x y z
#
# Youngs Moduli (GPa) = 82.59187 118.98525 170.65171
#
# Poissons Ratio (x) = 0.02292 0.34128
# Poissons Ratio (y) = 0.01591 0.15228
# Poissons Ratio (z) = 0.16517 0.10617
#
# Static dielectric constant tensor:
#      x y z
#    x 1.931460 0.000000 0.000000 
#    y 0.000000 1.917560 0.000000 
#    z 0.000000 0.000000 1.975470 
# 
# From -- ./inp_files/22780.got.cif
#   From: 2010.05.17/outbox.cif.g08.bks.cpg/sg53_12_cif.got.tgz:22780.got - 2010.06.03 12:45:16.
