data_PCOD9419345
_publ_section_title
;
Structure prediction by ZEFSAII (Michael W. Deem and Ramdas Pophale) SiO2 
 PCOD9419345
Probable space group: P M N A
;
_chemical_formula_sum "Si O2"
_cell_formula_units_Z 32
_cell_length_a 30.903078
_cell_length_b 8.189049
_cell_length_c 5.080446
_cell_angle_alpha 90.000000
_cell_angle_beta 90.000000
_cell_angle_gamma 90.000000
_cell_volume 1285.692313
_symmetry_space_group_name_H-M "P M N A"
_symmetry_group_IT_number 53
_symmetry_cell_setting 'orthorhombic'
loop_
_space_group_symop_operation_xyz
x,y,z
1/2-x,-y,1/2+z
x,-y,-z
1/2-x,y,1/2-z
-x,-y,-z
1/2+x,y,1/2-z
-x,y,z
1/2+x,-y,1/2+z
loop_
_atom_site_type_symbol
_atom_site_label
_atom_site_fract_x
_atom_site_fract_y
_atom_site_fract_z
Si Si1 0.500000 0.000000 0.000000
Si Si2 0.699701 0.500000 0.500000
Si Si3 0.614701 0.000000 0.500000
Si Si4 0.500000 0.500000 0.000000
Si Si5 0.068566 0.735827 0.329261
Si Si6 0.750000 0.226248 0.750000
Si Si7 0.639888 0.500000 0.000000
Si Si8 0.676470 0.000000 0.000000
O O1 0.462172 0.857348 0.004933
O O2 0.729137 0.342953 0.534216
O O3 0.669458 0.481523 0.251085
O O4 0.584379 0.846605 0.415447
O O5 0.645071 0.962494 0.751657
O O6 0.462150 0.578349 0.195400
O O7 0.110990 0.660843 0.459302
O O8 0.710490 0.129483 0.880149
#
# Coordination Sequence:
#
# PCOD9419345 Si02
#       8
#     2   4   4   2   8   4   4   4
#     4  10  22  42  76 112 148 194 252 316 388 470
#     4  12  29  50  77 111 151 206 267 325 393 476
#     4  12  27  47  80 117 157 208 269 333 402 481
#     4   8  20  46  70 104 152 200 248 312 394 472
#     4  10  23  45  75 111 153 200 256 321 393 474
#     4  12  30  52  78 114 160 212 270 334 404 484
#     4  11  27  49  76 108 153 206 259 322 394 473
#     4  12  30  52  80 117 163 214 269 339 412 482
#
# _framework density 24.889316999999998
#
# number of rings (size 3 to 8) (size 9 to 14) (size 15 to 20)
#    0.000    1.000    0.000    3.750    0.000   25.000 
#    0.000    2.500    0.000   15.000    0.000    0.000 
#    0.000    0.000    0.000    0.000    0.000    0.000 
#
# Total GULP energy -178157.314784 kJ/mol
# GULP energy per Si atom -5567.416087 kJ/mol
# Density = 2.483267 g / cm^3
# Si number density = 24.889317 Si / 1000 Ang^3
#
#
#
# Elastic Constant Matrix: (Units=GPa)
#
#
# Indices 1 2 3 4 5 6 
#
# 1 212.4007 84.9009 112.7121 0.0000 0.0000 0.0000
# 2 84.9009 130.8074 76.7554 0.0000 0.0000 0.0000
# 3 112.7121 76.7554 181.2888 0.0000 0.0000 0.0000
# 4 0.0000 0.0000 0.0000 48.4370 0.0000 0.0000
# 5 0.0000 0.0000 0.0000 0.0000 -43.8471 0.0000
# 6 0.0000 0.0000 0.0000 0.0000 0.0000 -1.9866
#
#
#
# Elastic Compliance Matrix: (Units=1/GPa)
#
#
# Indices 1 2 3 4 5 6 
#
# 1 0.007796 -0.002949 -0.003599 0.000000 0.000000 0.000000
# 2 -0.002949 0.011287 -0.002946 0.000000 0.000000 0.000000
# 3 -0.003599 -0.002946 0.009001 0.000000 0.000000 0.000000
# 4 0.000000 0.000000 0.000000 0.020645 0.000000 0.000000
# 5 0.000000 0.000000 0.000000 0.000000 -0.022807 0.000000
# 6 0.000000 0.000000 0.000000 0.000000 0.000000 -0.503377
#
#
# Mechanical properties :
#
#
# Convention : Reuss Voigt Hill
#
# Bulk Modulus (GPa) = 109.91269 119.24818 114.58044
# Shear Modulus (GPa) = -10.97850 17.19592 3.10871
#
# Velocity S-wave (km/s) = -2.10250 2.63134 1.11881
# Velocity P-wave (km/s) = 6.19374 7.56620 6.91411
#
# Compressibility (1/GPa) = 0.00909813
#
# Stress axis : x y z
#
# Youngs Moduli (GPa) = 128.26353 88.59748 111.10242
#
# Poissons Ratio (x) = 0.26123 0.39984
# Poissons Ratio (y) = 0.37819 0.32726
# Poissons Ratio (z) = 0.46161 0.26097
#
# Static dielectric constant tensor:
#      x y z
#    x 1.928190 0.000000 0.000000 
#    y 0.000000 2.094890 0.000000 
#    z 0.000000 0.000000 2.000150 
# 
# From -- ./inp_files/5110.got.cif
#   From: 2010.05.17/outbox.cif.g08.bks.cpg/sg53_3_cif.got.tgz:5110.got - 2010.06.03 12:45:16.
