data_PCOD9419376
_publ_section_title
;
Structure prediction by ZEFSAII (Michael W. Deem and Ramdas Pophale) SiO2 
 PCOD9419376
Probable space group: P M N A
;
_chemical_formula_sum "Si O2"
_cell_formula_units_Z 48
_cell_length_a 28.595339
_cell_length_b 8.097819
_cell_length_c 9.538273
_cell_angle_alpha 90.000000
_cell_angle_beta 90.000000
_cell_angle_gamma 90.000000
_cell_volume 2208.681346
_symmetry_space_group_name_H-M "P M N A"
_symmetry_group_IT_number 53
_symmetry_cell_setting 'orthorhombic'
loop_
_space_group_symop_operation_xyz
x,y,z
1/2-x,-y,1/2+z
x,-y,-z
1/2-x,y,1/2-z
-x,-y,-z
1/2+x,y,1/2-z
-x,y,z
1/2+x,-y,1/2+z
loop_
_atom_site_type_symbol
_atom_site_label
_atom_site_fract_x
_atom_site_fract_y
_atom_site_fract_z
Si Si1 0.705860 0.477719 0.164337
Si Si2 0.896543 0.866516 0.593439
Si Si3 0.944706 0.642804 0.808979
Si Si4 0.610302 0.662067 0.184908
Si Si5 0.292150 0.918579 0.851021
Si Si6 0.555446 0.827838 0.416855
O O1 0.750000 0.539996 0.250000
O O2 0.660802 0.580397 0.213298
O O3 0.704160 0.278993 0.177408
O O4 0.712574 0.500000 0.000000
O O5 0.925474 0.795113 0.719451
O O6 0.887547 0.721481 0.477113
O O7 0.848309 0.950875 0.648855
O O8 0.923210 0.000000 0.500000
O O9 0.924668 0.484703 0.728875
O O10 0.000000 0.635927 0.804780
O O11 0.932480 0.683886 0.970144
O O12 0.590331 0.804569 0.286968
O O13 0.250000 0.976926 0.750000
O O14 0.278624 0.000000 0.000000
O O15 0.500000 0.813168 0.378309
O O16 0.560595 0.000000 0.500000
#
# Coordination Sequence:
#
# PCOD9419376 Si02
#       6
#     8   8   8   8   8   8
#     4  11  23  43  66  95 131 171 217 273 333 397
#     4  11  23  42  65  93 134 172 216 271 331 396
#     4  11  23  40  65  96 131 172 221 274 328 395
#     4  12  22  42  66  94 129 174 219 276 338 397
#     4  10  22  44  69  95 131 172 217 272 331 394
#     4  10  23  43  66  97 136 176 224 280 333 393
#
# _framework density 21.732424000000002
#
# number of rings (size 3 to 8) (size 9 to 14) (size 15 to 20)
#    0.000    1.167    3.333    2.500    0.000    5.667 
#    0.000    0.833    0.000    1.000    0.000    0.000 
#    0.000    0.000    0.000    0.000    0.000    0.000 
#
# Total GULP energy -267627.309743 kJ/mol
# GULP energy per Si atom -5575.568953 kJ/mol
# Density = 2.168296 g / cm^3
# Si number density = 21.732424 Si / 1000 Ang^3
#
#
#
# Elastic Constant Matrix: (Units=GPa)
#
#
# Indices 1 2 3 4 5 6 
#
# 1 98.5988 20.2912 76.2317 0.0000 0.0000 0.0000
# 2 20.2912 67.5019 18.0481 0.0000 0.0000 0.0000
# 3 76.2317 18.0481 105.1653 0.0000 0.0000 0.0000
# 4 0.0000 0.0000 0.0000 96.5083 0.0000 0.0000
# 5 0.0000 0.0000 0.0000 0.0000 36.8161 0.0000
# 6 0.0000 0.0000 0.0000 0.0000 0.0000 25.5343
#
#
#
# Elastic Compliance Matrix: (Units=1/GPa)
#
#
# Indices 1 2 3 4 5 6 
#
# 1 0.023511 -0.002632 -0.016591 0.000000 0.000000 0.000000
# 2 -0.002632 0.015821 -0.000808 0.000000 0.000000 0.000000
# 3 -0.016591 -0.000808 0.021674 0.000000 0.000000 0.000000
# 4 0.000000 0.000000 0.000000 0.010362 0.000000 0.000000
# 5 0.000000 0.000000 0.000000 0.000000 0.027162 0.000000
# 6 0.000000 0.000000 0.000000 0.000000 0.000000 0.039163
#
#
# Mechanical properties :
#
#
# Convention : Reuss Voigt Hill
#
# Bulk Modulus (GPa) = 47.74202 55.60091 51.67147
# Shear Modulus (GPa) = 27.06580 42.21806 34.64193
#
# Velocity S-wave (km/s) = 3.53287 4.41231 3.99685
# Velocity P-wave (km/s) = 6.21750 7.18316 6.71771
#
# Compressibility (1/GPa) = 0.02094591
#
# Stress axis : x y z
#
# Youngs Moduli (GPa) = 42.53346 63.20561 46.13877
#
# Poissons Ratio (x) = 0.16633 0.76548
# Poissons Ratio (y) = 0.11193 0.03727
# Poissons Ratio (z) = 0.70567 0.05105
#
# Static dielectric constant tensor:
#      x y z
#    x 1.757320 0.000000 0.000000 
#    y 0.000000 1.883790 0.000000 
#    z 0.000000 0.000000 1.842240 
# 
# From -- ./inp_files/13052.got.cif
#   From: 2010.05.17/outbox.cif.g08.bks.cpg/sg53_7_cif.got.tgz:13052.got - 2010.06.03 12:45:16.
