data_PCOD9419383
_publ_section_title
;
Structure prediction by ZEFSAII (Michael W. Deem and Ramdas Pophale) SiO2 
 PCOD9419383
Probable space group: P M N A
;
_chemical_formula_sum "Si O2"
_cell_formula_units_Z 32
_cell_length_a 15.722249
_cell_length_b 17.497954
_cell_length_c 4.976559
_cell_angle_alpha 90.000000
_cell_angle_beta 90.000000
_cell_angle_gamma 90.000000
_cell_volume 1369.087161
_symmetry_space_group_name_H-M "P M N A"
_symmetry_group_IT_number 53
_symmetry_cell_setting 'orthorhombic'
loop_
_space_group_symop_operation_xyz
x,y,z
1/2-x,-y,1/2+z
x,-y,-z
1/2-x,y,1/2-z
-x,-y,-z
1/2+x,y,1/2-z
-x,y,z
1/2+x,-y,1/2+z
loop_
_atom_site_type_symbol
_atom_site_label
_atom_site_fract_x
_atom_site_fract_y
_atom_site_fract_z
Si Si1 0.500000 0.057654 0.745910
Si Si2 0.905811 0.156496 0.400517
Si Si3 0.902996 0.446690 0.758987
Si Si4 0.694331 0.303223 0.984394
Si Si5 0.750000 0.944140 0.750000
O O1 0.500000 0.000000 0.500000
O O2 0.578834 0.113961 0.811756
O O3 0.500000 0.000000 0.000000
O O4 0.877162 0.243283 0.429487
O O5 0.832526 0.109446 0.257913
O O6 0.000000 0.153557 0.271798
O O7 0.908537 0.500000 0.500000
O O8 0.846625 0.375562 0.667290
O O9 0.000000 0.422618 0.834844
O O10 0.868869 0.500000 0.000000
O O11 0.750000 0.263941 0.750000
O O12 0.750000 0.322293 0.250000
O O13 0.749274 0.000000 0.500000
#
# Coordination Sequence:
#
# PCOD9419383 Si02
#       5
#     4   8   8   8   4
#     4  10  24  46  74 106 140 200 263 318 391 468
#     4  10  26  51  75 109 153 206 257 324 395 468
#     4  10  22  44  74 107 144 193 251 308 377 462
#     4  12  26  46  72 109 157 197 254 321 389 465
#     4  12  28  48  76 112 150 200 260 332 388 468
#
# _framework density 23.373239999999999
#
# number of rings (size 3 to 8) (size 9 to 14) (size 15 to 20)
#    0.750    0.500    1.250    3.000    1.750    8.500 
#    0.000    2.500    0.000    0.000    0.000    0.000 
#    0.000    0.000    0.000    0.000    0.000    0.000 
#
# Total GULP energy -178952.463038 kJ/mol
# GULP energy per Si atom -5592.264470 kJ/mol
# Density = 2.332004 g / cm^3
# Si number density = 23.373240 Si / 1000 Ang^3
#
#
#
# Elastic Constant Matrix: (Units=GPa)
#
#
# Indices 1 2 3 4 5 6 
#
# 1 155.5183 71.4754 34.3012 0.0000 0.0000 0.0000
# 2 71.4754 145.8568 45.3568 0.0000 0.0000 0.0000
# 3 34.3012 45.3568 140.0586 0.0000 0.0000 0.0000
# 4 0.0000 0.0000 0.0000 13.5414 0.0000 0.0000
# 5 0.0000 0.0000 0.0000 0.0000 39.7201 0.0000
# 6 0.0000 0.0000 0.0000 0.0000 0.0000 45.0814
#
#
#
# Elastic Compliance Matrix: (Units=1/GPa)
#
#
# Indices 1 2 3 4 5 6 
#
# 1 0.008380 -0.003857 -0.000803 0.000000 0.000000 0.000000
# 2 -0.003857 0.009399 -0.002099 0.000000 0.000000 0.000000
# 3 -0.000803 -0.002099 0.008016 0.000000 0.000000 0.000000
# 4 0.000000 0.000000 0.000000 0.073847 0.000000 0.000000
# 5 0.000000 0.000000 0.000000 0.000000 0.025176 0.000000
# 6 0.000000 0.000000 0.000000 0.000000 0.000000 0.022182
#
#
# Mechanical properties :
#
#
# Convention : Reuss Voigt Hill
#
# Bulk Modulus (GPa) = 81.45541 82.63339 82.04440
# Shear Modulus (GPa) = 30.37465 39.02194 34.69830
#
# Velocity S-wave (km/s) = 3.60884 4.09040 3.85714
# Velocity P-wave (km/s) = 7.23121 7.59862 7.41719
#
# Compressibility (1/GPa) = 0.01227666
#
# Stress axis : x y z
#
# Youngs Moduli (GPa) = 119.33508 106.39778 124.74407
#
# Poissons Ratio (x) = 0.41033 0.10021
# Poissons Ratio (y) = 0.46023 0.26186
# Poissons Ratio (z) = 0.09587 0.22335
#
# Static dielectric constant tensor:
#      x y z
#    x 1.936670 0.000000 0.000000 
#    y 0.000000 1.851940 0.000000 
#    z 0.000000 0.000000 2.007300 
# 
# From -- ./inp_files/1966.got.cif
#   From: 2010.05.17/outbox.cif.g08.bks.cpg/sg53_1_cif.got.tgz:1966.got - 2010.06.03 12:45:16.
