data_PCOD9419106
_publ_section_title
;
Structure prediction by ZEFSAII (Michael W. Deem and Ramdas Pophale) SiO2 
 PCOD9419106
Probable space group: P M N A
;
_chemical_formula_sum "Si O2"
_cell_formula_units_Z 48
_cell_length_a 14.972197
_cell_length_b 7.720250
_cell_length_c 20.886961
_cell_angle_alpha 90.000000
_cell_angle_beta 90.000000
_cell_angle_gamma 90.000000
_cell_volume 2414.305105
_symmetry_space_group_name_H-M "P M N A"
_symmetry_group_IT_number 53
_symmetry_cell_setting 'orthorhombic'
loop_
_space_group_symop_operation_xyz
x,y,z
1/2-x,-y,1/2+z
x,-y,-z
1/2-x,y,1/2-z
-x,-y,-z
1/2+x,y,1/2-z
-x,y,z
1/2+x,-y,1/2+z
loop_
_atom_site_type_symbol
_atom_site_label
_atom_site_fract_x
_atom_site_fract_y
_atom_site_fract_z
Si Si1 0.600935 0.655248 0.773640
Si Si2 0.354760 0.294552 0.736685
Si Si3 0.898945 0.943274 0.833094
Si Si4 0.598250 0.873807 0.134998
Si Si5 0.781658 0.192813 0.378080
Si Si6 0.898642 0.706302 0.503302
O O1 0.500000 0.641052 0.800861
O O2 0.617358 0.493352 0.725976
O O3 0.604774 0.830567 0.732238
O O4 0.677600 0.666548 0.828052
O O5 0.250000 0.286875 0.750000
O O6 0.399870 0.251648 0.804768
O O7 0.379826 0.143566 0.686517
O O8 0.822840 0.850726 0.875551
O O9 0.000000 0.930951 0.858372
O O10 0.500000 0.955798 0.132401
O O11 0.672830 0.015687 0.145076
O O12 0.614379 0.780338 0.067692
O O13 0.824781 0.229848 0.446945
O O14 0.895309 0.500000 0.500000
O O15 0.000000 0.756646 0.523482
#
# Coordination Sequence:
#
# PCOD9419106 Si02
#       6
#     8   8   8   8   8   8
#     4  11  22  35  57  88 123 160 196 246 306 367
#     4  12  21  37  59  88 124 161 200 243 297 359
#     4  11  23  40  58  84 120 160 208 254 296 348
#     4  11  21  35  58  87 117 154 193 241 300 363
#     4  12  21  38  58  86 120 160 202 247 303 364
#     4  10  22  38  59  90 124 157 196 244 308 378
#
# _framework density 19.881498000000001
#
# number of rings (size 3 to 8) (size 9 to 14) (size 15 to 20)
#    0.000    0.833    3.333    6.000    0.000    2.667 
#    0.000    0.000    0.000    2.500    0.000    0.000 
#    0.000    0.000    0.000    0.000    0.000    0.000 
#
# Total GULP energy -268060.145298 kJ/mol
# GULP energy per Si atom -5584.586360 kJ/mol
# Density = 1.983625 g / cm^3
# Si number density = 19.881498 Si / 1000 Ang^3
#
#
#
# Elastic Constant Matrix: (Units=GPa)
#
#
# Indices 1 2 3 4 5 6 
#
# 1 154.7538 19.0294 30.7602 0.0000 0.0000 0.0000
# 2 19.0294 80.1053 2.4939 0.0000 0.0000 0.0000
# 3 30.7602 2.4939 52.1841 0.0000 0.0000 0.0000
# 4 0.0000 0.0000 0.0000 22.8288 0.0000 0.0000
# 5 0.0000 0.0000 0.0000 0.0000 40.9123 0.0000
# 6 0.0000 0.0000 0.0000 0.0000 0.0000 32.8809
#
#
#
# Elastic Compliance Matrix: (Units=1/GPa)
#
#
# Indices 1 2 3 4 5 6 
#
# 1 0.007532 -0.001653 -0.004361 0.000000 0.000000 0.000000
# 2 -0.001653 0.012865 0.000360 0.000000 0.000000 0.000000
# 3 -0.004361 0.000360 0.021716 0.000000 0.000000 0.000000
# 4 0.000000 0.000000 0.000000 0.043804 0.000000 0.000000
# 5 0.000000 0.000000 0.000000 0.000000 0.024443 0.000000
# 6 0.000000 0.000000 0.000000 0.000000 0.000000 0.030413
#
#
# Mechanical properties :
#
#
# Convention : Reuss Voigt Hill
#
# Bulk Modulus (GPa) = 32.46275 43.51222 37.98749
# Shear Modulus (GPa) = 30.79766 34.97506 32.88636
#
# Velocity S-wave (km/s) = 3.94008 4.19880 4.07150
# Velocity P-wave (km/s) = 6.08790 6.74091 6.42271
#
# Compressibility (1/GPa) = 0.03080454
#
# Stress axis : x y z
#
# Youngs Moduli (GPa) = 132.76719 77.72931 46.04855
#
# Poissons Ratio (x) = 0.12852 0.20081
# Poissons Ratio (y) = 0.21953 -0.01657
# Poissons Ratio (z) = 0.57896 -0.02797
#
# Static dielectric constant tensor:
#      x y z
#    x 1.758100 0.000000 0.000000 
#    y 0.000000 1.766580 0.000000 
#    z 0.000000 0.000000 1.718600 
# 
# From -- ./inp_files/28298.got.cif
#   From: 2010.05.17/outbox.cif.g08.bks.cpg/sg53_15_cif.got.tgz:28298.got - 2010.06.03 12:45:16.
