data_PCOD9419306
_publ_section_title
;
Structure prediction by ZEFSAII (Michael W. Deem and Ramdas Pophale) SiO2 
 PCOD9419306
Probable space group: P M N A
;
_chemical_formula_sum "Si O2"
_cell_formula_units_Z 40
_cell_length_a 17.216541
_cell_length_b 7.298915
_cell_length_c 12.063598
_cell_angle_alpha 90.000000
_cell_angle_beta 90.000000
_cell_angle_gamma 90.000000
_cell_volume 1515.936689
_symmetry_space_group_name_H-M "P M N A"
_symmetry_group_IT_number 53
_symmetry_cell_setting 'orthorhombic'
loop_
_space_group_symop_operation_xyz
x,y,z
1/2-x,-y,1/2+z
x,-y,-z
1/2-x,y,1/2-z
-x,-y,-z
1/2+x,y,1/2-z
-x,y,z
1/2+x,-y,1/2+z
loop_
_atom_site_type_symbol
_atom_site_label
_atom_site_fract_x
_atom_site_fract_y
_atom_site_fract_z
Si Si1 0.092055 0.214752 0.971220
Si Si2 0.089597 0.327533 0.727491
Si Si3 0.165108 0.199207 0.503218
Si Si4 0.704510 0.336098 0.349860
Si Si5 0.416413 0.769279 0.788927
O O1 0.120057 0.263024 0.847083
O O2 0.000000 0.248847 0.972538
O O3 0.132092 0.339290 0.064590
O O4 0.104785 0.000000 0.000000
O O5 0.138050 0.258096 0.623218
O O6 0.086188 0.548618 0.724154
O O7 0.000000 0.263855 0.715688
O O8 0.227303 0.320199 0.439462
O O9 0.092577 0.189522 0.418325
O O10 0.202336 0.000000 0.500000
O O11 0.750000 0.444634 0.250000
O O12 0.663575 0.175861 0.271982
O O13 0.500000 0.836075 0.746025
#
# Coordination Sequence:
#
# PCOD9419306 Si02
#       5
#     8   8   8   8   8
#     4  10  22  41  67  97 131 172 224 280 333 399
#     4  10  23  43  68 101 134 175 227 282 341 398
#     4  11  24  42  67  98 137 177 221 280 345 408
#     4  10  23  42  62  93 134 171 221 267 341 404
#     4  10  22  44  70  97 136 177 227 283 333 406
#
# _framework density 26.386324999999999
#
# number of rings (size 3 to 8) (size 9 to 14) (size 15 to 20)
#    0.000    1.800    0.000    2.400    5.600    4.800 
#   18.000    3.000    0.000    0.000    0.000    0.000 
#    0.000    0.000    0.000    0.000    0.000    0.000 
#
# Total GULP energy -223174.853455 kJ/mol
# GULP energy per Si atom -5579.371336 kJ/mol
# Density = 2.632627 g / cm^3
# Si number density = 26.386325 Si / 1000 Ang^3
#
#
#
# Elastic Constant Matrix: (Units=GPa)
#
#
# Indices 1 2 3 4 5 6 
#
# 1 147.3333 -0.7854 59.2462 0.0000 0.0000 0.0000
# 2 -0.7854 98.0834 46.9132 0.0000 0.0000 0.0000
# 3 59.2462 46.9132 263.9861 0.0000 0.0000 0.0000
# 4 0.0000 0.0000 0.0000 34.2300 0.0000 0.0000
# 5 0.0000 0.0000 0.0000 0.0000 51.0956 0.0000
# 6 0.0000 0.0000 0.0000 0.0000 0.0000 -7.0940
#
#
#
# Elastic Compliance Matrix: (Units=1/GPa)
#
#
# Indices 1 2 3 4 5 6 
#
# 1 0.007541 0.000951 -0.001861 0.000000 0.000000 0.000000
# 2 0.000951 0.011262 -0.002215 0.000000 0.000000 0.000000
# 3 -0.001861 -0.002215 0.004599 0.000000 0.000000 0.000000
# 4 0.000000 0.000000 0.000000 0.029214 0.000000 0.000000
# 5 0.000000 0.000000 0.000000 0.000000 0.019571 0.000000
# 6 0.000000 0.000000 0.000000 0.000000 0.000000 -0.140965
#
#
# Mechanical properties :
#
#
# Convention : Reuss Voigt Hill
#
# Bulk Modulus (GPa) = 58.30323 80.01675 69.15999
# Shear Modulus (GPa) = -88.01440 42.58159 -22.71641
#
# Velocity S-wave (km/s) = -5.78174 4.02154 -2.93732
# Velocity P-wave (km/s) = 4.73575 7.20796 3.84235
#
# Compressibility (1/GPa) = 0.01715171
#
# Stress axis : x y z
#
# Youngs Moduli (GPa) = 132.61030 88.79134 217.41914
#
# Poissons Ratio (x) = -0.08441 0.40469
# Poissons Ratio (y) = -0.12607 0.48154
# Poissons Ratio (z) = 0.24683 0.19666
#
# Static dielectric constant tensor:
#      x y z
#    x 2.262500 0.000000 0.000000 
#    y 0.000000 2.199430 0.000000 
#    z 0.000000 0.000000 2.094240 
# 
# From -- ./inp_files/16653.got.cif
#   From: 2010.05.17/outbox.cif.g08.bks.cpg/sg53_9_cif.got.tgz:16653.got - 2010.06.03 12:45:16.
