data_PCOD9419709
_publ_section_title
;
Structure prediction by ZEFSAII (Michael W. Deem and Ramdas Pophale) SiO2 
 PCOD9419709
Probable space group: P M N A
;
_chemical_formula_sum "Si O2"
_cell_formula_units_Z 48
_cell_length_a 7.986790
_cell_length_b 17.192864
_cell_length_c 18.372143
_cell_angle_alpha 90.000000
_cell_angle_beta 90.000000
_cell_angle_gamma 90.000000
_cell_volume 2522.785408
_symmetry_space_group_name_H-M "P M N A"
_symmetry_group_IT_number 53
_symmetry_cell_setting 'orthorhombic'
loop_
_space_group_symop_operation_xyz
x,y,z
1/2-x,-y,1/2+z
x,-y,-z
1/2-x,y,1/2-z
-x,-y,-z
1/2+x,y,1/2-z
-x,y,z
1/2+x,-y,1/2+z
loop_
_atom_site_type_symbol
_atom_site_label
_atom_site_fract_x
_atom_site_fract_y
_atom_site_fract_z
Si Si1 0.805284 0.246323 0.962603
Si Si2 0.304447 0.322286 0.109509
Si Si3 0.299795 0.352232 0.833769
Si Si4 0.202699 0.085314 0.477805
Si Si5 0.798384 0.163138 0.329505
Si Si6 0.705035 0.508047 0.915486
O O1 0.767460 0.283524 0.884847
O O2 0.000000 0.255477 0.979591
O O3 0.707556 0.293557 0.025625
O O4 0.757960 0.155955 0.970384
O O5 0.500000 0.328264 0.128903
O O6 0.231688 0.250855 0.155901
O O7 0.233187 0.408879 0.114485
O O8 0.250000 0.345588 0.750000
O O9 0.500000 0.351185 0.838995
O O10 0.240094 0.434023 0.868712
O O11 0.258807 0.110152 0.396737
O O12 0.000000 0.084268 0.478365
O O13 0.262649 0.000000 0.500000
O O14 0.750000 0.135447 0.250000
O O15 0.000000 0.166302 0.333931
O O16 0.500000 0.509387 0.914946
O O17 0.755130 0.500000 0.000000
#
# Coordination Sequence:
#
# PCOD9419709 Si02
#       6
#     8   8   8   8   8   8
#     4  11  21  34  54  81 109 139 176 221 273 324
#     4   9  17  33  54  76 102 142 187 220 262 323
#     4  11  22  37  55  77 109 146 188 233 278 327
#     4   9  19  38  62  83 104 139 183 221 266 330
#     4   9  18  31  51  78 109 139 169 211 264 320
#     4   9  16  30  55  78  99 139 187 228 269 315
#
# _framework density 19.026589000000001
#
# number of rings (size 3 to 8) (size 9 to 14) (size 15 to 20)
#    0.000    2.333    1.667    3.000    0.000    3.667 
#    0.000    3.333    0.000    2.000    0.000    0.000 
#    0.000    0.000    0.000    0.000    0.000    0.000 
#
# Total GULP energy -267809.785767 kJ/mol
# GULP energy per Si atom -5579.370537 kJ/mol
# Density = 1.898328 g / cm^3
# Si number density = 19.026589 Si / 1000 Ang^3
#
#
#
# Elastic Constant Matrix: (Units=GPa)
#
#
# Indices 1 2 3 4 5 6 
#
# 1 20.6111 10.5244 -4.2793 0.0000 0.0000 0.0000
# 2 10.5244 170.8919 73.9176 0.0000 0.0000 0.0000
# 3 -4.2793 73.9176 111.8785 0.0000 0.0000 0.0000
# 4 0.0000 0.0000 0.0000 17.6925 0.0000 0.0000
# 5 0.0000 0.0000 0.0000 0.0000 20.8001 0.0000
# 6 0.0000 0.0000 0.0000 0.0000 0.0000 -5.4182
#
#
#
# Elastic Compliance Matrix: (Units=1/GPa)
#
#
# Indices 1 2 3 4 5 6 
#
# 1 0.052668 -0.005761 0.005821 0.000000 0.000000 0.000000
# 2 -0.005761 0.008823 -0.006050 0.000000 0.000000 0.000000
# 3 0.005821 -0.006050 0.013158 0.000000 0.000000 0.000000
# 4 0.000000 0.000000 0.000000 0.056521 0.000000 0.000000
# 5 0.000000 0.000000 0.000000 0.000000 0.048077 0.000000
# 6 0.000000 0.000000 0.000000 0.000000 0.000000 -0.184562
#
#
# Mechanical properties :
#
#
# Convention : Reuss Voigt Hill
#
# Bulk Modulus (GPa) = 15.95692 51.52301 33.73996
# Shear Modulus (GPa) = 181.45557 21.49613 101.47585
#
# Velocity S-wave (km/s) = 9.77632 3.36489 7.31092
# Velocity P-wave (km/s) = 11.65505 6.49884 9.43597
#
# Compressibility (1/GPa) = 0.06266875
#
# Stress axis : x y z
#
# Youngs Moduli (GPa) = 18.98689 113.33648 75.99914
#
# Poissons Ratio (x) = 0.65298 -0.44239
# Poissons Ratio (y) = 0.10939 0.45979
# Poissons Ratio (z) = -0.11052 0.68567
#
# Static dielectric constant tensor:
#      x y z
#    x 1.683850 0.000000 0.000000 
#    y 0.000000 1.669630 0.000000 
#    z 0.000000 0.000000 1.646580 
# 
# From -- ./inp_files/26417.got.cif
#   From: 2010.05.17/outbox.cif.g08.bks.cpg/sg53_14_cif.got.tgz:26417.got - 2010.06.03 12:45:16.
