data_PCOD9419384
_publ_section_title
;
Structure prediction by ZEFSAII (Michael W. Deem and Ramdas Pophale) SiO2 
 PCOD9419384
Probable space group: P M N A
;
_chemical_formula_sum "Si O2"
_cell_formula_units_Z 48
_cell_length_a 16.332382
_cell_length_b 8.406365
_cell_length_c 14.138321
_cell_angle_alpha 90.000000
_cell_angle_beta 90.000000
_cell_angle_gamma 90.000000
_cell_volume 1941.134417
_symmetry_space_group_name_H-M "P M N A"
_symmetry_group_IT_number 53
_symmetry_cell_setting 'orthorhombic'
loop_
_space_group_symop_operation_xyz
x,y,z
1/2-x,-y,1/2+z
x,-y,-z
1/2-x,y,1/2-z
-x,-y,-z
1/2+x,y,1/2-z
-x,y,z
1/2+x,-y,1/2+z
loop_
_atom_site_type_symbol
_atom_site_label
_atom_site_fract_x
_atom_site_fract_y
_atom_site_fract_z
Si Si1 0.157079 0.622779 0.572962
Si Si2 0.090950 0.877086 0.784279
Si Si3 0.500000 0.018758 0.884084
Si Si4 0.907020 0.665617 0.058154
Si Si5 0.651886 0.485015 0.262266
Si Si6 0.713450 0.123765 0.430706
Si Si7 0.500000 0.685375 0.028422
O O1 0.197697 0.500000 0.500000
O O2 0.120712 0.509328 0.654336
O O3 0.224147 0.745924 0.608326
O O4 0.086211 0.721262 0.522817
O O5 0.116418 0.690671 0.787709
O O6 0.161993 0.955275 0.846044
O O7 0.000000 0.891174 0.828318
O O8 0.074950 0.946047 0.678977
O O9 0.500000 0.210547 0.877355
O O10 0.500000 0.000000 0.000000
O O11 0.875979 0.613733 0.162016
O O12 0.000000 0.725072 0.064679
O O13 0.907389 0.500000 0.000000
O O14 0.850448 0.785240 0.999430
O O15 0.750000 0.493621 0.250000
O O16 0.756842 0.000000 0.500000
O O17 0.500000 0.500000 0.000000
#
# Coordination Sequence:
#
# PCOD9419384 Si02
#       7
#     8   8   4   8   8   8   4
#     4  11  25  47  73 105 148 197 258 324 394 460
#     4  10  23  41  71 106 148 194 260 302 387 473
#     4  10  22  44  75 105 143 195 252 316 379 476
#     4  11  23  42  74 104 143 194 254 310 384 457
#     4  12  21  39  73 104 142 195 256 319 374 462
#     4  12  25  47  70 109 154 206 245 322 402 476
#     4  10  24  48  72 102 148 204 254 328 395 458
#
# _framework density 24.727806999999999
#
# number of rings (size 3 to 8) (size 9 to 14) (size 15 to 20)
#    0.500    0.500    3.333    3.500    2.333    3.333 
#    6.000    0.000    3.667    0.000    0.000    0.000 
#    0.000    0.000    0.000    0.167    0.000    0.000 
#
# Total GULP energy -267835.286364 kJ/mol
# GULP energy per Si atom -5579.901799 kJ/mol
# Density = 2.467153 g / cm^3
# Si number density = 24.727807 Si / 1000 Ang^3
#
#
#
# Elastic Constant Matrix: (Units=GPa)
#
#
# Indices 1 2 3 4 5 6 
#
# 1 106.7971 19.0817 17.0737 0.0000 0.0000 0.0000
# 2 19.0817 68.0051 33.0998 0.0000 0.0000 0.0000
# 3 17.0737 33.0998 120.5633 0.0000 0.0000 0.0000
# 4 0.0000 0.0000 0.0000 49.2967 0.0000 0.0000
# 5 0.0000 0.0000 0.0000 0.0000 34.3180 0.0000
# 6 0.0000 0.0000 0.0000 0.0000 0.0000 13.8821
#
#
#
# Elastic Compliance Matrix: (Units=1/GPa)
#
#
# Indices 1 2 3 4 5 6 
#
# 1 0.009914 -0.002422 -0.000739 0.000000 0.000000 0.000000
# 2 -0.002422 0.017565 -0.004479 0.000000 0.000000 0.000000
# 3 -0.000739 -0.004479 0.009629 0.000000 0.000000 0.000000
# 4 0.000000 0.000000 0.000000 0.020285 0.000000 0.000000
# 5 0.000000 0.000000 0.000000 0.000000 0.029139 0.000000
# 6 0.000000 0.000000 0.000000 0.000000 0.000000 0.072035
#
#
# Mechanical properties :
#
#
# Convention : Reuss Voigt Hill
#
# Bulk Modulus (GPa) = 45.81501 48.20846 47.01173
# Shear Modulus (GPa) = 27.60532 34.57336 31.08934
#
# Velocity S-wave (km/s) = 3.34483 3.74325 3.54964
# Velocity P-wave (km/s) = 5.78664 6.18228 5.98772
#
# Compressibility (1/GPa) = 0.02182691
#
# Stress axis : x y z
#
# Youngs Moduli (GPa) = 100.86255 56.93274 103.85511
#
# Poissons Ratio (x) = 0.13790 0.07675
# Poissons Ratio (y) = 0.24431 0.46519
# Poissons Ratio (z) = 0.07454 0.25501
#
# Static dielectric constant tensor:
#      x y z
#    x 2.014780 0.000000 0.000000 
#    y 0.000000 2.088140 0.000000 
#    z 0.000000 0.000000 2.122670 
# 
# From -- ./inp_files/23695.got.cif
#   From: 2010.05.17/outbox.cif.g08.bks.cpg/sg53_12_cif.got.tgz:23695.got - 2010.06.03 12:45:16.
