data_PCOD9419633
_publ_section_title
;
Structure prediction by ZEFSAII (Michael W. Deem and Ramdas Pophale) SiO2 
 PCOD9419633
Probable space group: P M N A
;
_chemical_formula_sum "Si O2"
_cell_formula_units_Z 52
_cell_length_a 21.089641
_cell_length_b 8.369581
_cell_length_c 14.334658
_cell_angle_alpha 90.000000
_cell_angle_beta 90.000000
_cell_angle_gamma 90.000000
_cell_volume 2530.231392
_symmetry_space_group_name_H-M "P M N A"
_symmetry_group_IT_number 53
_symmetry_cell_setting 'orthorhombic'
loop_
_space_group_symop_operation_xyz
x,y,z
1/2-x,-y,1/2+z
x,-y,-z
1/2-x,y,1/2-z
-x,-y,-z
1/2+x,y,1/2-z
-x,y,z
1/2+x,-y,1/2+z
loop_
_atom_site_type_symbol
_atom_site_label
_atom_site_fract_x
_atom_site_fract_y
_atom_site_fract_z
Si Si1 0.164224 0.189741 0.990055
Si Si2 0.690216 0.814575 0.966960
Si Si3 0.616923 0.500000 0.000000
Si Si4 0.182027 0.730376 0.227931
Si Si5 0.068412 0.518323 0.296954
Si Si6 0.927149 0.236425 0.144638
Si Si7 0.677683 0.910055 0.769520
O O1 0.171674 0.237690 0.881998
O O2 0.234101 0.215165 0.033785
O O3 0.108470 0.277443 0.047489
O O4 0.151054 0.000000 0.000000
O O5 0.658285 0.661946 0.015790
O O6 0.661025 0.820556 0.863833
O O7 0.682342 0.000000 0.000000
O O8 0.577567 0.526751 0.905309
O O9 0.250000 0.652532 0.250000
O O10 0.125513 0.629006 0.267244
O O11 0.183066 0.900006 0.281114
O O12 0.069402 0.376525 0.221094
O O13 0.000000 0.600233 0.288191
O O14 0.875932 0.118431 0.192687
O O15 0.000000 0.180237 0.129753
O O16 0.750000 0.856683 0.750000
#
# Coordination Sequence:
#
# PCOD9419633 Si02
#       7
#     8   8   4   8   8   8   8
#     4  11  21  41  65  97 137 175 215 280 340 402
#     4  11  22  38  67 102 134 167 225 286 345 400
#     4  12  23  42  72  98 129 182 232 284 355 416
#     4  11  23  41  69  99 130 169 224 278 341 406
#     4  11  26  45  63  92 136 177 224 286 343 405
#     4  11  24  41  63  93 129 179 225 263 330 414
#     4  11  19  41  66  90 132 172 212 281 339 389
#
# _framework density 20.551480000000002
#
# number of rings (size 3 to 8) (size 9 to 14) (size 15 to 20)
#    0.000    0.923    4.615    4.846    0.000    5.231 
#    0.000    1.538    0.000    2.308    0.000    0.000 
#    0.000    0.000    0.000    0.000    0.000    0.000 
#
# Total GULP energy -290005.862145 kJ/mol
# GULP energy per Si atom -5577.035810 kJ/mol
# Density = 2.050470 g / cm^3
# Si number density = 20.551480 Si / 1000 Ang^3
#
#
#
# Elastic Constant Matrix: (Units=GPa)
#
#
# Indices 1 2 3 4 5 6 
#
# 1 162.7773 44.4327 55.5740 0.0000 0.0000 0.0000
# 2 44.4327 47.5244 12.4744 0.0000 0.0000 0.0000
# 3 55.5740 12.4744 124.9438 0.0000 0.0000 0.0000
# 4 0.0000 0.0000 0.0000 24.5521 0.0000 0.0000
# 5 0.0000 0.0000 0.0000 0.0000 12.6315 0.0000
# 6 0.0000 0.0000 0.0000 0.0000 0.0000 29.0684
#
#
#
# Elastic Compliance Matrix: (Units=1/GPa)
#
#
# Indices 1 2 3 4 5 6 
#
# 1 0.009489 -0.007973 -0.003425 0.000000 0.000000 0.000000
# 2 -0.007973 0.028307 0.000720 0.000000 0.000000 0.000000
# 3 -0.003425 0.000720 0.009455 0.000000 0.000000 0.000000
# 4 0.000000 0.000000 0.000000 0.040730 0.000000 0.000000
# 5 0.000000 0.000000 0.000000 0.000000 0.079167 0.000000
# 6 0.000000 0.000000 0.000000 0.000000 0.000000 0.034402
#
#
# Mechanical properties :
#
#
# Convention : Reuss Voigt Hill
#
# Bulk Modulus (GPa) = 38.61571 62.24529 50.43050
# Shear Modulus (GPa) = 21.59498 28.10137 24.84817
#
# Velocity S-wave (km/s) = 3.24508 3.70180 3.48094
# Velocity P-wave (km/s) = 5.73335 6.97312 6.38340
#
# Compressibility (1/GPa) = 0.02589620
#
# Stress axis : x y z
#
# Youngs Moduli (GPa) = 105.38739 35.32720 105.76492
#
# Poissons Ratio (x) = 0.28165 0.36220
# Poissons Ratio (y) = 0.84021 -0.07615
# Poissons Ratio (z) = 0.36091 -0.02544
#
# Static dielectric constant tensor:
#      x y z
#    x 1.738650 0.000000 0.000000 
#    y 0.000000 1.744690 0.000000 
#    z 0.000000 0.000000 1.798670 
# 
# From -- ./inp_files/24264.got.cif
#   From: 2010.05.17/outbox.cif.g08.bks.cpg/sg53_13_cif.got.tgz:24264.got - 2010.06.03 12:45:16.
