data_PCOD9419087
_publ_section_title
;
Structure prediction by ZEFSAII (Michael W. Deem and Ramdas Pophale) SiO2 
 PCOD9419087
Probable space group: P M N A
;
_chemical_formula_sum "Si O2"
_cell_formula_units_Z 24
_cell_length_a 20.095399
_cell_length_b 5.105021
_cell_length_c 11.283260
_cell_angle_alpha 90.000000
_cell_angle_beta 90.000000
_cell_angle_gamma 90.000000
_cell_volume 1157.520689
_symmetry_space_group_name_H-M "P M N A"
_symmetry_group_IT_number 53
_symmetry_cell_setting 'orthorhombic'
loop_
_space_group_symop_operation_xyz
x,y,z
1/2-x,-y,1/2+z
x,-y,-z
1/2-x,y,1/2-z
-x,-y,-z
1/2+x,y,1/2-z
-x,y,z
1/2+x,-y,1/2+z
loop_
_atom_site_type_symbol
_atom_site_label
_atom_site_fract_x
_atom_site_fract_y
_atom_site_fract_z
Si Si1 0.364222 0.362553 0.716164
Si Si2 0.000000 0.250641 0.915376
Si Si3 0.814201 0.142339 0.333779
Si Si4 0.263934 0.500000 0.500000
O O1 0.433561 0.270153 0.662046
O O2 0.365321 0.644549 0.779339
O O3 0.311149 0.393359 0.606898
O O4 0.342219 0.146154 0.812060
O O5 0.000000 0.500000 0.000000
O O6 0.000000 0.000000 0.000000
O O7 0.750000 0.148851 0.250000
O O8 0.783450 0.269348 0.451750
#
# Coordination Sequence:
#
# PCOD9419087 Si02
#       4
#     8   4   8   4
#     4  11  23  39  60  92 123 159 208 249 316 373
#     4  12  24  40  62  87 126 167 200 260 314 371
#     4  10  22  37  60  89 123 163 199 255 311 370
#     4  10  22  41  64  91 132 158 206 266 316 380
#
# _framework density 20.733969999999999
#
# number of rings (size 3 to 8) (size 9 to 14) (size 15 to 20)
#    0.000    1.333    1.667    5.000    4.667    6.667 
#    0.000    0.000    0.000    6.000    0.000    0.000 
#    0.000    0.000    0.000    0.000    0.000    0.000 
#
# Total GULP energy -134045.558487 kJ/mol
# GULP energy per Si atom -5585.231604 kJ/mol
# Density = 2.068678 g / cm^3
# Si number density = 20.733970 Si / 1000 Ang^3
#
#
#
# Elastic Constant Matrix: (Units=GPa)
#
#
# Indices 1 2 3 4 5 6 
#
# 1 109.5914 25.9592 50.8692 0.0000 0.0000 0.0000
# 2 25.9592 136.4250 36.6500 0.0000 0.0000 0.0000
# 3 50.8692 36.6500 95.6060 0.0000 0.0000 0.0000
# 4 0.0000 0.0000 0.0000 32.4309 0.0000 0.0000
# 5 0.0000 0.0000 0.0000 0.0000 37.8171 0.0000
# 6 0.0000 0.0000 0.0000 0.0000 0.0000 20.5730
#
#
#
# Elastic Compliance Matrix: (Units=1/GPa)
#
#
# Indices 1 2 3 4 5 6 
#
# 1 0.012168 -0.000642 -0.006228 0.000000 0.000000 0.000000
# 2 -0.000642 0.008205 -0.002804 0.000000 0.000000 0.000000
# 3 -0.006228 -0.002804 0.014848 0.000000 0.000000 0.000000
# 4 0.000000 0.000000 0.000000 0.030835 0.000000 0.000000
# 5 0.000000 0.000000 0.000000 0.000000 0.026443 0.000000
# 6 0.000000 0.000000 0.000000 0.000000 0.000000 0.048607
#
#
# Mechanical properties :
#
#
# Convention : Reuss Voigt Hill
#
# Bulk Modulus (GPa) = 62.99829 63.17547 63.08688
# Shear Modulus (GPa) = 30.16669 33.37378 31.77023
#
# Velocity S-wave (km/s) = 3.81851 4.01636 3.91868
# Velocity P-wave (km/s) = 7.06338 7.21414 7.13916
#
# Compressibility (1/GPa) = 0.01587345
#
# Stress axis : x y z
#
# Youngs Moduli (GPa) = 82.18443 121.86997 67.34851
#
# Poissons Ratio (x) = 0.07826 0.41944
# Poissons Ratio (y) = 0.05278 0.18883
# Poissons Ratio (z) = 0.51184 0.34170
#
# Static dielectric constant tensor:
#      x y z
#    x 1.733810 0.000000 0.000000 
#    y 0.000000 1.790670 0.000000 
#    z 0.000000 0.000000 1.819010 
# 
# From -- ./inp_files/16355.got.cif
#   From: 2010.05.17/outbox.cif.g08.bks.cpg/sg53_9_cif.got.tgz:16355.got - 2010.06.03 12:45:16.
