data_PCOD9419183
_publ_section_title
;
Structure prediction by ZEFSAII (Michael W. Deem and Ramdas Pophale) SiO2 
 PCOD9419183
Probable space group: P M N A
;
_chemical_formula_sum "Si O2"
_cell_formula_units_Z 40
_cell_length_a 15.292229
_cell_length_b 14.057878
_cell_length_c 8.691246
_cell_angle_alpha 90.000000
_cell_angle_beta 90.000000
_cell_angle_gamma 90.000000
_cell_volume 1868.411817
_symmetry_space_group_name_H-M "P M N A"
_symmetry_group_IT_number 53
_symmetry_cell_setting 'orthorhombic'
loop_
_space_group_symop_operation_xyz
x,y,z
1/2-x,-y,1/2+z
x,-y,-z
1/2-x,y,1/2-z
-x,-y,-z
1/2+x,y,1/2-z
-x,y,z
1/2+x,-y,1/2+z
loop_
_atom_site_type_symbol
_atom_site_label
_atom_site_fract_x
_atom_site_fract_y
_atom_site_fract_z
Si Si1 0.100640 0.762606 0.538898
Si Si2 0.101978 0.763727 0.904682
Si Si3 0.690488 0.579548 0.113087
Si Si4 0.254195 0.105294 0.567879
Si Si5 0.904215 0.440395 0.152935
O O1 0.101933 0.781594 0.722001
O O2 0.141532 0.661241 0.482805
O O3 0.164447 0.842598 0.475763
O O4 0.000000 0.766650 0.486224
O O5 0.141498 0.656518 0.902788
O O6 0.000000 0.766604 0.960404
O O7 0.165242 0.832287 0.999951
O O8 0.750000 0.623185 0.250000
O O9 0.630409 0.508659 0.214771
O O10 0.733535 0.500000 0.000000
O O11 0.250000 0.099612 0.750000
O O12 0.260178 0.000000 0.500000
O O13 0.000000 0.406222 0.208470
O O14 0.915138 0.500000 0.000000
#
# Coordination Sequence:
#
# PCOD9419183 Si02
#       5
#     8   8   8   8   8
#     4  11  25  45  72 102 142 189 242 297 352 422
#     4  10  23  45  73 105 142 187 233 291 360 426
#     4  12  25  39  63 100 145 193 244 287 348 414
#     4  12  28  50  76 105 139 182 236 303 366 431
#     4  10  22  39  63  96 141 189 232 281 338 413
#
# _framework density 21.408557999999999
#
# number of rings (size 3 to 8) (size 9 to 14) (size 15 to 20)
#    0.000    1.000    2.000    3.600    8.400    2.400 
#    0.000    0.000    0.000    0.000    0.000    0.000 
#    0.000    0.000    0.000    0.000    0.000    0.000 
#
# Total GULP energy -223322.925808 kJ/mol
# GULP energy per Si atom -5583.073145 kJ/mol
# Density = 2.135983 g / cm^3
# Si number density = 21.408558 Si / 1000 Ang^3
#
#
#
# Elastic Constant Matrix: (Units=GPa)
#
#
# Indices 1 2 3 4 5 6 
#
# 1 134.0012 61.9617 43.8892 0.0000 0.0000 0.0000
# 2 61.9617 150.9297 43.0359 0.0000 0.0000 0.0000
# 3 43.8892 43.0359 114.3694 0.0000 0.0000 0.0000
# 4 0.0000 0.0000 0.0000 42.3887 0.0000 0.0000
# 5 0.0000 0.0000 0.0000 0.0000 44.3226 0.0000
# 6 0.0000 0.0000 0.0000 0.0000 0.0000 18.1500
#
#
#
# Elastic Compliance Matrix: (Units=1/GPa)
#
#
# Indices 1 2 3 4 5 6 
#
# 1 0.009820 -0.003312 -0.002522 0.000000 0.000000 0.000000
# 2 -0.003312 0.008539 -0.001942 0.000000 0.000000 0.000000
# 3 -0.002522 -0.001942 0.010442 0.000000 0.000000 0.000000
# 4 0.000000 0.000000 0.000000 0.023591 0.000000 0.000000
# 5 0.000000 0.000000 0.000000 0.000000 0.022562 0.000000
# 6 0.000000 0.000000 0.000000 0.000000 0.000000 0.055096
#
#
# Mechanical properties :
#
#
# Convention : Reuss Voigt Hill
#
# Bulk Modulus (GPa) = 75.47986 77.45265 76.46626
# Shear Modulus (GPa) = 33.32877 37.66651 35.49764
#
# Velocity S-wave (km/s) = 3.94991 4.19909 4.07640
# Velocity P-wave (km/s) = 7.49238 7.73089 7.61257
#
# Compressibility (1/GPa) = 0.01324857
#
# Stress axis : x y z
#
# Youngs Moduli (GPa) = 101.82944 117.10667 95.76492
#
# Poissons Ratio (x) = 0.38791 0.24153
# Poissons Ratio (y) = 0.33730 0.18598
# Poissons Ratio (z) = 0.25683 0.22743
#
# Static dielectric constant tensor:
#      x y z
#    x 1.863640 0.000000 0.000000 
#    y 0.000000 1.778170 0.000000 
#    z 0.000000 0.000000 1.746070 
# 
# From -- ./inp_files/8411.got.cif
#   From: 2010.05.17/outbox.cif.g08.bks.cpg/sg53_5_cif.got.tgz:8411.got - 2010.06.03 12:45:16.
