data_PCOD9419454
_publ_section_title
;
Structure prediction by ZEFSAII (Michael W. Deem and Ramdas Pophale) SiO2 
 PCOD9419454
Probable space group: P M N A
;
_chemical_formula_sum "Si O2"
_cell_formula_units_Z 24
_cell_length_a 11.204800
_cell_length_b 13.701935
_cell_length_c 7.121877
_cell_angle_alpha 90.000000
_cell_angle_beta 90.000000
_cell_angle_gamma 90.000000
_cell_volume 1093.403553
_symmetry_space_group_name_H-M "P M N A"
_symmetry_group_IT_number 53
_symmetry_cell_setting 'orthorhombic'
loop_
_space_group_symop_operation_xyz
x,y,z
1/2-x,-y,1/2+z
x,-y,-z
1/2-x,y,1/2-z
-x,-y,-z
1/2+x,y,1/2-z
-x,y,z
1/2+x,-y,1/2+z
loop_
_atom_site_type_symbol
_atom_site_label
_atom_site_fract_x
_atom_site_fract_y
_atom_site_fract_z
Si Si1 0.128208 0.190682 0.951568
Si Si2 0.864675 0.600601 0.886571
Si Si3 0.873245 0.116148 0.521282
O O1 0.245699 0.150786 0.050089
O O2 0.127475 0.151729 0.738345
O O3 0.000000 0.158787 0.030866
O O4 0.136395 0.307263 0.971922
O O5 0.750000 0.609618 0.750000
O O6 0.000000 0.601549 0.798622
O O7 0.853714 0.500000 0.000000
O O8 0.000000 0.154456 0.444078
O O9 0.874511 0.000000 0.500000
#
# Coordination Sequence:
#
# PCOD9419454 Si02
#       3
#     8   8   8
#     4   9  19  37  59  86 123 161 202 256 313 376
#     4  10  23  42  65  95 129 169 216 266 323 386
#     4   9  18  34  59  89 118 156 206 257 313 377
#
# _framework density 21.949808000000001
#
# number of rings (size 3 to 8) (size 9 to 14) (size 15 to 20)
#    0.000    2.667    0.000    0.000    4.667    2.667 
#    6.000    0.000    0.000    0.000    0.000    0.000 
#    0.000    0.000    0.000    0.000    0.000    0.000 
#
# Total GULP energy -133679.014489 kJ/mol
# GULP energy per Si atom -5569.958937 kJ/mol
# Density = 2.189985 g / cm^3
# Si number density = 21.949808 Si / 1000 Ang^3
#
#
#
# Elastic Constant Matrix: (Units=GPa)
#
#
# Indices 1 2 3 4 5 6 
#
# 1 270.4649 67.6543 43.2973 0.0000 0.0000 0.0000
# 2 67.6543 112.9629 41.6398 0.0000 0.0000 0.0000
# 3 43.2973 41.6398 131.8241 0.0000 0.0000 0.0000
# 4 0.0000 0.0000 0.0000 32.9705 0.0000 0.0000
# 5 0.0000 0.0000 0.0000 0.0000 -28.2084 0.0000
# 6 0.0000 0.0000 0.0000 0.0000 0.0000 37.1566
#
#
#
# Elastic Compliance Matrix: (Units=1/GPa)
#
#
# Indices 1 2 3 4 5 6 
#
# 1 0.004404 -0.002382 -0.000694 0.000000 0.000000 0.000000
# 2 -0.002382 0.011307 -0.002789 0.000000 0.000000 0.000000
# 3 -0.000694 -0.002789 0.008695 0.000000 0.000000 0.000000
# 4 0.000000 0.000000 0.000000 0.030330 0.000000 0.000000
# 5 0.000000 0.000000 0.000000 0.000000 -0.035450 0.000000
# 6 0.000000 0.000000 0.000000 0.000000 0.000000 0.026913
#
#
# Mechanical properties :
#
#
# Convention : Reuss Voigt Hill
#
# Bulk Modulus (GPa) = 78.89164 91.15940 85.02552
# Shear Modulus (GPa) = 80.44382 32.56111 56.50246
#
# Velocity S-wave (km/s) = 6.06041 3.85572 5.07913
# Velocity P-wave (km/s) = 9.21907 7.83856 8.55670
#
# Compressibility (1/GPa) = 0.01267561
#
# Stress axis : x y z
#
# Youngs Moduli (GPa) = 227.05249 88.43950 115.00929
#
# Poissons Ratio (x) = 0.21065 0.07984
# Poissons Ratio (y) = 0.54081 0.32080
# Poissons Ratio (z) = 0.15762 0.24669
#
# Static dielectric constant tensor:
#      x y z
#    x 1.918030 0.000000 0.000000 
#    y 0.000000 1.759040 0.000000 
#    z 0.000000 0.000000 1.733660 
# 
# From -- ./inp_files/7126.got.cif
#   From: 2010.05.17/outbox.cif.g08.bks.cpg/sg53_4_cif.got.tgz:7126.got - 2010.06.03 12:45:16.
