data_PCOD9419483
_publ_section_title
;
Structure prediction by ZEFSAII (Michael W. Deem and Ramdas Pophale) SiO2 
 PCOD9419483
Probable space group: P M N A
;
_chemical_formula_sum "Si O2"
_cell_formula_units_Z 16
_cell_length_a 22.933344
_cell_length_b 5.155715
_cell_length_c 5.052272
_cell_angle_alpha 90.000000
_cell_angle_beta 90.000000
_cell_angle_gamma 90.000000
_cell_volume 597.369454
_symmetry_space_group_name_H-M "P M N A"
_symmetry_group_IT_number 53
_symmetry_cell_setting 'orthorhombic'
loop_
_space_group_symop_operation_xyz
x,y,z
1/2-x,-y,1/2+z
x,-y,-z
1/2-x,y,1/2-z
-x,-y,-z
1/2+x,y,1/2-z
-x,y,z
1/2+x,-y,1/2+z
loop_
_atom_site_type_symbol
_atom_site_label
_atom_site_fract_x
_atom_site_fract_y
_atom_site_fract_z
Si Si1 0.656967 0.000000 0.000000
Si Si2 0.932699 0.312493 0.246234
Si Si3 0.250000 0.377946 0.250000
O O1 0.610234 0.068974 0.226912
O O2 0.703722 0.224077 0.067058
O O3 0.922404 0.500000 0.500000
O O4 0.000000 0.225128 0.249479
O O5 0.924016 0.500000 0.000000
O O6 0.284939 0.500000 0.500000
#
# Coordination Sequence:
#
# PCOD9419483 Si02
#       3
#     4   8   4
#     4  12  25  46  72  98 139 196 238 292 368 432
#     4  10  23  43  70 106 142 179 233 297 359 431
#     4  12  28  46  66 100 140 186 248 304 354 428
#
# _framework density 26.784098
#
# number of rings (size 3 to 8) (size 9 to 14) (size 15 to 20)
#    0.000    1.000    0.000    5.250    0.000   10.000 
#    0.000    7.500    0.000    0.000    0.000    0.000 
#    0.000    0.000    0.000    0.000    0.000    0.000 
#
# Total GULP energy -89147.003151 kJ/mol
# GULP energy per Si atom -5571.687697 kJ/mol
# Density = 2.672314 g / cm^3
# Si number density = 26.784098 Si / 1000 Ang^3
#
#
#
# Elastic Constant Matrix: (Units=GPa)
#
#
# Indices 1 2 3 4 5 6 
#
# 1 150.3272 11.6324 -11.5436 0.0000 0.0000 0.0000
# 2 11.6324 72.5373 39.8379 0.0000 0.0000 0.0000
# 3 -11.5436 39.8379 215.7657 0.0000 0.0000 0.0000
# 4 0.0000 0.0000 0.0000 43.9776 0.0000 0.0000
# 5 0.0000 0.0000 0.0000 0.0000 -189.9339 0.0000
# 6 0.0000 0.0000 0.0000 0.0000 0.0000 -5.0051
#
#
#
# Elastic Compliance Matrix: (Units=1/GPa)
#
#
# Indices 1 2 3 4 5 6 
#
# 1 0.006812 -0.001438 0.000630 0.000000 0.000000 0.000000
# 2 -0.001438 0.015645 -0.002966 0.000000 0.000000 0.000000
# 3 0.000630 -0.002966 0.005216 0.000000 0.000000 0.000000
# 4 0.000000 0.000000 0.000000 0.022739 0.000000 0.000000
# 5 0.000000 0.000000 0.000000 0.000000 -0.005265 0.000000
# 6 0.000000 0.000000 0.000000 0.000000 0.000000 -0.199797
#
#
# Mechanical properties :
#
#
# Convention : Reuss Voigt Hill
#
# Bulk Modulus (GPa) = 49.68906 57.60929 53.64917
# Shear Modulus (GPa) = -35.61410 -3.61204 -19.61307
#
# Velocity S-wave (km/s) = -3.65042 -1.16254 -2.70898
# Velocity P-wave (km/s) = 0.90803 4.44449 3.20764
#
# Compressibility (1/GPa) = 0.02012515
#
# Stress axis : x y z
#
# Youngs Moduli (GPa) = 146.80325 63.91647 191.72053
#
# Poissons Ratio (x) = 0.09194 -0.12079
# Poissons Ratio (y) = 0.21116 0.56858
# Poissons Ratio (z) = -0.09249 0.18955
#
# Static dielectric constant tensor:
#      x y z
#    x 2.101140 0.000000 0.000000 
#    y 0.000000 2.412610 0.000000 
#    z 0.000000 0.000000 -0.249750 
# 
# From -- ./inp_files/2372.got.cif
#   From: 2010.05.17/outbox.cif.g08.bks.cpg/sg53_2_cif.got.tgz:2372.got - 2010.06.03 12:45:16.
