data_PCOD9419107
_publ_section_title
;
Structure prediction by ZEFSAII (Michael W. Deem and Ramdas Pophale) SiO2 
 PCOD9419107
Probable space group: P M N A
;
_chemical_formula_sum "Si O2"
_cell_formula_units_Z 56
_cell_length_a 17.058020
_cell_length_b 12.769692
_cell_length_c 13.158120
_cell_angle_alpha 90.000000
_cell_angle_beta 90.000000
_cell_angle_gamma 90.000000
_cell_volume 2866.176193
_symmetry_space_group_name_H-M "P M N A"
_symmetry_group_IT_number 53
_symmetry_cell_setting 'orthorhombic'
loop_
_space_group_symop_operation_xyz
x,y,z
1/2-x,-y,1/2+z
x,-y,-z
1/2-x,y,1/2-z
-x,-y,-z
1/2+x,y,1/2-z
-x,y,z
1/2+x,-y,1/2+z
loop_
_atom_site_type_symbol
_atom_site_label
_atom_site_fract_x
_atom_site_fract_y
_atom_site_fract_z
Si Si1 0.590491 0.666868 0.255835
Si Si2 0.680613 0.750305 0.666723
Si Si3 0.189748 0.185852 0.475010
Si Si4 0.409867 0.087290 0.197658
Si Si5 0.909973 0.381843 0.516042
Si Si6 0.906421 0.465424 0.116381
Si Si7 0.832320 0.876783 0.290692
O O1 0.500000 0.687609 0.287105
O O2 0.589338 0.641116 0.136018
O O3 0.618708 0.564381 0.315068
O O4 0.642853 0.770175 0.266287
O O5 0.750000 0.735831 0.750000
O O6 0.723015 0.796959 0.566800
O O7 0.621584 0.834474 0.715757
O O8 0.638884 0.640601 0.643321
O O9 0.144173 0.107846 0.400536
O O10 0.145061 0.297049 0.464331
O O11 0.179867 0.150364 0.590664
O O12 0.500000 0.108838 0.174346
O O13 0.396601 0.966173 0.224593
O O14 0.882835 0.500000 0.500000
O O15 0.000000 0.373364 0.478313
O O16 0.000000 0.449537 0.133011
O O17 0.894670 0.500000 0.000000
O O18 0.750000 0.918375 0.250000
#
# Coordination Sequence:
#
# PCOD9419107 Si02
#       7
#     8   8   8   8   8   8   8
#     4   9  20  37  57  85 118 155 201 245 291 351
#     4  10  23  40  60  92 124 157 199 254 306 365
#     4  10  22  38  59  92 122 158 199 245 305 365
#     4  11  23  41  66  89 117 157 204 256 304 361
#     4   9  18  32  54  86 122 156 193 241 296 354
#     4  10  22  40  63  86 118 164 208 249 292 359
#     4  11  23  39  62  90 123 160 196 248 308 361
#
# _framework density 19.538228
#
# number of rings (size 3 to 8) (size 9 to 14) (size 15 to 20)
#    0.000    2.000    0.000    3.000    6.000    3.429 
#    0.000    0.000    0.000    0.857    0.000    0.000 
#    0.000    0.000    0.000    0.000    0.000    0.000 
#
# Total GULP energy -312805.250549 kJ/mol
# GULP energy per Si atom -5585.808046 kJ/mol
# Density = 1.949376 g / cm^3
# Si number density = 19.538228 Si / 1000 Ang^3
#
#
#
# Elastic Constant Matrix: (Units=GPa)
#
#
# Indices 1 2 3 4 5 6 
#
# 1 46.2677 24.6313 20.0988 0.0000 0.0000 0.0000
# 2 24.6313 97.8095 30.9076 0.0000 0.0000 0.0000
# 3 20.0988 30.9076 37.5668 0.0000 0.0000 0.0000
# 4 0.0000 0.0000 0.0000 22.9002 0.0000 0.0000
# 5 0.0000 0.0000 0.0000 0.0000 15.6526 0.0000
# 6 0.0000 0.0000 0.0000 0.0000 0.0000 29.8062
#
#
#
# Elastic Compliance Matrix: (Units=1/GPa)
#
#
# Indices 1 2 3 4 5 6 
#
# 1 0.028894 -0.003232 -0.012800 0.000000 0.000000 0.000000
# 2 -0.003232 0.014177 -0.009935 0.000000 0.000000 0.000000
# 3 -0.012800 -0.009935 0.041641 0.000000 0.000000 0.000000
# 4 0.000000 0.000000 0.000000 0.043668 0.000000 0.000000
# 5 0.000000 0.000000 0.000000 0.000000 0.063887 0.000000
# 6 0.000000 0.000000 0.000000 0.000000 0.000000 0.033550
#
#
# Mechanical properties :
#
#
# Convention : Reuss Voigt Hill
#
# Bulk Modulus (GPa) = 30.50714 36.99105 33.74910
# Shear Modulus (GPa) = 17.32033 20.73888 19.02961
#
# Velocity S-wave (km/s) = 2.98062 3.26153 3.12423
# Velocity P-wave (km/s) = 5.24342 5.75823 5.50684
#
# Compressibility (1/GPa) = 0.03277921
#
# Stress axis : x y z
#
# Youngs Moduli (GPa) = 34.60908 70.53540 24.01451
#
# Poissons Ratio (x) = 0.22794 0.30739
# Poissons Ratio (y) = 0.11184 0.23859
# Poissons Ratio (z) = 0.44300 0.70078
#
# Static dielectric constant tensor:
#      x y z
#    x 1.676730 0.000000 0.000000 
#    y 0.000000 1.704910 0.000000 
#    z 0.000000 0.000000 1.678910 
# 
# From -- ./inp_files/22825.got.cif
#   From: 2010.05.17/outbox.cif.g08.bks.cpg/sg53_12_cif.got.tgz:22825.got - 2010.06.03 12:45:16.
