data_PCOD9419724
_publ_section_title
;
Structure prediction by ZEFSAII (Michael W. Deem and Ramdas Pophale) SiO2 
 PCOD9419724
Probable space group: P M N A
;
_chemical_formula_sum "Si O2"
_cell_formula_units_Z 44
_cell_length_a 24.729520
_cell_length_b 5.421199
_cell_length_c 15.157154
_cell_angle_alpha 90.000000
_cell_angle_beta 90.000000
_cell_angle_gamma 90.000000
_cell_volume 2032.023375
_symmetry_space_group_name_H-M "P M N A"
_symmetry_group_IT_number 53
_symmetry_cell_setting 'orthorhombic'
loop_
_space_group_symop_operation_xyz
x,y,z
1/2-x,-y,1/2+z
x,-y,-z
1/2-x,y,1/2-z
-x,-y,-z
1/2+x,y,1/2-z
-x,y,z
1/2+x,-y,1/2+z
loop_
_atom_site_type_symbol
_atom_site_label
_atom_site_fract_x
_atom_site_fract_y
_atom_site_fract_z
Si Si1 0.330668 0.514477 0.797704
Si Si2 0.441571 0.648369 0.753254
Si Si3 0.559879 0.853468 0.364020
Si Si4 0.750000 0.884356 0.750000
Si Si5 0.820795 0.774800 0.123993
Si Si6 0.291558 0.749111 0.046202
O O1 0.389633 0.620605 0.814347
O O2 0.284432 0.711671 0.814940
O O3 0.326669 0.450702 0.693477
O O4 0.315718 0.277321 0.855347
O O5 0.500000 0.663977 0.798160
O O6 0.441843 0.395083 0.695703
O O7 0.436614 0.894518 0.693328
O O8 0.500000 0.858591 0.409055
O O9 0.618818 0.833863 0.410145
O O10 0.706657 0.023533 0.688923
O O11 0.773858 0.738448 0.053149
O O12 0.311091 0.500000 0.000000
O O13 0.307807 0.000000 0.000000
#
# Coordination Sequence:
#
# PCOD9419724 Si02
#       6
#     8   8   8   4   8   8
#     4  11  21  35  59  82 112 149 189 233 279 340
#     4   9  18  31  52  83 110 136 179 237 282 318
#     4   9  18  31  52  83 110 136 179 237 282 318
#     4  12  16  32  58  88 108 142 190 232 270 342
#     4  11  21  35  59  82 112 149 189 233 279 340
#     4  12  26  38  53  83 122 152 186 232 288 340
#
# _framework density 21.653295
#
# number of rings (size 3 to 8) (size 9 to 14) (size 15 to 20)
#    0.000    1.455    5.455    1.091    0.000    0.000 
#    0.000    0.000    0.000    2.182    0.000    0.000 
#    0.000    0.000    0.000    0.000    0.000    0.000 
#
# Total GULP energy -245251.834499 kJ/mol
# GULP energy per Si atom -5573.905330 kJ/mol
# Density = 2.160401 g / cm^3
# Si number density = 21.653295 Si / 1000 Ang^3
#
#
#
# Elastic Constant Matrix: (Units=GPa)
#
#
# Indices 1 2 3 4 5 6 
#
# 1 102.6935 -6.8556 -30.4990 0.0000 0.0000 0.0000
# 2 -6.8556 118.0054 15.5368 0.0000 0.0000 0.0000
# 3 -30.4990 15.5368 20.5474 0.0000 0.0000 0.0000
# 4 0.0000 0.0000 0.0000 18.7912 0.0000 0.0000
# 5 0.0000 0.0000 0.0000 0.0000 7.7980 0.0000
# 6 0.0000 0.0000 0.0000 0.0000 0.0000 24.7303
#
#
#
# Elastic Compliance Matrix: (Units=1/GPa)
#
#
# Indices 1 2 3 4 5 6 
#
# 1 0.018198 -0.002775 0.029110 0.000000 0.000000 0.000000
# 2 -0.002775 0.009834 -0.011556 0.000000 0.000000 0.000000
# 3 0.029110 -0.011556 0.100615 0.000000 0.000000 0.000000
# 4 0.000000 0.000000 0.000000 0.053216 0.000000 0.000000
# 5 0.000000 0.000000 0.000000 0.000000 0.128237 0.000000
# 6 0.000000 0.000000 0.000000 0.000000 0.000000 0.040436
#
#
# Mechanical properties :
#
#
# Convention : Reuss Voigt Hill
#
# Bulk Modulus (GPa) = 6.32094 21.95677 14.13886
# Shear Modulus (GPa) = 13.37921 27.80152 20.59036
#
# Velocity S-wave (km/s) = 2.48842 3.58710 3.08703
# Velocity P-wave (km/s) = 3.34392 5.22671 4.38750
#
# Compressibility (1/GPa) = 0.15820426
#
# Stress axis : x y z
#
# Youngs Moduli (GPa) = 54.95152 101.68362 9.93891
#
# Poissons Ratio (x) = 0.28222 -0.28932
# Poissons Ratio (y) = 0.15252 0.11485
# Poissons Ratio (z) = -1.59965 1.17505
#
# Static dielectric constant tensor:
#      x y z
#    x 1.834380 0.000000 0.000000 
#    y 0.000000 1.852800 0.000000 
#    z 0.000000 0.000000 1.833390 
# 
# From -- ./inp_files/24860.got.cif
#   From: 2010.05.17/outbox.cif.g08.bks.cpg/sg53_13_cif.got.tgz:24860.got - 2010.06.03 12:45:16.
