data_PCOD9419660
_publ_section_title
;
Structure prediction by ZEFSAII (Michael W. Deem and Ramdas Pophale) SiO2 
 PCOD9419660
Probable space group: P M N A
;
_chemical_formula_sum "Si O2"
_cell_formula_units_Z 64
_cell_length_a 30.088564
_cell_length_b 9.749804
_cell_length_c 11.672869
_cell_angle_alpha 90.000000
_cell_angle_beta 90.000000
_cell_angle_gamma 90.000000
_cell_volume 3424.324854
_symmetry_space_group_name_H-M "P M N A"
_symmetry_group_IT_number 53
_symmetry_cell_setting 'orthorhombic'
loop_
_space_group_symop_operation_xyz
x,y,z
1/2-x,-y,1/2+z
x,-y,-z
1/2-x,y,1/2-z
-x,-y,-z
1/2+x,y,1/2-z
-x,y,z
1/2+x,-y,1/2+z
loop_
_atom_site_type_symbol
_atom_site_label
_atom_site_fract_x
_atom_site_fract_y
_atom_site_fract_z
Si Si1 0.446213 0.819218 0.626708
Si Si2 0.852638 0.748133 0.762164
Si Si3 0.378514 0.239361 0.777303
Si Si4 0.167055 0.832460 0.503456
Si Si5 0.758637 0.245977 0.886418
Si Si6 0.167315 0.467774 0.876577
Si Si7 0.948727 0.851000 0.129899
Si Si8 0.169663 0.018472 0.878940
O O1 0.500000 0.783780 0.644348
O O2 0.405440 0.756916 0.702113
O O3 0.432594 0.795705 0.493577
O O4 0.443693 0.984497 0.641044
O O5 0.845817 0.777726 0.628219
O O6 0.830498 0.609303 0.808043
O O7 0.826242 0.870003 0.826034
O O8 0.367699 0.223011 0.909168
O O9 0.358195 0.368249 0.711182
O O10 0.428618 0.224835 0.738333
O O11 0.356171 0.109401 0.712942
O O12 0.213985 0.771210 0.458806
O O13 0.168548 0.000000 0.500000
O O14 0.750000 0.248644 0.750000
O O15 0.788343 0.380813 0.908786
O O16 0.787325 0.108763 0.906558
O O17 0.145383 0.500000 0.000000
O O18 0.000000 0.824920 0.124683
O O19 0.145478 0.000000 0.000000
#
# Coordination Sequence:
#
# PCOD9419660 Si02
#       8
#     8   8   8   8   8   8   8   8
#     4   9  17  32  59  97 131 155 211 280 321 375
#     4  12  23  39  64  95 124 176 220 247 332 401
#     4  11  21  40  59  84 131 161 207 268 315 376
#     4  12  23  42  66  91 122 172 223 271 316 389
#     4  11  22  43  59  83 124 159 208 272 318 353
#     4  11  25  41  61  89 124 167 211 265 327 385
#     4   9  16  30  60  95 124 162 208 270 333 372
#     4  11  20  35  63  85 113 159 210 271 315 359
#
# _framework density 18.689816
#
# number of rings (size 3 to 8) (size 9 to 14) (size 15 to 20)
#    0.000    1.250    5.000    4.125    0.000    1.500 
#    0.000    3.125    0.000    4.500    0.000    1.750 
#    0.000    0.000    0.000    0.000    0.000    0.000 
#
# Total GULP energy -356695.679303 kJ/mol
# GULP energy per Si atom -5573.369989 kJ/mol
# Density = 1.864728 g / cm^3
# Si number density = 18.689816 Si / 1000 Ang^3
#
#
#
# Elastic Constant Matrix: (Units=GPa)
#
#
# Indices 1 2 3 4 5 6 
#
# 1 62.3434 14.5742 32.8080 0.0000 0.0000 0.0000
# 2 14.5742 121.3123 41.6667 0.0000 0.0000 0.0000
# 3 32.8080 41.6667 137.5984 0.0000 0.0000 0.0000
# 4 0.0000 0.0000 0.0000 19.3694 0.0000 0.0000
# 5 0.0000 0.0000 0.0000 0.0000 28.5813 0.0000
# 6 0.0000 0.0000 0.0000 0.0000 0.0000 5.8504
#
#
#
# Elastic Compliance Matrix: (Units=1/GPa)
#
#
# Indices 1 2 3 4 5 6 
#
# 1 0.018408 -0.000786 -0.004151 0.000000 0.000000 0.000000
# 2 -0.000786 0.009234 -0.002609 0.000000 0.000000 0.000000
# 3 -0.004151 -0.002609 0.009047 0.000000 0.000000 0.000000
# 4 0.000000 0.000000 0.000000 0.051628 0.000000 0.000000
# 5 0.000000 0.000000 0.000000 0.000000 0.034988 0.000000
# 6 0.000000 0.000000 0.000000 0.000000 0.000000 0.170929
#
#
# Mechanical properties :
#
#
# Convention : Reuss Voigt Hill
#
# Bulk Modulus (GPa) = 46.30073 55.48351 50.89212
# Shear Modulus (GPa) = 15.79656 26.24055 21.01855
#
# Velocity S-wave (km/s) = 2.91038 3.75107 3.35714
# Velocity P-wave (km/s) = 6.01006 6.96503 6.50509
#
# Compressibility (1/GPa) = 0.02159793
#
# Stress axis : x y z
#
# Youngs Moduli (GPa) = 54.32289 108.30023 110.53051
#
# Poissons Ratio (x) = 0.08509 0.45884
# Poissons Ratio (y) = 0.04268 0.28834
# Poissons Ratio (z) = 0.22551 0.28252
#
# Static dielectric constant tensor:
#      x y z
#    x 1.732380 0.000000 0.000000 
#    y 0.000000 1.681520 0.000000 
#    z 0.000000 0.000000 2.264340 
# 
# From -- ./inp_files/19061.got.cif
#   From: 2010.05.17/outbox.cif.g08.bks.cpg/sg53_10_cif.got.tgz:19061.got - 2010.06.03 12:45:16.
