data_PCOD9419251
_publ_section_title
;
Structure prediction by ZEFSAII (Michael W. Deem and Ramdas Pophale) SiO2 
 PCOD9419251
Probable space group: P M N A
;
_chemical_formula_sum "Si O2"
_cell_formula_units_Z 64
_cell_length_a 18.753018
_cell_length_b 5.134436
_cell_length_c 29.636605
_cell_angle_alpha 90.000000
_cell_angle_beta 90.000000
_cell_angle_gamma 90.000000
_cell_volume 2853.595209
_symmetry_space_group_name_H-M "P M N A"
_symmetry_group_IT_number 53
_symmetry_cell_setting 'orthorhombic'
loop_
_space_group_symop_operation_xyz
x,y,z
1/2-x,-y,1/2+z
x,-y,-z
1/2-x,y,1/2-z
-x,-y,-z
1/2+x,y,1/2-z
-x,y,z
1/2+x,-y,1/2+z
loop_
_atom_site_type_symbol
_atom_site_label
_atom_site_fract_x
_atom_site_fract_y
_atom_site_fract_z
Si Si1 0.325191 0.968133 0.774097
Si Si2 0.581917 0.338369 0.092519
Si Si3 0.818405 0.294633 0.128059
Si Si4 0.869954 0.172740 0.545231
Si Si5 0.686483 0.457374 0.831338
Si Si6 0.082160 0.007401 0.809319
Si Si7 0.920999 0.337819 0.899057
Si Si8 0.288643 0.920052 0.448475
O O1 0.250000 0.024699 0.750000
O O2 0.322755 0.668788 0.790890
O O3 0.391200 0.046254 0.741639
O O4 0.326223 0.164686 0.816011
O O5 0.500000 0.334162 0.105857
O O6 0.591410 0.552275 0.052302
O O7 0.630788 0.453691 0.131470
O O8 0.605202 0.044485 0.081076
O O9 0.765566 0.512407 0.147261
O O10 0.850317 0.153827 0.171517
O O11 0.893348 0.369362 0.104318
O O12 0.776377 0.143597 0.089099
O O13 0.879987 0.000000 0.500000
O O14 0.785569 0.234261 0.549594
O O15 0.000000 0.902719 0.809384
O O16 0.080295 0.235792 0.847143
O O17 0.000000 0.303732 0.916820
O O18 0.858967 0.213933 0.928846
O O19 0.302167 0.000000 0.500000
#
# Coordination Sequence:
#
# PCOD9419251 Si02
#       8
#     8   8   8   8   8   8   8   8
#     4  12  25  43  66 100 130 174 228 282 330 402
#     4  12  26  45  68 100 140 180 222 280 354 417
#     4  11  21  41  67  94 130 177 225 277 329 408
#     4  11  24  44  71 102 134 179 234 285 337 407
#     4  12  26  42  70  95 135 178 227 277 341 404
#     4  10  23  41  64  95 130 170 219 278 334 397
#     4  10  22  40  66  96 135 179 222 276 346 404
#     4  10  23  41  66  98 133 177 230 282 337 404
#
# _framework density 22.427849999999999
#
# number of rings (size 3 to 8) (size 9 to 14) (size 15 to 20)
#    0.000    1.000    2.500    3.750    3.500    3.750 
#    0.000    0.625    0.000    0.000    0.000    0.000 
#    0.000    0.000    0.000    0.000    0.000    0.000 
#
# Total GULP energy -357147.757823 kJ/mol
# GULP energy per Si atom -5580.433716 kJ/mol
# Density = 2.237680 g / cm^3
# Si number density = 22.427850 Si / 1000 Ang^3
#
#
#
# Elastic Constant Matrix: (Units=GPa)
#
#
# Indices 1 2 3 4 5 6 
#
# 1 124.8446 -1.0553 25.8061 0.0000 0.0000 0.0000
# 2 -1.0553 41.0529 -5.3259 0.0000 0.0000 0.0000
# 3 25.8061 -5.3259 72.9468 0.0000 0.0000 0.0000
# 4 0.0000 0.0000 0.0000 17.1520 0.0000 0.0000
# 5 0.0000 0.0000 0.0000 0.0000 -19.6821 0.0000
# 6 0.0000 0.0000 0.0000 0.0000 0.0000 25.8265
#
#
#
# Elastic Compliance Matrix: (Units=1/GPa)
#
#
# Indices 1 2 3 4 5 6 
#
# 1 0.008643 -0.000176 -0.003071 0.000000 0.000000 0.000000
# 2 -0.000176 0.024595 0.001858 0.000000 0.000000 0.000000
# 3 -0.003071 0.001858 0.014931 0.000000 0.000000 0.000000
# 4 0.000000 0.000000 0.000000 0.058302 0.000000 0.000000
# 5 0.000000 0.000000 0.000000 0.000000 -0.050808 0.000000
# 6 0.000000 0.000000 0.000000 0.000000 0.000000 0.038720
#
#
# Mechanical properties :
#
#
# Convention : Reuss Voigt Hill
#
# Bulk Modulus (GPa) = 22.03041 30.85487 26.44264
# Shear Modulus (GPa) = 44.52694 19.28724 31.90709
#
# Velocity S-wave (km/s) = 4.46055 2.93570 3.77590
# Velocity P-wave (km/s) = 6.03099 5.02776 5.55208
#
# Compressibility (1/GPa) = 0.04539181
#
# Stress axis : x y z
#
# Youngs Moduli (GPa) = 115.69840 40.65808 66.97685
#
# Poissons Ratio (x) = 0.00716 0.20565
# Poissons Ratio (y) = 0.02038 -0.12445
# Poissons Ratio (z) = 0.35525 -0.07555
#
# Static dielectric constant tensor:
#      x y z
#    x 1.779480 0.000000 0.000000 
#    y 0.000000 1.920730 0.000000 
#    z 0.000000 0.000000 0.920430 
# 
# From -- ./inp_files/39052.got.cif
#   From: 2010.05.17/outbox.cif.g08.bks.cpg/sg53_20_cif.got.tgz:39052.got - 2010.06.03 12:45:16.
