data_PCOD9419000
_publ_section_title
;
Structure prediction by ZEFSAII (Michael W. Deem and Ramdas Pophale) SiO2 
 PCOD9419000
Probable space group: P M N A
;
_chemical_formula_sum "Si O2"
_cell_formula_units_Z 64
_cell_length_a 17.429158
_cell_length_b 14.603829
_cell_length_c 12.461443
_cell_angle_alpha 90.000000
_cell_angle_beta 90.000000
_cell_angle_gamma 90.000000
_cell_volume 3171.841531
_symmetry_space_group_name_H-M "P M N A"
_symmetry_group_IT_number 53
_symmetry_cell_setting 'orthorhombic'
loop_
_space_group_symop_operation_xyz
x,y,z
1/2-x,-y,1/2+z
x,-y,-z
1/2-x,y,1/2-z
-x,-y,-z
1/2+x,y,1/2-z
-x,y,z
1/2+x,-y,1/2+z
loop_
_atom_site_type_symbol
_atom_site_label
_atom_site_fract_x
_atom_site_fract_y
_atom_site_fract_z
Si Si1 0.831676 0.505294 0.305947
Si Si2 0.908486 0.159558 0.789321
Si Si3 0.911833 0.341187 0.393646
Si Si4 0.669588 0.723246 0.461240
Si Si5 0.908560 0.235749 0.172716
Si Si6 0.841094 0.287258 0.604518
Si Si7 0.583890 0.554674 0.389667
Si Si8 0.092884 0.972870 0.879944
O O1 0.750000 0.490135 0.250000
O O2 0.853251 0.426622 0.389842
O O3 0.836834 0.608408 0.350910
O O4 0.895930 0.494891 0.212905
O O5 0.883579 0.201660 0.903818
O O6 0.867342 0.219332 0.698461
O O7 0.000000 0.166427 0.776241
O O8 0.885130 0.053240 0.797318
O O9 0.896654 0.276793 0.290715
O O10 0.898532 0.288429 0.504457
O O11 0.000000 0.373180 0.388677
O O12 0.642382 0.713791 0.583266
O O13 0.758152 0.741547 0.440770
O O14 0.649047 0.629825 0.400450
O O15 0.887003 0.128715 0.159299
O O16 0.000000 0.246097 0.147792
O O17 0.582923 0.500000 0.500000
O O18 0.500000 0.598250 0.375300
O O19 0.000000 0.974589 0.885325
O O20 0.120569 0.000000 0.000000
#
# Coordination Sequence:
#
# PCOD9419000 Si02
#       8
#     8   8   8   8   8   8   8   8
#     4  12  24  41  63  90 126 169 214 268 318 378
#     4  11  21  38  67  97 126 163 213 268 321 384
#     4  11  27  45  65  91 127 177 225 265 311 384
#     4  12  22  37  63  92 129 165 206 269 329 376
#     4  10  21  41  68  98 128 160 216 277 327 379
#     4  12  26  42  61  89 136 180 217 253 317 399
#     4  11  23  37  58  90 122 155 205 264 322 373
#     4   9  17  34  66 102 125 155 205 268 332 384
#
# _framework density 20.177553
#
# number of rings (size 3 to 8) (size 9 to 14) (size 15 to 20)
#    0.000    1.000    3.750    3.375    3.500    4.000 
#    0.000    0.625    8.250    3.000    0.000    0.000 
#    0.000    0.000    0.000    0.000    0.000    0.000 
#
# Total GULP energy -357638.137681 kJ/mol
# GULP energy per Si atom -5588.095901 kJ/mol
# Density = 2.013163 g / cm^3
# Si number density = 20.177553 Si / 1000 Ang^3
#
#
#
# Elastic Constant Matrix: (Units=GPa)
#
#
# Indices 1 2 3 4 5 6 
#
# 1 80.4866 15.9364 28.2083 0.0000 0.0000 0.0000
# 2 15.9364 83.1743 24.5032 0.0000 0.0000 0.0000
# 3 28.2083 24.5032 104.1474 0.0000 0.0000 0.0000
# 4 0.0000 0.0000 0.0000 24.1379 0.0000 0.0000
# 5 0.0000 0.0000 0.0000 0.0000 20.2951 0.0000
# 6 0.0000 0.0000 0.0000 0.0000 0.0000 -1.5054
#
#
#
# Elastic Compliance Matrix: (Units=1/GPa)
#
#
# Indices 1 2 3 4 5 6 
#
# 1 0.013941 -0.001675 -0.003382 0.000000 0.000000 0.000000
# 2 -0.001675 0.013120 -0.002633 0.000000 0.000000 0.000000
# 3 -0.003382 -0.002633 0.011137 0.000000 0.000000 0.000000
# 4 0.000000 0.000000 0.000000 0.041429 0.000000 0.000000
# 5 0.000000 0.000000 0.000000 0.000000 0.049273 0.000000
# 6 0.000000 0.000000 0.000000 0.000000 0.000000 -0.664269
#
#
# Mechanical properties :
#
#
# Convention : Reuss Voigt Hill
#
# Bulk Modulus (GPa) = 43.82430 45.01158 44.41794
# Shear Modulus (GPa) = -9.75832 21.86288 6.05228
#
# Velocity S-wave (km/s) = -2.20153 3.29526 1.73379
# Velocity P-wave (km/s) = 3.91206 6.06915 5.10582
#
# Compressibility (1/GPa) = 0.02281839
#
# Stress axis : x y z
#
# Youngs Moduli (GPa) = 71.72908 76.22215 89.78864
#
# Poissons Ratio (x) = 0.12766 0.30366
# Poissons Ratio (y) = 0.12014 0.23642
# Poissons Ratio (z) = 0.24259 0.20070
#
# Static dielectric constant tensor:
#      x y z
#    x 1.695430 0.000000 0.000000 
#    y 0.000000 1.739540 0.000000 
#    z 0.000000 0.000000 1.699060 
# 
# From -- ./inp_files/17073.got.cif
#   From: 2010.05.17/outbox.cif.g08.bks.cpg/sg53_9_cif.got.tgz:17073.got - 2010.06.03 12:45:16.
