data_PCOD9419104
_publ_section_title
;
Structure prediction by ZEFSAII (Michael W. Deem and Ramdas Pophale) SiO2 
 PCOD9419104
Probable space group: P M N A
;
_chemical_formula_sum "Si O2"
_cell_formula_units_Z 64
_cell_length_a 8.765417
_cell_length_b 24.241969
_cell_length_c 15.809508
_cell_angle_alpha 90.000000
_cell_angle_beta 90.000000
_cell_angle_gamma 90.000000
_cell_volume 3359.377646
_symmetry_space_group_name_H-M "P M N A"
_symmetry_group_IT_number 53
_symmetry_cell_setting 'orthorhombic'
loop_
_space_group_symop_operation_xyz
x,y,z
1/2-x,-y,1/2+z
x,-y,-z
1/2-x,y,1/2-z
-x,-y,-z
1/2+x,y,1/2-z
-x,y,z
1/2+x,-y,1/2+z
loop_
_atom_site_type_symbol
_atom_site_label
_atom_site_fract_x
_atom_site_fract_y
_atom_site_fract_z
Si Si1 0.816413 0.254644 0.595643
Si Si2 0.818435 0.367815 0.338716
Si Si3 0.682526 0.367348 0.662315
Si Si4 0.315668 0.064175 0.004031
Si Si5 0.316730 0.744904 0.593743
Si Si6 0.317656 0.866785 0.658873
Si Si7 0.316887 0.564498 0.506061
Si Si8 0.316627 0.866347 0.160007
O O1 0.751092 0.306896 0.645162
O O2 0.748904 0.255710 0.501177
O O3 0.772821 0.196770 0.638816
O O4 0.000000 0.257794 0.591650
O O5 0.750000 0.387891 0.250000
O O6 0.753046 0.306777 0.357069
O O7 0.765436 0.405911 0.416246
O O8 0.000000 0.365639 0.334093
O O9 0.750000 0.389246 0.750000
O O10 0.500000 0.363809 0.668061
O O11 0.722081 0.404822 0.581473
O O12 0.500000 0.067864 0.009528
O O13 0.246375 0.094618 0.084899
O O14 0.267414 0.095636 0.918434
O O15 0.273342 0.000000 0.000000
O O16 0.500000 0.739458 0.590836
O O17 0.276993 0.803371 0.636072
O O18 0.250000 0.881250 0.750000
O O19 0.500000 0.870725 0.661176
O O20 0.279815 0.500000 0.500000
O O21 0.500000 0.569963 0.518284
O O22 0.250000 0.883331 0.250000
O O23 0.500000 0.868568 0.164351
#
# Coordination Sequence:
#
# PCOD9419104 Si02
#       8
#     8   8   8   8   8   8   8   8
#     4  11  21  36  61  91 123 159 199 248 307 368
#     4  12  25  41  65  94 127 165 206 255 308 370
#     4  11  23  39  62  90 125 162 202 251 303 365
#     4  10  22  42  64  87 120 161 206 255 307 360
#     4  11  22  38  62  93 126 162 201 249 311 372
#     4  11  24  40  63  92 124 162 203 252 306 367
#     4  10  23  44  66  90 124 165 208 258 309 360
#     4  10  22  38  59  88 120 158 198 246 300 359
#
# _framework density 19.051147
#
# number of rings (size 3 to 8) (size 9 to 14) (size 15 to 20)
#    0.000    1.250    2.500    3.375    0.000    7.000 
#    0.000    2.500    0.000    0.000    0.000    0.000 
#    0.000    0.000    0.000    0.000    0.000    0.000 
#
# Total GULP energy -357966.645150 kJ/mol
# GULP energy per Si atom -5593.228830 kJ/mol
# Density = 1.900779 g / cm^3
# Si number density = 19.051147 Si / 1000 Ang^3
#
#
#
# Elastic Constant Matrix: (Units=GPa)
#
#
# Indices 1 2 3 4 5 6 
#
# 1 59.2684 55.2947 60.6178 0.0000 0.0000 0.0000
# 2 55.2947 139.4378 77.7370 0.0000 0.0000 0.0000
# 3 60.6178 77.7370 189.0786 0.0000 0.0000 0.0000
# 4 0.0000 0.0000 0.0000 -4.8704 0.0000 0.0000
# 5 0.0000 0.0000 0.0000 0.0000 30.8186 0.0000
# 6 0.0000 0.0000 0.0000 0.0000 0.0000 18.4417
#
#
#
# Elastic Compliance Matrix: (Units=1/GPa)
#
#
# Indices 1 2 3 4 5 6 
#
# 1 0.031998 -0.009043 -0.006541 0.000000 0.000000 0.000000
# 2 -0.009043 0.011860 -0.001977 0.000000 0.000000 0.000000
# 3 -0.006541 -0.001977 0.008199 0.000000 0.000000 0.000000
# 4 0.000000 0.000000 0.000000 -0.205322 0.000000 0.000000
# 5 0.000000 0.000000 0.000000 0.000000 0.032448 0.000000
# 6 0.000000 0.000000 0.000000 0.000000 0.000000 0.054225
#
#
# Mechanical properties :
#
#
# Convention : Reuss Voigt Hill
#
# Bulk Modulus (GPa) = 59.04588 86.12042 72.58315
# Shear Modulus (GPa) = -193.59943 21.82035 -85.88954
#
# Velocity S-wave (km/s) = -10.09165 3.38798 -6.72172
# Velocity P-wave (km/s) = 10.23367 7.78509 4.69683
#
# Compressibility (1/GPa) = 0.01693598
#
# Stress axis : x y z
#
# Youngs Moduli (GPa) = 31.25151 84.31928 121.97281
#
# Poissons Ratio (x) = 0.76247 0.79780
# Poissons Ratio (y) = 0.28260 0.24113
# Poissons Ratio (z) = 0.20441 0.16669
#
# Static dielectric constant tensor:
#      x y z
#    x 1.640380 0.000000 0.000000 
#    y 0.000000 1.644260 0.000000 
#    z 0.000000 0.000000 1.653460 
# 
# From -- ./inp_files/20806.got.cif
#   From: 2010.05.17/outbox.cif.g08.bks.cpg/sg53_11_cif.got.tgz:20806.got - 2010.06.03 12:45:16.
