data_PCOD9419946
_publ_section_title
;
Structure prediction by ZEFSAII (Michael W. Deem and Ramdas Pophale) SiO2 
 PCOD9419946
Probable space group: P M N A
;
_chemical_formula_sum "Si O2"
_cell_formula_units_Z 54
_cell_length_a 28.986227
_cell_length_b 5.047127
_cell_length_c 17.241501
_cell_angle_alpha 90.000000
_cell_angle_beta 90.000000
_cell_angle_gamma 90.000000
_cell_volume 2522.382784
_symmetry_space_group_name_H-M "P M N A"
_symmetry_group_IT_number 53
_symmetry_cell_setting 'orthorhombic'
loop_
_space_group_symop_operation_xyz
x,y,z
1/2-x,-y,1/2+z
x,-y,-z
1/2-x,y,1/2-z
-x,-y,-z
1/2+x,y,1/2-z
-x,y,z
1/2+x,-y,1/2+z
loop_
_atom_site_type_symbol
_atom_site_label
_atom_site_fract_x
_atom_site_fract_y
_atom_site_fract_z
Si Si1 0.444716 0.943359 0.746392
Si Si2 0.186229 0.543196 0.407154
Si Si3 0.738464 0.054229 0.160178
Si Si4 0.085120 0.411048 0.662120
Si Si5 0.077961 0.794934 0.926381
Si Si6 0.317954 0.258435 0.447446
Si Si7 0.500000 0.746540 0.055489
Si Si8 0.000000 0.500000 0.000000
O O1 0.500000 0.982315 0.757043
O O2 0.429664 0.689812 0.798793
O O3 0.434589 0.916148 0.655700
O O4 0.414020 0.192621 0.771144
O O5 0.190113 0.500000 0.500000
O O6 0.202061 0.285406 0.358950
O O7 0.132948 0.583535 0.383898
O O8 0.218229 0.789845 0.380249
O O9 0.750000 0.006459 0.250000
O O10 0.784580 0.173783 0.121229
O O11 0.045282 0.290715 0.607286
O O12 0.129648 0.683671 0.923299
O O13 0.040459 0.569401 0.937939
O O14 0.072139 0.000000 0.000000
O O15 0.300276 0.500000 0.500000
O O16 0.320823 0.000000 0.500000
O O17 0.500000 0.500000 0.000000
O O18 0.500000 0.000000 0.000000
#
# Coordination Sequence:
#
# PCOD9419946 Si02
#       8
#     8   8   8   8   8   8   4   2
#     4  12  25  45  71 101 155 198 236 307 359 435
#     4  12  27  50  78 106 146 195 242 306 366 442
#     4  12  27  48  75 111 145 187 240 311 366 436
#     4  12  27  46  71 111 143 190 246 290 375 424
#     4  11  27  42  71 103 146 193 248 294 360 436
#     4  11  24  45  71 103 138 189 237 291 359 432
#     4  12  24  44  72 102 145 183 232 294 342 439
#     4  12  22  44  64 106 140 184 254 290 354 428
#
# _framework density 21.408328000000001
#
# number of rings (size 3 to 8) (size 9 to 14) (size 15 to 20)
#    0.000    0.296    2.963    5.556    6.222    1.185 
#    0.000    0.000    0.000    0.000    0.000    0.000 
#    0.000    0.000    0.000    0.000    0.000    0.000 
#
# Total GULP energy -301447.880815 kJ/mol
# GULP energy per Si atom -5582.368163 kJ/mol
# Density = 2.135960 g / cm^3
# Si number density = 21.408328 Si / 1000 Ang^3
#
#
#
# Elastic Constant Matrix: (Units=GPa)
#
#
# Indices 1 2 3 4 5 6 
#
# 1 171.0101 31.5994 76.9595 0.0000 0.0000 0.0000
# 2 31.5994 100.5734 35.3552 0.0000 0.0000 0.0000
# 3 76.9595 35.3552 142.3807 0.0000 0.0000 0.0000
# 4 0.0000 0.0000 0.0000 39.9190 0.0000 0.0000
# 5 0.0000 0.0000 0.0000 0.0000 146.8347 0.0000
# 6 0.0000 0.0000 0.0000 0.0000 0.0000 -86.8860
#
#
#
# Elastic Compliance Matrix: (Units=1/GPa)
#
#
# Indices 1 2 3 4 5 6 
#
# 1 0.007830 -0.001065 -0.003968 0.000000 0.000000 0.000000
# 2 -0.001065 0.011039 -0.002165 0.000000 0.000000 0.000000
# 3 -0.003968 -0.002165 0.009706 0.000000 0.000000 0.000000
# 4 0.000000 0.000000 0.000000 0.025051 0.000000 0.000000
# 5 0.000000 0.000000 0.000000 0.000000 0.006810 0.000000
# 6 0.000000 0.000000 0.000000 0.000000 0.000000 -0.011509
#
#
# Mechanical properties :
#
#
# Convention : Reuss Voigt Hill
#
# Bulk Modulus (GPa) = 70.53212 77.97693 74.25452
# Shear Modulus (GPa) = 73.47619 37.97686 55.72653
#
# Velocity S-wave (km/s) = 5.86480 4.21637 5.10753
# Velocity P-wave (km/s) = 8.88137 7.75928 8.33922
#
# Compressibility (1/GPa) = 0.01417794
#
# Stress axis : x y z
#
# Youngs Moduli (GPa) = 127.71268 90.58891 103.03166
#
# Poissons Ratio (x) = 0.09651 0.40881
# Poissons Ratio (y) = 0.13606 0.22309
# Poissons Ratio (z) = 0.50673 0.19615
#
# Static dielectric constant tensor:
#      x y z
#    x 1.756040 0.000000 0.000000 
#    y 0.000000 1.829140 0.000000 
#    z 0.000000 0.000000 1.804650 
# 
# From -- ./inp_files/25167.got.cif
#   From: 2010.05.17/outbox.cif.g08.bks.cpg/sg53_13_cif.got.tgz:25167.got - 2010.06.03 12:45:16.
