data_PCOD9419608
_publ_section_title
;
Structure prediction by ZEFSAII (Michael W. Deem and Ramdas Pophale) SiO2 
 PCOD9419608
Probable space group: P M N A
;
_chemical_formula_sum "Si O2"
_cell_formula_units_Z 64
_cell_length_a 14.641864
_cell_length_b 15.806548
_cell_length_c 12.472156
_cell_angle_alpha 90.000000
_cell_angle_beta 90.000000
_cell_angle_gamma 90.000000
_cell_volume 2886.522436
_symmetry_space_group_name_H-M "P M N A"
_symmetry_group_IT_number 53
_symmetry_cell_setting 'orthorhombic'
loop_
_space_group_symop_operation_xyz
x,y,z
1/2-x,-y,1/2+z
x,-y,-z
1/2-x,y,1/2-z
-x,-y,-z
1/2+x,y,1/2-z
-x,y,z
1/2+x,-y,1/2+z
loop_
_atom_site_type_symbol
_atom_site_label
_atom_site_fract_x
_atom_site_fract_y
_atom_site_fract_z
Si Si1 0.389091 0.370285 0.412691
Si Si2 0.394898 0.786653 0.007329
Si Si3 0.899460 0.962946 0.380072
Si Si4 0.100578 0.158309 0.877881
Si Si5 0.148571 0.703943 0.286240
Si Si6 0.608841 0.554721 0.357090
Si Si7 0.205713 0.800993 0.908781
Si Si8 0.198714 0.012505 0.131303
O O1 0.500000 0.358405 0.408768
O O2 0.362162 0.392920 0.536417
O O3 0.361365 0.457433 0.354303
O O4 0.339242 0.286341 0.371125
O O5 0.500000 0.785461 0.968915
O O6 0.385823 0.864933 0.090820
O O7 0.373127 0.710526 0.088628
O O8 0.315705 0.795758 0.919277
O O9 0.000000 0.977516 0.330004
O O10 0.906430 0.000000 0.500000
O O11 0.805256 0.001547 0.336797
O O12 0.094005 0.229121 0.786701
O O13 0.169212 0.189327 0.969151
O O14 0.000000 0.146769 0.926183
O O15 0.136453 0.067905 0.836165
O O16 0.250000 0.727435 0.250000
O O17 0.132251 0.609821 0.244846
O O18 0.500000 0.549973 0.368773
O O19 0.174796 0.888620 0.853071
O O20 0.198351 0.000000 0.000000
#
# Coordination Sequence:
#
# PCOD9419608 Si02
#       8
#     8   8   8   8   8   8   8   8
#     4   9  17  29  47  68  93 122 157 203 250 297
#     4  11  20  29  45  72 103 135 168 204 248 300
#     4   9  14  26  43  60  92 133 170 206 238 275
#     4  11  20  30  43  66 103 138 164 197 244 296
#     4  12  20  32  49  71 103 134 161 200 251 311
#     4   9  17  30  46  68  94 121 155 200 251 300
#     4  11  18  30  46  69 100 128 164 204 240 289
#     4   9  17  28  40  64  95 131 167 199 236 283
#
# _framework density 22.172008000000002
#
# number of rings (size 3 to 8) (size 9 to 14) (size 15 to 20)
#    0.000    1.875    6.250    2.250    0.000    2.750 
#    0.000    0.000    0.000    0.000    0.000   11.375 
#    0.000    2.000    0.000    0.500    0.000    0.000 
#
# Total GULP energy -357182.244895 kJ/mol
# GULP energy per Si atom -5580.972576 kJ/mol
# Density = 2.212154 g / cm^3
# Si number density = 22.172008 Si / 1000 Ang^3
#
#
#
# Elastic Constant Matrix: (Units=GPa)
#
#
# Indices 1 2 3 4 5 6 
#
# 1 129.0307 44.4741 -7.3862 0.0000 0.0000 0.0000
# 2 44.4741 154.4004 12.7711 0.0000 0.0000 0.0000
# 3 -7.3862 12.7711 14.2424 0.0000 0.0000 0.0000
# 4 0.0000 0.0000 0.0000 22.4782 0.0000 0.0000
# 5 0.0000 0.0000 0.0000 0.0000 5.8504 0.0000
# 6 0.0000 0.0000 0.0000 0.0000 0.0000 29.9027
#
#
#
# Elastic Compliance Matrix: (Units=1/GPa)
#
#
# Indices 1 2 3 4 5 6 
#
# 1 0.009351 -0.003343 0.007847 0.000000 0.000000 0.000000
# 2 -0.003343 0.008190 -0.009078 0.000000 0.000000 0.000000
# 3 0.007847 -0.009078 0.082423 0.000000 0.000000 0.000000
# 4 0.000000 0.000000 0.000000 0.044488 0.000000 0.000000
# 5 0.000000 0.000000 0.000000 0.000000 0.170928 0.000000
# 6 0.000000 0.000000 0.000000 0.000000 0.000000 0.033442
#
#
# Mechanical properties :
#
#
# Convention : Reuss Voigt Hill
#
# Bulk Modulus (GPa) = 11.01106 44.15459 27.58283
# Shear Modulus (GPa) = 12.87859 28.16722 20.52290
#
# Velocity S-wave (km/s) = 2.41270 3.56813 3.04570
# Velocity P-wave (km/s) = 3.56910 6.07727 4.98355
#
# Compressibility (1/GPa) = 0.09081774
#
# Stress axis : x y z
#
# Youngs Moduli (GPa) = 106.93522 122.09449 12.13258
#
# Poissons Ratio (x) = 0.40813 -0.09521
# Poissons Ratio (y) = 0.35745 0.11014
# Poissons Ratio (z) = -0.83914 1.10835
#
# Static dielectric constant tensor:
#      x y z
#    x 1.839610 0.000000 0.000000 
#    y 0.000000 1.958010 0.000000 
#    z 0.000000 0.000000 1.948670 
# 
# From -- ./inp_files/28644.got.cif
#   From: 2010.05.17/outbox.cif.g08.bks.cpg/sg53_15_cif.got.tgz:28644.got - 2010.06.03 12:45:16.
