data_PCOD9419831
_publ_section_title
;
Structure prediction by ZEFSAII (Michael W. Deem and Ramdas Pophale) SiO2 
 PCOD9419831
Probable space group: P M N A
;
_chemical_formula_sum "Si O2"
_cell_formula_units_Z 48
_cell_length_a 8.751953
_cell_length_b 17.217793
_cell_length_c 16.086570
_cell_angle_alpha 90.000000
_cell_angle_beta 90.000000
_cell_angle_gamma 90.000000
_cell_volume 2424.074216
_symmetry_space_group_name_H-M "P M N A"
_symmetry_group_IT_number 53
_symmetry_cell_setting 'orthorhombic'
loop_
_space_group_symop_operation_xyz
x,y,z
1/2-x,-y,1/2+z
x,-y,-z
1/2-x,y,1/2-z
-x,-y,-z
1/2+x,y,1/2-z
-x,y,z
1/2+x,-y,1/2+z
loop_
_atom_site_type_symbol
_atom_site_label
_atom_site_fract_x
_atom_site_fract_y
_atom_site_fract_z
Si Si1 0.682563 0.822459 0.335539
Si Si2 0.316325 0.193278 0.339791
Si Si3 0.186164 0.089281 0.002748
Si Si4 0.678448 0.661709 0.113685
Si Si5 0.678532 0.652973 0.916941
Si Si6 0.182145 0.504349 0.839792
O O1 0.750000 0.855240 0.250000
O O2 0.500000 0.825175 0.332066
O O3 0.734923 0.867238 0.418548
O O4 0.737708 0.733968 0.344871
O O5 0.250000 0.171507 0.250000
O O6 0.500000 0.193718 0.336257
O O7 0.266695 0.135307 0.414170
O O8 0.257501 0.278851 0.364803
O O9 0.000000 0.089903 0.003044
O O10 0.236345 0.000000 0.000000
O O11 0.500000 0.660650 0.137732
O O12 0.753611 0.580004 0.136860
O O13 0.688811 0.672300 0.014381
O O14 0.500000 0.647201 0.894035
O O15 0.758793 0.570751 0.901506
O O16 0.250000 0.525415 0.750000
O O17 0.000000 0.502783 0.837658
#
# Coordination Sequence:
#
# PCOD9419831 Si02
#       6
#     8   8   8   8   8   8
#     4  11  22  39  64  93 126 165 210 255 309 370
#     4  11  22  39  64  93 126 165 210 255 309 370
#     4   9  20  40  65  92 125 164 205 253 310 375
#     4  11  23  40  62  88 122 161 206 257 310 364
#     4  11  23  40  62  88 122 161 206 257 310 364
#     4  12  25  40  59  85 121 161 209 257 306 363
#
# _framework density 19.801376000000001
#
# number of rings (size 3 to 8) (size 9 to 14) (size 15 to 20)
#    0.000    1.167    1.667    5.000    0.000    4.667 
#    0.000    0.000    0.000    7.000    0.000    0.000 
#    0.000    0.000    0.000    0.000    0.000    0.000 
#
# Total GULP energy -268492.203880 kJ/mol
# GULP energy per Si atom -5593.587581 kJ/mol
# Density = 1.975631 g / cm^3
# Si number density = 19.801376 Si / 1000 Ang^3
#
#
#
# Elastic Constant Matrix: (Units=GPa)
#
#
# Indices 1 2 3 4 5 6 
#
# 1 95.4484 22.2823 43.1660 0.0000 0.0000 0.0000
# 2 22.2823 109.6086 37.4480 0.0000 0.0000 0.0000
# 3 43.1660 37.4480 107.7820 0.0000 0.0000 0.0000
# 4 0.0000 0.0000 0.0000 6.6082 0.0000 0.0000
# 5 0.0000 0.0000 0.0000 0.0000 32.3218 0.0000
# 6 0.0000 0.0000 0.0000 0.0000 0.0000 10.4871
#
#
#
# Elastic Compliance Matrix: (Units=1/GPa)
#
#
# Indices 1 2 3 4 5 6 
#
# 1 0.012885 -0.000972 -0.004823 0.000000 0.000000 0.000000
# 2 -0.000972 0.010425 -0.003233 0.000000 0.000000 0.000000
# 3 -0.004823 -0.003233 0.012333 0.000000 0.000000 0.000000
# 4 0.000000 0.000000 0.000000 0.151327 0.000000 0.000000
# 5 0.000000 0.000000 0.000000 0.000000 0.030939 0.000000
# 6 0.000000 0.000000 0.000000 0.000000 0.000000 0.095355
#
#
# Mechanical properties :
#
#
# Convention : Reuss Voigt Hill
#
# Bulk Modulus (GPa) = 56.85661 57.62576 57.24119
# Shear Modulus (GPa) = 14.82880 23.87961 19.35420
#
# Velocity S-wave (km/s) = 2.73953 3.47646 3.12976
# Velocity P-wave (km/s) = 6.22756 6.72900 6.48313
#
# Compressibility (1/GPa) = 0.01758810
#
# Stress axis : x y z
#
# Youngs Moduli (GPa) = 77.61134 95.91867 81.08490
#
# Poissons Ratio (x) = 0.09320 0.39104
# Poissons Ratio (y) = 0.07541 0.26216
# Poissons Ratio (z) = 0.37429 0.31012
#
# Static dielectric constant tensor:
#      x y z
#    x 1.671250 0.000000 0.000000 
#    y 0.000000 1.664730 0.000000 
#    z 0.000000 0.000000 1.706110 
# 
# From -- ./inp_files/20165.got.cif
#   From: 2010.05.17/outbox.cif.g08.bks.cpg/sg53_11_cif.got.tgz:20165.got - 2010.06.03 12:45:16.
