data_PCOD9419712
_publ_section_title
;
Structure prediction by ZEFSAII (Michael W. Deem and Ramdas Pophale) SiO2 
 PCOD9419712
Probable space group: P M N A
;
_chemical_formula_sum "Si O2"
_cell_formula_units_Z 64
_cell_length_a 8.231063
_cell_length_b 12.852103
_cell_length_c 28.584043
_cell_angle_alpha 90.000000
_cell_angle_beta 90.000000
_cell_angle_gamma 90.000000
_cell_volume 3023.804992
_symmetry_space_group_name_H-M "P M N A"
_symmetry_group_IT_number 53
_symmetry_cell_setting 'orthorhombic'
loop_
_space_group_symop_operation_xyz
x,y,z
1/2-x,-y,1/2+z
x,-y,-z
1/2-x,y,1/2-z
-x,-y,-z
1/2+x,y,1/2-z
-x,y,z
1/2+x,-y,1/2+z
loop_
_atom_site_type_symbol
_atom_site_label
_atom_site_fract_x
_atom_site_fract_y
_atom_site_fract_z
Si Si1 0.311896 0.460437 0.432311
Si Si2 0.311944 0.505479 0.321002
Si Si3 0.692718 0.879817 0.873797
Si Si4 0.691733 0.763837 0.962581
Si Si5 0.699708 0.728565 0.336761
Si Si6 0.193183 0.949523 0.198763
Si Si7 0.305640 0.688075 0.442697
Si Si8 0.195911 0.716412 0.798975
O O1 0.500000 0.445655 0.447296
O O2 0.313117 0.484087 0.376811
O O3 0.224424 0.352535 0.442701
O O4 0.245663 0.569591 0.452860
O O5 0.500000 0.509047 0.305356
O O6 0.241633 0.620200 0.314010
O O7 0.236825 0.401476 0.300257
O O8 0.500000 0.893322 0.877165
O O9 0.756908 0.848435 0.925304
O O10 0.732787 0.780626 0.841571
O O11 0.760431 0.976479 0.844464
O O12 0.500000 0.778878 0.966200
O O13 0.762906 0.762458 0.014607
O O14 0.500000 0.726408 0.336137
O O15 0.755758 0.832937 0.311704
O O16 0.749508 0.725648 0.391530
O O17 0.250000 0.984955 0.250000
O O18 0.000000 0.946029 0.200315
O O19 0.500000 0.678145 0.439744
O O20 0.250000 0.764446 0.750000
O O21 0.000000 0.716109 0.802959
#
# Coordination Sequence:
#
# PCOD9419712 Si02
#       8
#     8   8   8   8   8   8   8   8
#     4   9  16  30  52  78 109 150 193 225 259 321
#     4   8  15  30  53  80 111 145 180 221 271 328
#     4  11  24  41  57  78 112 150 192 237 282 335
#     4  11  22  33  50  79 116 152 187 233 284 330
#     4   8  17  36  60  86 114 145 186 234 277 327
#     4  11  23  41  66  89 110 141 187 239 289 340
#     4   9  18  33  56  83 113 151 192 228 268 329
#     4  11  21  34  55  81 111 146 182 226 283 344
#
# _framework density 21.165385000000001
#
# number of rings (size 3 to 8) (size 9 to 14) (size 15 to 20)
#    0.000    2.250    1.250    3.750    0.000    4.000 
#    0.000    1.875    0.000    7.500    0.000    0.000 
#    0.000    0.000    0.000    0.000    0.000    0.000 
#
# Total GULP energy -357123.160247 kJ/mol
# GULP energy per Si atom -5580.049379 kJ/mol
# Density = 2.111721 g / cm^3
# Si number density = 21.165385 Si / 1000 Ang^3
#
#
#
# Elastic Constant Matrix: (Units=GPa)
#
#
# Indices 1 2 3 4 5 6 
#
# 1 17.3186 1.9322 -3.7690 0.0000 0.0000 0.0000
# 2 1.9322 91.9545 5.0559 0.0000 0.0000 0.0000
# 3 -3.7690 5.0559 44.6331 0.0000 0.0000 0.0000
# 4 0.0000 0.0000 0.0000 616.6045 0.0000 0.0000
# 5 0.0000 0.0000 0.0000 0.0000 18.8985 0.0000
# 6 0.0000 0.0000 0.0000 0.0000 0.0000 -386.8671
#
#
#
# Elastic Compliance Matrix: (Units=1/GPa)
#
#
# Indices 1 2 3 4 5 6 
#
# 1 0.059034 -0.001524 0.005158 0.000000 0.000000 0.000000
# 2 -0.001524 0.010982 -0.001373 0.000000 0.000000 0.000000
# 3 0.005158 -0.001373 0.022996 0.000000 0.000000 0.000000
# 4 0.000000 0.000000 0.000000 0.001622 0.000000 0.000000
# 5 0.000000 0.000000 0.000000 0.000000 0.052914 0.000000
# 6 0.000000 0.000000 0.000000 0.000000 0.000000 -0.002585
#
#
# Mechanical properties :
#
#
# Convention : Reuss Voigt Hill
#
# Bulk Modulus (GPa) = 10.25283 17.81605 14.03444
# Shear Modulus (GPa) = 28.90960 59.77300 44.34130
#
# Velocity S-wave (km/s) = 3.69981 5.31998 4.58207
# Velocity P-wave (km/s) = 4.80688 6.79501 5.88550
#
# Compressibility (1/GPa) = 0.09753400
#
# Stress axis : x y z
#
# Youngs Moduli (GPa) = 16.93942 91.05443 43.48600
#
# Poissons Ratio (x) = 0.13877 -0.22429
# Poissons Ratio (y) = 0.02582 0.05970
# Poissons Ratio (z) = -0.08737 0.12499
#
# Static dielectric constant tensor:
#      x y z
#    x 1.744650 0.000000 0.000000 
#    y 0.000000 1.794790 0.000000 
#    z 0.000000 0.000000 1.921380 
# 
# From -- ./inp_files/38233.got.cif
#   From: 2010.05.17/outbox.cif.g08.bks.cpg/sg53_20_cif.got.tgz:38233.got - 2010.06.03 12:45:16.
