data_PCOD9419861
_publ_section_title
;
Structure prediction by ZEFSAII (Michael W. Deem and Ramdas Pophale) SiO2 
 PCOD9419861
Probable space group: P M N A
;
_chemical_formula_sum "Si O2"
_cell_formula_units_Z 48
_cell_length_a 18.241696
_cell_length_b 12.274302
_cell_length_c 9.399486
_cell_angle_alpha 90.000000
_cell_angle_beta 90.000000
_cell_angle_gamma 90.000000
_cell_volume 2104.583319
_symmetry_space_group_name_H-M "P M N A"
_symmetry_group_IT_number 53
_symmetry_cell_setting 'orthorhombic'
loop_
_space_group_symop_operation_xyz
x,y,z
1/2-x,-y,1/2+z
x,-y,-z
1/2-x,y,1/2-z
-x,-y,-z
1/2+x,y,1/2-z
-x,y,z
1/2+x,-y,1/2+z
loop_
_atom_site_type_symbol
_atom_site_label
_atom_site_fract_x
_atom_site_fract_y
_atom_site_fract_z
Si Si1 0.918344 0.781551 0.951473
Si Si2 0.087469 0.893124 0.218045
Si Si3 0.417574 0.436822 0.629175
Si Si4 0.823553 0.701275 0.686926
Si Si5 0.312817 0.948894 0.848719
Si Si6 0.089405 0.676516 0.403829
O O1 0.875224 0.731542 0.819907
O O2 0.000000 0.814785 0.905499
O O3 0.883304 0.870407 0.057671
O O4 0.925633 0.682648 0.063575
O O5 0.106882 0.795758 0.331555
O O6 0.000000 0.889940 0.206372
O O7 0.112980 0.010042 0.274676
O O8 0.378724 0.500000 0.500000
O O9 0.500000 0.486129 0.646368
O O10 0.388082 0.414748 0.786361
O O11 0.750000 0.645264 0.750000
O O12 0.799986 0.821469 0.635379
O O13 0.869418 0.657391 0.552778
O O14 0.250000 0.996768 0.750000
O O15 0.310922 0.000000 0.000000
O O16 0.000000 0.672133 0.419744
#
# Coordination Sequence:
#
# PCOD9419861 Si02
#       6
#     8   8   8   8   8   8
#     4   9  19  35  55  80 110 140 176 230 288 344
#     4   9  19  34  54  76 102 142 190 236 291 341
#     4   8  15  32  60  88 110 138 181 228 282 347
#     4  11  23  35  50  76 111 153 196 236 280 334
#     4  11  24  37  52  73 107 148 197 246 283 330
#     4   9  17  33  55  81 112 146 186 237 289 341
#
# _framework density 22.807365000000001
#
# number of rings (size 3 to 8) (size 9 to 14) (size 15 to 20)
#    0.000    2.500    1.667    2.500    4.667    1.667 
#    0.000    5.000    0.000    6.000    0.000    0.000 
#    0.000    0.000    0.000    0.000    0.000    2.667 
#
# Total GULP energy -267477.991358 kJ/mol
# GULP energy per Si atom -5572.458153 kJ/mol
# Density = 2.275545 g / cm^3
# Si number density = 22.807365 Si / 1000 Ang^3
#
#
#
# Elastic Constant Matrix: (Units=GPa)
#
#
# Indices 1 2 3 4 5 6 
#
# 1 58.4934 -3.6589 59.0394 0.0000 0.0000 0.0000
# 2 -3.6589 34.2527 8.1217 0.0000 0.0000 0.0000
# 3 59.0394 8.1217 183.2258 0.0000 0.0000 0.0000
# 4 0.0000 0.0000 0.0000 106.9679 0.0000 0.0000
# 5 0.0000 0.0000 0.0000 0.0000 25.5039 0.0000
# 6 0.0000 0.0000 0.0000 0.0000 0.0000 9.3683
#
#
#
# Elastic Compliance Matrix: (Units=1/GPa)
#
#
# Indices 1 2 3 4 5 6 
#
# 1 0.026105 0.004834 -0.008626 0.000000 0.000000 0.000000
# 2 0.004834 0.030400 -0.002905 0.000000 0.000000 0.000000
# 3 -0.008626 -0.002905 0.008366 0.000000 0.000000 0.000000
# 4 0.000000 0.000000 0.000000 0.009349 0.000000 0.000000
# 5 0.000000 0.000000 0.000000 0.000000 0.039210 0.000000
# 6 0.000000 0.000000 0.000000 0.000000 0.000000 0.106743
#
#
# Mechanical properties :
#
#
# Convention : Reuss Voigt Hill
#
# Bulk Modulus (GPa) = 19.42637 44.77512 32.10074
# Shear Modulus (GPa) = 19.94224 42.53268 31.23746
#
# Velocity S-wave (km/s) = 2.96019 4.32309 3.70485
# Velocity P-wave (km/s) = 4.49664 6.67782 5.69267
#
# Compressibility (1/GPa) = 0.05147642
#
# Stress axis : x y z
#
# Youngs Moduli (GPa) = 38.30749 32.89479 119.53266
#
# Poissons Ratio (x) = -0.15901 1.03106
# Poissons Ratio (y) = -0.18517 0.34725
# Poissons Ratio (z) = 0.33043 0.09556
#
# Static dielectric constant tensor:
#      x y z
#    x 1.915520 0.000000 0.000000 
#    y 0.000000 1.953700 0.000000 
#    z 0.000000 0.000000 1.880930 
# 
# From -- ./inp_files/9920.got.cif
#   From: 2010.05.17/outbox.cif.g08.bks.cpg/sg53_5_cif.got.tgz:9920.got - 2010.06.03 12:45:16.
