data_PCOD9419927
_publ_section_title
;
Structure prediction by ZEFSAII (Michael W. Deem and Ramdas Pophale) SiO2 
 PCOD9419927
Probable space group: P M N A
;
_chemical_formula_sum "Si O2"
_cell_formula_units_Z 24
_cell_length_a 14.398610
_cell_length_b 9.157628
_cell_length_c 7.535729
_cell_angle_alpha 90.000000
_cell_angle_beta 90.000000
_cell_angle_gamma 90.000000
_cell_volume 993.639479
_symmetry_space_group_name_H-M "P M N A"
_symmetry_group_IT_number 53
_symmetry_cell_setting 'orthorhombic'
loop_
_space_group_symop_operation_xyz
x,y,z
1/2-x,-y,1/2+z
x,-y,-z
1/2-x,y,1/2-z
-x,-y,-z
1/2+x,y,1/2-z
-x,y,z
1/2+x,-y,1/2+z
loop_
_atom_site_type_symbol
_atom_site_label
_atom_site_fract_x
_atom_site_fract_y
_atom_site_fract_z
Si Si1 0.158937 0.409013 0.331128
Si Si2 0.197398 0.148068 0.574773
Si Si3 0.500000 0.087531 0.756444
Si Si4 0.000000 0.751139 0.881433
O O1 0.118693 0.500000 0.500000
O O2 0.250000 0.486245 0.250000
O O3 0.199767 0.266232 0.424428
O O4 0.086260 0.348099 0.186690
O O5 0.250000 0.191879 0.750000
O O6 0.091688 0.119853 0.631996
O O7 0.241310 0.000000 0.500000
O O8 0.500000 0.198879 0.587343
O O9 0.500000 0.914344 0.707064
#
# Coordination Sequence:
#
# PCOD9419927 Si02
#       4
#     8   8   4   4
#     4  12  26  47  68 101 140 184 232 283 347 414
#     4  12  24  41  68 101 136 182 233 283 347 405
#     4  11  24  42  70 106 141 173 230 299 341 406
#     4  11  24  43  72 103 139 181 233 285 350 408
#
# _framework density 24.153631000000001
#
# number of rings (size 3 to 8) (size 9 to 14) (size 15 to 20)
#    0.000    0.333    3.333    6.000    4.667    0.000 
#    0.000    2.500    0.000    0.000    0.000    0.000 
#    0.000    0.000    0.000    0.000    0.000    0.000 
#
# Total GULP energy -134337.288332 kJ/mol
# GULP energy per Si atom -5597.387014 kJ/mol
# Density = 2.409866 g / cm^3
# Si number density = 24.153631 Si / 1000 Ang^3
#
#
#
# Elastic Constant Matrix: (Units=GPa)
#
#
# Indices 1 2 3 4 5 6 
#
# 1 129.0253 5.8116 41.6328 0.0000 0.0000 0.0000
# 2 5.8116 118.8231 35.7981 0.0000 0.0000 0.0000
# 3 41.6328 35.7981 132.6002 0.0000 0.0000 0.0000
# 4 0.0000 0.0000 0.0000 56.4309 0.0000 0.0000
# 5 0.0000 0.0000 0.0000 0.0000 35.0860 0.0000
# 6 0.0000 0.0000 0.0000 0.0000 0.0000 17.3788
#
#
#
# Elastic Compliance Matrix: (Units=1/GPa)
#
#
# Indices 1 2 3 4 5 6 
#
# 1 0.008644 0.000430 -0.002830 0.000000 0.000000 0.000000
# 2 0.000430 0.009182 -0.002614 0.000000 0.000000 0.000000
# 3 -0.002830 -0.002614 0.009136 0.000000 0.000000 0.000000
# 4 0.000000 0.000000 0.000000 0.017721 0.000000 0.000000
# 5 0.000000 0.000000 0.000000 0.000000 0.028501 0.000000
# 6 0.000000 0.000000 0.000000 0.000000 0.000000 0.057541
#
#
# Mechanical properties :
#
#
# Convention : Reuss Voigt Hill
#
# Bulk Modulus (GPa) = 59.05292 60.77041 59.91167
# Shear Modulus (GPa) = 34.15325 41.59287 37.87306
#
# Velocity S-wave (km/s) = 3.76440 4.15422 3.96410
# Velocity P-wave (km/s) = 6.58758 6.94439 6.76834
#
# Compressibility (1/GPa) = 0.01693396
#
# Stress axis : x y z
#
# Youngs Moduli (GPa) = 115.68385 108.90462 109.46048
#
# Poissons Ratio (x) = -0.04681 0.30978
# Poissons Ratio (y) = -0.04973 0.28612
# Poissons Ratio (z) = 0.32740 0.28467
#
# Static dielectric constant tensor:
#      x y z
#    x 1.914020 0.000000 0.000000 
#    y 0.000000 1.909770 0.000000 
#    z 0.000000 0.000000 1.881870 
# 
# From -- ./inp_files/7812.got.cif
#   From: 2010.05.17/outbox.cif.g08.bks.cpg/sg53_4_cif.got.tgz:7812.got - 2010.06.03 12:45:16.
