data_PCOD9419877
_publ_section_title
;
Structure prediction by ZEFSAII (Michael W. Deem and Ramdas Pophale) SiO2 
 PCOD9419877
Probable space group: P M N A
;
_chemical_formula_sum "Si O2"
_cell_formula_units_Z 32
_cell_length_a 14.340793
_cell_length_b 18.144037
_cell_length_c 5.124634
_cell_angle_alpha 90.000000
_cell_angle_beta 90.000000
_cell_angle_gamma 90.000000
_cell_volume 1333.429146
_symmetry_space_group_name_H-M "P M N A"
_symmetry_group_IT_number 53
_symmetry_cell_setting 'orthorhombic'
loop_
_space_group_symop_operation_xyz
x,y,z
1/2-x,-y,1/2+z
x,-y,-z
1/2-x,y,1/2-z
-x,-y,-z
1/2+x,y,1/2-z
-x,y,z
1/2+x,-y,1/2+z
loop_
_atom_site_type_symbol
_atom_site_label
_atom_site_fract_x
_atom_site_fract_y
_atom_site_fract_z
Si Si1 0.113413 0.677207 0.475781
Si Si2 0.886215 0.583583 0.970677
Si Si3 0.149865 0.070471 0.141909
Si Si4 0.392490 0.160492 0.850752
O O1 0.144614 0.628462 0.718218
O O2 0.145724 0.761343 0.452053
O O3 0.000000 0.681259 0.494602
O O4 0.137609 0.632464 0.218446
O O5 0.000000 0.579205 0.958845
O O6 0.851835 0.500000 0.000000
O O7 0.250000 0.045885 0.250000
O O8 0.106159 0.105899 0.400665
O O9 0.157449 0.129275 0.906968
O O10 0.104780 0.000000 0.000000
O O11 0.500000 0.171146 0.763855
#
# Coordination Sequence:
#
# PCOD9419877 Si02
#       4
#     8   8   8   8
#     4   9  17  29  45  72 110 146 184 233 284 329
#     4   9  15  24  41  67 105 152 190 221 272 339
#     4  12  25  43  63  85 117 155 194 242 299 355
#     4  11  23  39  62  90 120 155 196 245 297 351
#
# _framework density 23.998277000000002
#
# number of rings (size 3 to 8) (size 9 to 14) (size 15 to 20)
#    0.000    1.750    0.000    6.000    0.000   10.000 
#    0.000    0.000    0.000    0.000    0.000    0.000 
#    0.000   56.000    0.000    0.000    0.000    0.000 
#
# Total GULP energy -179054.959434 kJ/mol
# GULP energy per Si atom -5595.467482 kJ/mol
# Density = 2.394366 g / cm^3
# Si number density = 23.998277 Si / 1000 Ang^3
#
#
#
# Elastic Constant Matrix: (Units=GPa)
#
#
# Indices 1 2 3 4 5 6 
#
# 1 67.4351 11.3457 11.4677 0.0000 0.0000 0.0000
# 2 11.3457 155.9425 75.5779 0.0000 0.0000 0.0000
# 3 11.4677 75.5779 211.2262 0.0000 0.0000 0.0000
# 4 0.0000 0.0000 0.0000 16.8165 0.0000 0.0000
# 5 0.0000 0.0000 0.0000 0.0000 175.7225 0.0000
# 6 0.0000 0.0000 0.0000 0.0000 0.0000 24.7367
#
#
#
# Elastic Compliance Matrix: (Units=1/GPa)
#
#
# Indices 1 2 3 4 5 6 
#
# 1 0.015059 -0.000846 -0.000515 0.000000 0.000000 0.000000
# 2 -0.000846 0.007805 -0.002747 0.000000 0.000000 0.000000
# 3 -0.000515 -0.002747 0.005745 0.000000 0.000000 0.000000
# 4 0.000000 0.000000 0.000000 0.059465 0.000000 0.000000
# 5 0.000000 0.000000 0.000000 0.000000 0.005691 0.000000
# 6 0.000000 0.000000 0.000000 0.000000 0.000000 0.040426
#
#
# Mechanical properties :
#
#
# Convention : Reuss Voigt Hill
#
# Bulk Modulus (GPa) = 49.03446 70.15407 59.59427
# Shear Modulus (GPa) = 33.51092 65.86930 49.69011
#
# Velocity S-wave (km/s) = 3.74088 5.24472 4.55529
# Velocity P-wave (km/s) = 6.25586 8.12235 7.24943
#
# Compressibility (1/GPa) = 0.02039382
#
# Stress axis : x y z
#
# Youngs Moduli (GPa) = 66.40561 128.11524 174.06228
#
# Poissons Ratio (x) = 0.10840 0.08961
# Poissons Ratio (y) = 0.05619 0.47813
# Poissons Ratio (z) = 0.03419 0.35192
#
# Static dielectric constant tensor:
#      x y z
#    x 1.960880 0.000000 0.000000 
#    y 0.000000 1.887190 0.000000 
#    z 0.000000 0.000000 1.808210 
# 
# From -- ./inp_files/1182.got.cif
#   From: 2010.05.17/outbox.cif.g08.bks.cpg/sg53_1_cif.got.tgz:1182.got - 2010.06.03 12:45:16.
