data_PCOD9419548
_publ_section_title
;
Structure prediction by ZEFSAII (Michael W. Deem and Ramdas Pophale) SiO2 
 PCOD9419548
Probable space group: P M N A
;
_chemical_formula_sum "Si O2"
_cell_formula_units_Z 32
_cell_length_a 9.162888
_cell_length_b 12.919721
_cell_length_c 12.339073
_cell_angle_alpha 90.000000
_cell_angle_beta 90.000000
_cell_angle_gamma 90.000000
_cell_volume 1460.723603
_symmetry_space_group_name_H-M "P M N A"
_symmetry_group_IT_number 53
_symmetry_cell_setting 'orthorhombic'
loop_
_space_group_symop_operation_xyz
x,y,z
1/2-x,-y,1/2+z
x,-y,-z
1/2-x,y,1/2-z
-x,-y,-z
1/2+x,y,1/2-z
-x,y,z
1/2+x,-y,1/2+z
loop_
_atom_site_type_symbol
_atom_site_label
_atom_site_fract_x
_atom_site_fract_y
_atom_site_fract_z
Si Si1 0.255287 0.612412 0.025056
Si Si2 0.000000 0.554935 0.300257
Si Si3 0.500000 0.054998 0.671153
Si Si4 0.000000 0.102378 0.371364
Si Si5 0.249717 0.000000 0.000000
Si Si6 0.000000 0.719959 0.118396
Si Si7 0.500000 0.334241 0.148432
O O1 0.360965 0.587799 0.127045
O O2 0.143481 0.704139 0.047348
O O3 0.185949 0.500000 0.000000
O O4 0.360360 0.645427 0.927598
O O5 0.000000 0.432984 0.273021
O O6 0.000000 0.620882 0.194132
O O7 0.357771 0.033404 0.597082
O O8 0.500000 0.177660 0.690079
O O9 0.500000 0.985488 0.778354
O O10 0.140652 0.084662 0.448225
O O11 0.000000 0.215501 0.316983
#
# Coordination Sequence:
#
# PCOD9419548 Si02
#       7
#     8   4   4   4   4   4   4
#     4   9  19  36  57  83 115 151 190 235 293 356
#     4   9  20  35  55  84 118 148 183 234 292 355
#     4  11  25  42  61  93 128 159 207 262 307 362
#     4  11  22  41  70  91 117 168 212 248 311 372
#     4  10  24  44  62  90 124 160 210 262 308 358
#     4  12  21  34  59  88 117 147 190 245 295 349
#     4   9  19  40  61  81 113 155 197 238 291 360
#
# _framework density 21.906952
#
# number of rings (size 3 to 8) (size 9 to 14) (size 15 to 20)
#    0.000    2.000    0.000    4.875    0.000    8.000 
#    0.000   15.000    0.000    0.000    0.000    0.000 
#    0.000    0.000    0.000    0.000    0.000    0.000 
#
# Total GULP energy -178757.038613 kJ/mol
# GULP energy per Si atom -5586.157457 kJ/mol
# Density = 2.185709 g / cm^3
# Si number density = 21.906952 Si / 1000 Ang^3
#
#
#
# Elastic Constant Matrix: (Units=GPa)
#
#
# Indices 1 2 3 4 5 6 
#
# 1 106.4619 32.0419 15.1420 0.0000 0.0000 0.0000
# 2 32.0419 142.8128 18.8965 0.0000 0.0000 0.0000
# 3 15.1420 18.8965 50.9326 0.0000 0.0000 0.0000
# 4 0.0000 0.0000 0.0000 33.7170 0.0000 0.0000
# 5 0.0000 0.0000 0.0000 0.0000 7.6611 0.0000
# 6 0.0000 0.0000 0.0000 0.0000 0.0000 5.2876
#
#
#
# Elastic Compliance Matrix: (Units=1/GPa)
#
#
# Indices 1 2 3 4 5 6 
#
# 1 0.010329 -0.002010 -0.002325 0.000000 0.000000 0.000000
# 2 -0.002010 0.007755 -0.002280 0.000000 0.000000 0.000000
# 3 -0.002325 -0.002280 0.021171 0.000000 0.000000 0.000000
# 4 0.000000 0.000000 0.000000 0.029659 0.000000 0.000000
# 5 0.000000 0.000000 0.000000 0.000000 0.130530 0.000000
# 6 0.000000 0.000000 0.000000 0.000000 0.000000 0.189122
#
#
# Mechanical properties :
#
#
# Convention : Reuss Voigt Hill
#
# Bulk Modulus (GPa) = 38.42399 48.04091 43.23245
# Shear Modulus (GPa) = 12.18121 24.94159 18.56140
#
# Velocity S-wave (km/s) = 2.36061 3.37786 2.91397
# Velocity P-wave (km/s) = 5.00077 6.09839 5.57665
#
# Compressibility (1/GPa) = 0.02602541
#
# Stress axis : x y z
#
# Youngs Moduli (GPa) = 96.81869 128.95393 47.23493
#
# Poissons Ratio (x) = 0.25916 0.10982
# Poissons Ratio (y) = 0.19458 0.10768
# Poissons Ratio (z) = 0.22510 0.29396
#
# Static dielectric constant tensor:
#      x y z
#    x 1.763930 0.000000 0.000000 
#    y 0.000000 1.801660 0.000000 
#    z 0.000000 0.000000 1.777000 
# 
# From -- ./inp_files/19702.got.cif
#   From: 2010.05.17/outbox.cif.g08.bks.cpg/sg53_10_cif.got.tgz:19702.got - 2010.06.03 12:45:16.
