data_PCOD9419322
_publ_section_title
;
Structure prediction by ZEFSAII (Michael W. Deem and Ramdas Pophale) SiO2 
 PCOD9419322
Probable space group: P M N A
;
_chemical_formula_sum "Si O2"
_cell_formula_units_Z 48
_cell_length_a 29.500159
_cell_length_b 14.192000
_cell_length_c 5.355933
_cell_angle_alpha 90.000000
_cell_angle_beta 90.000000
_cell_angle_gamma 90.000000
_cell_volume 2242.348419
_symmetry_space_group_name_H-M "P M N A"
_symmetry_group_IT_number 53
_symmetry_cell_setting 'orthorhombic'
loop_
_space_group_symop_operation_xyz
x,y,z
1/2-x,-y,1/2+z
x,-y,-z
1/2-x,y,1/2-z
-x,-y,-z
1/2+x,y,1/2-z
-x,y,z
1/2+x,-y,1/2+z
loop_
_atom_site_type_symbol
_atom_site_label
_atom_site_fract_x
_atom_site_fract_y
_atom_site_fract_z
Si Si1 0.802290 0.349412 0.781414
Si Si2 0.750000 0.936628 0.750000
Si Si3 0.832031 0.822009 0.512966
Si Si4 0.050834 0.220496 0.986489
Si Si5 0.573352 0.893286 0.994437
Si Si6 0.626491 0.345031 0.331508
Si Si7 0.636392 0.500000 0.000000
O O1 0.750000 0.370320 0.750000
O O2 0.810154 0.239343 0.709817
O O3 0.831504 0.420302 0.615077
O O4 0.824825 0.367098 0.047313
O O5 0.792944 0.871582 0.674382
O O6 0.741136 0.000000 0.500000
O O7 0.872178 0.893414 0.449040
O O8 0.860686 0.741598 0.654295
O O9 0.053594 0.165675 0.725235
O O10 0.000000 0.257654 0.021114
O O11 0.061467 0.152604 0.225043
O O12 0.089208 0.301705 0.984232
O O13 0.556900 0.000000 0.000000
O O14 0.609031 0.439377 0.200511
#
# Coordination Sequence:
#
# PCOD9419322 Si02
#       7
#     8   4   8   8   8   8   4
#     4  11  22  38  66  90 130 168 218 266 328 398
#     4  12  28  40  62  94 136 180 240 284 318 392
#     4  10  23  41  60  91 128 182 222 268 334 393
#     4  11  24  43  69  98 130 175 222 275 343 402
#     4  11  23  41  66  96 134 173 223 282 338 392
#     4  10  22  42  65  90 134 171 214 274 333 407
#     4  10  24  38  61 100 126 166 211 268 332 396
#
# _framework density 21.406127999999999
#
# number of rings (size 3 to 8) (size 9 to 14) (size 15 to 20)
#    0.000    1.333    1.667    3.000    5.833    6.000 
#    0.000    0.417    0.000    2.000    0.000    0.000 
#    0.000    0.000    0.000    0.000    0.000    0.000 
#
# Total GULP energy -267793.526435 kJ/mol
# GULP energy per Si atom -5579.031801 kJ/mol
# Density = 2.135741 g / cm^3
# Si number density = 21.406128 Si / 1000 Ang^3
#
#
#
# Elastic Constant Matrix: (Units=GPa)
#
#
# Indices 1 2 3 4 5 6 
#
# 1 83.7003 19.7939 -9.1886 0.0000 0.0000 0.0000
# 2 19.7939 99.8072 27.8278 0.0000 0.0000 0.0000
# 3 -9.1886 27.8278 81.4777 0.0000 0.0000 0.0000
# 4 0.0000 0.0000 0.0000 29.0599 0.0000 0.0000
# 5 0.0000 0.0000 0.0000 0.0000 17.7905 0.0000
# 6 0.0000 0.0000 0.0000 0.0000 0.0000 -14.3460
#
#
#
# Elastic Compliance Matrix: (Units=1/GPa)
#
#
# Indices 1 2 3 4 5 6 
#
# 1 0.013014 -0.003305 0.002596 0.000000 0.000000 0.000000
# 2 -0.003305 0.011913 -0.004441 0.000000 0.000000 0.000000
# 3 0.002596 -0.004441 0.014083 0.000000 0.000000 0.000000
# 4 0.000000 0.000000 0.000000 0.034412 0.000000 0.000000
# 5 0.000000 0.000000 0.000000 0.000000 0.056210 0.000000
# 6 0.000000 0.000000 0.000000 0.000000 0.000000 -0.069706
#
#
# Mechanical properties :
#
#
# Convention : Reuss Voigt Hill
#
# Bulk Modulus (GPa) = 34.83085 37.98349 36.40717
# Shear Modulus (GPa) = 62.65980 21.60433 42.13206
#
# Velocity S-wave (km/s) = 5.41622 3.18033 4.44128
# Velocity P-wave (km/s) = 7.44451 5.59185 6.58367
#
# Compressibility (1/GPa) = 0.02871018
#
# Stress axis : x y z
#
# Youngs Moduli (GPa) = 76.84045 83.94119 71.00737
#
# Poissons Ratio (x) = 0.27741 -0.18436
# Poissons Ratio (y) = 0.25395 0.31538
# Poissons Ratio (z) = -0.19951 0.37282
#
# Static dielectric constant tensor:
#      x y z
#    x 1.761880 0.000000 0.000000 
#    y 0.000000 2.197930 0.000000 
#    z 0.000000 0.000000 1.739110 
# 
# From -- ./inp_files/5297.got.cif
#   From: 2010.05.17/outbox.cif.g08.bks.cpg/sg53_3_cif.got.tgz:5297.got - 2010.06.03 12:45:16.
