data_PCOD9419503
_publ_section_title
;
Structure prediction by ZEFSAII (Michael W. Deem and Ramdas Pophale) SiO2 
 PCOD9419503
Probable space group: P M N A
;
_chemical_formula_sum "Si O2"
_cell_formula_units_Z 40
_cell_length_a 17.667973
_cell_length_b 8.692858
_cell_length_c 12.256659
_cell_angle_alpha 90.000000
_cell_angle_beta 90.000000
_cell_angle_gamma 90.000000
_cell_volume 1882.441184
_symmetry_space_group_name_H-M "P M N A"
_symmetry_group_IT_number 53
_symmetry_cell_setting 'orthorhombic'
loop_
_space_group_symop_operation_xyz
x,y,z
1/2-x,-y,1/2+z
x,-y,-z
1/2-x,y,1/2-z
-x,-y,-z
1/2+x,y,1/2-z
-x,y,z
1/2+x,-y,1/2+z
loop_
_atom_site_type_symbol
_atom_site_label
_atom_site_fract_x
_atom_site_fract_y
_atom_site_fract_z
Si Si1 0.410842 0.835380 0.698559
Si Si2 0.659284 0.834175 0.260441
Si Si3 0.347283 0.362559 0.934207
Si Si4 0.091204 0.674803 0.028720
Si Si5 0.192383 0.661583 0.659000
O O1 0.500000 0.861706 0.701773
O O2 0.391356 0.776677 0.577514
O O3 0.386925 0.705196 0.785601
O O4 0.368685 0.992096 0.726728
O O5 0.750000 0.832523 0.250000
O O6 0.622530 0.757170 0.152092
O O7 0.632121 0.739005 0.365325
O O8 0.296617 0.479730 0.862078
O O9 0.392834 0.500000 0.000000
O O10 0.305879 0.277728 0.034876
O O11 0.000000 0.678551 0.046075
O O12 0.112798 0.500000 0.000000
O O13 0.250000 0.718386 0.750000
#
# Coordination Sequence:
#
# PCOD9419503 Si02
#       5
#     8   8   8   8   8
#     4  11  24  43  65  94 130 173 221 273 333 395
#     4  12  24  39  63  97 135 174 214 274 337 400
#     4   8  22  39  61  98 127 161 222 260 334 390
#     4  10  23  44  73 101 130 172 224 281 341 401
#     4   9  19  40  65  91 128 166 213 271 321 397
#
# _framework density 21.249005
#
# number of rings (size 3 to 8) (size 9 to 14) (size 15 to 20)
#    1.200    0.600    0.000    3.600    2.800    3.200 
#    3.600    7.000    0.000    0.000    0.000    0.000 
#    0.000    0.000    0.000    0.000    0.000    0.000 
#
# Total GULP energy -222867.030696 kJ/mol
# GULP energy per Si atom -5571.675767 kJ/mol
# Density = 2.120064 g / cm^3
# Si number density = 21.249005 Si / 1000 Ang^3
#
#
#
# Elastic Constant Matrix: (Units=GPa)
#
#
# Indices 1 2 3 4 5 6 
#
# 1 57.7080 40.5418 55.1925 0.0000 0.0000 0.0000
# 2 40.5418 80.5018 85.6919 0.0000 0.0000 0.0000
# 3 55.1925 85.6919 197.9947 0.0000 0.0000 0.0000
# 4 0.0000 0.0000 0.0000 35.5768 0.0000 0.0000
# 5 0.0000 0.0000 0.0000 0.0000 31.3632 0.0000
# 6 0.0000 0.0000 0.0000 0.0000 0.0000 38.7560
#
#
#
# Elastic Compliance Matrix: (Units=1/GPa)
#
#
# Indices 1 2 3 4 5 6 
#
# 1 0.027829 -0.010676 -0.003137 0.000000 0.000000 0.000000
# 2 -0.010676 0.027129 -0.008766 0.000000 0.000000 0.000000
# 3 -0.003137 -0.008766 0.009719 0.000000 0.000000 0.000000
# 4 0.000000 0.000000 0.000000 0.028108 0.000000 0.000000
# 5 0.000000 0.000000 0.000000 0.000000 0.031885 0.000000
# 6 0.000000 0.000000 0.000000 0.000000 0.000000 0.025802
#
#
# Mechanical properties :
#
#
# Convention : Reuss Voigt Hill
#
# Bulk Modulus (GPa) = 51.22864 77.67298 64.45081
# Shear Modulus (GPa) = 24.73586 31.45775 28.09680
#
# Velocity S-wave (km/s) = 3.41558 3.85182 3.64024
# Velocity P-wave (km/s) = 6.30206 7.51099 6.93293
#
# Compressibility (1/GPa) = 0.01952033
#
# Stress axis : x y z
#
# Youngs Moduli (GPa) = 35.93376 36.86068 102.89269
#
# Poissons Ratio (x) = 0.39351 0.32279
# Poissons Ratio (y) = 0.38362 0.90191
# Poissons Ratio (z) = 0.11273 0.32310
#
# Static dielectric constant tensor:
#      x y z
#    x 1.821410 0.000000 0.000000 
#    y 0.000000 1.766250 0.000000 
#    z 0.000000 0.000000 1.788760 
# 
# From -- ./inp_files/16692.got.cif
#   From: 2010.05.17/outbox.cif.g08.bks.cpg/sg53_9_cif.got.tgz:16692.got - 2010.06.03 12:45:16.
