data_PCOD9419628
_publ_section_title
;
Structure prediction by ZEFSAII (Michael W. Deem and Ramdas Pophale) SiO2 
 PCOD9419628
Probable space group: P M N A
;
_chemical_formula_sum "Si O2"
_cell_formula_units_Z 40
_cell_length_a 17.534639
_cell_length_b 9.091379
_cell_length_c 11.729726
_cell_angle_alpha 90.000000
_cell_angle_beta 90.000000
_cell_angle_gamma 90.000000
_cell_volume 1869.883113
_symmetry_space_group_name_H-M "P M N A"
_symmetry_group_IT_number 53
_symmetry_cell_setting 'orthorhombic'
loop_
_space_group_symop_operation_xyz
x,y,z
1/2-x,-y,1/2+z
x,-y,-z
1/2-x,y,1/2-z
-x,-y,-z
1/2+x,y,1/2-z
-x,y,z
1/2+x,-y,1/2+z
loop_
_atom_site_type_symbol
_atom_site_label
_atom_site_fract_x
_atom_site_fract_y
_atom_site_fract_z
Si Si1 0.629237 0.487481 0.793296
Si Si2 0.000000 0.026646 0.770120
Si Si3 0.414274 0.647447 0.426924
Si Si4 0.000000 0.294712 0.321547
Si Si5 0.641475 0.100372 0.406594
Si Si6 0.750000 0.702330 0.750000
Si Si7 0.500000 0.699337 0.093853
O O1 0.639631 0.385401 0.681407
O O2 0.570548 0.619995 0.766443
O O3 0.702452 0.584032 0.826780
O O4 0.578012 0.389325 0.876894
O O5 0.077525 0.003683 0.845548
O O6 0.000000 0.873670 0.704939
O O7 0.000000 0.155171 0.674395
O O8 0.413505 0.500000 0.500000
O O9 0.500000 0.670778 0.379503
O O10 0.397628 0.775640 0.515343
O O11 0.000000 0.296206 0.457872
O O12 0.696311 0.188807 0.321837
O O13 0.684801 0.000000 0.500000
#
# Coordination Sequence:
#
# PCOD9419628 Si02
#       7
#     8   4   8   4   8   4   4
#     4  11  22  44  67  98 139 179 229 284 330 413
#     4  12  22  47  73 105 137 173 240 305 338 393
#     4  11  19  37  72 106 125 168 229 295 341 378
#     4  11  21  45  72  93 138 181 232 284 342 396
#     4  12  26  45  71 103 138 182 226 288 355 406
#     4  12  26  48  64  96 152 186 216 274 358 428
#     4  11  25  42  72 105 128 185 244 279 331 403
#
# _framework density 21.391711999999998
#
# number of rings (size 3 to 8) (size 9 to 14) (size 15 to 20)
#    0.000    0.600    7.000    3.000    0.000    0.000 
#   10.800    2.000    0.000    0.000    0.000    0.000 
#    0.000    0.000    0.000    0.000    0.000    0.000 
#
# Total GULP energy -222889.995717 kJ/mol
# GULP energy per Si atom -5572.249893 kJ/mol
# Density = 2.134302 g / cm^3
# Si number density = 21.391712 Si / 1000 Ang^3
#
#
#
# Elastic Constant Matrix: (Units=GPa)
#
#
# Indices 1 2 3 4 5 6 
#
# 1 64.0463 17.7663 11.5204 0.0000 0.0000 0.0000
# 2 17.7663 92.8696 23.2419 0.0000 0.0000 0.0000
# 3 11.5204 23.2419 100.9106 0.0000 0.0000 0.0000
# 4 0.0000 0.0000 0.0000 37.9980 0.0000 0.0000
# 5 0.0000 0.0000 0.0000 0.0000 -36.0671 0.0000
# 6 0.0000 0.0000 0.0000 0.0000 0.0000 -4.8498
#
#
#
# Elastic Compliance Matrix: (Units=1/GPa)
#
#
# Indices 1 2 3 4 5 6 
#
# 1 0.016633 -0.002872 -0.001237 0.000000 0.000000 0.000000
# 2 -0.002872 0.011922 -0.002418 0.000000 0.000000 0.000000
# 3 -0.001237 -0.002418 0.010608 0.000000 0.000000 0.000000
# 4 0.000000 0.000000 0.000000 0.026317 0.000000 0.000000
# 5 0.000000 0.000000 0.000000 0.000000 -0.027726 0.000000
# 6 0.000000 0.000000 0.000000 0.000000 0.000000 -0.206196
#
#
# Mechanical properties :
#
#
# Convention : Reuss Voigt Hill
#
# Bulk Modulus (GPa) = 38.30247 40.32040 39.31143
# Shear Modulus (GPa) = -34.08706 13.10275 -10.49215
#
# Velocity S-wave (km/s) = -3.99616 2.47759 -2.21708
# Velocity P-wave (km/s) = 1.82982 5.20328 3.44426
#
# Compressibility (1/GPa) = 0.02610798
#
# Stress axis : x y z
#
# Youngs Moduli (GPa) = 60.12126 83.87560 94.26887
#
# Poissons Ratio (x) = 0.24092 0.11664
# Poissons Ratio (y) = 0.17269 0.22795
# Poissons Ratio (z) = 0.07439 0.20282
#
# Static dielectric constant tensor:
#      x y z
#    x 1.840690 0.000000 0.000000 
#    y 0.000000 1.798350 0.000000 
#    z 0.000000 0.000000 1.809690 
# 
# From -- ./inp_files/17717.got.cif
#   From: 2010.05.17/outbox.cif.g08.bks.cpg/sg53_9_cif.got.tgz:17717.got - 2010.06.03 12:45:16.
