data_PCOD9419798
_publ_section_title
;
Structure prediction by ZEFSAII (Michael W. Deem and Ramdas Pophale) SiO2 
 PCOD9419798
Probable space group: P M N A
;
_chemical_formula_sum "Si O2"
_cell_formula_units_Z 40
_cell_length_a 8.526759
_cell_length_b 8.263222
_cell_length_c 25.444922
_cell_angle_alpha 90.000000
_cell_angle_beta 90.000000
_cell_angle_gamma 90.000000
_cell_volume 1792.811102
_symmetry_space_group_name_H-M "P M N A"
_symmetry_group_IT_number 53
_symmetry_cell_setting 'orthorhombic'
loop_
_space_group_symop_operation_xyz
x,y,z
1/2-x,-y,1/2+z
x,-y,-z
1/2-x,y,1/2-z
-x,-y,-z
1/2+x,y,1/2-z
-x,y,z
1/2+x,-y,1/2+z
loop_
_atom_site_type_symbol
_atom_site_label
_atom_site_fract_x
_atom_site_fract_y
_atom_site_fract_z
Si Si1 0.186685 0.836596 0.869727
Si Si2 0.175743 0.589685 0.055612
Si Si3 0.819113 0.495952 0.340332
Si Si4 0.173112 0.816573 0.513560
Si Si5 0.811121 0.854565 0.307319
O O1 0.235880 0.678658 0.834713
O O2 0.253666 0.804674 0.928379
O O3 0.000000 0.843467 0.872246
O O4 0.251000 0.006607 0.847043
O O5 0.299821 0.534919 0.097902
O O6 0.000000 0.568665 0.076921
O O7 0.187612 0.500000 0.000000
O O8 0.214016 0.764749 0.034170
O O9 0.757210 0.666887 0.316566
O O10 0.000000 0.477140 0.324919
O O11 0.000000 0.734910 0.511796
O O12 0.149295 0.000000 0.500000
O O13 0.750000 0.902258 0.250000
O O14 0.000000 0.852720 0.309990
#
# Coordination Sequence:
#
# PCOD9419798 Si02
#       5
#     8   8   8   8   8
#     4  12  25  42  67  98 133 173 217 270 327 389
#     4  11  22  36  58  92 129 167 212 260 316 381
#     4  11  24  43  69  98 133 176 223 273 328 395
#     4  11  23  38  59  89 127 172 219 265 318 382
#     4  11  26  48  72  99 129 167 217 274 335 394
#
# _framework density 22.311328
#
# number of rings (size 3 to 8) (size 9 to 14) (size 15 to 20)
#    0.000    0.800    2.000    5.400    0.000   11.200 
#    0.000    2.000    0.000    0.000    0.000    0.000 
#    0.000    0.000    0.000    0.000    0.000    0.000 
#
# Total GULP energy -223198.695297 kJ/mol
# GULP energy per Si atom -5579.967382 kJ/mol
# Density = 2.226055 g / cm^3
# Si number density = 22.311328 Si / 1000 Ang^3
#
#
#
# Elastic Constant Matrix: (Units=GPa)
#
#
# Indices 1 2 3 4 5 6 
#
# 1 54.1530 6.0930 3.4577 0.0000 0.0000 0.0000
# 2 6.0930 104.1862 16.3610 0.0000 0.0000 0.0000
# 3 3.4577 16.3610 54.3168 0.0000 0.0000 0.0000
# 4 0.0000 0.0000 0.0000 27.5619 0.0000 0.0000
# 5 0.0000 0.0000 0.0000 0.0000 -1.4826 0.0000
# 6 0.0000 0.0000 0.0000 0.0000 0.0000 10.9643
#
#
#
# Elastic Compliance Matrix: (Units=1/GPa)
#
#
# Indices 1 2 3 4 5 6 
#
# 1 0.018630 -0.000948 -0.000900 0.000000 0.000000 0.000000
# 2 -0.000948 0.010123 -0.002989 0.000000 0.000000 0.000000
# 3 -0.000900 -0.002989 0.019368 0.000000 0.000000 0.000000
# 4 0.000000 0.000000 0.000000 0.036282 0.000000 0.000000
# 5 0.000000 0.000000 0.000000 0.000000 -0.674513 0.000000
# 6 0.000000 0.000000 0.000000 0.000000 0.000000 0.091205
#
#
# Mechanical properties :
#
#
# Convention : Reuss Voigt Hill
#
# Bulk Modulus (GPa) = 26.01001 29.38662 27.69831
# Shear Modulus (GPa) = -10.49508 19.85835 4.68164
#
# Velocity S-wave (km/s) = -2.17121 2.98662 1.45013
# Velocity P-wave (km/s) = 2.32326 5.00929 3.90452
#
# Compressibility (1/GPa) = 0.03844674
#
# Stress axis : x y z
#
# Youngs Moduli (GPa) = 53.67580 98.78494 51.63131
#
# Poissons Ratio (x) = 0.09366 0.04649
# Poissons Ratio (y) = 0.05089 0.15432
# Poissons Ratio (z) = 0.04833 0.29525
#
# Static dielectric constant tensor:
#      x y z
#    x 1.789100 0.000000 0.000000 
#    y 0.000000 1.877590 0.000000 
#    z 0.000000 0.000000 1.802370 
# 
# From -- ./inp_files/33634.got.cif
#   From: 2010.05.17/outbox.cif.g08.bks.cpg/sg53_17_cif.got.tgz:33634.got - 2010.06.03 12:45:16.
