data_PCOD9419017
_publ_section_title
;
Structure prediction by ZEFSAII (Michael W. Deem and Ramdas Pophale) SiO2 
 PCOD9419017
Probable space group: P M N A
;
_chemical_formula_sum "Si O2"
_cell_formula_units_Z 58
_cell_length_a 15.212779
_cell_length_b 12.140771
_cell_length_c 13.511434
_cell_angle_alpha 90.000000
_cell_angle_beta 90.000000
_cell_angle_gamma 90.000000
_cell_volume 2495.492494
_symmetry_space_group_name_H-M "P M N A"
_symmetry_group_IT_number 53
_symmetry_cell_setting 'orthorhombic'
loop_
_space_group_symop_operation_xyz
x,y,z
1/2-x,-y,1/2+z
x,-y,-z
1/2-x,y,1/2-z
-x,-y,-z
1/2+x,y,1/2-z
-x,y,z
1/2+x,-y,1/2+z
loop_
_atom_site_type_symbol
_atom_site_label
_atom_site_fract_x
_atom_site_fract_y
_atom_site_fract_z
Si Si1 0.642643 0.551349 0.765781
Si Si2 0.899895 0.877143 0.037829
Si Si3 0.500000 0.500000 0.500000
Si Si4 0.893390 0.085030 0.411333
Si Si5 0.103198 0.081605 0.751917
Si Si6 0.363218 0.336007 0.431527
Si Si7 0.163565 0.332110 0.459959
Si Si8 0.155092 0.683211 0.306350
O O1 0.750000 0.551295 0.750000
O O2 0.607492 0.629144 0.678399
O O3 0.616578 0.598206 0.873303
O O4 0.613577 0.424636 0.754623
O O5 0.852714 0.888519 0.143264
O O6 0.000000 0.839278 0.055135
O O7 0.864611 0.792265 0.958281
O O8 0.901561 0.000000 0.000000
O O9 0.423942 0.404365 0.504073
O O10 0.852353 0.204046 0.431656
O O11 0.000000 0.097679 0.408230
O O12 0.873403 0.000000 0.500000
O O13 0.863025 0.020964 0.312009
O O14 0.109410 0.198203 0.697133
O O15 0.000000 0.054955 0.769255
O O16 0.263543 0.368238 0.445671
O O17 0.151330 0.346442 0.577007
O O18 0.250000 0.694540 0.250000
#
# Coordination Sequence:
#
# PCOD9419017 Si02
#       8
#     8   8   2   8   8   8   8   8
#     4   9  23  41  63  94 136 182 225 290 353 426
#     4  10  22  41  63  93 135 176 227 295 357 415
#     4  12  28  44  78 104 144 188 240 310 368 442
#     4  10  21  42  68  98 135 182 236 290 349 427
#     4  10  22  40  65  95 131 176 227 289 354 420
#     4  11  25  44  68 103 135 185 241 288 367 441
#     4  11  23  42  70  97 140 186 232 293 356 428
#     4  11  22  39  64  98 133 176 236 289 350 421
#
# _framework density 23.241904999999999
#
# number of rings (size 3 to 8) (size 9 to 14) (size 15 to 20)
#    0.000    1.655    2.069    1.241    9.655    0.552 
#    3.724    0.000    0.000    1.655    0.000    0.000 
#    0.000    0.000    0.000    0.000    0.000    0.000 
#
# Total GULP energy -323092.280756 kJ/mol
# GULP energy per Si atom -5570.556565 kJ/mol
# Density = 2.318901 g / cm^3
# Si number density = 23.241905 Si / 1000 Ang^3
#
#
#
# Elastic Constant Matrix: (Units=GPa)
#
#
# Indices 1 2 3 4 5 6 
#
# 1 32.9779 11.2651 0.9912 0.0000 0.0000 0.0000
# 2 11.2651 142.0715 36.6628 0.0000 0.0000 0.0000
# 3 0.9912 36.6628 127.7116 0.0000 0.0000 0.0000
# 4 0.0000 0.0000 0.0000 14.4580 0.0000 0.0000
# 5 0.0000 0.0000 0.0000 0.0000 -1.4141 0.0000
# 6 0.0000 0.0000 0.0000 0.0000 0.0000 57.0400
#
#
#
# Elastic Compliance Matrix: (Units=1/GPa)
#
#
# Indices 1 2 3 4 5 6 
#
# 1 0.031198 -0.002604 0.000505 0.000000 0.000000 0.000000
# 2 -0.002604 0.007819 -0.002225 0.000000 0.000000 0.000000
# 3 0.000505 -0.002225 0.008465 0.000000 0.000000 0.000000
# 4 0.000000 0.000000 0.000000 0.069166 0.000000 0.000000
# 5 0.000000 0.000000 0.000000 0.000000 -0.707160 0.000000
# 6 0.000000 0.000000 0.000000 0.000000 0.000000 0.017532
#
#
# Mechanical properties :
#
#
# Convention : Reuss Voigt Hill
#
# Bulk Modulus (GPa) = 25.74971 44.51103 35.13037
# Shear Modulus (GPa) = -9.06800 30.93957 10.93578
#
# Velocity S-wave (km/s) = -1.97738 3.65252 2.17150
# Velocity P-wave (km/s) = 2.42686 6.08117 4.62981
#
# Compressibility (1/GPa) = 0.03883539
#
# Stress axis : x y z
#
# Youngs Moduli (GPa) = 32.05362 127.88948 118.13607
#
# Poissons Ratio (x) = 0.33305 -0.05971
# Poissons Ratio (y) = 0.08347 0.26279
# Poissons Ratio (z) = -0.01620 0.28449
#
# Static dielectric constant tensor:
#      x y z
#    x 1.945560 0.000000 0.000000 
#    y 0.000000 1.814690 0.000000 
#    z 0.000000 0.000000 1.973740 
# 
# From -- ./inp_files/23856.got.cif
#   From: 2010.05.17/outbox.cif.g08.bks.cpg/sg53_12_cif.got.tgz:23856.got - 2010.06.03 12:45:16.
