data_PCOD9419758
_publ_section_title
;
Structure prediction by ZEFSAII (Michael W. Deem and Ramdas Pophale) SiO2 
 PCOD9419758
Probable space group: P M N A
;
_chemical_formula_sum "Si O2"
_cell_formula_units_Z 32
_cell_length_a 20.636562
_cell_length_b 7.340822
_cell_length_c 10.319335
_cell_angle_alpha 90.000000
_cell_angle_beta 90.000000
_cell_angle_gamma 90.000000
_cell_volume 1563.269128
_symmetry_space_group_name_H-M "P M N A"
_symmetry_group_IT_number 53
_symmetry_cell_setting 'orthorhombic'
loop_
_space_group_symop_operation_xyz
x,y,z
1/2-x,-y,1/2+z
x,-y,-z
1/2-x,y,1/2-z
-x,-y,-z
1/2+x,y,1/2-z
-x,y,z
1/2+x,-y,1/2+z
loop_
_atom_site_type_symbol
_atom_site_label
_atom_site_fract_x
_atom_site_fract_y
_atom_site_fract_z
Si Si1 0.573191 0.474758 0.653997
Si Si2 0.674761 0.242906 0.225598
Si Si3 0.659135 0.838577 0.313296
Si Si4 0.779474 0.289525 0.543255
O O1 0.578485 0.500000 0.500000
O O2 0.500000 0.516376 0.695720
O O3 0.625161 0.603074 0.727375
O O4 0.591541 0.263655 0.673680
O O5 0.688295 0.753501 0.180725
O O6 0.678278 0.203104 0.071915
O O7 0.659357 0.054115 0.296773
O O8 0.706675 0.782344 0.431664
O O9 0.776627 0.500000 0.500000
O O10 0.750000 0.702794 0.750000
#
# Coordination Sequence:
#
# PCOD9419758 Si02
#       4
#     8   8   8   8
#     4  11  26  46  66  93 134 180 222 269 330 402
#     4  12  23  39  68 100 131 168 221 272 333 388
#     4  11  23  40  64  99 133 168 215 275 333 387
#     4  11  21  39  63  98 135 166 211 277 327 385
#
# _framework density 20.469923999999999
#
# number of rings (size 3 to 8) (size 9 to 14) (size 15 to 20)
#    0.000    0.750    5.000    4.500    0.000    4.000 
#    0.000    5.000    0.000    3.000    0.000    0.000 
#    0.000    0.000    0.000    0.000    0.000    0.000 
#
# Total GULP energy -178747.831673 kJ/mol
# GULP energy per Si atom -5585.869740 kJ/mol
# Density = 2.042333 g / cm^3
# Si number density = 20.469924 Si / 1000 Ang^3
#
#
#
# Elastic Constant Matrix: (Units=GPa)
#
#
# Indices 1 2 3 4 5 6 
#
# 1 136.9392 56.9709 35.4994 0.0000 0.0000 0.0000
# 2 56.9709 110.3119 24.3169 0.0000 0.0000 0.0000
# 3 35.4994 24.3169 93.9112 0.0000 0.0000 0.0000
# 4 0.0000 0.0000 0.0000 32.3122 0.0000 0.0000
# 5 0.0000 0.0000 0.0000 0.0000 13.2611 0.0000
# 6 0.0000 0.0000 0.0000 0.0000 0.0000 17.7462
#
#
#
# Elastic Compliance Matrix: (Units=1/GPa)
#
#
# Indices 1 2 3 4 5 6 
#
# 1 0.009845 -0.004522 -0.002551 0.000000 0.000000 0.000000
# 2 -0.004522 0.011691 -0.001318 0.000000 0.000000 0.000000
# 3 -0.002551 -0.001318 0.011954 0.000000 0.000000 0.000000
# 4 0.000000 0.000000 0.000000 0.030948 0.000000 0.000000
# 5 0.000000 0.000000 0.000000 0.000000 0.075409 0.000000
# 6 0.000000 0.000000 0.000000 0.000000 0.000000 0.056350
#
#
# Mechanical properties :
#
#
# Convention : Reuss Voigt Hill
#
# Bulk Modulus (GPa) = 59.84889 63.85965 61.85427
# Shear Modulus (GPa) = 22.87827 27.62223 25.25025
#
# Velocity S-wave (km/s) = 3.34676 3.67741 3.51597
# Velocity P-wave (km/s) = 6.65097 7.02109 6.83853
#
# Compressibility (1/GPa) = 0.01670875
#
# Stress axis : x y z
#
# Youngs Moduli (GPa) = 101.57312 85.53398 83.65592
#
# Poissons Ratio (x) = 0.38681 0.21337
# Poissons Ratio (y) = 0.45934 0.11024
# Poissons Ratio (z) = 0.25907 0.11272
#
# Static dielectric constant tensor:
#      x y z
#    x 1.719670 0.000000 0.000000 
#    y 0.000000 1.772290 0.000000 
#    z 0.000000 0.000000 1.847340 
# 
# From -- ./inp_files/18022.got.cif
#   From: 2010.05.17/outbox.cif.g08.bks.cpg/sg53_10_cif.got.tgz:18022.got - 2010.06.03 12:45:16.
