data_PCOD9419453
_publ_section_title
;
Structure prediction by ZEFSAII (Michael W. Deem and Ramdas Pophale) SiO2 
 PCOD9419453
Probable space group: P M N A
;
_chemical_formula_sum "Si O2"
_cell_formula_units_Z 56
_cell_length_a 14.905755
_cell_length_b 12.119995
_cell_length_c 14.270678
_cell_angle_alpha 90.000000
_cell_angle_beta 90.000000
_cell_angle_gamma 90.000000
_cell_volume 2578.107523
_symmetry_space_group_name_H-M "P M N A"
_symmetry_group_IT_number 53
_symmetry_cell_setting 'orthorhombic'
loop_
_space_group_symop_operation_xyz
x,y,z
1/2-x,-y,1/2+z
x,-y,-z
1/2-x,y,1/2-z
-x,-y,-z
1/2+x,y,1/2-z
-x,y,z
1/2+x,-y,1/2+z
loop_
_atom_site_type_symbol
_atom_site_label
_atom_site_fract_x
_atom_site_fract_y
_atom_site_fract_z
Si Si1 0.857935 0.122212 0.244816
Si Si2 0.897215 0.065635 0.905219
Si Si3 0.234022 0.220765 0.645942
Si Si4 0.355439 0.632043 0.766838
Si Si5 0.397775 0.968092 0.100232
Si Si6 0.793202 0.627588 0.528918
Si Si7 0.096081 0.596509 0.922093
O O1 0.750000 0.121970 0.250000
O O2 0.885824 0.247548 0.231099
O O3 0.895656 0.080336 0.342561
O O4 0.888497 0.030751 0.171887
O O5 0.826580 0.162696 0.886387
O O6 0.000000 0.105640 0.906653
O O7 0.876696 0.000000 0.000000
O O8 0.250000 0.269833 0.750000
O O9 0.195115 0.300137 0.564896
O O10 0.162860 0.120726 0.652787
O O11 0.250000 0.614685 0.750000
O O12 0.359131 0.635515 0.880430
O O13 0.399509 0.555041 0.686833
O O14 0.500000 0.928563 0.089341
O O15 0.358312 0.000000 0.000000
O O16 0.795095 0.500000 0.500000
O O17 0.690944 0.657046 0.560903
O O18 0.000000 0.654821 0.935460
O O19 0.097085 0.500000 0.000000
#
# Coordination Sequence:
#
# PCOD9419453 Si02
#       7
#     8   8   8   8   8   8   8
#     4  11  20  36  59  89 127 169 210 260 317 383
#     4  11  24  38  60  94 132 169 204 255 323 394
#     4  12  24  41  65  93 128 171 210 271 330 389
#     4   9  20  35  61  91 121 170 215 261 313 383
#     4  11  22  37  60  89 126 173 218 259 313 391
#     4  10  23  42  65  91 123 167 224 273 329 396
#     4   9  19  37  62  93 127 159 205 270 334 388
#
# _framework density 21.721360000000001
#
# number of rings (size 3 to 8) (size 9 to 14) (size 15 to 20)
#    0.000    1.571    2.857    1.714    6.000    4.571 
#    0.000    0.714    0.000    3.429    0.000    0.000 
#    0.000    0.000    0.000    0.000    0.000    0.000 
#
# Total GULP energy -312140.456524 kJ/mol
# GULP energy per Si atom -5573.936724 kJ/mol
# Density = 2.167192 g / cm^3
# Si number density = 21.721360 Si / 1000 Ang^3
#
#
#
# Elastic Constant Matrix: (Units=GPa)
#
#
# Indices 1 2 3 4 5 6 
#
# 1 70.4851 6.5732 6.1428 0.0000 0.0000 0.0000
# 2 6.5732 61.4716 39.7989 0.0000 0.0000 0.0000
# 3 6.1428 39.7989 173.9005 0.0000 0.0000 0.0000
# 4 0.0000 0.0000 0.0000 33.6255 0.0000 0.0000
# 5 0.0000 0.0000 0.0000 0.0000 17.7864 0.0000
# 6 0.0000 0.0000 0.0000 0.0000 0.0000 -12.3928
#
#
#
# Elastic Compliance Matrix: (Units=1/GPa)
#
#
# Indices 1 2 3 4 5 6 
#
# 1 0.014335 -0.001415 -0.000183 0.000000 0.000000 0.000000
# 2 -0.001415 0.019237 -0.004353 0.000000 0.000000 0.000000
# 3 -0.000183 -0.004353 0.006753 0.000000 0.000000 0.000000
# 4 0.000000 0.000000 0.000000 0.029739 0.000000 0.000000
# 5 0.000000 0.000000 0.000000 0.000000 0.056223 0.000000
# 6 0.000000 0.000000 0.000000 0.000000 0.000000 -0.080692
#
#
# Mechanical properties :
#
#
# Convention : Reuss Voigt Hill
#
# Bulk Modulus (GPa) = 35.17970 45.65410 40.41690
# Shear Modulus (GPa) = 74.66015 24.69331 49.67673
#
# Velocity S-wave (km/s) = 5.86910 3.37534 4.78745
# Velocity P-wave (km/s) = 7.88413 6.02115 7.01476
#
# Compressibility (1/GPa) = 0.02842548
#
# Stress axis : x y z
#
# Youngs Moduli (GPa) = 69.75817 51.98326 148.08226
#
# Poissons Ratio (x) = 0.07354 0.02704
# Poissons Ratio (y) = 0.09868 0.64454
# Poissons Ratio (z) = 0.01274 0.22626
#
# Static dielectric constant tensor:
#      x y z
#    x 1.860110 0.000000 0.000000 
#    y 0.000000 1.786470 0.000000 
#    z 0.000000 0.000000 1.814910 
# 
# From -- ./inp_files/22809.got.cif
#   From: 2010.05.17/outbox.cif.g08.bks.cpg/sg53_12_cif.got.tgz:22809.got - 2010.06.03 12:45:16.
