data_PCOD9419227
_publ_section_title
;
Structure prediction by ZEFSAII (Michael W. Deem and Ramdas Pophale) SiO2 
 PCOD9419227
Probable space group: P M N A
;
_chemical_formula_sum "Si O2"
_cell_formula_units_Z 40
_cell_length_a 22.116724
_cell_length_b 6.107329
_cell_length_c 13.933566
_cell_angle_alpha 90.000000
_cell_angle_beta 90.000000
_cell_angle_gamma 90.000000
_cell_volume 1882.064025
_symmetry_space_group_name_H-M "P M N A"
_symmetry_group_IT_number 53
_symmetry_cell_setting 'orthorhombic'
loop_
_space_group_symop_operation_xyz
x,y,z
1/2-x,-y,1/2+z
x,-y,-z
1/2-x,y,1/2-z
-x,-y,-z
1/2+x,y,1/2-z
-x,y,z
1/2+x,-y,1/2+z
loop_
_atom_site_type_symbol
_atom_site_label
_atom_site_fract_x
_atom_site_fract_y
_atom_site_fract_z
Si Si1 0.885420 0.894062 0.901891
Si Si2 0.068557 0.635537 0.730749
Si Si3 0.733872 0.355293 0.356929
Si Si4 0.164453 0.741090 0.236879
Si Si5 0.344353 0.089795 0.103638
O O1 0.927624 0.738363 0.838057
O O2 0.822355 0.758400 0.909811
O O3 0.867634 0.096892 0.835926
O O4 0.907950 0.000000 0.000000
O O5 0.115162 0.434948 0.728280
O O6 0.098151 0.812146 0.659214
O O7 0.000000 0.579068 0.707154
O O8 0.750000 0.262587 0.250000
O O9 0.711935 0.598363 0.327208
O O10 0.794748 0.284341 0.409742
O O11 0.181341 0.893809 0.328024
O O12 0.359909 0.000000 0.000000
#
# Coordination Sequence:
#
# PCOD9419227 Si02
#       5
#     8   8   8   8   8
#     4  10  22  40  63  93 124 159 202 251 309 368
#     4  10  23  42  62  88 120 161 213 256 305 360
#     4  11  20  38  59  92 122 162 196 241 298 375
#     4  10  22  40  63  83 129 161 199 250 312 355
#     4  11  24  42  63  93 124 163 206 251 303 363
#
# _framework density 21.253260999999998
#
# number of rings (size 3 to 8) (size 9 to 14) (size 15 to 20)
#    0.000    1.600    6.000    0.600    2.800    8.000 
#    3.600    2.000    0.000    0.000    0.000    0.000 
#    0.000    0.000    0.000    0.000    0.000    0.000 
#
# Total GULP energy -222934.077790 kJ/mol
# GULP energy per Si atom -5573.351945 kJ/mol
# Density = 2.120489 g / cm^3
# Si number density = 21.253261 Si / 1000 Ang^3
#
#
#
# Elastic Constant Matrix: (Units=GPa)
#
#
# Indices 1 2 3 4 5 6 
#
# 1 74.4916 22.3934 -7.0572 0.0000 0.0000 0.0000
# 2 22.3934 109.5252 25.0336 0.0000 0.0000 0.0000
# 3 -7.0572 25.0336 77.6303 0.0000 0.0000 0.0000
# 4 0.0000 0.0000 0.0000 -2.1908 0.0000 0.0000
# 5 0.0000 0.0000 0.0000 0.0000 12.1630 0.0000
# 6 0.0000 0.0000 0.0000 0.0000 0.0000 6.3435
#
#
#
# Elastic Compliance Matrix: (Units=1/GPa)
#
#
# Indices 1 2 3 4 5 6 
#
# 1 0.014738 -0.003584 0.002495 0.000000 0.000000 0.000000
# 2 -0.003584 0.010728 -0.003785 0.000000 0.000000 0.000000
# 3 0.002495 -0.003785 0.014329 0.000000 0.000000 0.000000
# 4 0.000000 0.000000 0.000000 -0.456459 0.000000 0.000000
# 5 0.000000 0.000000 0.000000 0.000000 0.082216 0.000000
# 6 0.000000 0.000000 0.000000 0.000000 0.000000 0.157643
#
#
# Mechanical properties :
#
#
# Convention : Reuss Voigt Hill
#
# Bulk Modulus (GPa) = 33.27985 38.04295 35.66140
# Shear Modulus (GPa) = -31.83865 18.01496 -6.91184
#
# Velocity S-wave (km/s) = -3.87468 2.91457 -1.80532
# Velocity P-wave (km/s) = 2.07961 5.40971 3.53130
#
# Compressibility (1/GPa) = 0.03004822
#
# Stress axis : x y z
#
# Youngs Moduli (GPa) = 67.85151 93.21203 69.78811
#
# Poissons Ratio (x) = 0.33404 -0.17415
# Poissons Ratio (y) = 0.24316 0.26417
# Poissons Ratio (z) = -0.16932 0.35284
#
# Static dielectric constant tensor:
#      x y z
#    x 1.788890 0.000000 0.000000 
#    y 0.000000 1.822710 0.000000 
#    z 0.000000 0.000000 1.794370 
# 
# From -- ./inp_files/24551.got.cif
#   From: 2010.05.17/outbox.cif.g08.bks.cpg/sg53_13_cif.got.tgz:24551.got - 2010.06.03 12:45:16.
