data_PCOD9419201
_publ_section_title
;
Structure prediction by ZEFSAII (Michael W. Deem and Ramdas Pophale) SiO2 
 PCOD9419201
Probable space group: P M N A
;
_chemical_formula_sum "Si O2"
_cell_formula_units_Z 64
_cell_length_a 25.248891
_cell_length_b 9.374154
_cell_length_c 14.138184
_cell_angle_alpha 90.000000
_cell_angle_beta 90.000000
_cell_angle_gamma 90.000000
_cell_volume 3346.324251
_symmetry_space_group_name_H-M "P M N A"
_symmetry_group_IT_number 53
_symmetry_cell_setting 'orthorhombic'
loop_
_space_group_symop_operation_xyz
x,y,z
1/2-x,-y,1/2+z
x,-y,-z
1/2-x,y,1/2-z
-x,-y,-z
1/2+x,y,1/2-z
-x,y,z
1/2+x,-y,1/2+z
loop_
_atom_site_type_symbol
_atom_site_label
_atom_site_fract_x
_atom_site_fract_y
_atom_site_fract_z
Si Si1 0.260973 0.584799 0.093117
Si Si2 0.300448 0.642793 0.687740
Si Si3 0.718819 0.078976 0.900311
Si Si4 0.385151 0.990017 0.787969
Si Si5 0.626784 0.527176 0.835096
Si Si6 0.938828 0.744852 0.345716
Si Si7 0.673796 0.924791 0.601194
Si Si8 0.436342 0.765180 0.933775
O O1 0.217048 0.519231 0.163221
O O2 0.268235 0.753530 0.087608
O O3 0.318325 0.520392 0.118056
O O4 0.245559 0.500000 0.000000
O O5 0.250000 0.697946 0.750000
O O6 0.353034 0.627400 0.750301
O O7 0.310798 0.756219 0.604123
O O8 0.668974 0.052355 0.833521
O O9 0.772788 0.005384 0.865865
O O10 0.707221 0.000000 0.000000
O O11 0.427359 0.116665 0.784638
O O12 0.369984 0.941085 0.682704
O O13 0.408535 0.876618 0.863045
O O14 0.596123 0.384727 0.808542
O O15 0.588660 0.614384 0.904266
O O16 0.924249 0.784970 0.454893
O O17 0.000000 0.704017 0.346631
O O18 0.661078 0.000000 0.500000
O O19 0.500000 0.770488 0.922470
#
# Coordination Sequence:
#
# PCOD9419201 Si02
#       8
#     8   8   8   8   8   8   8   8
#     4  11  22  35  58  89 126 162 201 239 291 359
#     4  10  22  40  59  87 124 162 203 251 297 359
#     4  11  23  36  60  93 127 162 198 240 297 365
#     4  12  23  38  63  88 123 161 200 248 304 358
#     4  11  22  37  61  87 124 163 197 237 298 364
#     4  11  23  39  60  93 126 154 195 247 302 369
#     4  11  24  41  61  86 118 158 207 254 302 352
#     4  11  23  40  62  90 122 159 199 244 302 369
#
# _framework density 19.125461999999999
#
# number of rings (size 3 to 8) (size 9 to 14) (size 15 to 20)
#    0.000    1.000    2.500    5.625    5.250    3.000 
#    0.000    0.000    0.000    1.500    0.000    0.875 
#    0.000    0.000    0.000    0.000    0.000    0.000 
#
# Total GULP energy -357150.484324 kJ/mol
# GULP energy per Si atom -5580.476318 kJ/mol
# Density = 1.908193 g / cm^3
# Si number density = 19.125462 Si / 1000 Ang^3
#
#
#
# Elastic Constant Matrix: (Units=GPa)
#
#
# Indices 1 2 3 4 5 6 
#
# 1 66.4308 21.0002 33.4752 0.0000 0.0000 0.0000
# 2 21.0002 115.8770 37.1715 0.0000 0.0000 0.0000
# 3 33.4752 37.1715 72.8126 0.0000 0.0000 0.0000
# 4 0.0000 0.0000 0.0000 27.6965 0.0000 0.0000
# 5 0.0000 0.0000 0.0000 0.0000 18.2234 0.0000
# 6 0.0000 0.0000 0.0000 0.0000 0.0000 -29.1446
#
#
#
# Elastic Compliance Matrix: (Units=1/GPa)
#
#
# Indices 1 2 3 4 5 6 
#
# 1 0.019653 -0.000793 -0.008630 0.000000 0.000000 0.000000
# 2 -0.000793 0.010352 -0.004920 0.000000 0.000000 0.000000
# 3 -0.008630 -0.004920 0.020213 0.000000 0.000000 0.000000
# 4 0.000000 0.000000 0.000000 0.036106 0.000000 0.000000
# 5 0.000000 0.000000 0.000000 0.000000 0.054875 0.000000
# 6 0.000000 0.000000 0.000000 0.000000 0.000000 -0.034312
#
#
# Mechanical properties :
#
#
# Convention : Reuss Voigt Hill
#
# Bulk Modulus (GPa) = 46.44482 48.71268 47.57875
# Shear Modulus (GPa) = 35.02600 14.25328 24.63964
#
# Velocity S-wave (km/s) = 4.28411 2.73289 3.59321
# Velocity P-wave (km/s) = 6.98630 5.95681 6.49200
#
# Compressibility (1/GPa) = 0.02153093
#
# Stress axis : x y z
#
# Youngs Moduli (GPa) = 50.88291 96.60104 49.47212
#
# Poissons Ratio (x) = 0.07662 0.42697
# Poissons Ratio (y) = 0.04036 0.24341
# Poissons Ratio (z) = 0.43914 0.47528
#
# Static dielectric constant tensor:
#      x y z
#    x 1.658800 0.000000 0.000000 
#    y 0.000000 1.718810 0.000000 
#    z 0.000000 0.000000 1.777210 
# 
# From -- ./inp_files/24730.got.cif
#   From: 2010.05.17/outbox.cif.g08.bks.cpg/sg53_13_cif.got.tgz:24730.got - 2010.06.03 12:45:16.
