data_PCOD9419414
_publ_section_title
;
Structure prediction by ZEFSAII (Michael W. Deem and Ramdas Pophale) SiO2 
 PCOD9419414
Probable space group: P M N A
;
_chemical_formula_sum "Si O2"
_cell_formula_units_Z 38
_cell_length_a 16.946271
_cell_length_b 7.422625
_cell_length_c 15.153596
_cell_angle_alpha 90.000000
_cell_angle_beta 90.000000
_cell_angle_gamma 90.000000
_cell_volume 1906.107420
_symmetry_space_group_name_H-M "P M N A"
_symmetry_group_IT_number 53
_symmetry_cell_setting 'orthorhombic'
loop_
_space_group_symop_operation_xyz
x,y,z
1/2-x,-y,1/2+z
x,-y,-z
1/2-x,y,1/2-z
-x,-y,-z
1/2+x,y,1/2-z
-x,y,z
1/2+x,-y,1/2+z
loop_
_atom_site_type_symbol
_atom_site_label
_atom_site_fract_x
_atom_site_fract_y
_atom_site_fract_z
Si Si1 0.500000 0.500000 0.000000
Si Si2 0.723108 0.500000 0.500000
Si Si3 0.355784 0.583358 0.134801
Si Si4 0.198221 0.013038 0.662110
Si Si5 0.154816 0.146943 0.061441
Si Si6 0.593421 0.281437 0.250863
O O1 0.430752 0.457240 0.926237
O O2 0.779187 0.503975 0.414529
O O3 0.671753 0.321912 0.496361
O O4 0.341930 0.796964 0.140932
O O5 0.369600 0.475692 0.226003
O O6 0.250000 0.039847 0.750000
O O7 0.261386 0.940741 0.591568
O O8 0.133755 0.860165 0.683440
O O9 0.113287 0.211579 0.151202
O O10 0.112849 0.000000 0.000000
O O11 0.500000 0.286935 0.238566
#
# Coordination Sequence:
#
# PCOD9419414 Si02
#       6
#     2   4   8   8   8   8
#     4  10  24  40  58  96 132 160 200 264 340 408
#     4  11  22  37  65  92 125 164 216 284 315 382
#     4  11  22  40  62  92 130 167 211 265 336 398
#     4  10  23  39  65  93 124 170 221 269 317 385
#     4  11  23  42  64  98 126 170 229 272 321 382
#     4  11  25  42  63  93 135 175 212 267 335 401
#
# _framework density 19.935918000000001
#
# number of rings (size 3 to 8) (size 9 to 14) (size 15 to 20)
#    0.000    1.263    5.263    0.000    4.421    0.421 
#    0.000    1.579    0.000    0.000    0.000    0.000 
#    0.000    0.000    0.000    0.000    0.000    0.000 
#
# Total GULP energy -211743.578169 kJ/mol
# GULP energy per Si atom -5572.199426 kJ/mol
# Density = 1.989054 g / cm^3
# Si number density = 19.935918 Si / 1000 Ang^3
#
#
#
# Elastic Constant Matrix: (Units=GPa)
#
#
# Indices 1 2 3 4 5 6 
#
# 1 53.5669 18.8340 11.1018 0.0000 0.0000 0.0000
# 2 18.8340 120.7252 23.4054 0.0000 0.0000 0.0000
# 3 11.1018 23.4054 73.8471 0.0000 0.0000 0.0000
# 4 0.0000 0.0000 0.0000 31.4866 0.0000 0.0000
# 5 0.0000 0.0000 0.0000 0.0000 9.9342 0.0000
# 6 0.0000 0.0000 0.0000 0.0000 0.0000 10.1327
#
#
#
# Elastic Compliance Matrix: (Units=1/GPa)
#
#
# Indices 1 2 3 4 5 6 
#
# 1 0.020069 -0.002713 -0.002157 0.000000 0.000000 0.000000
# 2 -0.002713 0.009192 -0.002506 0.000000 0.000000 0.000000
# 3 -0.002157 -0.002506 0.014660 0.000000 0.000000 0.000000
# 4 0.000000 0.000000 0.000000 0.031760 0.000000 0.000000
# 5 0.000000 0.000000 0.000000 0.000000 0.100663 0.000000
# 6 0.000000 0.000000 0.000000 0.000000 0.000000 0.098691
#
#
# Mechanical properties :
#
#
# Convention : Reuss Voigt Hill
#
# Bulk Modulus (GPa) = 34.28170 39.42462 36.85316
# Shear Modulus (GPa) = 16.69399 23.29722 19.99561
#
# Velocity S-wave (km/s) = 2.89690 3.42220 3.17044
# Velocity P-wave (km/s) = 5.33129 5.95263 5.65051
#
# Compressibility (1/GPa) = 0.02917008
#
# Stress axis : x y z
#
# Youngs Moduli (GPa) = 49.82781 108.78738 68.21306
#
# Poissons Ratio (x) = 0.29511 0.14716
# Poissons Ratio (y) = 0.13517 0.17092
# Poissons Ratio (z) = 0.10749 0.27258
#
# Static dielectric constant tensor:
#      x y z
#    x 1.651620 0.000000 0.000000 
#    y 0.000000 1.731070 0.000000 
#    z 0.000000 0.000000 1.746390 
# 
# From -- ./inp_files/28778.got.cif
#   From: 2010.05.17/outbox.cif.g08.bks.cpg/sg53_15_cif.got.tgz:28778.got - 2010.06.03 12:45:16.
