data_PCOD9419542
_publ_section_title
;
Structure prediction by ZEFSAII (Michael W. Deem and Ramdas Pophale) SiO2 
 PCOD9419542
Probable space group: P M N A
;
_chemical_formula_sum "Si O2"
_cell_formula_units_Z 40
_cell_length_a 8.238017
_cell_length_b 9.958365
_cell_length_c 22.495715
_cell_angle_alpha 90.000000
_cell_angle_beta 90.000000
_cell_angle_gamma 90.000000
_cell_volume 1845.485024
_symmetry_space_group_name_H-M "P M N A"
_symmetry_group_IT_number 53
_symmetry_cell_setting 'orthorhombic'
loop_
_space_group_symop_operation_xyz
x,y,z
1/2-x,-y,1/2+z
x,-y,-z
1/2-x,y,1/2-z
-x,-y,-z
1/2+x,y,1/2-z
-x,y,z
1/2+x,-y,1/2+z
loop_
_atom_site_type_symbol
_atom_site_label
_atom_site_fract_x
_atom_site_fract_y
_atom_site_fract_z
Si Si1 0.689827 0.714396 0.408954
Si Si2 0.312099 0.914626 0.185604
Si Si3 0.809260 0.851671 0.523159
Si Si4 0.190146 0.197974 0.152735
Si Si5 0.304264 0.496197 0.315055
O O1 0.500000 0.693767 0.422399
O O2 0.780864 0.748064 0.469632
O O3 0.752523 0.590959 0.368905
O O4 0.710966 0.842618 0.365860
O O5 0.250000 0.871682 0.250000
O O6 0.500000 0.879866 0.177668
O O7 0.287521 0.073807 0.179679
O O8 0.712775 0.810830 0.581768
O O9 0.000000 0.859571 0.538363
O O10 0.759534 0.000000 0.500000
O O11 0.248410 0.342722 0.175066
O O12 0.000000 0.182276 0.167865
O O13 0.250000 0.542819 0.250000
O O14 0.500000 0.499494 0.316727
#
# Coordination Sequence:
#
# PCOD9419542 Si02
#       5
#     8   8   8   8   8
#     4  11  23  41  65  92 124 165 208 256 314 369
#     4  12  24  39  60  91 124 160 210 260 308 370
#     4  11  23  40  63  94 129 163 208 260 311 370
#     4  11  23  41  65  92 124 165 208 256 314 369
#     4  10  24  43  64  93 127 164 208 256 309 374
#
# _framework density 21.674517999999999
#
# number of rings (size 3 to 8) (size 9 to 14) (size 15 to 20)
#    0.000    1.000    2.000    4.800    0.000    8.000 
#    0.000    4.000    0.000    0.000    0.000    0.000 
#    0.000    0.000    0.000    0.000    0.000    0.000 
#
# Total GULP energy -223893.376837 kJ/mol
# GULP energy per Si atom -5597.334421 kJ/mol
# Density = 2.162519 g / cm^3
# Si number density = 21.674518 Si / 1000 Ang^3
#
#
#
# Elastic Constant Matrix: (Units=GPa)
#
#
# Indices 1 2 3 4 5 6 
#
# 1 31.8141 -3.4147 -9.2730 0.0000 0.0000 0.0000
# 2 -3.4147 77.4207 -6.4494 0.0000 0.0000 0.0000
# 3 -9.2730 -6.4494 76.9307 0.0000 0.0000 0.0000
# 4 0.0000 0.0000 0.0000 28.2259 0.0000 0.0000
# 5 0.0000 0.0000 0.0000 0.0000 20.0583 0.0000
# 6 0.0000 0.0000 0.0000 0.0000 0.0000 3.7805
#
#
#
# Elastic Compliance Matrix: (Units=1/GPa)
#
#
# Indices 1 2 3 4 5 6 
#
# 1 0.032822 0.001790 0.004106 0.000000 0.000000 0.000000
# 2 0.001790 0.013105 0.001314 0.000000 0.000000 0.000000
# 3 0.004106 0.001314 0.013604 0.000000 0.000000 0.000000
# 4 0.000000 0.000000 0.000000 0.035428 0.000000 0.000000
# 5 0.000000 0.000000 0.000000 0.000000 0.049855 0.000000
# 6 0.000000 0.000000 0.000000 0.000000 0.000000 0.264518
#
#
# Mechanical properties :
#
#
# Convention : Reuss Voigt Hill
#
# Bulk Modulus (GPa) = 13.52247 16.43235 14.97741
# Shear Modulus (GPa) = 11.91722 24.09977 18.00849
#
# Velocity S-wave (km/s) = 2.34738 3.33813 2.88559
# Velocity P-wave (km/s) = 3.68773 4.73870 4.24586
#
# Compressibility (1/GPa) = 0.07395096
#
# Stress axis : x y z
#
# Youngs Moduli (GPa) = 30.46776 76.30752 73.50855
#
# Poissons Ratio (x) = -0.13657 -0.30185
# Poissons Ratio (y) = -0.05453 -0.09662
# Poissons Ratio (z) = -0.12511 -0.10030
#
# Static dielectric constant tensor:
#      x y z
#    x 1.728000 0.000000 0.000000 
#    y 0.000000 1.797790 0.000000 
#    z 0.000000 0.000000 1.755930 
# 
# From -- ./inp_files/33640.got.cif
#   From: 2010.05.17/outbox.cif.g08.bks.cpg/sg53_17_cif.got.tgz:33640.got - 2010.06.03 12:45:16.
