data_PCOD9419445
_publ_section_title
;
Structure prediction by ZEFSAII (Michael W. Deem and Ramdas Pophale) SiO2 
 PCOD9419445
Probable space group: P M N A
;
_chemical_formula_sum "Si O2"
_cell_formula_units_Z 64
_cell_length_a 17.201011
_cell_length_b 15.429802
_cell_length_c 11.998118
_cell_angle_alpha 90.000000
_cell_angle_beta 90.000000
_cell_angle_gamma 90.000000
_cell_volume 3184.398829
_symmetry_space_group_name_H-M "P M N A"
_symmetry_group_IT_number 53
_symmetry_cell_setting 'orthorhombic'
loop_
_space_group_symop_operation_xyz
x,y,z
1/2-x,-y,1/2+z
x,-y,-z
1/2-x,y,1/2-z
-x,-y,-z
1/2+x,y,1/2-z
-x,y,z
1/2+x,-y,1/2+z
loop_
_atom_site_type_symbol
_atom_site_label
_atom_site_fract_x
_atom_site_fract_y
_atom_site_fract_z
Si Si1 0.831528 0.234210 0.423468
Si Si2 0.409302 0.636376 0.515066
Si Si3 0.156034 0.910642 0.749343
Si Si4 0.154486 0.181252 0.020408
Si Si5 0.092944 0.572073 0.218678
Si Si6 0.406972 0.906526 0.312306
Si Si7 0.593180 0.256661 0.839941
Si Si8 0.661563 0.602662 0.755793
O O1 0.860500 0.149765 0.356526
O O2 0.742300 0.215803 0.460701
O O3 0.878574 0.250552 0.534632
O O4 0.839824 0.315982 0.339543
O O5 0.500000 0.616535 0.534132
O O6 0.397991 0.737203 0.483346
O O7 0.380311 0.578971 0.410743
O O8 0.365721 0.628405 0.631956
O O9 0.250000 0.921560 0.750000
O O10 0.131808 0.857988 0.860190
O O11 0.115534 0.003093 0.755521
O O12 0.141286 0.109113 0.925921
O O13 0.124035 0.655902 0.282688
O O14 0.112708 0.483282 0.280717
O O15 0.000000 0.579369 0.211680
O O16 0.500000 0.903963 0.334545
O O17 0.384788 0.827842 0.230528
O O18 0.500000 0.260630 0.838336
O O19 0.750000 0.573406 0.750000
#
# Coordination Sequence:
#
# PCOD9419445 Si02
#       8
#     8   8   8   8   8   8   8   8
#     4  11  24  43  64  91 136 177 213 257 321 398
#     4  11  21  40  70  95 123 167 213 271 335 380
#     4  10  23  42  63  95 132 169 208 260 328 396
#     4  11  21  41  68  95 128 165 212 274 327 381
#     4  10  23  44  66  93 127 165 218 274 327 382
#     4  11  24  43  68  98 128 163 219 277 323 377
#     4  10  24  44  63  89 128 174 219 262 314 389
#     4  12  23  42  63  96 130 164 213 268 321 389
#
# _framework density 20.097985999999999
#
# number of rings (size 3 to 8) (size 9 to 14) (size 15 to 20)
#    0.000    1.250    3.750    1.875    1.750    6.000 
#    2.250    2.500    0.000    0.000    0.000    0.000 
#    0.000    0.000    0.000    0.000    0.000    0.000 
#
# Total GULP energy -357495.458681 kJ/mol
# GULP energy per Si atom -5585.866542 kJ/mol
# Density = 2.005224 g / cm^3
# Si number density = 20.097986 Si / 1000 Ang^3
#
#
#
# Elastic Constant Matrix: (Units=GPa)
#
#
# Indices 1 2 3 4 5 6 
#
# 1 28.4339 22.4561 35.2716 0.0000 0.0000 0.0000
# 2 22.4561 123.9770 48.0752 0.0000 0.0000 0.0000
# 3 35.2716 48.0752 127.6777 0.0000 0.0000 0.0000
# 4 0.0000 0.0000 0.0000 21.4118 0.0000 0.0000
# 5 0.0000 0.0000 0.0000 0.0000 35.2690 0.0000
# 6 0.0000 0.0000 0.0000 0.0000 0.0000 36.0764
#
#
#
# Elastic Compliance Matrix: (Units=1/GPa)
#
#
# Indices 1 2 3 4 5 6 
#
# 1 0.055882 -0.004843 -0.013614 0.000000 0.000000 0.000000
# 2 -0.004843 0.009865 -0.002377 0.000000 0.000000 0.000000
# 3 -0.013614 -0.002377 0.012488 0.000000 0.000000 0.000000
# 4 0.000000 0.000000 0.000000 0.046703 0.000000 0.000000
# 5 0.000000 0.000000 0.000000 0.000000 0.028353 0.000000
# 6 0.000000 0.000000 0.000000 0.000000 0.000000 0.027719
#
#
# Mechanical properties :
#
#
# Convention : Reuss Voigt Hill
#
# Bulk Modulus (GPa) = 27.34642 54.63272 40.98957
# Shear Modulus (GPa) = 21.28861 30.17048 25.72954
#
# Velocity S-wave (km/s) = 3.25813 3.87870 3.58188
# Velocity P-wave (km/s) = 5.27162 6.87759 6.12745
#
# Compressibility (1/GPa) = 0.03656786
#
# Stress axis : x y z
#
# Youngs Moduli (GPa) = 17.89478 101.37082 80.07603
#
# Poissons Ratio (x) = 0.49091 1.09018
# Poissons Ratio (y) = 0.08666 0.19031
# Poissons Ratio (z) = 0.24363 0.24092
#
# Static dielectric constant tensor:
#      x y z
#    x 1.696420 0.000000 0.000000 
#    y 0.000000 1.739550 0.000000 
#    z 0.000000 0.000000 1.698460 
# 
# From -- ./inp_files/17075.got.cif
#   From: 2010.05.17/outbox.cif.g08.bks.cpg/sg53_9_cif.got.tgz:17075.got - 2010.06.03 12:45:16.
