data_PCOD9419618
_publ_section_title
;
Structure prediction by ZEFSAII (Michael W. Deem and Ramdas Pophale) SiO2 
 PCOD9419618
Probable space group: P M N A
;
_chemical_formula_sum "Si O2"
_cell_formula_units_Z 40
_cell_length_a 28.098448
_cell_length_b 9.367974
_cell_length_c 9.101757
_cell_angle_alpha 90.000000
_cell_angle_beta 90.000000
_cell_angle_gamma 90.000000
_cell_volume 2395.814813
_symmetry_space_group_name_H-M "P M N A"
_symmetry_group_IT_number 53
_symmetry_cell_setting 'orthorhombic'
loop_
_space_group_symop_operation_xyz
x,y,z
1/2-x,-y,1/2+z
x,-y,-z
1/2-x,y,1/2-z
-x,-y,-z
1/2+x,y,1/2-z
-x,y,z
1/2+x,-y,1/2+z
loop_
_atom_site_type_symbol
_atom_site_label
_atom_site_fract_x
_atom_site_fract_y
_atom_site_fract_z
Si Si1 0.215733 0.635780 0.892203
Si Si2 0.052631 0.655251 0.580464
Si Si3 0.141889 0.349848 0.586409
Si Si4 0.888785 0.456204 0.162141
Si Si5 0.232076 0.144089 0.584801
O O1 0.250000 0.625339 0.750000
O O2 0.160554 0.632097 0.845180
O O3 0.222771 0.500000 0.000000
O O4 0.228699 0.774041 0.986894
O O5 0.049636 0.500000 0.500000
O O6 0.097234 0.723831 0.495500
O O7 0.071056 0.623915 0.744415
O O8 0.000000 0.719722 0.574072
O O9 0.152287 0.500000 0.500000
O O10 0.125515 0.402401 0.746085
O O11 0.187476 0.251402 0.590421
O O12 0.903632 0.500000 0.000000
O O13 0.250000 0.117355 0.750000
O O14 0.219310 0.000000 0.500000
#
# Coordination Sequence:
#
# PCOD9419618 Si02
#       5
#     8   8   8   8   8
#     4  11  19  31  50  71  98 132 168 198 234 289
#     4   8  15  28  46  68  94 123 156 195 236 278
#     4   9  18  33  52  71  95 129 164 194 232 287
#     4   9  16  25  44  71  96 122 155 194 237 281
#     4  12  24  35  48  71 101 132 164 202 246 289
#
# _framework density 16.695782000000001
#
# number of rings (size 3 to 8) (size 9 to 14) (size 15 to 20)
#    0.000    2.600    0.000    7.800    0.000    1.200 
#    0.000    0.000    0.000    0.600    0.000    0.000 
#    0.000    4.800    0.000    0.000    0.000    0.000 
#
# Total GULP energy -222919.150358 kJ/mol
# GULP energy per Si atom -5572.978759 kJ/mol
# Density = 1.665778 g / cm^3
# Si number density = 16.695782 Si / 1000 Ang^3
#
#
#
# Elastic Constant Matrix: (Units=GPa)
#
#
# Indices 1 2 3 4 5 6 
#
# 1 101.8428 11.4174 34.4048 0.0000 0.0000 0.0000
# 2 11.4174 46.9683 20.4865 0.0000 0.0000 0.0000
# 3 34.4048 20.4865 130.2308 0.0000 0.0000 0.0000
# 4 0.0000 0.0000 0.0000 14.4295 0.0000 0.0000
# 5 0.0000 0.0000 0.0000 0.0000 7.9000 0.0000
# 6 0.0000 0.0000 0.0000 0.0000 0.0000 0.4114
#
#
#
# Elastic Compliance Matrix: (Units=1/GPa)
#
#
# Indices 1 2 3 4 5 6 
#
# 1 0.010878 -0.001493 -0.002639 0.000000 0.000000 0.000000
# 2 -0.001493 0.023064 -0.003234 0.000000 0.000000 0.000000
# 3 -0.002639 -0.003234 0.008885 0.000000 0.000000 0.000000
# 4 0.000000 0.000000 0.000000 0.069302 0.000000 0.000000
# 5 0.000000 0.000000 0.000000 0.000000 0.126582 0.000000
# 6 0.000000 0.000000 0.000000 0.000000 0.000000 2.430685
#
#
# Mechanical properties :
#
#
# Convention : Reuss Voigt Hill
#
# Bulk Modulus (GPa) = 35.59338 45.73992 40.66665
# Shear Modulus (GPa) = 1.85633 18.73040 10.29336
#
# Velocity S-wave (km/s) = 1.05559 3.35306 2.48569
# Velocity P-wave (km/s) = 4.78025 6.51508 5.71389
#
# Compressibility (1/GPa) = 0.02809512
#
# Stress axis : x y z
#
# Youngs Moduli (GPa) = 91.92923 43.35678 112.55541
#
# Poissons Ratio (x) = 0.06474 0.29702
# Poissons Ratio (y) = 0.13728 0.36398
# Poissons Ratio (z) = 0.24259 0.14020
#
# Static dielectric constant tensor:
#      x y z
#    x 1.598600 0.000000 0.000000 
#    y 0.000000 1.553350 0.000000 
#    z 0.000000 0.000000 1.596370 
# 
# From -- ./inp_files/12862.got.cif
#   From: 2010.05.17/outbox.cif.g08.bks.cpg/sg53_7_cif.got.tgz:12862.got - 2010.06.03 12:45:16.
