data_PCOD9419426
_publ_section_title
;
Structure prediction by ZEFSAII (Michael W. Deem and Ramdas Pophale) SiO2 
 PCOD9419426
Probable space group: P M N A
;
_chemical_formula_sum "Si O2"
_cell_formula_units_Z 64
_cell_length_a 8.737243
_cell_length_b 21.502950
_cell_length_c 19.108023
_cell_angle_alpha 90.000000
_cell_angle_beta 90.000000
_cell_angle_gamma 90.000000
_cell_volume 3589.948471
_symmetry_space_group_name_H-M "P M N A"
_symmetry_group_IT_number 53
_symmetry_cell_setting 'orthorhombic'
loop_
_space_group_symop_operation_xyz
x,y,z
1/2-x,-y,1/2+z
x,-y,-z
1/2-x,y,1/2-z
-x,-y,-z
1/2+x,y,1/2-z
-x,y,z
1/2+x,-y,1/2+z
loop_
_atom_site_type_symbol
_atom_site_label
_atom_site_fract_x
_atom_site_fract_y
_atom_site_fract_z
Si Si1 0.681901 0.608834 0.676430
Si Si2 0.686340 0.935373 0.467567
Si Si3 0.182200 0.253427 0.324090
Si Si4 0.684550 0.194232 0.461268
Si Si5 0.316268 0.496188 0.082068
Si Si6 0.315575 0.125563 0.674507
Si Si7 0.816749 0.617841 0.328016
Si Si8 0.815615 0.743133 0.106118
O O1 0.750000 0.584956 0.750000
O O2 0.500000 0.614012 0.681648
O O3 0.752781 0.676937 0.665192
O O4 0.731752 0.561798 0.616570
O O5 0.500000 0.937291 0.466533
O O6 0.726904 0.875092 0.513606
O O7 0.734908 0.920127 0.388165
O O8 0.741523 0.000000 0.500000
O O9 0.250000 0.230943 0.250000
O O10 0.236621 0.213295 0.389679
O O11 0.000000 0.255808 0.319532
O O12 0.500000 0.196617 0.453275
O O13 0.724634 0.240392 0.525689
O O14 0.500000 0.487857 0.089490
O O15 0.273388 0.558838 0.123893
O O16 0.281359 0.500000 0.000000
O O17 0.250000 0.110429 0.750000
O O18 0.500000 0.124082 0.677047
O O19 0.271964 0.195762 0.651160
O O20 0.750000 0.612001 0.250000
O O21 0.758593 0.681228 0.363756
O O22 0.000000 0.619657 0.323392
O O23 0.000000 0.737450 0.109592
#
# Coordination Sequence:
#
# PCOD9419426 Si02
#       8
#     8   8   8   8   8   8   8   8
#     4  11  22  38  60  83 106 139 181 225 277 329
#     4   8  15  31  55  79 107 147 187 219 262 321
#     4  11  22  37  58  82 110 143 182 227 279 330
#     4   9  18  34  56  83 112 142 180 226 270 318
#     4  10  23  41  57  78 109 142 179 225 272 323
#     4   9  17  30  50  77 106 139 178 219 263 310
#     4  11  23  37  55  78 106 142 178 218 268 321
#     4   9  19  34  53  78 109 140 174 219 265 320
#
# _framework density 17.827553000000002
#
# number of rings (size 3 to 8) (size 9 to 14) (size 15 to 20)
#    0.000    2.250    0.000    5.625    1.750    4.250 
#    0.000    2.500    0.000    3.000    0.000    0.000 
#    0.000    0.000    0.000    0.000    0.000    0.000 
#
# Total GULP energy -357282.598822 kJ/mol
# GULP energy per Si atom -5582.540607 kJ/mol
# Density = 1.778698 g / cm^3
# Si number density = 17.827553 Si / 1000 Ang^3
#
#
#
# Elastic Constant Matrix: (Units=GPa)
#
#
# Indices 1 2 3 4 5 6 
#
# 1 58.8506 37.2989 64.5542 0.0000 0.0000 0.0000
# 2 37.2989 87.2696 91.2642 0.0000 0.0000 0.0000
# 3 64.5542 91.2642 182.8383 0.0000 0.0000 0.0000
# 4 0.0000 0.0000 0.0000 23.5007 0.0000 0.0000
# 5 0.0000 0.0000 0.0000 0.0000 28.9911 0.0000
# 6 0.0000 0.0000 0.0000 0.0000 0.0000 20.8470
#
#
#
# Elastic Compliance Matrix: (Units=1/GPa)
#
#
# Indices 1 2 3 4 5 6 
#
# 1 0.028216 -0.003434 -0.008248 0.000000 0.000000 0.000000
# 2 -0.003434 0.024390 -0.010962 0.000000 0.000000 0.000000
# 3 -0.008248 -0.010962 0.013853 0.000000 0.000000 0.000000
# 4 0.000000 0.000000 0.000000 0.042552 0.000000 0.000000
# 5 0.000000 0.000000 0.000000 0.000000 0.034493 0.000000
# 6 0.000000 0.000000 0.000000 0.000000 0.000000 0.047968
#
#
# Mechanical properties :
#
#
# Convention : Reuss Voigt Hill
#
# Bulk Modulus (GPa) = 47.23351 79.46590 63.34970
# Shear Modulus (GPa) = 20.50707 23.72384 22.11545
#
# Velocity S-wave (km/s) = 3.39529 3.65189 3.52592
# Velocity P-wave (km/s) = 6.47478 7.90274 7.22413
#
# Compressibility (1/GPa) = 0.02117141
#
# Stress axis : x y z
#
# Youngs Moduli (GPa) = 35.44082 41.00018 72.18540
#
# Poissons Ratio (x) = 0.14078 0.59540
# Poissons Ratio (y) = 0.12169 0.79130
# Poissons Ratio (z) = 0.29232 0.44945
#
# Static dielectric constant tensor:
#      x y z
#    x 1.598700 0.000000 0.000000 
#    y 0.000000 1.591410 0.000000 
#    z 0.000000 0.000000 1.613000 
# 
# From -- ./inp_files/26939.got.cif
#   From: 2010.05.17/outbox.cif.g08.bks.cpg/sg53_14_cif.got.tgz:26939.got - 2010.06.03 12:45:16.
