data_PCOD9419630
_publ_section_title
;
Structure prediction by ZEFSAII (Michael W. Deem and Ramdas Pophale) SiO2 
 PCOD9419630
Probable space group: P M N A
;
_chemical_formula_sum "Si O2"
_cell_formula_units_Z 56
_cell_length_a 20.232368
_cell_length_b 9.368580
_cell_length_c 14.721090
_cell_angle_alpha 90.000000
_cell_angle_beta 90.000000
_cell_angle_gamma 90.000000
_cell_volume 2790.361385
_symmetry_space_group_name_H-M "P M N A"
_symmetry_group_IT_number 53
_symmetry_cell_setting 'orthorhombic'
loop_
_space_group_symop_operation_xyz
x,y,z
1/2-x,-y,1/2+z
x,-y,-z
1/2-x,y,1/2-z
-x,-y,-z
1/2+x,y,1/2-z
-x,y,z
1/2+x,-y,1/2+z
loop_
_atom_site_type_symbol
_atom_site_label
_atom_site_fract_x
_atom_site_fract_y
_atom_site_fract_z
Si Si1 0.500000 0.620807 0.139260
Si Si2 0.837974 0.923818 0.096361
Si Si3 0.285868 0.714678 0.105799
Si Si4 0.000000 0.703963 0.572272
Si Si5 0.379209 0.304910 0.730148
Si Si6 0.766507 0.186877 0.153422
Si Si7 0.320291 0.523543 0.597536
Si Si8 0.867079 0.152769 0.453963
O O1 0.500000 0.450741 0.119461
O O2 0.438376 0.669390 0.200598
O O3 0.500000 0.687570 0.038112
O O4 0.771569 0.828920 0.083096
O O5 0.885689 0.817380 0.152375
O O6 0.814436 0.052470 0.160318
O O7 0.856545 0.000000 0.000000
O O8 0.317606 0.735270 0.204685
O O9 0.249248 0.563074 0.099958
O O10 0.342877 0.736782 0.031686
O O11 0.932563 0.788349 0.593822
O O12 0.362024 0.451268 0.677285
O O13 0.750000 0.251807 0.250000
O O14 0.804056 0.311320 0.101825
O O15 0.697502 0.140643 0.108884
O O16 0.353110 0.500000 0.500000
O O17 0.880345 0.000000 0.500000
#
# Coordination Sequence:
#
# PCOD9419630 Si02
#       8
#     4   8   8   4   8   8   8   8
#     4  11  26  46  66  92 120 181 239 274 319 402
#     4  11  20  39  61  96 128 167 205 273 342 400
#     4  11  19  38  62  91 132 166 211 262 333 401
#     4  11  27  42  68  90 135 182 218 273 319 396
#     4  11  24  41  66  89 129 173 228 272 335 403
#     4  12  22  33  60  95 132 162 208 267 334 389
#     4  11  22  36  59  94 124 163 207 277 340 388
#     4  12  23  41  63  97 138 174 214 263 330 406
#
# _framework density 20.069084
#
# number of rings (size 3 to 8) (size 9 to 14) (size 15 to 20)
#    0.000    0.714    5.714    4.500    4.000    0.000 
#    0.000    0.714    0.000    0.000    0.000    0.000 
#    0.000    0.000    0.000    0.000    0.000    0.000 
#
# Total GULP energy -312649.485054 kJ/mol
# GULP energy per Si atom -5583.026519 kJ/mol
# Density = 2.002341 g / cm^3
# Si number density = 20.069084 Si / 1000 Ang^3
#
#
#
# Elastic Constant Matrix: (Units=GPa)
#
#
# Indices 1 2 3 4 5 6 
#
# 1 66.0135 29.9422 20.9797 0.0000 0.0000 0.0000
# 2 29.9422 98.5054 4.1520 0.0000 0.0000 0.0000
# 3 20.9797 4.1520 94.5329 0.0000 0.0000 0.0000
# 4 0.0000 0.0000 0.0000 39.3581 0.0000 0.0000
# 5 0.0000 0.0000 0.0000 0.0000 22.5629 0.0000
# 6 0.0000 0.0000 0.0000 0.0000 0.0000 12.9624
#
#
#
# Elastic Compliance Matrix: (Units=1/GPa)
#
#
# Indices 1 2 3 4 5 6 
#
# 1 0.018942 -0.005591 -0.003958 0.000000 0.000000 0.000000
# 2 -0.005591 0.011821 0.000722 0.000000 0.000000 0.000000
# 3 -0.003958 0.000722 0.011425 0.000000 0.000000 0.000000
# 4 0.000000 0.000000 0.000000 0.025408 0.000000 0.000000
# 5 0.000000 0.000000 0.000000 0.000000 0.044321 0.000000
# 6 0.000000 0.000000 0.000000 0.000000 0.000000 0.077146
#
#
# Mechanical properties :
#
#
# Convention : Reuss Voigt Hill
#
# Bulk Modulus (GPa) = 40.76160 41.02218 40.89189
# Shear Modulus (GPa) = 23.26712 28.57521 25.92116
#
# Velocity S-wave (km/s) = 3.40862 3.77748 3.59778
# Velocity P-wave (km/s) = 5.98718 6.28575 6.13828
#
# Compressibility (1/GPa) = 0.02453289
#
# Stress axis : x y z
#
# Youngs Moduli (GPa) = 52.79185 84.59689 87.52661
#
# Poissons Ratio (x) = 0.47298 0.34646
# Poissons Ratio (y) = 0.29516 -0.06316
# Poissons Ratio (z) = 0.20897 -0.06105
#
# Static dielectric constant tensor:
#      x y z
#    x 1.688830 0.000000 0.000000 
#    y 0.000000 1.710340 0.000000 
#    z 0.000000 0.000000 1.793800 
# 
# From -- ./inp_files/24392.got.cif
#   From: 2010.05.17/outbox.cif.g08.bks.cpg/sg53_13_cif.got.tgz:24392.got - 2010.06.03 12:45:16.
