data_PCOD9419641
_publ_section_title
;
Structure prediction by ZEFSAII (Michael W. Deem and Ramdas Pophale) SiO2 
 PCOD9419641
Probable space group: P M N A
;
_chemical_formula_sum "Si O2"
_cell_formula_units_Z 40
_cell_length_a 8.098387
_cell_length_b 15.717400
_cell_length_c 19.216675
_cell_angle_alpha 90.000000
_cell_angle_beta 90.000000
_cell_angle_gamma 90.000000
_cell_volume 2446.005774
_symmetry_space_group_name_H-M "P M N A"
_symmetry_group_IT_number 53
_symmetry_cell_setting 'orthorhombic'
loop_
_space_group_symop_operation_xyz
x,y,z
1/2-x,-y,1/2+z
x,-y,-z
1/2-x,y,1/2-z
-x,-y,-z
1/2+x,y,1/2-z
-x,y,z
1/2+x,-y,1/2+z
loop_
_atom_site_type_symbol
_atom_site_label
_atom_site_fract_x
_atom_site_fract_y
_atom_site_fract_z
Si Si1 0.811722 0.730179 0.972748
Si Si2 0.193246 0.840575 0.321849
Si Si3 0.500000 0.437957 0.893776
Si Si4 0.681324 0.662088 0.368157
Si Si5 0.000000 0.625543 0.555880
Si Si6 0.300971 0.088547 0.532915
O O1 0.666469 0.680322 0.933746
O O2 0.000000 0.725218 0.944626
O O3 0.819016 0.689055 0.050247
O O4 0.763357 0.828538 0.986029
O O5 0.250000 0.882415 0.250000
O O6 0.288809 0.751119 0.329358
O O7 0.231024 0.894599 0.390498
O O8 0.000000 0.821665 0.320253
O O9 0.664879 0.400502 0.858692
O O10 0.500000 0.539322 0.899979
O O11 0.500000 0.403066 0.974002
O O12 0.500000 0.627322 0.350852
O O13 0.500000 0.086651 0.539011
O O14 0.244462 0.000000 0.500000
#
# Coordination Sequence:
#
# PCOD9419641 Si02
#       6
#     8   8   4   8   4   8
#     4   8  15  26  40  59  86 120 154 186 231 283
#     4  11  20  31  47  69  96 129 165 200 243 297
#     4   9  16  26  38  60  84 118 149 186 225 267
#     4   9  16  28  42  59  86 119 153 186 229 279
#     4   9  16  24  39  58  86 116 153 186 223 270
#     4   9  18  32  48  68  96 131 166 204 253 302
#
# _framework density 16.353192
#
# number of rings (size 3 to 8) (size 9 to 14) (size 15 to 20)
#    0.000    2.800    1.000    3.000    4.200    1.200 
#    0.000    4.000    0.000    0.000    0.000    0.000 
#    0.000    1.600    2.800    0.000    0.400    0.000 
#
# Total GULP energy -222811.698687 kJ/mol
# GULP energy per Si atom -5570.292467 kJ/mol
# Density = 1.631597 g / cm^3
# Si number density = 16.353192 Si / 1000 Ang^3
#
#
#
# Elastic Constant Matrix: (Units=GPa)
#
#
# Indices 1 2 3 4 5 6 
#
# 1 114.4704 68.0237 23.1840 0.0000 0.0000 0.0000
# 2 68.0237 106.5478 29.4682 0.0000 0.0000 0.0000
# 3 23.1840 29.4682 35.1692 0.0000 0.0000 0.0000
# 4 0.0000 0.0000 0.0000 5.8093 0.0000 0.0000
# 5 0.0000 0.0000 0.0000 0.0000 4.9634 0.0000
# 6 0.0000 0.0000 0.0000 0.0000 0.0000 20.5950
#
#
#
# Elastic Compliance Matrix: (Units=1/GPa)
#
#
# Indices 1 2 3 4 5 6 
#
# 1 0.014218 -0.008441 -0.002300 0.000000 0.000000 0.000000
# 2 -0.008441 0.017228 -0.008871 0.000000 0.000000 0.000000
# 3 -0.002300 -0.008871 0.037383 0.000000 0.000000 0.000000
# 4 0.000000 0.000000 0.000000 0.172137 0.000000 0.000000
# 5 0.000000 0.000000 0.000000 0.000000 0.201474 0.000000
# 6 0.000000 0.000000 0.000000 0.000000 0.000000 0.048555
#
#
# Mechanical properties :
#
#
# Convention : Reuss Voigt Hill
#
# Bulk Modulus (GPa) = 33.77782 55.28214 44.52998
# Shear Modulus (GPa) = 9.25778 15.30765 12.28272
#
# Velocity S-wave (km/s) = 2.38190 3.06284 2.74358
# Velocity P-wave (km/s) = 5.31645 6.81076 6.10946
#
# Compressibility (1/GPa) = 0.02960522
#
# Stress axis : x y z
#
# Youngs Moduli (GPa) = 70.33477 58.04529 26.75027
#
# Poissons Ratio (x) = 0.48996 0.06152
# Poissons Ratio (y) = 0.59370 0.23730
# Poissons Ratio (z) = 0.16175 0.51491
#
# Static dielectric constant tensor:
#      x y z
#    x 1.578870 0.000000 0.000000 
#    y 0.000000 1.538630 0.000000 
#    z 0.000000 0.000000 1.552470 
# 
# From -- ./inp_files/30401.got.cif
#   From: 2010.05.17/outbox.cif.g08.bks.cpg/sg53_16_cif.got.tgz:30401.got - 2010.06.03 12:45:16.
