data_PCOD9419923
_publ_section_title
;
Structure prediction by ZEFSAII (Michael W. Deem and Ramdas Pophale) SiO2 
 PCOD9419923
Probable space group: P M N A
;
_chemical_formula_sum "Si O2"
_cell_formula_units_Z 40
_cell_length_a 15.141852
_cell_length_b 7.988016
_cell_length_c 14.496070
_cell_angle_alpha 90.000000
_cell_angle_beta 90.000000
_cell_angle_gamma 90.000000
_cell_volume 1753.348316
_symmetry_space_group_name_H-M "P M N A"
_symmetry_group_IT_number 53
_symmetry_cell_setting 'orthorhombic'
loop_
_space_group_symop_operation_xyz
x,y,z
1/2-x,-y,1/2+z
x,-y,-z
1/2-x,y,1/2-z
-x,-y,-z
1/2+x,y,1/2-z
-x,y,z
1/2+x,-y,1/2+z
loop_
_atom_site_type_symbol
_atom_site_label
_atom_site_fract_x
_atom_site_fract_y
_atom_site_fract_z
Si Si1 0.399495 0.301120 0.999617
Si Si2 0.893574 0.755737 0.932539
Si Si3 0.772315 0.845877 0.655891
Si Si4 0.840350 0.205998 0.704485
Si Si5 0.599687 0.383242 0.622668
O O1 0.500000 0.235181 0.012745
O O2 0.364745 0.258810 0.897916
O O3 0.403209 0.500000 0.000000
O O4 0.334035 0.238669 0.079521
O O5 0.823486 0.884364 0.889427
O O6 0.871710 0.577361 0.881817
O O7 0.000000 0.795734 0.924011
O O8 0.862262 0.724163 0.038059
O O9 0.750000 0.747144 0.750000
O O10 0.825198 0.008200 0.692497
O O11 0.750000 0.273529 0.750000
O O12 0.902869 0.284589 0.781745
O O13 0.500000 0.401792 0.589811
#
# Coordination Sequence:
#
# PCOD9419923 Si02
#       5
#     8   8   8   8   8
#     4  11  27  46  69 103 142 192 246 300 362 431
#     4   9  20  40  69 106 139 172 227 296 362 424
#     4  11  26  43  66 101 140 189 234 290 360 425
#     4  11  24  42  67  99 140 185 235 284 358 431
#     4   9  19  37  68 103 130 170 226 291 358 421
#
# _framework density 22.813493999999999
#
# number of rings (size 3 to 8) (size 9 to 14) (size 15 to 20)
#    0.000    1.800    0.000    3.600    8.400    4.800 
#    0.000    6.000    0.000   12.000    0.000    0.000 
#    0.000    0.000    0.000    0.000    0.000    0.000 
#
# Total GULP energy -222857.884315 kJ/mol
# GULP energy per Si atom -5571.447108 kJ/mol
# Density = 2.276157 g / cm^3
# Si number density = 22.813494 Si / 1000 Ang^3
#
#
#
# Elastic Constant Matrix: (Units=GPa)
#
#
# Indices 1 2 3 4 5 6 
#
# 1 130.1525 21.9251 72.0127 0.0000 0.0000 0.0000
# 2 21.9251 72.8125 53.6384 0.0000 0.0000 0.0000
# 3 72.0127 53.6384 210.2485 0.0000 0.0000 0.0000
# 4 0.0000 0.0000 0.0000 36.1689 0.0000 0.0000
# 5 0.0000 0.0000 0.0000 0.0000 30.0336 0.0000
# 6 0.0000 0.0000 0.0000 0.0000 0.0000 31.8881
#
#
#
# Elastic Compliance Matrix: (Units=1/GPa)
#
#
# Indices 1 2 3 4 5 6 
#
# 1 0.009499 -0.000571 -0.003108 0.000000 0.000000 0.000000
# 2 -0.000571 0.016947 -0.004128 0.000000 0.000000 0.000000
# 3 -0.003108 -0.004128 0.006874 0.000000 0.000000 0.000000
# 4 0.000000 0.000000 0.000000 0.027648 0.000000 0.000000
# 5 0.000000 0.000000 0.000000 0.000000 0.033296 0.000000
# 6 0.000000 0.000000 0.000000 0.000000 0.000000 0.031360
#
#
# Mechanical properties :
#
#
# Convention : Reuss Voigt Hill
#
# Bulk Modulus (GPa) = 56.47705 78.70731 67.59218
# Shear Modulus (GPa) = 33.98155 37.32729 35.65442
#
# Velocity S-wave (km/s) = 3.86364 4.04938 3.95760
# Velocity P-wave (km/s) = 6.68680 7.51256 7.11167
#
# Compressibility (1/GPa) = 0.01770631
#
# Stress axis : x y z
#
# Youngs Moduli (GPa) = 105.27372 59.00868 145.47833
#
# Poissons Ratio (x) = 0.03368 0.45213
# Poissons Ratio (y) = 0.06009 0.60052
# Poissons Ratio (z) = 0.32718 0.24358
#
# Static dielectric constant tensor:
#      x y z
#    x 2.316370 0.000000 0.000000 
#    y 0.000000 1.937670 0.000000 
#    z 0.000000 0.000000 1.906900 
# 
# From -- ./inp_files/22435.got.cif
#   From: 2010.05.17/outbox.cif.g08.bks.cpg/sg53_12_cif.got.tgz:22435.got - 2010.06.03 12:45:16.
