data_PCOD9419824
_publ_section_title
;
Structure prediction by ZEFSAII (Michael W. Deem and Ramdas Pophale) SiO2 
 PCOD9419824
Probable space group: P M N A
;
_chemical_formula_sum "Si O2"
_cell_formula_units_Z 48
_cell_length_a 16.133814
_cell_length_b 7.756948
_cell_length_c 16.440719
_cell_angle_alpha 90.000000
_cell_angle_beta 90.000000
_cell_angle_gamma 90.000000
_cell_volume 2057.542111
_symmetry_space_group_name_H-M "P M N A"
_symmetry_group_IT_number 53
_symmetry_cell_setting 'orthorhombic'
loop_
_space_group_symop_operation_xyz
x,y,z
1/2-x,-y,1/2+z
x,-y,-z
1/2-x,y,1/2-z
-x,-y,-z
1/2+x,y,1/2-z
-x,y,z
1/2+x,-y,1/2+z
loop_
_atom_site_type_symbol
_atom_site_label
_atom_site_fract_x
_atom_site_fract_y
_atom_site_fract_z
Si Si1 0.907270 0.363906 0.427641
Si Si2 0.592185 0.142485 0.570485
Si Si3 0.265032 0.306867 0.470144
Si Si4 0.837008 0.361130 0.205745
Si Si5 0.903581 0.354444 0.707081
Si Si6 0.151230 0.001450 0.755900
O O1 0.918184 0.500000 0.500000
O O2 0.828748 0.242124 0.449737
O O3 0.880232 0.495179 0.355968
O O4 0.000000 0.288421 0.412780
O O5 0.500000 0.228752 0.573480
O O6 0.676566 0.232117 0.540071
O O7 0.612751 0.065448 0.658861
O O8 0.583910 0.000000 0.500000
O O9 0.251657 0.500000 0.500000
O O10 0.316339 0.304306 0.385992
O O11 0.750000 0.395278 0.250000
O O12 0.883872 0.543400 0.209429
O O13 0.879947 0.196572 0.250531
O O14 0.865032 0.166058 0.698281
O O15 0.000000 0.327359 0.698490
O O16 0.250000 0.979665 0.750000
#
# Coordination Sequence:
#
# PCOD9419824 Si02
#       6
#     8   8   8   8   8   8
#     4   9  20  38  63  94 128 169 221 282 344 405
#     4  11  24  43  64  93 135 177 222 280 342 407
#     4  11  22  38  69  94 125 179 222 278 346 416
#     4  11  22  41  61  96 133 173 224 279 344 417
#     4  11  23  39  65  95 129 172 223 282 347 420
#     4  11  25  41  67  96 134 178 226 286 339 416
#
# _framework density 23.328807000000001
#
# number of rings (size 3 to 8) (size 9 to 14) (size 15 to 20)
#    0.000    1.333    3.333    2.000    4.667    2.333 
#    0.000    0.000    0.000    0.500    0.000    0.000 
#    0.000    0.000    0.000    0.000    0.000    0.000 
#
# Total GULP energy -267404.232294 kJ/mol
# GULP energy per Si atom -5570.921506 kJ/mol
# Density = 2.327571 g / cm^3
# Si number density = 23.328807 Si / 1000 Ang^3
#
#
#
# Elastic Constant Matrix: (Units=GPa)
#
#
# Indices 1 2 3 4 5 6 
#
# 1 119.3643 37.1229 8.0531 0.0000 0.0000 0.0000
# 2 37.1229 103.8099 -7.6781 0.0000 0.0000 0.0000
# 3 8.0531 -7.6781 49.5553 0.0000 0.0000 0.0000
# 4 0.0000 0.0000 0.0000 14.5744 0.0000 0.0000
# 5 0.0000 0.0000 0.0000 0.0000 -100.5397 0.0000
# 6 0.0000 0.0000 0.0000 0.0000 0.0000 118.7200
#
#
#
# Elastic Compliance Matrix: (Units=1/GPa)
#
#
# Indices 1 2 3 4 5 6 
#
# 1 0.009642 -0.003605 -0.002126 0.000000 0.000000 0.000000
# 2 -0.003605 0.011093 0.002305 0.000000 0.000000 0.000000
# 3 -0.002126 0.002305 0.020882 0.000000 0.000000 0.000000
# 4 0.000000 0.000000 0.000000 0.068613 0.000000 0.000000
# 5 0.000000 0.000000 0.000000 0.000000 -0.009946 0.000000
# 6 0.000000 0.000000 0.000000 0.000000 0.000000 0.008423
#
#
# Mechanical properties :
#
#
# Convention : Reuss Voigt Hill
#
# Bulk Modulus (GPa) = 28.76504 38.63615 33.70060
# Shear Modulus (GPa) = 39.32417 22.23304 30.77861
#
# Velocity S-wave (km/s) = 4.11012 3.09047 3.63621
# Velocity P-wave (km/s) = 5.90603 5.41592 5.66627
#
# Compressibility (1/GPa) = 0.03476442
#
# Stress axis : x y z
#
# Youngs Moduli (GPa) = 103.70850 90.14894 47.88819
#
# Poissons Ratio (x) = 0.32502 0.10179
# Poissons Ratio (y) = 0.37391 -0.11036
# Poissons Ratio (z) = 0.22044 -0.20776
#
# Static dielectric constant tensor:
#      x y z
#    x 1.965090 0.000000 0.000000 
#    y 0.000000 1.923870 0.000000 
#    z 0.000000 0.000000 -2.126420 
# 
# From -- ./inp_files/28281.got.cif
#   From: 2010.05.17/outbox.cif.g08.bks.cpg/sg53_15_cif.got.tgz:28281.got - 2010.06.03 12:45:16.
