data_PCOD9419690
_publ_section_title
;
Structure prediction by ZEFSAII (Michael W. Deem and Ramdas Pophale) SiO2 
 PCOD9419690
Probable space group: P M N A
;
_chemical_formula_sum "Si O2"
_cell_formula_units_Z 48
_cell_length_a 8.220439
_cell_length_b 15.484946
_cell_length_c 21.440679
_cell_angle_alpha 90.000000
_cell_angle_beta 90.000000
_cell_angle_gamma 90.000000
_cell_volume 2729.249510
_symmetry_space_group_name_H-M "P M N A"
_symmetry_group_IT_number 53
_symmetry_cell_setting 'orthorhombic'
loop_
_space_group_symop_operation_xyz
x,y,z
1/2-x,-y,1/2+z
x,-y,-z
1/2-x,y,1/2-z
-x,-y,-z
1/2+x,y,1/2-z
-x,y,z
1/2+x,-y,1/2+z
loop_
_atom_site_type_symbol
_atom_site_label
_atom_site_fract_x
_atom_site_fract_y
_atom_site_fract_z
Si Si1 0.692129 0.935993 0.554578
Si Si2 0.305281 0.770822 0.011995
Si Si3 0.803609 0.383841 0.683503
Si Si4 0.192873 0.005895 0.685581
Si Si5 0.803554 0.807427 0.344963
Si Si6 0.198823 0.421570 0.543762
O O1 0.500000 0.950039 0.557632
O O2 0.727728 0.837549 0.535642
O O3 0.762187 0.958957 0.621839
O O4 0.758573 0.000000 0.500000
O O5 0.500000 0.771312 0.002699
O O6 0.272236 0.807115 0.081219
O O7 0.251191 0.671059 0.015013
O O8 0.750000 0.421892 0.750000
O O9 0.742504 0.284099 0.680618
O O10 0.751638 0.425049 0.616986
O O11 0.000000 0.382893 0.682643
O O12 0.250000 0.964209 0.750000
O O13 0.000000 0.012854 0.687761
O O14 0.263758 0.103713 0.681962
O O15 0.000000 0.806200 0.337073
O O16 0.253088 0.500000 0.500000
O O17 0.000000 0.421506 0.544160
#
# Coordination Sequence:
#
# PCOD9419690 Si02
#       6
#     8   8   8   8   8   8
#     4  11  22  34  49  72 101 132 171 211 248 292
#     4   9  16  30  52  74  95 126 168 206 248 297
#     4   9  16  27  44  68  98 127 156 191 238 293
#     4  11  21  33  49  69  99 134 170 209 253 299
#     4   8  15  27  44  67  95 127 158 192 236 295
#     4   8  15  29  51  76  99 125 163 208 248 295
#
# _framework density 17.587251999999999
#
# number of rings (size 3 to 8) (size 9 to 14) (size 15 to 20)
#    0.000    2.667    1.667    3.500    0.000    0.667 
#    0.000    4.167    0.000    3.000    0.000    2.333 
#    0.000    0.000    0.000    0.000    0.000    0.000 
#
# Total GULP energy -267436.018463 kJ/mol
# GULP energy per Si atom -5571.583718 kJ/mol
# Density = 1.754722 g / cm^3
# Si number density = 17.587252 Si / 1000 Ang^3
#
#
#
# Elastic Constant Matrix: (Units=GPa)
#
#
# Indices 1 2 3 4 5 6 
#
# 1 18.1747 7.0464 22.9477 0.0000 0.0000 0.0000
# 2 7.0464 73.6266 63.3774 0.0000 0.0000 0.0000
# 3 22.9477 63.3774 149.4705 0.0000 0.0000 0.0000
# 4 0.0000 0.0000 0.0000 15.4837 0.0000 0.0000
# 5 0.0000 0.0000 0.0000 0.0000 22.4077 0.0000
# 6 0.0000 0.0000 0.0000 0.0000 0.0000 12.8513
#
#
#
# Elastic Compliance Matrix: (Units=1/GPa)
#
#
# Indices 1 2 3 4 5 6 
#
# 1 0.068977 0.003959 -0.012269 0.000000 0.000000 0.000000
# 2 0.003959 0.021616 -0.009773 0.000000 0.000000 0.000000
# 3 -0.012269 -0.009773 0.012718 0.000000 0.000000 0.000000
# 4 0.000000 0.000000 0.000000 0.064584 0.000000 0.000000
# 5 0.000000 0.000000 0.000000 0.000000 0.044628 0.000000
# 6 0.000000 0.000000 0.000000 0.000000 0.000000 0.077813
#
#
# Mechanical properties :
#
#
# Convention : Reuss Voigt Hill
#
# Bulk Modulus (GPa) = 14.89302 47.55720 31.22511
# Shear Modulus (GPa) = 14.33148 20.00855 17.17001
#
# Velocity S-wave (km/s) = 2.85770 3.37660 3.12793
# Velocity P-wave (km/s) = 4.40171 6.50395 5.55322
#
# Compressibility (1/GPa) = 0.06714556
#
# Stress axis : x y z
#
# Youngs Moduli (GPa) = 14.49760 46.26224 78.62971
#
# Poissons Ratio (x) = -0.18317 0.96468
# Poissons Ratio (y) = -0.05740 0.76847
# Poissons Ratio (z) = 0.17787 0.45213
#
# Static dielectric constant tensor:
#      x y z
#    x 1.608810 0.000000 0.000000 
#    y 0.000000 1.601790 0.000000 
#    z 0.000000 0.000000 1.615550 
# 
# From -- ./inp_files/30519.got.cif
#   From: 2010.05.17/outbox.cif.g08.bks.cpg/sg53_16_cif.got.tgz:30519.got - 2010.06.03 12:45:16.
