data_PCOD9419121
_publ_section_title
;
Structure prediction by ZEFSAII (Michael W. Deem and Ramdas Pophale) SiO2 
 PCOD9419121
Probable space group: P M N A
;
_chemical_formula_sum "Si O2"
_cell_formula_units_Z 64
_cell_length_a 20.273868
_cell_length_b 13.292094
_cell_length_c 11.108807
_cell_angle_alpha 90.000000
_cell_angle_beta 90.000000
_cell_angle_gamma 90.000000
_cell_volume 2993.625296
_symmetry_space_group_name_H-M "P M N A"
_symmetry_group_IT_number 53
_symmetry_cell_setting 'orthorhombic'
loop_
_space_group_symop_operation_xyz
x,y,z
1/2-x,-y,1/2+z
x,-y,-z
1/2-x,y,1/2-z
-x,-y,-z
1/2+x,y,1/2-z
-x,y,z
1/2+x,-y,1/2+z
loop_
_atom_site_type_symbol
_atom_site_label
_atom_site_fract_x
_atom_site_fract_y
_atom_site_fract_z
Si Si1 0.846887 0.815367 0.495620
Si Si2 0.078100 0.611544 0.540722
Si Si3 0.424846 0.901391 0.780029
Si Si4 0.710630 0.450567 0.632376
Si Si5 0.207825 0.227434 0.944109
Si Si6 0.927345 0.535406 0.806757
Si Si7 0.070552 0.740887 0.929006
Si Si8 0.679404 0.940733 0.247843
O O1 0.881074 0.704883 0.487511
O O2 0.887986 0.872939 0.596911
O O3 0.769880 0.800153 0.527675
O O4 0.842207 0.882465 0.374470
O O5 0.099595 0.500000 0.500000
O O6 0.083658 0.599018 0.684332
O O7 0.000000 0.624471 0.511556
O O8 0.500000 0.934079 0.802408
O O9 0.427852 0.804121 0.694618
O O10 0.380281 0.986495 0.718724
O O11 0.723061 0.500000 0.500000
O O12 0.750000 0.491157 0.750000
O O13 0.725999 0.333626 0.615588
O O14 0.633737 0.464555 0.666184
O O15 0.195925 0.144186 0.844133
O O16 0.138297 0.236440 0.007645
O O17 0.929492 0.621699 0.906774
O O18 0.000000 0.486802 0.797163
O O19 0.000000 0.767518 0.988655
O O20 0.750000 0.998907 0.250000
#
# Coordination Sequence:
#
# PCOD9419121 Si02
#       8
#     8   8   8   8   8   8   8   8
#     4  11  23  41  69  94 137 177 220 281 337 416
#     4  10  22  38  63 100 138 179 222 276 347 409
#     4  11  24  44  73 103 131 171 230 290 346 416
#     4  12  27  43  69 104 142 184 236 289 342 416
#     4  11  26  45  64  99 136 182 225 277 346 407
#     4  10  22  42  65  94 134 179 229 280 337 404
#     4  10  22  43  68  96 131 169 223 285 334 400
#     4  10  25  45  63  94 138 178 221 280 347 411
#
# _framework density 21.37876
#
# number of rings (size 3 to 8) (size 9 to 14) (size 15 to 20)
#    0.000    1.375    2.500    1.875    7.000    3.250 
#    0.000    1.250    0.000    0.000    0.000    0.000 
#    0.000    0.000    0.000    0.000    0.000    0.000 
#
# Total GULP energy -357272.428741 kJ/mol
# GULP energy per Si atom -5582.381699 kJ/mol
# Density = 2.133010 g / cm^3
# Si number density = 21.378760 Si / 1000 Ang^3
#
#
#
# Elastic Constant Matrix: (Units=GPa)
#
#
# Indices 1 2 3 4 5 6 
#
# 1 145.6801 17.1351 33.5583 0.0000 0.0000 0.0000
# 2 17.1351 66.7624 -2.2198 0.0000 0.0000 0.0000
# 3 33.5583 -2.2198 53.3106 0.0000 0.0000 0.0000
# 4 0.0000 0.0000 0.0000 17.9055 0.0000 0.0000
# 5 0.0000 0.0000 0.0000 0.0000 0.6603 0.0000
# 6 0.0000 0.0000 0.0000 0.0000 0.0000 29.8985
#
#
#
# Elastic Compliance Matrix: (Units=1/GPa)
#
#
# Indices 1 2 3 4 5 6 
#
# 1 0.008375 -0.002328 -0.005369 0.000000 0.000000 0.000000
# 2 -0.002328 0.015646 0.002117 0.000000 0.000000 0.000000
# 3 -0.005369 0.002117 0.022226 0.000000 0.000000 0.000000
# 4 0.000000 0.000000 0.000000 0.055849 0.000000 0.000000
# 5 0.000000 0.000000 0.000000 0.000000 1.514435 0.000000
# 6 0.000000 0.000000 0.000000 0.000000 0.000000 0.033446
#
#
# Mechanical properties :
#
#
# Convention : Reuss Voigt Hill
#
# Bulk Modulus (GPa) = 28.50035 40.30003 34.40019
# Shear Modulus (GPa) = 2.98894 24.17816 13.58355
#
# Velocity S-wave (km/s) = 1.18369 3.36660 2.52340
# Velocity P-wave (km/s) = 3.90234 5.83124 4.96143
#
# Compressibility (1/GPa) = 0.03508729
#
# Stress axis : x y z
#
# Youngs Moduli (GPa) = 119.40402 63.91253 44.99284
#
# Poissons Ratio (x) = 0.14879 0.24156
# Poissons Ratio (y) = 0.27797 -0.09525
# Poissons Ratio (z) = 0.64106 -0.13530
#
# Static dielectric constant tensor:
#      x y z
#    x 1.838180 0.000000 0.000000 
#    y 0.000000 1.776860 0.000000 
#    z 0.000000 0.000000 1.814560 
# 
# From -- ./inp_files/17138.got.cif
#   From: 2010.05.17/outbox.cif.g08.bks.cpg/sg53_9_cif.got.tgz:17138.got - 2010.06.03 12:45:16.
