data_PCOD9419281
_publ_section_title
;
Structure prediction by ZEFSAII (Michael W. Deem and Ramdas Pophale) SiO2 
 PCOD9419281
Probable space group: P M N A
;
_chemical_formula_sum "Si O2"
_cell_formula_units_Z 40
_cell_length_a 20.432236
_cell_length_b 17.579917
_cell_length_c 5.377021
_cell_angle_alpha 90.000000
_cell_angle_beta 90.000000
_cell_angle_gamma 90.000000
_cell_volume 1931.409882
_symmetry_space_group_name_H-M "P M N A"
_symmetry_group_IT_number 53
_symmetry_cell_setting 'orthorhombic'
loop_
_space_group_symop_operation_xyz
x,y,z
1/2-x,-y,1/2+z
x,-y,-z
1/2-x,y,1/2-z
-x,-y,-z
1/2+x,y,1/2-z
-x,y,z
1/2+x,-y,1/2+z
loop_
_atom_site_type_symbol
_atom_site_label
_atom_site_fract_x
_atom_site_fract_y
_atom_site_fract_z
Si Si1 0.145269 0.657112 0.572798
Si Si2 0.328610 0.040613 0.244220
Si Si3 0.500000 0.779338 0.547310
Si Si4 0.711485 0.500000 0.000000
Si Si5 0.750000 0.247576 0.750000
Si Si6 0.000000 0.688570 0.440420
Si Si7 0.141657 0.802751 0.906480
O O1 0.171590 0.572355 0.603377
O O2 0.198200 0.699894 0.397860
O O3 0.070626 0.650396 0.479833
O O4 0.142296 0.716228 0.803141
O O5 0.250000 0.034899 0.250000
O O6 0.346402 0.129364 0.217470
O O7 0.351843 0.000000 0.500000
O O8 0.354429 0.000000 0.000000
O O9 0.500000 0.711914 0.347202
O O10 0.430798 0.818276 0.491241
O O11 0.500000 0.753476 0.838682
O O12 0.750000 0.474138 0.750000
O O13 0.703249 0.194918 0.586710
#
# Coordination Sequence:
#
# PCOD9419281 Si02
#       7
#     8   8   4   4   4   4   8
#     4  11  24  41  65  96 132 174 220 270 330 389
#     4  10  23  39  60  94 133 163 209 273 328 379
#     4  10  22  42  64  94 134 170 213 275 322 384
#     4  12  26  43  64  99 138 170 216 282 332 375
#     4  12  20  36  70  94 124 168 228 266 318 398
#     4  10  22  41  64  93 132 172 223 263 326 390
#     4  11  24  40  67  97 129 174 223 267 328 397
#
# _framework density 20.710260999999999
#
# number of rings (size 3 to 8) (size 9 to 14) (size 15 to 20)
#    0.000    1.200    3.000    3.000    7.000    0.400 
#    0.000    1.000    0.000    3.600    0.000    0.000 
#    0.000    0.000    0.000    0.000    0.000    0.000 
#
# Total GULP energy -222889.147907 kJ/mol
# GULP energy per Si atom -5572.228698 kJ/mol
# Density = 2.066312 g / cm^3
# Si number density = 20.710261 Si / 1000 Ang^3
#
#
#
# Elastic Constant Matrix: (Units=GPa)
#
#
# Indices 1 2 3 4 5 6 
#
# 1 147.4569 21.9528 34.9113 0.0000 0.0000 0.0000
# 2 21.9528 94.2289 26.6956 0.0000 0.0000 0.0000
# 3 34.9113 26.6956 67.0817 0.0000 0.0000 0.0000
# 4 0.0000 0.0000 0.0000 23.6215 0.0000 0.0000
# 5 0.0000 0.0000 0.0000 0.0000 -1.0231 0.0000
# 6 0.0000 0.0000 0.0000 0.0000 0.0000 19.0046
#
#
#
# Elastic Compliance Matrix: (Units=1/GPa)
#
#
# Indices 1 2 3 4 5 6 
#
# 1 0.007781 -0.000750 -0.003751 0.000000 0.000000 0.000000
# 2 -0.000750 0.012033 -0.004398 0.000000 0.000000 0.000000
# 3 -0.003751 -0.004398 0.018610 0.000000 0.000000 0.000000
# 4 0.000000 0.000000 0.000000 0.042334 0.000000 0.000000
# 5 0.000000 0.000000 0.000000 0.000000 -0.977415 0.000000
# 6 0.000000 0.000000 0.000000 0.000000 0.000000 0.052619
#
#
# Mechanical properties :
#
#
# Convention : Reuss Voigt Hill
#
# Bulk Modulus (GPa) = 48.48435 52.87631 50.68033
# Shear Modulus (GPa) = -6.10230 23.33448 8.61609
#
# Velocity S-wave (km/s) = -1.71840 3.36029 2.04189
# Velocity P-wave (km/s) = 4.41864 6.37513 5.48483
#
# Compressibility (1/GPa) = 0.02062521
#
# Stress axis : x y z
#
# Youngs Moduli (GPa) = 128.51112 83.10280 53.73528
#
# Poissons Ratio (x) = 0.06234 0.20157
# Poissons Ratio (y) = 0.09640 0.23635
# Poissons Ratio (z) = 0.48207 0.36551
#
# Static dielectric constant tensor:
#      x y z
#    x 1.814960 0.000000 0.000000 
#    y 0.000000 1.730890 0.000000 
#    z 0.000000 0.000000 1.908610 
# 
# From -- ./inp_files/2917.got.cif
#   From: 2010.05.17/outbox.cif.g08.bks.cpg/sg53_2_cif.got.tgz:2917.got - 2010.06.03 12:45:16.
