data_PCOD9419153
_publ_section_title
;
Structure prediction by ZEFSAII (Michael W. Deem and Ramdas Pophale) SiO2 
 PCOD9419153
Probable space group: P M N A
;
_chemical_formula_sum "Si O2"
_cell_formula_units_Z 40
_cell_length_a 8.585639
_cell_length_b 27.006087
_cell_length_c 9.246765
_cell_angle_alpha 90.000000
_cell_angle_beta 90.000000
_cell_angle_gamma 90.000000
_cell_volume 2143.996671
_symmetry_space_group_name_H-M "P M N A"
_symmetry_group_IT_number 53
_symmetry_cell_setting 'orthorhombic'
loop_
_space_group_symop_operation_xyz
x,y,z
1/2-x,-y,1/2+z
x,-y,-z
1/2-x,y,1/2-z
-x,-y,-z
1/2+x,y,1/2-z
-x,y,z
1/2+x,-y,1/2+z
loop_
_atom_site_type_symbol
_atom_site_label
_atom_site_fract_x
_atom_site_fract_y
_atom_site_fract_z
Si Si1 0.187006 0.843980 0.914641
Si Si2 0.311948 0.952215 0.587207
Si Si3 0.185643 0.259296 0.414246
Si Si4 0.687259 0.353080 0.587535
Si Si5 0.688059 0.548725 0.587405
O O1 0.250000 0.845384 0.750000
O O2 0.230795 0.898020 0.976658
O O3 0.258383 0.793724 0.976961
O O4 0.000000 0.839603 0.913076
O O5 0.250000 0.954888 0.750000
O O6 0.500000 0.953522 0.591679
O O7 0.255788 0.000000 0.500000
O O8 0.250000 0.263614 0.250000
O O9 0.249131 0.304432 0.508202
O O10 0.000000 0.260241 0.408423
O O11 0.750000 0.356096 0.750000
O O12 0.500000 0.351340 0.589905
O O13 0.736261 0.401711 0.497368
O O14 0.739982 0.500000 0.500000
O O15 0.750000 0.548525 0.750000
O O16 0.500000 0.548136 0.592313
#
# Coordination Sequence:
#
# PCOD9419153 Si02
#       5
#     8   8   8   8   8
#     4   9  16  29  50  74 102 135 174 219 266 317
#     4   9  18  32  50  74 103 135 172 216 264 316
#     4  11  21  35  56  81 108 139 180 226 272 322
#     4  11  23  39  58  82 113 147 184 224 271 324
#     4  10  22  39  60  87 116 147 184 225 269 319
#
# _framework density 18.656745000000001
#
# number of rings (size 3 to 8) (size 9 to 14) (size 15 to 20)
#    0.000    2.000    0.000    5.400    0.000    4.800 
#    0.000    1.000    0.000    2.400    0.000    0.000 
#    0.000    0.000    0.000    0.000    0.000    0.000 
#
# Total GULP energy -223240.104270 kJ/mol
# GULP energy per Si atom -5581.002607 kJ/mol
# Density = 1.861428 g / cm^3
# Si number density = 18.656745 Si / 1000 Ang^3
#
#
#
# Elastic Constant Matrix: (Units=GPa)
#
#
# Indices 1 2 3 4 5 6 
#
# 1 67.0030 56.2913 30.2039 0.0000 0.0000 0.0000
# 2 56.2913 238.1834 96.2938 0.0000 0.0000 0.0000
# 3 30.2039 96.2938 107.9359 0.0000 0.0000 0.0000
# 4 0.0000 0.0000 0.0000 34.6840 0.0000 0.0000
# 5 0.0000 0.0000 0.0000 0.0000 27.9799 0.0000
# 6 0.0000 0.0000 0.0000 0.0000 0.0000 131.3223
#
#
#
# Elastic Compliance Matrix: (Units=1/GPa)
#
#
# Indices 1 2 3 4 5 6 
#
# 1 0.018905 -0.003643 -0.002040 0.000000 0.000000 0.000000
# 2 -0.003643 0.007269 -0.005466 0.000000 0.000000 0.000000
# 3 -0.002040 -0.005466 0.014712 0.000000 0.000000 0.000000
# 4 0.000000 0.000000 0.000000 0.028832 0.000000 0.000000
# 5 0.000000 0.000000 0.000000 0.000000 0.035740 0.000000
# 6 0.000000 0.000000 0.000000 0.000000 0.000000 0.007615
#
#
# Mechanical properties :
#
#
# Convention : Reuss Voigt Hill
#
# Bulk Modulus (GPa) = 53.79731 86.52227 70.15979
# Shear Modulus (GPa) = 35.31922 54.15279 44.73601
#
# Velocity S-wave (km/s) = 4.35571 5.39341 4.90209
# Velocity P-wave (km/s) = 7.36167 9.23373 8.35032
#
# Compressibility (1/GPa) = 0.01858829
#
# Stress axis : x y z
#
# Youngs Moduli (GPa) = 52.89584 137.56841 67.97331
#
# Poissons Ratio (x) = 0.50119 0.13867
# Poissons Ratio (y) = 0.19271 0.37151
# Poissons Ratio (z) = 0.10791 0.75189
#
# Static dielectric constant tensor:
#      x y z
#    x 1.625840 0.000000 0.000000 
#    y 0.000000 1.687980 0.000000 
#    z 0.000000 0.000000 1.644570 
# 
# From -- ./inp_files/6292.got.cif
#   From: 2010.05.17/outbox.cif.g08.bks.cpg/sg53_4_cif.got.tgz:6292.got - 2010.06.03 12:45:16.
