data_PCOD9419708
_publ_section_title
;
Structure prediction by ZEFSAII (Michael W. Deem and Ramdas Pophale) SiO2 
 PCOD9419708
Probable space group: P M N A
;
_chemical_formula_sum "Si O2"
_cell_formula_units_Z 40
_cell_length_a 8.518693
_cell_length_b 27.545086
_cell_length_c 9.224066
_cell_angle_alpha 90.000000
_cell_angle_beta 90.000000
_cell_angle_gamma 90.000000
_cell_volume 2164.409850
_symmetry_space_group_name_H-M "P M N A"
_symmetry_group_IT_number 53
_symmetry_cell_setting 'orthorhombic'
loop_
_space_group_symop_operation_xyz
x,y,z
1/2-x,-y,1/2+z
x,-y,-z
1/2-x,y,1/2-z
-x,-y,-z
1/2+x,y,1/2-z
-x,y,z
1/2+x,-y,1/2+z
loop_
_atom_site_type_symbol
_atom_site_label
_atom_site_fract_x
_atom_site_fract_y
_atom_site_fract_z
Si Si1 0.811297 0.742588 0.583853
Si Si2 0.689380 0.152560 0.084319
Si Si3 0.688360 0.548207 0.086892
Si Si4 0.186723 0.359128 0.085140
Si Si5 0.190032 0.047214 0.414234
O O1 0.750000 0.743481 0.750000
O O2 0.762532 0.795151 0.519369
O O3 0.743284 0.692747 0.521805
O O4 0.000000 0.739409 0.584541
O O5 0.750000 0.152317 0.250000
O O6 0.500000 0.152951 0.087366
O O7 0.739000 0.100117 0.022456
O O8 0.750000 0.545980 0.250000
O O9 0.500000 0.549686 0.087692
O O10 0.738797 0.500000 0.000000
O O11 0.751125 0.595965 0.007066
O O12 0.250000 0.363204 0.250000
O O13 0.000000 0.359588 0.090329
O O14 0.250000 0.044665 0.250000
O O15 0.000000 0.046239 0.412948
O O16 0.246591 0.000000 0.500000
#
# Coordination Sequence:
#
# PCOD9419708 Si02
#       5
#     8   8   8   8   8
#     4   9  15  25  43  68  97 127 163 205 250 297
#     4   8  14  24  40  63  90 122 158 200 247 293
#     4  11  24  41  61  84 110 140 174 211 252 298
#     4  11  21  34  54  80 110 140 172 210 254 302
#     4   9  17  29  45  66  93 124 160 202 249 299
#
# _framework density 18.480789000000001
#
# number of rings (size 3 to 8) (size 9 to 14) (size 15 to 20)
#    0.000    2.400    0.000    4.800    0.000    4.400 
#    0.000    0.000    0.000    1.200    0.000    2.800 
#    0.000    0.000    0.000    0.000    0.000    0.000 
#
# Total GULP energy -222848.380538 kJ/mol
# GULP energy per Si atom -5571.209513 kJ/mol
# Density = 1.843873 g / cm^3
# Si number density = 18.480789 Si / 1000 Ang^3
#
#
#
# Elastic Constant Matrix: (Units=GPa)
#
#
# Indices 1 2 3 4 5 6 
#
# 1 54.5689 48.4007 17.9371 0.0000 0.0000 0.0000
# 2 48.4007 254.7748 68.1428 0.0000 0.0000 0.0000
# 3 17.9371 68.1428 53.2007 0.0000 0.0000 0.0000
# 4 0.0000 0.0000 0.0000 42.3280 0.0000 0.0000
# 5 0.0000 0.0000 0.0000 0.0000 18.6082 0.0000
# 6 0.0000 0.0000 0.0000 0.0000 0.0000 52.5348
#
#
#
# Elastic Compliance Matrix: (Units=1/GPa)
#
#
# Indices 1 2 3 4 5 6 
#
# 1 0.022391 -0.003399 -0.003196 0.000000 0.000000 0.000000
# 2 -0.003399 0.006486 -0.007162 0.000000 0.000000 0.000000
# 3 -0.003196 -0.007162 0.029048 0.000000 0.000000 0.000000
# 4 0.000000 0.000000 0.000000 0.023625 0.000000 0.000000
# 5 0.000000 0.000000 0.000000 0.000000 0.053740 0.000000
# 6 0.000000 0.000000 0.000000 0.000000 0.000000 0.019035
#
#
# Mechanical properties :
#
#
# Convention : Reuss Voigt Hill
#
# Bulk Modulus (GPa) = 32.88235 70.16729 51.52482
# Shear Modulus (GPa) = 26.04501 37.89845 31.97173
#
# Velocity S-wave (km/s) = 3.75814 4.53337 4.16384
# Velocity P-wave (km/s) = 6.05498 8.09024 7.14545
#
# Compressibility (1/GPa) = 0.03041145
#
# Stress axis : x y z
#
# Youngs Moduli (GPa) = 44.66155 154.16981 34.42584
#
# Poissons Ratio (x) = 0.52401 0.11001
# Poissons Ratio (y) = 0.15180 0.24656
# Poissons Ratio (z) = 0.14272 1.10419
#
# Static dielectric constant tensor:
#      x y z
#    x 1.616460 0.000000 0.000000 
#    y 0.000000 1.723030 0.000000 
#    z 0.000000 0.000000 1.602440 
# 
# From -- ./inp_files/6443.got.cif
#   From: 2010.05.17/outbox.cif.g08.bks.cpg/sg53_4_cif.got.tgz:6443.got - 2010.06.03 12:45:16.
