data_PCOD9419433
_publ_section_title
;
Structure prediction by ZEFSAII (Michael W. Deem and Ramdas Pophale) SiO2 
 PCOD9419433
Probable space group: P M N A
;
_chemical_formula_sum "Si O2"
_cell_formula_units_Z 56
_cell_length_a 28.566859
_cell_length_b 5.422020
_cell_length_c 16.499198
_cell_angle_alpha 90.000000
_cell_angle_beta 90.000000
_cell_angle_gamma 90.000000
_cell_volume 2555.562112
_symmetry_space_group_name_H-M "P M N A"
_symmetry_group_IT_number 53
_symmetry_cell_setting 'orthorhombic'
loop_
_space_group_symop_operation_xyz
x,y,z
1/2-x,-y,1/2+z
x,-y,-z
1/2-x,y,1/2-z
-x,-y,-z
1/2+x,y,1/2-z
-x,y,z
1/2+x,-y,1/2+z
loop_
_atom_site_type_symbol
_atom_site_label
_atom_site_fract_x
_atom_site_fract_y
_atom_site_fract_z
Si Si1 0.772896 0.002576 0.598116
Si Si2 0.947010 0.751533 0.947623
Si Si3 0.127358 0.111084 0.335191
Si Si4 0.947504 0.730326 0.267412
Si Si5 0.218171 0.498599 0.902419
Si Si6 0.379777 0.414450 0.323422
Si Si7 0.049703 0.349394 0.417698
O O1 0.823787 0.000848 0.638550
O O2 0.744626 0.753030 0.621088
O O3 0.777658 0.000000 0.500000
O O4 0.746107 0.252480 0.621495
O O5 0.906171 0.777351 0.881379
O O6 0.000000 0.728964 0.913057
O O7 0.938705 0.500000 0.000000
O O8 0.946246 0.000000 0.000000
O O9 0.134984 0.309603 0.264084
O O10 0.099176 0.215267 0.412177
O O11 0.088092 0.933029 0.298786
O O12 0.921315 0.608299 0.192131
O O13 0.950800 0.528086 0.339532
O O14 0.000000 0.816850 0.249140
O O15 0.166497 0.489199 0.865896
O O16 0.214859 0.500000 0.000000
O O17 0.048722 0.500000 0.500000
O O18 0.000000 0.202234 0.414132
#
# Coordination Sequence:
#
# PCOD9419433 Si02
#       7
#     8   8   8   8   8   8   8
#     4  10  25  46  72 100 134 175 231 291 344 405
#     4  10  23  42  68 102 137 180 231 283 339 409
#     4  11  25  40  65  99 131 187 225 280 348 416
#     4  10  23  41  62  97 139 180 222 275 344 411
#     4  10  24  47  73  99 131 176 229 292 350 404
#     4  11  25  43  67  99 135 181 224 285 345 420
#     4   9  20  38  62  94 133 176 230 285 333 403
#
# _framework density 21.912984999999999
#
# number of rings (size 3 to 8) (size 9 to 14) (size 15 to 20)
#    0.000    1.857    0.000    1.286   10.000    4.571 
#    0.000    2.143    0.000    0.000    0.000    0.000 
#    0.000    0.000    0.000    0.000    0.000    0.000 
#
# Total GULP energy -312874.669399 kJ/mol
# GULP energy per Si atom -5587.047668 kJ/mol
# Density = 2.186311 g / cm^3
# Si number density = 21.912985 Si / 1000 Ang^3
#
#
#
# Elastic Constant Matrix: (Units=GPa)
#
#
# Indices 1 2 3 4 5 6 
#
# 1 202.7803 65.3877 68.2910 0.0000 0.0000 0.0000
# 2 65.3877 100.1198 26.6095 0.0000 0.0000 0.0000
# 3 68.2910 26.6095 41.3818 0.0000 0.0000 0.0000
# 4 0.0000 0.0000 0.0000 19.3535 0.0000 0.0000
# 5 0.0000 0.0000 0.0000 0.0000 125.8358 0.0000
# 6 0.0000 0.0000 0.0000 0.0000 0.0000 58.6240
#
#
#
# Elastic Compliance Matrix: (Units=1/GPa)
#
#
# Indices 1 2 3 4 5 6 
#
# 1 0.011831 -0.003061 -0.017556 0.000000 0.000000 0.000000
# 2 -0.003061 0.012839 -0.003205 0.000000 0.000000 0.000000
# 3 -0.017556 -0.003205 0.055197 0.000000 0.000000 0.000000
# 4 0.000000 0.000000 0.000000 0.051670 0.000000 0.000000
# 5 0.000000 0.000000 0.000000 0.000000 0.007947 0.000000
# 6 0.000000 0.000000 0.000000 0.000000 0.000000 0.017058
#
#
# Mechanical properties :
#
#
# Convention : Reuss Voigt Hill
#
# Bulk Modulus (GPa) = 31.03205 73.87315 52.45260
# Shear Modulus (GPa) = 23.26389 53.02890 38.14639
#
# Velocity S-wave (km/s) = 3.26183 4.92466 4.17683
# Velocity P-wave (km/s) = 5.32713 8.13152 6.87386
#
# Compressibility (1/GPa) = 0.03222475
#
# Stress axis : x y z
#
# Youngs Moduli (GPa) = 84.52618 77.88977 18.11677
#
# Poissons Ratio (x) = 0.23839 0.31805
# Poissons Ratio (y) = 0.25870 0.05806
# Poissons Ratio (z) = 1.48391 0.24961
#
# Static dielectric constant tensor:
#      x y z
#    x 1.777340 0.000000 0.000000 
#    y 0.000000 1.848580 0.000000 
#    z 0.000000 0.000000 1.886820 
# 
# From -- ./inp_files/25144.got.cif
#   From: 2010.05.17/outbox.cif.g08.bks.cpg/sg53_13_cif.got.tgz:25144.got - 2010.06.03 12:45:16.
