data_PCOD9419530
_publ_section_title
;
Structure prediction by ZEFSAII (Michael W. Deem and Ramdas Pophale) SiO2 
 PCOD9419530
Probable space group: P M N A
;
_chemical_formula_sum "Si O2"
_cell_formula_units_Z 18
_cell_length_a 29.120271
_cell_length_b 4.973114
_cell_length_c 4.995504
_cell_angle_alpha 90.000000
_cell_angle_beta 90.000000
_cell_angle_gamma 90.000000
_cell_volume 723.441033
_symmetry_space_group_name_H-M "P M N A"
_symmetry_group_IT_number 53
_symmetry_cell_setting 'orthorhombic'
loop_
_space_group_symop_operation_xyz
x,y,z
1/2-x,-y,1/2+z
x,-y,-z
1/2-x,y,1/2-z
-x,-y,-z
1/2+x,y,1/2-z
-x,y,z
1/2+x,-y,1/2+z
loop_
_atom_site_type_symbol
_atom_site_label
_atom_site_fract_x
_atom_site_fract_y
_atom_site_fract_z
Si Si1 0.657538 0.000000 0.500000
Si Si2 0.000000 0.000000 0.000000
Si Si3 0.425421 0.763305 0.818743
Si Si4 0.719129 0.500000 0.500000
O O1 0.624075 0.863927 0.718669
O O2 0.688565 0.752305 0.403947
O O3 0.959408 0.777872 0.929692
O O4 0.422805 0.500000 0.000000
O O5 0.446911 0.000000 0.000000
O O6 0.750000 0.409975 0.250000
#
# Coordination Sequence:
#
# PCOD9419530 Si02
#       4
#     4   2   8   4
#     4  11  26  45  70 106 140 188 248 303 384 459
#     4  10  24  42  64 108 140 194 252 300 374 442
#     4  11  24  42  70  99 145 192 243 308 370 453
#     4  12  28  48  76 107 146 191 246 314 384 466
#
# _framework density 24.881091999999999
#
# number of rings (size 3 to 8) (size 9 to 14) (size 15 to 20)
#    0.000    0.889    0.000    5.333    9.333    7.111 
#    0.000    0.000    0.000    0.000    0.000    0.000 
#    0.000    0.000    0.000    0.000    0.000    0.000 
#
# Total GULP energy -100246.253722 kJ/mol
# GULP energy per Si atom -5569.236318 kJ/mol
# Density = 2.482446 g / cm^3
# Si number density = 24.881092 Si / 1000 Ang^3
#
#
#
# Elastic Constant Matrix: (Units=GPa)
#
#
# Indices 1 2 3 4 5 6 
#
# 1 147.2326 68.5891 33.3944 0.0000 0.0000 0.0000
# 2 68.5891 237.7907 55.2672 0.0000 0.0000 0.0000
# 3 33.3944 55.2672 91.4176 0.0000 0.0000 0.0000
# 4 0.0000 0.0000 0.0000 60.8646 0.0000 0.0000
# 5 0.0000 0.0000 0.0000 0.0000 46.0200 0.0000
# 6 0.0000 0.0000 0.0000 0.0000 0.0000 -22.4170
#
#
#
# Elastic Compliance Matrix: (Units=1/GPa)
#
#
# Indices 1 2 3 4 5 6 
#
# 1 0.008092 -0.001916 -0.001798 0.000000 0.000000 0.000000
# 2 -0.001916 0.005347 -0.002532 0.000000 0.000000 0.000000
# 3 -0.001798 -0.002532 0.013126 0.000000 0.000000 0.000000
# 4 0.000000 0.000000 0.000000 0.016430 0.000000 0.000000
# 5 0.000000 0.000000 0.000000 0.000000 0.021730 0.000000
# 6 0.000000 0.000000 0.000000 0.000000 0.000000 -0.044609
#
#
# Mechanical properties :
#
#
# Convention : Reuss Voigt Hill
#
# Bulk Modulus (GPa) = 71.05829 87.88247 79.47038
# Shear Modulus (GPa) = 134.04929 38.17287 86.11108
#
# Velocity S-wave (km/s) = 7.34799 3.92115 5.88933
# Velocity P-wave (km/s) = 10.03054 7.47651 8.84618
#
# Compressibility (1/GPa) = 0.01407295
#
# Stress axis : x y z
#
# Youngs Moduli (GPa) = 123.57176 187.03037 76.18242
#
# Poissons Ratio (x) = 0.35843 0.13694
# Poissons Ratio (y) = 0.23682 0.19292
# Poissons Ratio (z) = 0.22213 0.47362
#
# Static dielectric constant tensor:
#      x y z
#    x 1.980160 0.000000 0.000000 
#    y 0.000000 2.041650 0.000000 
#    z 0.000000 0.000000 2.439990 
# 
# From -- ./inp_files/3978.got.cif
#   From: 2010.05.17/outbox.cif.g08.bks.cpg/sg53_2_cif.got.tgz:3978.got - 2010.06.03 12:45:16.
