data_PCOD9419830
_publ_section_title
;
Structure prediction by ZEFSAII (Michael W. Deem and Ramdas Pophale) SiO2 
 PCOD9419830
Probable space group: P M N A
;
_chemical_formula_sum "Si O2"
_cell_formula_units_Z 40
_cell_length_a 15.985520
_cell_length_b 22.634274
_cell_length_c 5.097370
_cell_angle_alpha 90.000000
_cell_angle_beta 90.000000
_cell_angle_gamma 90.000000
_cell_volume 1844.333674
_symmetry_space_group_name_H-M "P M N A"
_symmetry_group_IT_number 53
_symmetry_cell_setting 'orthorhombic'
loop_
_space_group_symop_operation_xyz
x,y,z
1/2-x,-y,1/2+z
x,-y,-z
1/2-x,y,1/2-z
-x,-y,-z
1/2+x,y,1/2-z
-x,y,z
1/2+x,-y,1/2+z
loop_
_atom_site_type_symbol
_atom_site_label
_atom_site_fract_x
_atom_site_fract_y
_atom_site_fract_z
Si Si1 0.848588 0.826674 0.679996
Si Si2 0.157027 0.624494 0.149908
Si Si3 0.595688 0.440370 0.130558
Si Si4 0.647902 0.963013 0.753134
Si Si5 0.403558 0.243988 0.670340
O O1 0.750000 0.823507 0.750000
O O2 0.875743 0.894873 0.709093
O O3 0.863973 0.796811 0.398072
O O4 0.897666 0.790375 0.898104
O O5 0.250000 0.612421 0.250000
O O6 0.097897 0.604445 0.387897
O O7 0.143630 0.694333 0.122310
O O8 0.139298 0.588424 0.883279
O O9 0.500000 0.453489 0.209772
O O10 0.632634 0.500000 0.000000
O O11 0.750000 0.962905 0.750000
O O12 0.620521 0.000000 0.500000
O O13 0.618881 0.000000 0.000000
O O14 0.500000 0.255991 0.739350
#
# Coordination Sequence:
#
# PCOD9419830 Si02
#       5
#     8   8   8   8   8
#     4  11  22  39  64  93 124 162 214 268 316 374
#     4  12  25  43  67  97 130 166 214 266 314 367
#     4  11  24  44  69  97 132 172 211 253 311 380
#     4   9  17  31  55  87 119 154 202 260 316 371
#     4  12  25  42  63  90 129 171 211 258 321 387
#
# _framework density 21.688048999999999
#
# number of rings (size 3 to 8) (size 9 to 14) (size 15 to 20)
#    0.000    1.000    0.000    7.800    0.000    6.400 
#    0.000    0.000    0.000   12.000    0.000    0.000 
#    0.000    0.000    0.000    0.000    0.000    0.000 
#
# Total GULP energy -223705.109774 kJ/mol
# GULP energy per Si atom -5592.627744 kJ/mol
# Density = 2.163869 g / cm^3
# Si number density = 21.688049 Si / 1000 Ang^3
#
#
#
# Elastic Constant Matrix: (Units=GPa)
#
#
# Indices 1 2 3 4 5 6 
#
# 1 65.0492 26.0563 16.2636 0.0000 0.0000 0.0000
# 2 26.0563 171.7987 81.9416 0.0000 0.0000 0.0000
# 3 16.2636 81.9416 163.6380 0.0000 0.0000 0.0000
# 4 0.0000 0.0000 0.0000 48.3048 0.0000 0.0000
# 5 0.0000 0.0000 0.0000 0.0000 -1.7451 0.0000
# 6 0.0000 0.0000 0.0000 0.0000 0.0000 -78.2075
#
#
#
# Elastic Compliance Matrix: (Units=1/GPa)
#
#
# Indices 1 2 3 4 5 6 
#
# 1 0.016399 -0.002246 -0.000505 0.000000 0.000000 0.000000
# 2 -0.002246 0.007955 -0.003760 0.000000 0.000000 0.000000
# 3 -0.000505 -0.003760 0.008044 0.000000 0.000000 0.000000
# 4 0.000000 0.000000 0.000000 0.020702 0.000000 0.000000
# 5 0.000000 0.000000 0.000000 0.000000 -0.573046 0.000000
# 6 0.000000 0.000000 0.000000 0.000000 0.000000 -0.012787
#
#
# Mechanical properties :
#
#
# Convention : Reuss Voigt Hill
#
# Bulk Modulus (GPa) = 51.61266 72.11208 61.86237
# Shear Modulus (GPa) = -9.74183 12.08541 1.17179
#
# Velocity S-wave (km/s) = -2.12168 2.36315 0.73584
# Velocity P-wave (km/s) = 4.22461 6.38497 5.41365
#
# Compressibility (1/GPa) = 0.01937509
#
# Stress axis : x y z
#
# Youngs Moduli (GPa) = 60.97918 125.70838 124.31410
#
# Poissons Ratio (x) = 0.28238 0.06278
# Poissons Ratio (y) = 0.13698 0.46744
# Poissons Ratio (z) = 0.03080 0.47268
#
# Static dielectric constant tensor:
#      x y z
#    x 1.814710 0.000000 0.000000 
#    y 0.000000 1.913960 0.000000 
#    z 0.000000 0.000000 1.817150 
# 
# From -- ./inp_files/2184.got.cif
#   From: 2010.05.17/outbox.cif.g08.bks.cpg/sg53_2_cif.got.tgz:2184.got - 2010.06.03 12:45:16.
