data_PCOD9419444
_publ_section_title
;
Structure prediction by ZEFSAII (Michael W. Deem and Ramdas Pophale) SiO2 
 PCOD9419444
Probable space group: P M N A
;
_chemical_formula_sum "Si O2"
_cell_formula_units_Z 28
_cell_length_a 16.672513
_cell_length_b 14.035800
_cell_length_c 5.236327
_cell_angle_alpha 90.000000
_cell_angle_beta 90.000000
_cell_angle_gamma 90.000000
_cell_volume 1225.363657
_symmetry_space_group_name_H-M "P M N A"
_symmetry_group_IT_number 53
_symmetry_cell_setting 'orthorhombic'
loop_
_space_group_symop_operation_xyz
x,y,z
1/2-x,-y,1/2+z
x,-y,-z
1/2-x,y,1/2-z
-x,-y,-z
1/2+x,y,1/2-z
-x,y,z
1/2+x,-y,1/2+z
loop_
_atom_site_type_symbol
_atom_site_label
_atom_site_fract_x
_atom_site_fract_y
_atom_site_fract_z
Si Si1 0.500000 0.669730 0.337068
Si Si2 0.000000 0.795668 0.673980
Si Si3 0.662600 0.603402 0.123150
Si Si4 0.250000 0.064545 0.750000
Si Si5 0.832464 0.192197 0.401765
O O1 0.500000 0.751445 0.113857
O O2 0.583152 0.613468 0.296419
O O3 0.500000 0.713257 0.615965
O O4 0.915084 0.847309 0.712048
O O5 0.750000 0.613638 0.250000
O O6 0.660099 0.500000 0.000000
O O7 0.657721 0.694542 0.936315
O O8 0.179790 0.137152 0.668509
O O9 0.264611 0.000000 0.500000
O O10 0.750000 0.179127 0.250000
#
# Coordination Sequence:
#
# PCOD9419444 Si02
#       5
#     4   4   8   4   8
#     4  10  23  42  62  99 145 192 230 285 335 405
#     4  10  24  40  73 104 137 185 238 280 353 417
#     4  11  22  39  65 104 142 190 237 283 343 416
#     4  12  26  46  76 100 132 188 234 294 366 420
#     4  11  23  45  72 102 143 185 231 294 350 417
#
# _framework density 22.850359999999998
#
# number of rings (size 3 to 8) (size 9 to 14) (size 15 to 20)
#    0.000    1.143    2.857    3.000    4.000    2.286 
#    0.000    7.857    0.000    0.000    0.000    0.000 
#    0.000    0.000    0.000    0.000    0.000    0.000 
#
# Total GULP energy -156287.702132 kJ/mol
# GULP energy per Si atom -5581.703648 kJ/mol
# Density = 2.279835 g / cm^3
# Si number density = 22.850360 Si / 1000 Ang^3
#
#
#
# Elastic Constant Matrix: (Units=GPa)
#
#
# Indices 1 2 3 4 5 6 
#
# 1 234.6121 3.5108 44.7324 0.0000 0.0000 0.0000
# 2 3.5108 67.8097 26.9678 0.0000 0.0000 0.0000
# 3 44.7324 26.9678 86.5400 0.0000 0.0000 0.0000
# 4 0.0000 0.0000 0.0000 -156.0877 0.0000 0.0000
# 5 0.0000 0.0000 0.0000 0.0000 44.9657 0.0000
# 6 0.0000 0.0000 0.0000 0.0000 0.0000 -16.7161
#
#
#
# Elastic Compliance Matrix: (Units=1/GPa)
#
#
# Indices 1 2 3 4 5 6 
#
# 1 0.004770 0.000837 -0.002726 0.000000 0.000000 0.000000
# 2 0.000837 0.016980 -0.005724 0.000000 0.000000 0.000000
# 3 -0.002726 -0.005724 0.014748 0.000000 0.000000 0.000000
# 4 0.000000 0.000000 0.000000 -0.006407 0.000000 0.000000
# 5 0.000000 0.000000 0.000000 0.000000 0.022239 0.000000
# 6 0.000000 0.000000 0.000000 0.000000 0.000000 -0.059823
#
#
# Mechanical properties :
#
#
# Convention : Reuss Voigt Hill
#
# Bulk Modulus (GPa) = 47.01061 59.93153 53.47107
# Shear Modulus (GPa) = 337.25821 -4.65090 166.30365
#
# Velocity S-wave (km/s) = 12.16202 -1.42821 8.54034
# Velocity P-wave (km/s) = 14.75932 4.85438 10.98641
#
# Compressibility (1/GPa) = 0.02127180
#
# Stress axis : x y z
#
# Youngs Moduli (GPa) = 209.65922 58.89173 67.80401
#
# Poissons Ratio (x) = -0.04931 0.18486
# Poissons Ratio (y) = -0.17555 0.38813
# Poissons Ratio (z) = 0.57160 0.33711
#
# Static dielectric constant tensor:
#      x y z
#    x 2.011610 0.000000 0.000000 
#    y 0.000000 1.828380 0.000000 
#    z 0.000000 0.000000 1.917700 
# 
# From -- ./inp_files/1164.got.cif
#   From: 2010.05.17/outbox.cif.g08.bks.cpg/sg53_1_cif.got.tgz:1164.got - 2010.06.03 12:45:16.
