data_PCOD9419792
_publ_section_title
;
Structure prediction by ZEFSAII (Michael W. Deem and Ramdas Pophale) SiO2 
 PCOD9419792
Probable space group: P M N A
;
_chemical_formula_sum "Si O2"
_cell_formula_units_Z 56
_cell_length_a 18.965631
_cell_length_b 8.898580
_cell_length_c 16.829822
_cell_angle_alpha 90.000000
_cell_angle_beta 90.000000
_cell_angle_gamma 90.000000
_cell_volume 2840.321678
_symmetry_space_group_name_H-M "P M N A"
_symmetry_group_IT_number 53
_symmetry_cell_setting 'orthorhombic'
loop_
_space_group_symop_operation_xyz
x,y,z
1/2-x,-y,1/2+z
x,-y,-z
1/2-x,y,1/2-z
-x,-y,-z
1/2+x,y,1/2-z
-x,y,z
1/2+x,-y,1/2+z
loop_
_atom_site_type_symbol
_atom_site_label
_atom_site_fract_x
_atom_site_fract_y
_atom_site_fract_z
Si Si1 0.081721 0.426886 0.088188
Si Si2 0.421219 0.754602 0.020022
Si Si3 0.330421 0.944152 0.272123
Si Si4 0.162683 0.875459 0.935027
Si Si5 0.812122 0.371358 0.811846
Si Si6 0.921900 0.950628 0.631934
Si Si7 0.765592 0.666702 0.472902
O O1 0.106060 0.256081 0.075538
O O2 0.134744 0.504902 0.151737
O O3 0.000000 0.439113 0.113233
O O4 0.087309 0.500000 0.000000
O O5 0.500000 0.687485 0.029762
O O6 0.349746 0.667036 0.036644
O O7 0.418391 0.900282 0.077206
O O8 0.414274 0.814680 0.929786
O O9 0.250000 0.923098 0.250000
O O10 0.356462 0.771076 0.278744
O O11 0.332165 0.036743 0.352888
O O12 0.367444 0.034600 0.202116
O O13 0.234001 0.790645 0.966403
O O14 0.143481 0.000000 0.000000
O O15 0.750000 0.421769 0.750000
O O16 0.770625 0.306241 0.888393
O O17 0.000000 0.942711 0.667204
O O18 0.744792 0.500000 0.500000
#
# Coordination Sequence:
#
# PCOD9419792 Si02
#       7
#     8   8   8   8   8   8   8
#     4  11  23  45  68  90 127 172 215 259 323 393
#     4   9  19  36  61  89 121 165 206 251 315 384
#     4  11  22  35  61  96 121 157 209 265 312 371
#     4  12  23  40  65  93 126 161 218 268 322 376
#     4  11  22  41  63  95 128 162 211 264 316 384
#     4   9  19  37  59  87 124 159 200 252 314 374
#     4  12  22  40  63  87 123 166 209 260 316 382
#
# _framework density 19.716075
#
# number of rings (size 3 to 8) (size 9 to 14) (size 15 to 20)
#    0.000    1.286    4.286    3.429    2.000    2.286 
#    2.571    0.714    0.000    0.000    0.000    0.000 
#    0.000    0.000    0.000    0.000    0.000    0.000 
#
# Total GULP energy -312428.479676 kJ/mol
# GULP energy per Si atom -5579.079994 kJ/mol
# Density = 1.967120 g / cm^3
# Si number density = 19.716075 Si / 1000 Ang^3
#
#
#
# Elastic Constant Matrix: (Units=GPa)
#
#
# Indices 1 2 3 4 5 6 
#
# 1 110.7503 22.2758 22.9596 0.0000 0.0000 0.0000
# 2 22.2758 82.5124 19.4165 0.0000 0.0000 0.0000
# 3 22.9596 19.4165 89.4066 0.0000 0.0000 0.0000
# 4 0.0000 0.0000 0.0000 23.3868 0.0000 0.0000
# 5 0.0000 0.0000 0.0000 0.0000 27.5701 0.0000
# 6 0.0000 0.0000 0.0000 0.0000 0.0000 26.5678
#
#
#
# Elastic Compliance Matrix: (Units=1/GPa)
#
#
# Indices 1 2 3 4 5 6 
#
# 1 0.009897 -0.002186 -0.002067 0.000000 0.000000 0.000000
# 2 -0.002186 0.013255 -0.002317 0.000000 0.000000 0.000000
# 3 -0.002067 -0.002317 0.012219 0.000000 0.000000 0.000000
# 4 0.000000 0.000000 0.000000 0.042759 0.000000 0.000000
# 5 0.000000 0.000000 0.000000 0.000000 0.036271 0.000000
# 6 0.000000 0.000000 0.000000 0.000000 0.000000 0.037640
#
#
# Mechanical properties :
#
#
# Convention : Reuss Voigt Hill
#
# Bulk Modulus (GPa) = 44.98162 45.77477 45.37819
# Shear Modulus (GPa) = 28.97020 30.03944 29.50482
#
# Velocity S-wave (km/s) = 3.83739 3.90757 3.87264
# Velocity P-wave (km/s) = 6.51908 6.60501 6.56218
#
# Compressibility (1/GPa) = 0.02223130
#
# Stress axis : x y z
#
# Youngs Moduli (GPa) = 101.03635 75.44483 81.84035
#
# Poissons Ratio (x) = 0.16489 0.16916
# Poissons Ratio (y) = 0.22082 0.18965
# Poissons Ratio (z) = 0.20884 0.17483
#
# Static dielectric constant tensor:
#      x y z
#    x 1.712510 0.000000 0.000000 
#    y 0.000000 1.757650 0.000000 
#    z 0.000000 0.000000 1.715980 
# 
# From -- ./inp_files/24374.got.cif
#   From: 2010.05.17/outbox.cif.g08.bks.cpg/sg53_13_cif.got.tgz:24374.got - 2010.06.03 12:45:16.
