data_PCOD9419030
_publ_section_title
;
Structure prediction by ZEFSAII (Michael W. Deem and Ramdas Pophale) SiO2 
 PCOD9419030
Probable space group: P M N A
;
_chemical_formula_sum "Si O2"
_cell_formula_units_Z 48
_cell_length_a 10.100634
_cell_length_b 13.726795
_cell_length_c 17.691923
_cell_angle_alpha 90.000000
_cell_angle_beta 90.000000
_cell_angle_gamma 90.000000
_cell_volume 2452.973311
_symmetry_space_group_name_H-M "P M N A"
_symmetry_group_IT_number 53
_symmetry_cell_setting 'orthorhombic'
loop_
_space_group_symop_operation_xyz
x,y,z
1/2-x,-y,1/2+z
x,-y,-z
1/2-x,y,1/2-z
-x,-y,-z
1/2+x,y,1/2-z
-x,y,z
1/2+x,-y,1/2+z
loop_
_atom_site_type_symbol
_atom_site_label
_atom_site_fract_x
_atom_site_fract_y
_atom_site_fract_z
Si Si1 0.771635 0.780868 0.082261
Si Si2 0.500000 0.125765 0.867073
Si Si3 0.000000 0.858155 0.188840
Si Si4 0.844061 0.383309 0.178517
Si Si5 0.720890 0.194102 0.411576
Si Si6 0.000000 0.891458 0.636272
Si Si7 0.500000 0.089988 0.314775
Si Si8 0.656826 0.563121 0.426691
O O1 0.630934 0.829814 0.096514
O O2 0.872673 0.813887 0.147176
O O3 0.766211 0.663682 0.081256
O O4 0.818902 0.813511 0.999011
O O5 0.500000 0.155850 0.778697
O O6 0.500000 0.008412 0.875403
O O7 0.000000 0.974206 0.179322
O O8 0.750000 0.369005 0.250000
O O9 0.801313 0.304816 0.115579
O O10 0.829063 0.491107 0.144221
O O11 0.000000 0.367587 0.195711
O O12 0.869862 0.157678 0.398627
O O13 0.627538 0.131261 0.357321
O O14 0.000000 0.878370 0.727246
O O15 0.694996 0.500000 0.500000
O O16 0.500000 0.587643 0.435166
#
# Coordination Sequence:
#
# PCOD9419030 Si02
#       8
#     8   4   4   8   8   4   4   8
#     4  12  24  44  69  98 128 173 220 277 331 391
#     4  11  27  47  65  95 136 177 220 270 338 395
#     4  11  25  43  69  93 128 173 228 274 322 391
#     4  11  24  42  67  99 134 173 221 272 327 399
#     4  12  24  39  67  99 131 173 222 268 335 393
#     4  11  25  45  64  90 144 185 205 269 340 389
#     4  11  23  41  64  98 130 171 225 275 318 389
#     4  10  21  43  69  93 129 170 214 272 338 387
#
# _framework density 19.568089000000001
#
# number of rings (size 3 to 8) (size 9 to 14) (size 15 to 20)
#    0.000    0.833    3.333    4.000    1.167    8.000 
#    1.500    0.417    0.000    0.000    0.000    0.000 
#    0.000    0.000    0.000    0.000    0.000    0.000 
#
# Total GULP energy -268522.981172 kJ/mol
# GULP energy per Si atom -5594.228774 kJ/mol
# Density = 1.952355 g / cm^3
# Si number density = 19.568089 Si / 1000 Ang^3
#
#
#
# Elastic Constant Matrix: (Units=GPa)
#
#
# Indices 1 2 3 4 5 6 
#
# 1 91.6832 23.2838 5.7825 0.0000 0.0000 0.0000
# 2 23.2838 86.2375 26.8101 0.0000 0.0000 0.0000
# 3 5.7825 26.8101 78.7876 0.0000 0.0000 0.0000
# 4 0.0000 0.0000 0.0000 30.1982 0.0000 0.0000
# 5 0.0000 0.0000 0.0000 0.0000 25.7723 0.0000
# 6 0.0000 0.0000 0.0000 0.0000 0.0000 61.2166
#
#
#
# Elastic Compliance Matrix: (Units=1/GPa)
#
#
# Indices 1 2 3 4 5 6 
#
# 1 0.011714 -0.003238 0.000242 0.000000 0.000000 0.000000
# 2 -0.003238 0.013863 -0.004480 0.000000 0.000000 0.000000
# 3 0.000242 -0.004480 0.014199 0.000000 0.000000 0.000000
# 4 0.000000 0.000000 0.000000 0.033115 0.000000 0.000000
# 5 0.000000 0.000000 0.000000 0.000000 0.038801 0.000000
# 6 0.000000 0.000000 0.000000 0.000000 0.000000 0.016335
#
#
# Mechanical properties :
#
#
# Convention : Reuss Voigt Hill
#
# Bulk Modulus (GPa) = 40.28233 40.94010 40.61122
# Shear Modulus (GPa) = 33.05713 36.82622 34.94167
#
# Velocity S-wave (km/s) = 4.11462 4.34285 4.23027
# Velocity P-wave (km/s) = 6.57296 6.79076 6.68275
#
# Compressibility (1/GPa) = 0.02482478
#
# Stress axis : x y z
#
# Youngs Moduli (GPa) = 85.36657 72.13548 70.42790
#
# Poissons Ratio (x) = 0.23358 -0.01705
# Poissons Ratio (y) = 0.27642 0.31549
# Poissons Ratio (z) = -0.02067 0.32314
#
# Static dielectric constant tensor:
#      x y z
#    x 1.498480 0.000000 0.000000 
#    y 0.000000 1.670870 0.000000 
#    z 0.000000 0.000000 1.673730 
# 
# From -- ./inp_files/26367.got.cif
#   From: 2010.05.17/outbox.cif.g08.bks.cpg/sg53_14_cif.got.tgz:26367.got - 2010.06.03 12:45:16.
