data_PCOD9419346
_publ_section_title
;
Structure prediction by ZEFSAII (Michael W. Deem and Ramdas Pophale) SiO2 
 PCOD9419346
Probable space group: P M N A
;
_chemical_formula_sum "Si O2"
_cell_formula_units_Z 22
_cell_length_a 14.910856
_cell_length_b 13.339577
_cell_length_c 5.193341
_cell_angle_alpha 90.000000
_cell_angle_beta 90.000000
_cell_angle_gamma 90.000000
_cell_volume 1032.978956
_symmetry_space_group_name_H-M "P M N A"
_symmetry_group_IT_number 53
_symmetry_cell_setting 'orthorhombic'
loop_
_space_group_symop_operation_xyz
x,y,z
1/2-x,-y,1/2+z
x,-y,-z
1/2-x,y,1/2-z
-x,-y,-z
1/2+x,y,1/2-z
-x,y,z
1/2+x,-y,1/2+z
loop_
_atom_site_type_symbol
_atom_site_label
_atom_site_fract_x
_atom_site_fract_y
_atom_site_fract_z
Si Si1 0.500000 0.930490 0.248922
Si Si2 0.855008 0.241555 0.766200
Si Si3 0.855429 0.623982 0.732530
Si Si4 0.000000 0.500000 0.000000
O O1 0.584984 0.856480 0.245910
O O2 0.500000 0.000000 0.500000
O O3 0.500000 0.000000 0.000000
O O4 0.750000 0.216528 0.750000
O O5 0.873672 0.318457 0.533297
O O6 0.873417 0.297237 0.034989
O O7 0.750000 0.595788 0.750000
O O8 0.921190 0.534319 0.795214
#
# Coordination Sequence:
#
# PCOD9419346 Si02
#       4
#     4   8   8   2
#     4  12  24  37  62  95 120 151 208 265 314 384
#     4  10  22  43  62  84 125 168 204 252 319 384
#     4  10  23  40  63  91 124 169 214 256 314 388
#     4  12  24  40  68  96 132 166 212 280 324 360
#
# _framework density 21.297625
#
# number of rings (size 3 to 8) (size 9 to 14) (size 15 to 20)
#    0.000    1.455    0.000    4.364    0.000    8.727 
#    0.000    0.000    0.000    0.000    0.000    0.000 
#    0.000    0.000    0.000    0.000    0.000    0.000 
#
# Total GULP energy -122702.567238 kJ/mol
# GULP energy per Si atom -5577.389420 kJ/mol
# Density = 2.124915 g / cm^3
# Si number density = 21.297625 Si / 1000 Ang^3
#
#
#
# Elastic Constant Matrix: (Units=GPa)
#
#
# Indices 1 2 3 4 5 6 
#
# 1 105.5389 79.1464 83.4579 0.0000 0.0000 0.0000
# 2 79.1464 103.8550 80.7302 0.0000 0.0000 0.0000
# 3 83.4579 80.7302 139.7321 0.0000 0.0000 0.0000
# 4 0.0000 0.0000 0.0000 40.4120 0.0000 0.0000
# 5 0.0000 0.0000 0.0000 0.0000 28.8605 0.0000
# 6 0.0000 0.0000 0.0000 0.0000 0.0000 6.8983
#
#
#
# Elastic Compliance Matrix: (Units=1/GPa)
#
#
# Indices 1 2 3 4 5 6 
#
# 1 0.025659 -0.013871 -0.007312 0.000000 0.000000 0.000000
# 2 -0.013871 0.024977 -0.006146 0.000000 0.000000 0.000000
# 3 -0.007312 -0.006146 0.015074 0.000000 0.000000 0.000000
# 4 0.000000 0.000000 0.000000 0.024745 0.000000 0.000000
# 5 0.000000 0.000000 0.000000 0.000000 0.034649 0.000000
# 6 0.000000 0.000000 0.000000 0.000000 0.000000 0.144962
#
#
# Mechanical properties :
#
#
# Convention : Reuss Voigt Hill
#
# Bulk Modulus (GPa) = 90.46569 92.86613 91.66591
# Shear Modulus (GPa) = 15.22495 22.28695 18.75595
#
# Velocity S-wave (km/s) = 2.67660 3.23840 2.97081
# Velocity P-wave (km/s) = 7.21951 7.59484 7.40955
#
# Compressibility (1/GPa) = 0.01105391
#
# Stress axis : x y z
#
# Youngs Moduli (GPa) = 38.97237 40.03690 66.33855
#
# Poissons Ratio (x) = 0.55535 0.48504
# Poissons Ratio (y) = 0.54059 0.40770
# Poissons Ratio (z) = 0.28495 0.24605
#
# Static dielectric constant tensor:
#      x y z
#    x 1.789150 0.000000 0.000000 
#    y 0.000000 1.752180 0.000000 
#    z 0.000000 0.000000 1.794780 
# 
# From -- ./inp_files/1002.got.cif
#   From: 2010.05.17/outbox.cif.g08.bks.cpg/sg53_1_cif.got.tgz:1002.got - 2010.06.03 12:45:16.
