data_PCOD9419964
_publ_section_title
;
Structure prediction by ZEFSAII (Michael W. Deem and Ramdas Pophale) SiO2 
 PCOD9419964
Probable space group: P M N A
;
_chemical_formula_sum "Si O2"
_cell_formula_units_Z 32
_cell_length_a 10.159057
_cell_length_b 13.010065
_cell_length_c 12.378435
_cell_angle_alpha 90.000000
_cell_angle_beta 90.000000
_cell_angle_gamma 90.000000
_cell_volume 1636.057654
_symmetry_space_group_name_H-M "P M N A"
_symmetry_group_IT_number 53
_symmetry_cell_setting 'orthorhombic'
loop_
_space_group_symop_operation_xyz
x,y,z
1/2-x,-y,1/2+z
x,-y,-z
1/2-x,y,1/2-z
-x,-y,-z
1/2+x,y,1/2-z
-x,y,z
1/2+x,-y,1/2+z
loop_
_atom_site_type_symbol
_atom_site_label
_atom_site_fract_x
_atom_site_fract_y
_atom_site_fract_z
Si Si1 0.000000 0.877757 0.482041
Si Si2 0.500000 0.952832 0.379876
Si Si3 0.750000 0.291204 0.250000
Si Si4 0.156004 0.385148 0.041388
Si Si5 0.500000 0.154150 0.234748
Si Si6 0.235639 0.209032 0.872876
O O1 0.871242 0.837618 0.419601
O O2 0.000000 0.840549 0.605396
O O3 0.000000 0.000000 0.500000
O O4 0.372040 0.881598 0.369714
O O5 0.500000 0.000000 0.500000
O O6 0.500000 0.042132 0.289480
O O7 0.748498 0.360601 0.356452
O O8 0.628128 0.215894 0.269503
O O9 0.000000 0.378744 0.069913
O O10 0.180164 0.500000 0.000000
O O11 0.186734 0.299889 0.950731
O O12 0.250000 0.246639 0.750000
#
# Coordination Sequence:
#
# PCOD9419964 Si02
#       6
#     4   4   4   8   4   8
#     4  12  26  42  64 101 138 183 232 287 342 407
#     4  12  26  42  68  98 139 196 230 278 349 422
#     4  12  24  48  70 106 136 180 236 288 342 420
#     4  11  25  47  74 102 138 187 232 290 359 413
#     4  12  26  42  70  99 142 183 234 287 346 416
#     4  12  25  45  65 102 141 181 233 286 347 412
#
# _framework density 19.559211999999999
#
# number of rings (size 3 to 8) (size 9 to 14) (size 15 to 20)
#    0.000    0.250    5.000    4.500    7.000    0.000 
#    0.000    2.500    0.000    0.000    0.000    0.000 
#    0.000    0.000    0.000    0.000    0.000    0.000 
#
# Total GULP energy -178973.882587 kJ/mol
# GULP energy per Si atom -5592.933831 kJ/mol
# Density = 1.951469 g / cm^3
# Si number density = 19.559212 Si / 1000 Ang^3
#
#
#
# Elastic Constant Matrix: (Units=GPa)
#
#
# Indices 1 2 3 4 5 6 
#
# 1 114.7137 60.1171 10.9978 0.0000 0.0000 0.0000
# 2 60.1171 142.0472 50.5817 0.0000 0.0000 0.0000
# 3 10.9978 50.5817 134.2465 0.0000 0.0000 0.0000
# 4 0.0000 0.0000 0.0000 35.8324 0.0000 0.0000
# 5 0.0000 0.0000 0.0000 0.0000 3.9902 0.0000
# 6 0.0000 0.0000 0.0000 0.0000 0.0000 18.8532
#
#
#
# Elastic Compliance Matrix: (Units=1/GPa)
#
#
# Indices 1 2 3 4 5 6 
#
# 1 0.011320 -0.005152 0.001014 0.000000 0.000000 0.000000
# 2 -0.005152 0.010475 -0.003525 0.000000 0.000000 0.000000
# 3 0.001014 -0.003525 0.008694 0.000000 0.000000 0.000000
# 4 0.000000 0.000000 0.000000 0.027908 0.000000 0.000000
# 5 0.000000 0.000000 0.000000 0.000000 0.250612 0.000000
# 6 0.000000 0.000000 0.000000 0.000000 0.000000 0.053041
#
#
# Mechanical properties :
#
#
# Convention : Reuss Voigt Hill
#
# Bulk Modulus (GPa) = 65.94757 70.48895 68.21826
# Shear Modulus (GPa) = 13.07424 29.68922 21.38173
#
# Velocity S-wave (km/s) = 2.58823 3.90027 3.30991
# Velocity P-wave (km/s) = 6.53621 7.50998 7.03995
#
# Compressibility (1/GPa) = 0.01516356
#
# Stress axis : x y z
#
# Youngs Moduli (GPa) = 88.33876 95.46103 115.02102
#
# Poissons Ratio (x) = 0.49180 -0.11660
# Poissons Ratio (y) = 0.45511 0.40544
# Poissons Ratio (z) = -0.08955 0.33649
#
# Static dielectric constant tensor:
#      x y z
#    x 1.703900 0.000000 0.000000 
#    y 0.000000 1.656760 0.000000 
#    z 0.000000 0.000000 1.740770 
# 
# From -- ./inp_files/13754.got.cif
#   From: 2010.05.17/outbox.cif.g08.bks.cpg/sg53_7_cif.got.tgz:13754.got - 2010.06.03 12:45:16.
