data_PCOD9419849
_publ_section_title
;
Structure prediction by ZEFSAII (Michael W. Deem and Ramdas Pophale) SiO2 
 PCOD9419849
Probable space group: P M N A
;
_chemical_formula_sum "Si O2"
_cell_formula_units_Z 32
_cell_length_a 11.825556
_cell_length_b 6.577607
_cell_length_c 19.328222
_cell_angle_alpha 90.000000
_cell_angle_beta 90.000000
_cell_angle_gamma 90.000000
_cell_volume 1503.423713
_symmetry_space_group_name_H-M "P M N A"
_symmetry_group_IT_number 53
_symmetry_cell_setting 'orthorhombic'
loop_
_space_group_symop_operation_xyz
x,y,z
1/2-x,-y,1/2+z
x,-y,-z
1/2-x,y,1/2-z
-x,-y,-z
1/2+x,y,1/2-z
-x,y,z
1/2+x,-y,1/2+z
loop_
_atom_site_type_symbol
_atom_site_label
_atom_site_fract_x
_atom_site_fract_y
_atom_site_fract_z
Si Si1 0.679268 0.456927 0.879424
Si Si2 0.000000 0.756246 0.681463
Si Si3 0.178003 0.500000 0.000000
Si Si4 0.000000 0.874906 0.427837
Si Si5 0.000000 0.181184 0.945434
Si Si6 0.750000 0.223795 0.750000
Si Si7 0.000000 0.950424 0.214383
O O1 0.604024 0.616903 0.838809
O O2 0.745465 0.578991 0.937873
O O3 0.605592 0.279774 0.917052
O O4 0.751636 0.349777 0.820640
O O5 0.000000 0.956271 0.632833
O O6 0.000000 0.815421 0.761804
O O7 0.105391 0.675168 0.035676
O O8 0.000000 0.000000 0.500000
O O9 0.000000 0.102507 0.866667
O O10 0.000000 0.000000 0.000000
O O11 0.623058 0.121397 0.746352
#
# Coordination Sequence:
#
# PCOD9419849 Si02
#       7
#     8   4   4   4   4   4   4
#     4  11  24  43  71 107 143 193 247 305 377 450
#     4  11  24  43  73 110 137 194 254 303 380 441
#     4  11  24  45  70 102 148 195 240 305 378 451
#     4  11  22  42  68 103 150 182 237 310 367 437
#     4  11  27  46  69 102 145 198 251 302 376 455
#     4  12  24  48  74 100 152 194 242 318 370 444
#     4  12  25  50  74 104 150 195 248 313 376 439
#
# _framework density 21.284749000000001
#
# number of rings (size 3 to 8) (size 9 to 14) (size 15 to 20)
#    0.000    0.750    5.000    2.250    0.000   10.000 
#    0.000    0.000    0.000    0.000    0.000    0.000 
#    0.000    0.000    0.000    0.000    0.000    0.000 
#
# Total GULP energy -178439.657129 kJ/mol
# GULP energy per Si atom -5576.239285 kJ/mol
# Density = 2.123630 g / cm^3
# Si number density = 21.284749 Si / 1000 Ang^3
#
#
#
# Elastic Constant Matrix: (Units=GPa)
#
#
# Indices 1 2 3 4 5 6 
#
# 1 95.7328 27.9054 38.6768 0.0000 0.0000 0.0000
# 2 27.9054 90.6023 48.7553 0.0000 0.0000 0.0000
# 3 38.6768 48.7553 154.1280 0.0000 0.0000 0.0000
# 4 0.0000 0.0000 0.0000 51.8207 0.0000 0.0000
# 5 0.0000 0.0000 0.0000 0.0000 46.9761 0.0000
# 6 0.0000 0.0000 0.0000 0.0000 0.0000 -18.9195
#
#
#
# Elastic Compliance Matrix: (Units=1/GPa)
#
#
# Indices 1 2 3 4 5 6 
#
# 1 0.012083 -0.002519 -0.002235 0.000000 0.000000 0.000000
# 2 -0.002519 0.013826 -0.003742 0.000000 0.000000 0.000000
# 3 -0.002235 -0.003742 0.008233 0.000000 0.000000 0.000000
# 4 0.000000 0.000000 0.000000 0.019297 0.000000 0.000000
# 5 0.000000 0.000000 0.000000 0.000000 0.021287 0.000000
# 6 0.000000 0.000000 0.000000 0.000000 0.000000 -0.052855
#
#
# Mechanical properties :
#
#
# Convention : Reuss Voigt Hill
#
# Bulk Modulus (GPa) = 58.30662 63.45981 60.88322
# Shear Modulus (GPa) = 112.15828 30.98383 71.57105
#
# Velocity S-wave (km/s) = 7.26695 3.81948 5.80504
# Velocity P-wave (km/s) = 9.89265 7.02358 8.57890
#
# Compressibility (1/GPa) = 0.01715071
#
# Stress axis : x y z
#
# Youngs Moduli (GPa) = 82.76079 72.32493 121.46717
#
# Poissons Ratio (x) = 0.18216 0.27153
# Poissons Ratio (y) = 0.20844 0.45449
# Poissons Ratio (z) = 0.18500 0.27062
#
# Static dielectric constant tensor:
#      x y z
#    x 2.148760 0.000000 0.000000 
#    y 0.000000 1.803180 0.000000 
#    z 0.000000 0.000000 1.791270 
# 
# From -- ./inp_files/27941.got.cif
#   From: 2010.05.17/outbox.cif.g08.bks.cpg/sg53_14_cif.got.tgz:27941.got - 2010.06.03 12:45:16.
