data_PCOD9419420
_publ_section_title
;
Structure prediction by ZEFSAII (Michael W. Deem and Ramdas Pophale) SiO2 
 PCOD9419420
Probable space group: P M N A
;
_chemical_formula_sum "Si O2"
_cell_formula_units_Z 48
_cell_length_a 31.891032
_cell_length_b 7.613320
_cell_length_c 10.091662
_cell_angle_alpha 90.000000
_cell_angle_beta 90.000000
_cell_angle_gamma 90.000000
_cell_volume 2450.221542
_symmetry_space_group_name_H-M "P M N A"
_symmetry_group_IT_number 53
_symmetry_cell_setting 'orthorhombic'
loop_
_space_group_symop_operation_xyz
x,y,z
1/2-x,-y,1/2+z
x,-y,-z
1/2-x,y,1/2-z
-x,-y,-z
1/2+x,y,1/2-z
-x,y,z
1/2+x,-y,1/2+z
loop_
_atom_site_type_symbol
_atom_site_label
_atom_site_fract_x
_atom_site_fract_y
_atom_site_fract_z
Si Si1 0.883688 0.270104 0.728723
Si Si2 0.451321 0.012659 0.159136
Si Si3 0.348174 0.788072 0.510176
Si Si4 0.898169 0.324714 0.257008
Si Si5 0.832750 0.705400 0.523004
Si Si6 0.242322 0.167344 0.095113
O O1 0.901725 0.468049 0.712470
O O2 0.853084 0.213127 0.608380
O O3 0.920948 0.128634 0.729218
O O4 0.856432 0.276007 0.861975
O O5 0.500000 0.978056 0.187164
O O6 0.437883 0.206702 0.206204
O O7 0.445156 0.000000 0.000000
O O8 0.383132 0.710926 0.608001
O O9 0.302409 0.740018 0.569580
O O10 0.351516 0.000000 0.500000
O O11 0.860767 0.248680 0.350164
O O12 0.837891 0.500000 0.500000
O O13 0.784204 0.737382 0.547290
O O14 0.250000 0.125998 0.250000
O O15 0.239893 0.000000 0.000000
#
# Coordination Sequence:
#
# PCOD9419420 Si02
#       6
#     8   8   8   8   8   8
#     4  11  24  41  67  97 128 170 216 262 323 388
#     4  11  24  42  70 100 129 165 208 270 331 390
#     4  11  23  40  64  94 130 174 216 263 320 375
#     4  11  22  43  66  95 129 169 213 263 320 387
#     4  10  23  40  62  87 124 172 213 263 311 372
#     4  11  25  39  60  92 127 169 220 265 311 370
#
# _framework density 19.590066
#
# number of rings (size 3 to 8) (size 9 to 14) (size 15 to 20)
#    0.000    1.167    5.000    0.500    7.000    2.000 
#    0.000    3.333    0.000    2.000    0.000    0.000 
#    0.000    0.000    0.000    0.000    0.000    0.000 
#
# Total GULP energy -267977.902759 kJ/mol
# GULP energy per Si atom -5582.872974 kJ/mol
# Density = 1.954548 g / cm^3
# Si number density = 19.590066 Si / 1000 Ang^3
#
#
#
# Elastic Constant Matrix: (Units=GPa)
#
#
# Indices 1 2 3 4 5 6 
#
# 1 86.2239 14.3729 29.5391 0.0000 0.0000 0.0000
# 2 14.3729 71.0734 4.3501 0.0000 0.0000 0.0000
# 3 29.5391 4.3501 106.0874 0.0000 0.0000 0.0000
# 4 0.0000 0.0000 0.0000 24.5527 0.0000 0.0000
# 5 0.0000 0.0000 0.0000 0.0000 132.7647 0.0000
# 6 0.0000 0.0000 0.0000 0.0000 0.0000 -35.7640
#
#
#
# Elastic Compliance Matrix: (Units=1/GPa)
#
#
# Indices 1 2 3 4 5 6 
#
# 1 0.013235 -0.002457 -0.003584 0.000000 0.000000 0.000000
# 2 -0.002457 0.014562 0.000087 0.000000 0.000000 0.000000
# 3 -0.003584 0.000087 0.010421 0.000000 0.000000 0.000000
# 4 0.000000 0.000000 0.000000 0.040729 0.000000 0.000000
# 5 0.000000 0.000000 0.000000 0.000000 0.007532 0.000000
# 6 0.000000 0.000000 0.000000 0.000000 0.000000 -0.027961
#
#
# Mechanical properties :
#
#
# Convention : Reuss Voigt Hill
#
# Bulk Modulus (GPa) = 38.01067 39.98988 39.00028
# Shear Modulus (GPa) = 63.13462 38.65219 50.89340
#
# Velocity S-wave (km/s) = 5.68312 4.44672 5.10251
# Velocity P-wave (km/s) = 7.90626 6.84267 7.39361
#
# Compressibility (1/GPa) = 0.02630840
#
# Stress axis : x y z
#
# Youngs Moduli (GPa) = 75.55551 68.67408 95.96292
#
# Poissons Ratio (x) = 0.16874 0.34398
# Poissons Ratio (y) = 0.18565 -0.00836
# Poissons Ratio (z) = 0.27083 -0.00598
#
# Static dielectric constant tensor:
#      x y z
#    x 1.691900 0.000000 0.000000 
#    y 0.000000 1.712490 0.000000 
#    z 0.000000 0.000000 1.691230 
# 
# From -- ./inp_files/13054.got.cif
#   From: 2010.05.17/outbox.cif.g08.bks.cpg/sg53_7_cif.got.tgz:13054.got - 2010.06.03 12:45:16.
