data_PCOD9419986
_publ_section_title
;
Structure prediction by ZEFSAII (Michael W. Deem and Ramdas Pophale) SiO2 
 PCOD9419986
Probable space group: P M N A
;
_chemical_formula_sum "Si O2"
_cell_formula_units_Z 48
_cell_length_a 16.028211
_cell_length_b 5.129602
_cell_length_c 30.112196
_cell_angle_alpha 90.000000
_cell_angle_beta 90.000000
_cell_angle_gamma 90.000000
_cell_volume 2475.774865
_symmetry_space_group_name_H-M "P M N A"
_symmetry_group_IT_number 53
_symmetry_cell_setting 'orthorhombic'
loop_
_space_group_symop_operation_xyz
x,y,z
1/2-x,-y,1/2+z
x,-y,-z
1/2-x,y,1/2-z
-x,-y,-z
1/2+x,y,1/2-z
-x,y,z
1/2+x,-y,1/2+z
loop_
_atom_site_type_symbol
_atom_site_label
_atom_site_fract_x
_atom_site_fract_y
_atom_site_fract_z
Si Si1 0.655119 0.208417 0.161268
Si Si2 0.098042 0.162384 0.813950
Si Si3 0.650582 0.340315 0.258506
Si Si4 0.191813 0.251103 0.527862
Si Si5 0.249252 0.711411 0.369940
Si Si6 0.000000 0.183585 0.548924
Si Si7 0.500000 0.316033 0.100054
O O1 0.618332 0.269982 0.209537
O O2 0.723044 0.425981 0.147209
O O3 0.582112 0.236689 0.125958
O O4 0.694862 0.923234 0.157415
O O5 0.117550 0.389909 0.778186
O O6 0.155884 0.228392 0.856287
O O7 0.000000 0.155648 0.823670
O O8 0.126866 0.890583 0.792079
O O9 0.750000 0.353514 0.250000
O O10 0.219252 0.500000 0.500000
O O11 0.225877 0.257078 0.578253
O O12 0.090462 0.249914 0.529330
O O13 0.218282 0.000000 0.500000
O O14 0.000000 0.376018 0.591637
O O15 0.000000 0.873827 0.557559
#
# Coordination Sequence:
#
# PCOD9419986 Si02
#       7
#     8   8   8   8   8   4   4
#     4  12  23  38  61  89 126 172 209 244 299 361
#     4  12  26  43  65  97 127 167 219 265 316 364
#     4  12  23  42  65  93 129 169 211 260 305 368
#     4  12  24  40  61  90 120 160 205 256 318 384
#     4  12  23  44  64  84 124 167 206 260 310 376
#     4  12  22  39  60  88 132 160 204 254 308 365
#     4  12  22  37  56  90 128 170 206 242 290 377
#
# _framework density 19.387871000000001
#
# number of rings (size 3 to 8) (size 9 to 14) (size 15 to 20)
#    0.000    0.000    6.667    4.500    2.333    0.000 
#    0.000    0.000    0.000    1.000    0.000    0.000 
#    0.000    0.000    0.000    0.000    0.000    0.000 
#
# Total GULP energy -268459.263269 kJ/mol
# GULP energy per Si atom -5592.901318 kJ/mol
# Density = 1.934374 g / cm^3
# Si number density = 19.387871 Si / 1000 Ang^3
#
#
#
# Elastic Constant Matrix: (Units=GPa)
#
#
# Indices 1 2 3 4 5 6 
#
# 1 110.0302 5.0497 18.7937 0.0000 0.0000 0.0000
# 2 5.0497 78.8034 13.5235 0.0000 0.0000 0.0000
# 3 18.7937 13.5235 95.7991 0.0000 0.0000 0.0000
# 4 0.0000 0.0000 0.0000 32.5028 0.0000 0.0000
# 5 0.0000 0.0000 0.0000 0.0000 40.5887 0.0000
# 6 0.0000 0.0000 0.0000 0.0000 0.0000 9.6264
#
#
#
# Elastic Compliance Matrix: (Units=1/GPa)
#
#
# Indices 1 2 3 4 5 6 
#
# 1 0.009410 -0.000293 -0.001805 0.000000 0.000000 0.000000
# 2 -0.000293 0.013014 -0.001780 0.000000 0.000000 0.000000
# 3 -0.001805 -0.001780 0.011044 0.000000 0.000000 0.000000
# 4 0.000000 0.000000 0.000000 0.030767 0.000000 0.000000
# 5 0.000000 0.000000 0.000000 0.000000 0.024637 0.000000
# 6 0.000000 0.000000 0.000000 0.000000 0.000000 0.103881
#
#
# Mechanical properties :
#
#
# Convention : Reuss Voigt Hill
#
# Bulk Modulus (GPa) = 38.89114 39.92961 39.41038
# Shear Modulus (GPa) = 23.91443 33.02797 28.47120
#
# Velocity S-wave (km/s) = 3.51589 4.13187 3.83627
# Velocity P-wave (km/s) = 6.04856 6.58810 6.32408
#
# Compressibility (1/GPa) = 0.02571280
#
# Stress axis : x y z
#
# Youngs Moduli (GPa) = 106.26863 76.84029 90.54889
#
# Poissons Ratio (x) = 0.02254 0.16341
# Poissons Ratio (y) = 0.03117 0.16114
# Poissons Ratio (z) = 0.19178 0.13674
#
# Static dielectric constant tensor:
#      x y z
#    x 1.674480 0.000000 0.000000 
#    y 0.000000 1.777970 0.000000 
#    z 0.000000 0.000000 1.723100 
# 
# From -- ./inp_files/38833.got.cif
#   From: 2010.05.17/outbox.cif.g08.bks.cpg/sg53_20_cif.got.tgz:38833.got - 2010.06.03 12:45:16.
