data_PCOD9419642
_publ_section_title
;
Structure prediction by ZEFSAII (Michael W. Deem and Ramdas Pophale) SiO2 
 PCOD9419642
Probable space group: P M N A
;
_chemical_formula_sum "Si O2"
_cell_formula_units_Z 52
_cell_length_a 7.778500
_cell_length_b 17.026662
_cell_length_c 16.796951
_cell_angle_alpha 90.000000
_cell_angle_beta 90.000000
_cell_angle_gamma 90.000000
_cell_volume 2224.619943
_symmetry_space_group_name_H-M "P M N A"
_symmetry_group_IT_number 53
_symmetry_cell_setting 'orthorhombic'
loop_
_space_group_symop_operation_xyz
x,y,z
1/2-x,-y,1/2+z
x,-y,-z
1/2-x,y,1/2-z
-x,-y,-z
1/2+x,y,1/2-z
-x,y,z
1/2+x,-y,1/2+z
loop_
_atom_site_type_symbol
_atom_site_label
_atom_site_fract_x
_atom_site_fract_y
_atom_site_fract_z
Si Si1 0.799915 0.994867 0.096432
Si Si2 0.806600 0.540100 0.101074
Si Si3 0.707187 0.169606 0.948034
Si Si4 0.500000 0.111330 0.161975
Si Si5 0.811005 0.784840 0.878483
Si Si6 0.193700 0.381524 0.433651
Si Si7 0.797366 0.306541 0.667436
O O1 0.792633 0.173415 0.034482
O O2 0.000000 0.014421 0.115892
O O3 0.767872 0.901979 0.106492
O O4 0.775388 0.000000 0.000000
O O5 0.698060 0.462097 0.116766
O O6 0.792702 0.609717 0.163390
O O7 0.000000 0.511380 0.094499
O O8 0.755813 0.584590 0.018908
O O9 0.500000 0.163343 0.960583
O O10 0.751319 0.250321 0.904644
O O11 0.655024 0.954651 0.858801
O O12 0.651942 0.179316 0.168366
O O13 0.792706 0.691818 0.896711
O O14 0.000000 0.801932 0.845959
O O15 0.000000 0.352732 0.445186
O O16 0.750000 0.266463 0.750000
O O17 0.000000 0.319564 0.661982
#
# Coordination Sequence:
#
# PCOD9419642 Si02
#       7
#     8   8   8   4   8   8   8
#     4  11  20  31  49  72 101 143 183 217 268 325
#     4  11  21  34  54  77 105 142 189 228 273 336
#     4  11  20  35  52  72 105 146 182 226 277 325
#     4  12  21  34  46  73 110 142 179 226 260 328
#     4  12  21  31  50  76 108 148 183 219 276 332
#     4  11  20  34  51  78 109 146 183 227 280 335
#     4  11  24  39  57  78 107 150 190 233 278 329
#
# _framework density 23.374779
#
# number of rings (size 3 to 8) (size 9 to 14) (size 15 to 20)
#    0.000    0.769    5.385    5.308    0.000    1.846 
#    0.000    0.000    0.000    0.000    0.000    0.000 
#    0.000    1.231    5.846    0.308    0.000    0.154 
#
# Total GULP energy -289689.403252 kJ/mol
# GULP energy per Si atom -5570.950063 kJ/mol
# Density = 2.332158 g / cm^3
# Si number density = 23.374779 Si / 1000 Ang^3
#
#
#
# Elastic Constant Matrix: (Units=GPa)
#
#
# Indices 1 2 3 4 5 6 
#
# 1 164.9353 33.6440 15.3316 0.0000 0.0000 0.0000
# 2 33.6440 156.9134 -1.5663 0.0000 0.0000 0.0000
# 3 15.3316 -1.5663 32.8133 0.0000 0.0000 0.0000
# 4 0.0000 0.0000 0.0000 -9.9986 0.0000 0.0000
# 5 0.0000 0.0000 0.0000 0.0000 18.4999 0.0000
# 6 0.0000 0.0000 0.0000 0.0000 0.0000 27.8896
#
#
#
# Elastic Compliance Matrix: (Units=1/GPa)
#
#
# Indices 1 2 3 4 5 6 
#
# 1 0.006656 -0.001459 -0.003180 0.000000 0.000000 0.000000
# 2 -0.001459 0.006696 0.001001 0.000000 0.000000 0.000000
# 3 -0.003180 0.001001 0.032009 0.000000 0.000000 0.000000
# 4 0.000000 0.000000 0.000000 -0.100014 0.000000 0.000000
# 5 0.000000 0.000000 0.000000 0.000000 0.054054 0.000000
# 6 0.000000 0.000000 0.000000 0.000000 0.000000 0.035856
#
#
# Mechanical properties :
#
#
# Convention : Reuss Voigt Hill
#
# Bulk Modulus (GPa) = 26.25618 49.94229 38.09924
# Shear Modulus (GPa) = 90.53621 27.76170 59.14895
#
# Velocity S-wave (km/s) = 6.23029 3.45001 5.03583
# Velocity P-wave (km/s) = 7.93804 6.10593 7.08148
#
# Compressibility (1/GPa) = 0.03808627
#
# Stress axis : x y z
#
# Youngs Moduli (GPa) = 150.23731 149.34867 31.24127
#
# Poissons Ratio (x) = 0.21788 0.09934
# Poissons Ratio (y) = 0.21918 -0.03128
# Poissons Ratio (z) = 0.47770 -0.14954
#
# Static dielectric constant tensor:
#      x y z
#    x 1.873900 0.000000 0.000000 
#    y 0.000000 1.933800 0.000000 
#    z 0.000000 0.000000 1.946650 
# 
# From -- ./inp_files/30654.got.cif
#   From: 2010.05.17/outbox.cif.g08.bks.cpg/sg53_16_cif.got.tgz:30654.got - 2010.06.03 12:45:16.
