data_PCOD9419966
_publ_section_title
;
Structure prediction by ZEFSAII (Michael W. Deem and Ramdas Pophale) SiO2 
 PCOD9419966
Probable space group: P M N A
;
_chemical_formula_sum "Si O2"
_cell_formula_units_Z 32
_cell_length_a 10.042995
_cell_length_b 13.203177
_cell_length_c 12.100223
_cell_angle_alpha 90.000000
_cell_angle_beta 90.000000
_cell_angle_gamma 90.000000
_cell_volume 1604.482801
_symmetry_space_group_name_H-M "P M N A"
_symmetry_group_IT_number 53
_symmetry_cell_setting 'orthorhombic'
loop_
_space_group_symop_operation_xyz
x,y,z
1/2-x,-y,1/2+z
x,-y,-z
1/2-x,y,1/2-z
-x,-y,-z
1/2+x,y,1/2-z
-x,y,z
1/2+x,-y,1/2+z
loop_
_atom_site_type_symbol
_atom_site_label
_atom_site_fract_x
_atom_site_fract_y
_atom_site_fract_z
Si Si1 0.000000 0.880832 0.490176
Si Si2 0.500000 0.941412 0.384909
Si Si3 0.750000 0.280885 0.250000
Si Si4 0.341615 0.382642 0.027340
Si Si5 0.500000 0.146914 0.251835
Si Si6 0.243657 0.213627 0.876885
O O1 0.000000 0.845567 0.618175
O O2 0.127276 0.844340 0.422616
O O3 0.000000 0.000000 0.500000
O O4 0.374643 0.866940 0.381961
O O5 0.500000 0.000000 0.500000
O O6 0.500000 0.030464 0.292586
O O7 0.808139 0.350110 0.347669
O O8 0.631724 0.206491 0.291265
O O9 0.500000 0.361918 0.005237
O O10 0.320340 0.500000 0.000000
O O11 0.245920 0.313341 0.952241
O O12 0.250000 0.245837 0.750000
#
# Coordination Sequence:
#
# PCOD9419966 Si02
#       6
#     4   4   4   8   4   8
#     4  12  24  44  66  95 136 197 232 267 350 427
#     4  12  28  40  64 106 145 180 228 294 339 410
#     4  12  22  48  72 108 134 184 238 290 342 422
#     4  11  25  48  75 101 138 188 233 291 360 419
#     4  12  26  44  72  99 146 187 234 285 350 426
#     4  12  24  45  65 102 138 180 230 285 346 411
#
# _framework density 19.944120000000002
#
# number of rings (size 3 to 8) (size 9 to 14) (size 15 to 20)
#    0.000    0.250    5.000    4.500    7.000    0.000 
#    0.000    2.500    0.000    0.000    0.000    0.000 
#    0.000    0.000    0.000    0.000    0.000    0.000 
#
# Total GULP energy -178889.099368 kJ/mol
# GULP energy per Si atom -5590.284355 kJ/mol
# Density = 1.989873 g / cm^3
# Si number density = 19.944120 Si / 1000 Ang^3
#
#
#
# Elastic Constant Matrix: (Units=GPa)
#
#
# Indices 1 2 3 4 5 6 
#
# 1 126.2605 59.8636 20.3375 0.0000 0.0000 0.0000
# 2 59.8636 170.6871 48.0506 0.0000 0.0000 0.0000
# 3 20.3375 48.0506 120.7058 0.0000 0.0000 0.0000
# 4 0.0000 0.0000 0.0000 38.3453 0.0000 0.0000
# 5 0.0000 0.0000 0.0000 0.0000 34.4752 0.0000
# 6 0.0000 0.0000 0.0000 0.0000 0.0000 32.4243
#
#
#
# Elastic Compliance Matrix: (Units=1/GPa)
#
#
# Indices 1 2 3 4 5 6 
#
# 1 0.009510 -0.003248 -0.000309 0.000000 0.000000 0.000000
# 2 -0.003248 0.007708 -0.002521 0.000000 0.000000 0.000000
# 3 -0.000309 -0.002521 0.009340 0.000000 0.000000 0.000000
# 4 0.000000 0.000000 0.000000 0.026079 0.000000 0.000000
# 5 0.000000 0.000000 0.000000 0.000000 0.029006 0.000000
# 6 0.000000 0.000000 0.000000 0.000000 0.000000 0.030841
#
#
# Mechanical properties :
#
#
# Convention : Reuss Voigt Hill
#
# Bulk Modulus (GPa) = 69.44010 74.90632 72.17321
# Shear Modulus (GPa) = 38.62751 40.34242 39.48496
#
# Velocity S-wave (km/s) = 4.40567 4.50240 4.45430
# Velocity P-wave (km/s) = 7.79569 8.04167 7.91964
#
# Compressibility (1/GPa) = 0.01440090
#
# Stress axis : x y z
#
# Youngs Moduli (GPa) = 105.15167 129.74189 107.06359
#
# Poissons Ratio (x) = 0.42144 0.03311
# Poissons Ratio (y) = 0.34157 0.26990
# Poissons Ratio (z) = 0.03252 0.32707
#
# Static dielectric constant tensor:
#      x y z
#    x 1.692720 0.000000 0.000000 
#    y 0.000000 1.696480 0.000000 
#    z 0.000000 0.000000 1.713710 
# 
# From -- ./inp_files/13830.got.cif
#   From: 2010.05.17/outbox.cif.g08.bks.cpg/sg53_7_cif.got.tgz:13830.got - 2010.06.03 12:45:16.
