data_PCOD9419072
_publ_section_title
;
Structure prediction by ZEFSAII (Michael W. Deem and Ramdas Pophale) SiO2 
 PCOD9419072
Probable space group: P M N A
;
_chemical_formula_sum "Si O2"
_cell_formula_units_Z 40
_cell_length_a 8.396310
_cell_length_b 26.720717
_cell_length_c 9.309747
_cell_angle_alpha 90.000000
_cell_angle_beta 90.000000
_cell_angle_gamma 90.000000
_cell_volume 2088.692230
_symmetry_space_group_name_H-M "P M N A"
_symmetry_group_IT_number 53
_symmetry_cell_setting 'orthorhombic'
loop_
_space_group_symop_operation_xyz
x,y,z
1/2-x,-y,1/2+z
x,-y,-z
1/2-x,y,1/2-z
-x,-y,-z
1/2+x,y,1/2-z
-x,y,z
1/2+x,-y,1/2+z
loop_
_atom_site_type_symbol
_atom_site_label
_atom_site_fract_x
_atom_site_fract_y
_atom_site_fract_z
Si Si1 0.807486 0.841071 0.413723
Si Si2 0.307564 0.952045 0.087324
Si Si3 0.691033 0.549356 0.586399
Si Si4 0.690973 0.354103 0.913321
Si Si5 0.192604 0.744135 0.587264
O O1 0.750000 0.834234 0.250000
O O2 0.756536 0.896643 0.464360
O O3 0.751775 0.795769 0.513694
O O4 0.000000 0.840227 0.412008
O O5 0.250000 0.956344 0.250000
O O6 0.500000 0.952797 0.084399
O O7 0.248431 0.000000 0.000000
O O8 0.745741 0.500000 0.500000
O O9 0.750000 0.548568 0.750000
O O10 0.500000 0.549572 0.587447
O O11 0.750075 0.598404 0.503472
O O12 0.750000 0.356203 0.750000
O O13 0.500000 0.354392 0.912351
O O14 0.745524 0.303210 0.992088
O O15 0.250000 0.739615 0.750000
O O16 0.000000 0.744332 0.587467
#
# Coordination Sequence:
#
# PCOD9419072 Si02
#       5
#     8   8   8   8   8
#     4   9  18  34  53  74 102 136 175 217 263 315
#     4   9  18  32  50  73 102 135 172 216 263 313
#     4  11  24  41  62  88 118 151 187 228 273 322
#     4  11  23  39  60  85 113 146 185 227 273 325
#     4  10  22  37  54  79 109 141 177 220 269 320
#
# _framework density 19.150739000000002
#
# number of rings (size 3 to 8) (size 9 to 14) (size 15 to 20)
#    0.000    2.000    0.000    3.000    0.000    8.400 
#    0.000    0.000    0.000    0.000    0.000    0.000 
#    0.000    0.000    0.000    0.000    0.000    0.000 
#
# Total GULP energy -223399.660639 kJ/mol
# GULP energy per Si atom -5584.991516 kJ/mol
# Density = 1.910715 g / cm^3
# Si number density = 19.150739 Si / 1000 Ang^3
#
#
#
# Elastic Constant Matrix: (Units=GPa)
#
#
# Indices 1 2 3 4 5 6 
#
# 1 17.7873 33.1817 22.3952 0.0000 0.0000 0.0000
# 2 33.1817 225.0749 126.2306 0.0000 0.0000 0.0000
# 3 22.3952 126.2306 165.0616 0.0000 0.0000 0.0000
# 4 0.0000 0.0000 0.0000 42.6568 0.0000 0.0000
# 5 0.0000 0.0000 0.0000 0.0000 37.0192 0.0000
# 6 0.0000 0.0000 0.0000 0.0000 0.0000 486.0823
#
#
#
# Elastic Compliance Matrix: (Units=1/GPa)
#
#
# Indices 1 2 3 4 5 6 
#
# 1 0.078472 -0.009801 -0.003151 0.000000 0.000000 0.000000
# 2 -0.009801 0.009004 -0.005556 0.000000 0.000000 0.000000
# 3 -0.003151 -0.005556 0.010735 0.000000 0.000000 0.000000
# 4 0.000000 0.000000 0.000000 0.023443 0.000000 0.000000
# 5 0.000000 0.000000 0.000000 0.000000 0.027013 0.000000
# 6 0.000000 0.000000 0.000000 0.000000 0.000000 0.002057
#
#
# Mechanical properties :
#
#
# Convention : Reuss Voigt Hill
#
# Bulk Modulus (GPa) = 16.34168 85.72652 51.03410
# Shear Modulus (GPa) = 24.02251 128.22608 76.12430
#
# Velocity S-wave (km/s) = 3.54558 8.19155 6.31160
# Velocity P-wave (km/s) = 5.03123 11.59008 8.93429
#
# Compressibility (1/GPa) = 0.06119323
#
# Stress axis : x y z
#
# Youngs Moduli (GPa) = 12.74347 111.06324 93.15535
#
# Poissons Ratio (x) = 1.08857 0.29356
# Poissons Ratio (y) = 0.12490 0.51756
# Poissons Ratio (z) = 0.04016 0.61705
#
# Static dielectric constant tensor:
#      x y z
#    x 1.657070 0.000000 0.000000 
#    y 0.000000 1.687680 0.000000 
#    z 0.000000 0.000000 1.609180 
# 
# From -- ./inp_files/6253.got.cif
#   From: 2010.05.17/outbox.cif.g08.bks.cpg/sg53_4_cif.got.tgz:6253.got - 2010.06.03 12:45:16.
