data_PCOD9419772
_publ_section_title
;
Structure prediction by ZEFSAII (Michael W. Deem and Ramdas Pophale) SiO2 
 PCOD9419772
Probable space group: P M N A
;
_chemical_formula_sum "Si O2"
_cell_formula_units_Z 48
_cell_length_a 28.837250
_cell_length_b 8.671848
_cell_length_c 10.102513
_cell_angle_alpha 90.000000
_cell_angle_beta 90.000000
_cell_angle_gamma 90.000000
_cell_volume 2526.358144
_symmetry_space_group_name_H-M "P M N A"
_symmetry_group_IT_number 53
_symmetry_cell_setting 'orthorhombic'
loop_
_space_group_symop_operation_xyz
x,y,z
1/2-x,-y,1/2+z
x,-y,-z
1/2-x,y,1/2-z
-x,-y,-z
1/2+x,y,1/2-z
-x,y,z
1/2+x,-y,1/2+z
loop_
_atom_site_type_symbol
_atom_site_label
_atom_site_fract_x
_atom_site_fract_y
_atom_site_fract_z
Si Si1 0.647394 0.686910 0.005431
Si Si2 0.247359 0.344133 0.411049
Si Si3 0.157567 0.818691 0.975788
Si Si4 0.601238 0.318727 0.722214
Si Si5 0.500000 0.185986 0.664163
Si Si6 0.000000 0.180989 0.151758
Si Si7 0.095183 0.312175 0.251760
O O1 0.631065 0.735040 0.150507
O O2 0.648826 0.500000 0.000000
O O3 0.698208 0.732069 0.952342
O O4 0.608434 0.730916 0.900418
O O5 0.250794 0.500000 0.500000
O O6 0.250000 0.371254 0.250000
O O7 0.290417 0.241631 0.457500
O O8 0.130991 0.773819 0.842809
O O9 0.129146 0.735531 0.093132
O O10 0.156231 0.000000 0.000000
O O11 0.548307 0.255958 0.719179
O O12 0.599640 0.504440 0.728967
O O13 0.500000 0.211199 0.505620
O O14 0.500000 0.001437 0.679360
O O15 0.955199 0.257868 0.213166
#
# Coordination Sequence:
#
# PCOD9419772 Si02
#       7
#     8   8   8   8   4   4   8
#     4   9  22  41  64  95 127 157 209 273 315 362
#     4  11  23  43  70  97 127 166 216 265 313 371
#     4  12  25  41  61  93 132 169 208 260 318 378
#     4  11  23  41  68  94 123 166 220 262 314 379
#     4  11  23  40  59  94 133 167 204 266 323 384
#     4  11  23  38  63  92 131 165 208 266 323 382
#     4  11  21  41  67  94 120 165 214 265 312 371
#
# _framework density 18.999683000000001
#
# number of rings (size 3 to 8) (size 9 to 14) (size 15 to 20)
#    0.000    1.167    3.333    3.000    4.667    1.333 
#    3.000    6.667    0.000    0.000    0.000    0.000 
#    0.000    0.000    0.000    0.000    0.000    0.000 
#
# Total GULP energy -268060.389808 kJ/mol
# GULP energy per Si atom -5584.591454 kJ/mol
# Density = 1.895644 g / cm^3
# Si number density = 18.999683 Si / 1000 Ang^3
#
#
#
# Elastic Constant Matrix: (Units=GPa)
#
#
# Indices 1 2 3 4 5 6 
#
# 1 133.4331 31.9376 22.5295 0.0000 0.0000 0.0000
# 2 31.9376 51.4498 9.8967 0.0000 0.0000 0.0000
# 3 22.5295 9.8967 73.0142 0.0000 0.0000 0.0000
# 4 0.0000 0.0000 0.0000 -8.7711 0.0000 0.0000
# 5 0.0000 0.0000 0.0000 0.0000 1.0296 0.0000
# 6 0.0000 0.0000 0.0000 0.0000 0.0000 7.7057
#
#
#
# Elastic Compliance Matrix: (Units=1/GPa)
#
#
# Indices 1 2 3 4 5 6 
#
# 1 0.009105 -0.005248 -0.002098 0.000000 0.000000 0.000000
# 2 -0.005248 0.022982 -0.001496 0.000000 0.000000 0.000000
# 3 -0.002098 -0.001496 0.014546 0.000000 0.000000 0.000000
# 4 0.000000 0.000000 0.000000 -0.114011 0.000000 0.000000
# 5 0.000000 0.000000 0.000000 0.000000 0.971238 0.000000
# 6 0.000000 0.000000 0.000000 0.000000 0.000000 0.129774
#
#
# Mechanical properties :
#
#
# Convention : Reuss Voigt Hill
#
# Bulk Modulus (GPa) = 34.54355 42.95829 38.75092
# Shear Modulus (GPa) = 4.71268 12.89507 8.80388
#
# Velocity S-wave (km/s) = 1.57664 2.60801 2.15494
# Velocity P-wave (km/s) = 4.64058 5.63277 5.16057
#
# Compressibility (1/GPa) = 0.02894896
#
# Stress axis : x y z
#
# Youngs Moduli (GPa) = 109.83194 43.51229 68.74705
#
# Poissons Ratio (x) = 0.22836 0.14423
# Poissons Ratio (y) = 0.57643 0.10282
# Poissons Ratio (z) = 0.23043 0.06508
#
# Static dielectric constant tensor:
#      x y z
#    x 1.582390 0.000000 0.000000 
#    y 0.000000 1.644450 0.000000 
#    z 0.000000 0.000000 1.650510 
# 
# From -- ./inp_files/13089.got.cif
#   From: 2010.05.17/outbox.cif.g08.bks.cpg/sg53_7_cif.got.tgz:13089.got - 2010.06.03 12:45:16.
