data_PCOD9419584
_publ_section_title
;
Structure prediction by ZEFSAII (Michael W. Deem and Ramdas Pophale) SiO2 
 PCOD9419584
Probable space group: P M N A
;
_chemical_formula_sum "Si O2"
_cell_formula_units_Z 48
_cell_length_a 29.200491
_cell_length_b 8.280077
_cell_length_c 9.641202
_cell_angle_alpha 90.000000
_cell_angle_beta 90.000000
_cell_angle_gamma 90.000000
_cell_volume 2331.072129
_symmetry_space_group_name_H-M "P M N A"
_symmetry_group_IT_number 53
_symmetry_cell_setting 'orthorhombic'
loop_
_space_group_symop_operation_xyz
x,y,z
1/2-x,-y,1/2+z
x,-y,-z
1/2-x,y,1/2-z
-x,-y,-z
1/2+x,y,1/2-z
-x,y,z
1/2+x,-y,1/2+z
loop_
_atom_site_type_symbol
_atom_site_label
_atom_site_fract_x
_atom_site_fract_y
_atom_site_fract_z
Si Si1 0.906027 0.283214 0.742640
Si Si2 0.697918 0.000000 0.000000
Si Si3 0.166429 0.175098 0.934939
Si Si4 0.102721 0.637338 0.841893
Si Si5 0.250000 0.850119 0.250000
Si Si6 0.356324 0.330497 0.037333
Si Si7 0.500000 0.126630 0.701746
Si Si8 0.000000 0.222528 0.120350
O O1 0.871729 0.156814 0.814606
O O2 0.901078 0.442498 0.838446
O O3 0.892318 0.326490 0.587821
O O4 0.955490 0.209217 0.739633
O O5 0.725269 0.036609 0.860478
O O6 0.671445 0.833489 0.976696
O O7 0.211158 0.238519 0.847362
O O8 0.140673 0.281104 0.054962
O O9 0.177079 0.000000 0.000000
O O10 0.120764 0.672426 0.687132
O O11 0.049807 0.693821 0.861015
O O12 0.330294 0.500000 0.000000
O O13 0.500000 0.166500 0.538629
O O14 0.500000 0.935088 0.717126
#
# Coordination Sequence:
#
# PCOD9419584 Si02
#       8
#     8   4   8   8   4   8   4   4
#     4  11  23  43  68  97 140 180 225 282 344 403
#     4  12  24  48  72  97 138 183 224 300 354 412
#     4  12  23  42  67  96 130 173 230 280 342 414
#     4  11  24  42  69  99 139 185 221 283 343 405
#     4  12  26  42  72 104 128 176 240 286 356 420
#     4  10  25  45  69 102 141 183 227 277 350 420
#     4  11  23  38  63 102 135 180 223 287 323 409
#     4  11  23  38  63 104 137 172 239 267 331 412
#
# _framework density 20.591384000000001
#
# number of rings (size 3 to 8) (size 9 to 14) (size 15 to 20)
#    0.000    0.833    4.167    3.000    2.333    1.333 
#    0.000    5.833    0.000    0.000    0.000    0.000 
#    0.000    0.000    0.000    0.000    0.000    0.000 
#
# Total GULP energy -267500.813440 kJ/mol
# GULP energy per Si atom -5572.933613 kJ/mol
# Density = 2.054452 g / cm^3
# Si number density = 20.591384 Si / 1000 Ang^3
#
#
#
# Elastic Constant Matrix: (Units=GPa)
#
#
# Indices 1 2 3 4 5 6 
#
# 1 130.7104 50.4893 50.4519 0.0000 0.0000 0.0000
# 2 50.4893 81.9191 36.5573 0.0000 0.0000 0.0000
# 3 50.4519 36.5573 116.2905 0.0000 0.0000 0.0000
# 4 0.0000 0.0000 0.0000 24.0511 0.0000 0.0000
# 5 0.0000 0.0000 0.0000 0.0000 23.8339 0.0000
# 6 0.0000 0.0000 0.0000 0.0000 0.0000 -388.6438
#
#
#
# Elastic Compliance Matrix: (Units=1/GPa)
#
#
# Indices 1 2 3 4 5 6 
#
# 1 0.010894 -0.005357 -0.003042 0.000000 0.000000 0.000000
# 2 -0.005357 0.016833 -0.002968 0.000000 0.000000 0.000000
# 3 -0.003042 -0.002968 0.010852 0.000000 0.000000 0.000000
# 4 0.000000 0.000000 0.000000 0.041578 0.000000 0.000000
# 5 0.000000 0.000000 0.000000 0.000000 0.041957 0.000000
# 6 0.000000 0.000000 0.000000 0.000000 0.000000 -0.002573
#
#
# Mechanical properties :
#
#
# Convention : Reuss Voigt Hill
#
# Bulk Modulus (GPa) = 63.10911 67.10189 65.10550
# Shear Modulus (GPa) = 33.88542 -55.39033 -10.75246
#
# Velocity S-wave (km/s) = 4.06101 -5.19212 -2.28761
# Velocity P-wave (km/s) = 7.25975 1.81276 4.97081
#
# Compressibility (1/GPa) = 0.01584557
#
# Stress axis : x y z
#
# Youngs Moduli (GPa) = 91.79483 59.40720 92.14889
#
# Poissons Ratio (x) = 0.31822 0.28035
# Poissons Ratio (y) = 0.49170 0.27347
# Poissons Ratio (z) = 0.27927 0.17631
#
# Static dielectric constant tensor:
#      x y z
#    x 1.767440 0.000000 0.000000 
#    y 0.000000 1.786110 0.000000 
#    z 0.000000 0.000000 1.747770 
# 
# From -- ./inp_files/13128.got.cif
#   From: 2010.05.17/outbox.cif.g08.bks.cpg/sg53_7_cif.got.tgz:13128.got - 2010.06.03 12:45:16.
