data_PCOD9419164
_publ_section_title
;
Structure prediction by ZEFSAII (Michael W. Deem and Ramdas Pophale) SiO2 
 PCOD9419164
Probable space group: P M N A
;
_chemical_formula_sum "Si O2"
_cell_formula_units_Z 56
_cell_length_a 14.979167
_cell_length_b 14.334199
_cell_length_c 11.870076
_cell_angle_alpha 90.000000
_cell_angle_beta 90.000000
_cell_angle_gamma 90.000000
_cell_volume 2548.675779
_symmetry_space_group_name_H-M "P M N A"
_symmetry_group_IT_number 53
_symmetry_cell_setting 'orthorhombic'
loop_
_space_group_symop_operation_xyz
x,y,z
1/2-x,-y,1/2+z
x,-y,-z
1/2-x,y,1/2-z
-x,-y,-z
1/2+x,y,1/2-z
-x,y,z
1/2+x,-y,1/2+z
loop_
_atom_site_type_symbol
_atom_site_label
_atom_site_fract_x
_atom_site_fract_y
_atom_site_fract_z
Si Si1 0.331068 0.154473 0.836437
Si Si2 0.740745 0.685669 0.876799
Si Si3 0.605270 0.642135 0.215553
Si Si4 0.397027 0.980329 0.723768
Si Si5 0.903450 0.545634 0.620611
Si Si6 0.731524 0.098243 0.086623
Si Si7 0.901942 0.388973 0.979391
O O1 0.250000 0.153579 0.750000
O O2 0.358416 0.263503 0.842036
O O3 0.398714 0.087503 0.768101
O O4 0.301462 0.106858 0.955783
O O5 0.750000 0.652496 0.750000
O O6 0.646121 0.641353 0.905313
O O7 0.749240 0.795181 0.883035
O O8 0.819360 0.646353 0.950905
O O9 0.500000 0.637209 0.186379
O O10 0.644666 0.540252 0.184490
O O11 0.611386 0.644153 0.350873
O O12 0.500000 0.951869 0.699139
O O13 0.350042 0.931566 0.832018
O O14 0.322776 0.957351 0.625298
O O15 0.914467 0.500000 0.500000
O O16 0.000000 0.563945 0.675812
O O17 0.000000 0.353485 0.015713
O O18 0.903621 0.500000 0.000000
#
# Coordination Sequence:
#
# PCOD9419164 Si02
#       7
#     8   8   8   8   8   8   8
#     4  12  24  42  75 103 144 182 232 302 361 434
#     4  12  23  39  64  94 131 177 234 275 347 422
#     4  10  22  42  66 103 140 181 240 289 353 425
#     4  11  25  48  74 100 138 189 240 300 376 438
#     4  10  22  39  60  93 138 179 222 280 336 410
#     4  11  25  48  68 105 143 179 243 304 359 435
#     4  10  22  41  65  96 141 187 231 289 348 416
#
# _framework density 21.972196
#
# number of rings (size 3 to 8) (size 9 to 14) (size 15 to 20)
#    0.000    1.143    2.857    3.857    0.000    6.286 
#    0.000    2.143    0.000    0.000    0.000    1.000 
#    0.000    0.000    0.000    0.000    0.000    0.000 
#
# Total GULP energy -312113.086624 kJ/mol
# GULP energy per Si atom -5573.447975 kJ/mol
# Density = 2.192219 g / cm^3
# Si number density = 21.972196 Si / 1000 Ang^3
#
#
#
# Elastic Constant Matrix: (Units=GPa)
#
#
# Indices 1 2 3 4 5 6 
#
# 1 120.9090 49.6206 32.0615 0.0000 0.0000 0.0000
# 2 49.6206 104.6209 24.9800 0.0000 0.0000 0.0000
# 3 32.0615 24.9800 99.7961 0.0000 0.0000 0.0000
# 4 0.0000 0.0000 0.0000 39.4440 0.0000 0.0000
# 5 0.0000 0.0000 0.0000 0.0000 -84.5370 0.0000
# 6 0.0000 0.0000 0.0000 0.0000 0.0000 40.0365
#
#
#
# Elastic Compliance Matrix: (Units=1/GPa)
#
#
# Indices 1 2 3 4 5 6 
#
# 1 0.010750 -0.004546 -0.002316 0.000000 0.000000 0.000000
# 2 -0.004546 0.012088 -0.001565 0.000000 0.000000 0.000000
# 3 -0.002316 -0.001565 0.011156 0.000000 0.000000 0.000000
# 4 0.000000 0.000000 0.000000 0.025352 0.000000 0.000000
# 5 0.000000 0.000000 0.000000 0.000000 -0.011829 0.000000
# 6 0.000000 0.000000 0.000000 0.000000 0.000000 0.024977
#
#
# Mechanical properties :
#
#
# Convention : Reuss Voigt Hill
#
# Bulk Modulus (GPa) = 58.34093 59.85001 59.09547
# Shear Modulus (GPa) = 52.59672 13.56628 33.08150
#
# Velocity S-wave (km/s) = 4.89794 2.48751 3.88443
# Velocity P-wave (km/s) = 7.65482 5.96225 6.86093
#
# Compressibility (1/GPa) = 0.01714062
#
# Stress axis : x y z
#
# Youngs Moduli (GPa) = 93.01990 82.72592 89.63558
#
# Poissons Ratio (x) = 0.37606 0.20759
# Poissons Ratio (y) = 0.42285 0.14031
# Poissons Ratio (z) = 0.21543 0.12949
#
# Static dielectric constant tensor:
#      x y z
#    x 1.708470 0.000000 0.000000 
#    y 0.000000 1.882800 0.000000 
#    z 0.000000 0.000000 1.852210 
# 
# From -- ./inp_files/16081.got.cif
#   From: 2010.05.17/outbox.cif.g08.bks.cpg/sg53_9_cif.got.tgz:16081.got - 2010.06.03 12:45:16.
