data_PCOD9419259
_publ_section_title
;
Structure prediction by ZEFSAII (Michael W. Deem and Ramdas Pophale) SiO2 
 PCOD9419259
Probable space group: P M N A
;
_chemical_formula_sum "Si O2"
_cell_formula_units_Z 32
_cell_length_a 14.152208
_cell_length_b 11.943439
_cell_length_c 9.141000
_cell_angle_alpha 90.000000
_cell_angle_beta 90.000000
_cell_angle_gamma 90.000000
_cell_volume 1545.066967
_symmetry_space_group_name_H-M "P M N A"
_symmetry_group_IT_number 53
_symmetry_cell_setting 'orthorhombic'
loop_
_space_group_symop_operation_xyz
x,y,z
1/2-x,-y,1/2+z
x,-y,-z
1/2-x,y,1/2-z
-x,-y,-z
1/2+x,y,1/2-z
-x,y,z
1/2+x,-y,1/2+z
loop_
_atom_site_type_symbol
_atom_site_label
_atom_site_fract_x
_atom_site_fract_y
_atom_site_fract_z
Si Si1 0.698634 0.268029 0.897417
Si Si2 0.500000 0.450127 0.226209
Si Si3 0.837742 0.500000 0.500000
Si Si4 0.000000 0.710182 0.250598
Si Si5 0.000000 0.227596 0.085907
Si Si6 0.694762 0.896415 0.606675
O O1 0.750000 0.233200 0.750000
O O2 0.720833 0.397885 0.934119
O O3 0.589532 0.263684 0.852075
O O4 0.735930 0.191655 0.026650
O O5 0.407557 0.446292 0.121675
O O6 0.500000 0.577236 0.284564
O O7 0.500000 0.351561 0.343458
O O8 0.000000 0.768452 0.092190
O O9 0.904926 0.164399 0.135380
O O10 0.750000 0.935096 0.750000
O O11 0.677194 0.000000 0.500000
#
# Coordination Sequence:
#
# PCOD9419259 Si02
#       6
#     8   4   4   4   4   8
#     4  11  22  42  65  98 137 180 222 279 334 403
#     4   9  19  37  61 100 138 176 217 273 333 416
#     4   9  20  36  62  97 144 178 216 267 342 411
#     4  10  22  40  69 100 140 179 216 278 338 407
#     4  12  23  43  72  99 137 175 232 282 344 395
#     4  12  28  48  71  98 134 175 234 289 341 405
#
# _framework density 20.711077
#
# number of rings (size 3 to 8) (size 9 to 14) (size 15 to 20)
#    0.000    1.250    2.500    3.750    0.000    6.000 
#    0.000    1.250    0.000    0.000    0.000    0.000 
#    0.000    0.000    0.000    0.000    0.000    0.000 
#
# Total GULP energy -178895.212835 kJ/mol
# GULP energy per Si atom -5590.475401 kJ/mol
# Density = 2.066394 g / cm^3
# Si number density = 20.711077 Si / 1000 Ang^3
#
#
#
# Elastic Constant Matrix: (Units=GPa)
#
#
# Indices 1 2 3 4 5 6 
#
# 1 112.1576 40.9179 16.4596 0.0000 0.0000 0.0000
# 2 40.9179 68.0252 7.1543 0.0000 0.0000 0.0000
# 3 16.4596 7.1543 54.4402 0.0000 0.0000 0.0000
# 4 0.0000 0.0000 0.0000 47.6540 0.0000 0.0000
# 5 0.0000 0.0000 0.0000 0.0000 -0.8046 0.0000
# 6 0.0000 0.0000 0.0000 0.0000 0.0000 18.6787
#
#
#
# Elastic Compliance Matrix: (Units=1/GPa)
#
#
# Indices 1 2 3 4 5 6 
#
# 1 0.011793 -0.006813 -0.002670 0.000000 0.000000 0.000000
# 2 -0.006813 0.018842 -0.000416 0.000000 0.000000 0.000000
# 3 -0.002670 -0.000416 0.019231 0.000000 0.000000 0.000000
# 4 0.000000 0.000000 0.000000 0.020985 0.000000 0.000000
# 5 0.000000 0.000000 0.000000 0.000000 -1.242846 0.000000
# 6 0.000000 0.000000 0.000000 0.000000 0.000000 0.053537
#
#
# Mechanical properties :
#
#
# Convention : Reuss Voigt Hill
#
# Bulk Modulus (GPa) = 33.25874 40.40961 36.83417
# Shear Modulus (GPa) = -4.59290 24.44503 9.92606
#
# Velocity S-wave (km/s) = -1.49078 3.43926 2.19158
# Velocity P-wave (km/s) = 3.62354 5.94347 4.92214
#
# Compressibility (1/GPa) = 0.03006729
#
# Stress axis : x y z
#
# Youngs Moduli (GPa) = 84.79262 53.07198 51.99977
#
# Poissons Ratio (x) = 0.36158 0.13886
# Poissons Ratio (y) = 0.57770 0.02165
# Poissons Ratio (z) = 0.22642 0.02209
#
# Static dielectric constant tensor:
#      x y z
#    x 1.130270 0.000000 0.000000 
#    y 0.000000 1.731920 0.000000 
#    z 0.000000 0.000000 1.737710 
# 
# From -- ./inp_files/8191.got.cif
#   From: 2010.05.17/outbox.cif.g08.bks.cpg/sg53_5_cif.got.tgz:8191.got - 2010.06.03 12:45:16.
