data_PCOD9419057
_publ_section_title
;
Structure prediction by ZEFSAII (Michael W. Deem and Ramdas Pophale) SiO2 
 PCOD9419057
Probable space group: P M N A
;
_chemical_formula_sum "Si O2"
_cell_formula_units_Z 64
_cell_length_a 20.274423
_cell_length_b 18.741153
_cell_length_c 9.228875
_cell_angle_alpha 90.000000
_cell_angle_beta 90.000000
_cell_angle_gamma 90.000000
_cell_volume 3506.659304
_symmetry_space_group_name_H-M "P M N A"
_symmetry_group_IT_number 53
_symmetry_cell_setting 'orthorhombic'
loop_
_space_group_symop_operation_xyz
x,y,z
1/2-x,-y,1/2+z
x,-y,-z
1/2-x,y,1/2-z
-x,-y,-z
1/2+x,y,1/2-z
-x,y,z
1/2+x,-y,1/2+z
loop_
_atom_site_type_symbol
_atom_site_label
_atom_site_fract_x
_atom_site_fract_y
_atom_site_fract_z
Si Si1 0.324056 0.869955 0.739798
Si Si2 0.139731 0.227311 0.977629
Si Si3 0.423961 0.006241 0.173536
Si Si4 0.077345 0.849197 0.291335
Si Si5 0.076680 0.658448 0.804980
Si Si6 0.626533 0.246853 0.047035
Si Si7 0.741592 0.671962 0.089097
Si Si8 0.801623 0.557782 0.874931
O O1 0.250000 0.898784 0.750000
O O2 0.342163 0.836992 0.584797
O O3 0.377739 0.928891 0.781014
O O4 0.328323 0.802125 0.848637
O O5 0.101695 0.198883 0.839404
O O6 0.206751 0.263578 0.923367
O O7 0.098171 0.286141 0.068052
O O8 0.500000 0.017311 0.224148
O O9 0.395127 0.929512 0.221230
O O10 0.426463 0.000000 0.000000
O O11 0.090842 0.809241 0.442538
O O12 0.000000 0.859361 0.281180
O O13 0.084913 0.703393 0.655688
O O14 0.131417 0.594873 0.812926
O O15 0.000000 0.636535 0.821278
O O16 0.669958 0.297715 0.945484
O O17 0.750000 0.641147 0.250000
O O18 0.761900 0.618475 0.962466
O O19 0.750000 0.533206 0.750000
O O20 0.817639 0.500000 0.000000
#
# Coordination Sequence:
#
# PCOD9419057 Si02
#       8
#     8   8   8   8   8   8   8   8
#     4  11  22  38  58  84 115 153 202 255 311 362
#     4  10  22  35  59  88 118 151 196 256 309 357
#     4  10  22  40  57  77 109 156 207 249 300 376
#     4  11  22  38  57  82 115 155 202 253 306 364
#     4  10  22  39  63  93 125 161 200 244 293 349
#     4  11  20  36  63  86 117 157 198 251 298 360
#     4  11  20  37  62  92 121 153 196 250 299 349
#     4  11  23  41  66  95 127 165 203 235 286 355
#
# _framework density 18.250989000000001
#
# number of rings (size 3 to 8) (size 9 to 14) (size 15 to 20)
#    0.000    1.375    5.000    1.125    0.000    3.250 
#    4.500    1.250    0.000    0.375    0.000    0.000 
#    0.000    0.000    0.000    0.000    0.000    0.000 
#
# Total GULP energy -356995.247505 kJ/mol
# GULP energy per Si atom -5578.050742 kJ/mol
# Density = 1.820945 g / cm^3
# Si number density = 18.250989 Si / 1000 Ang^3
#
#
#
# Elastic Constant Matrix: (Units=GPa)
#
#
# Indices 1 2 3 4 5 6 
#
# 1 94.6510 36.0103 25.0587 0.0000 0.0000 0.0000
# 2 36.0103 65.6586 8.0623 0.0000 0.0000 0.0000
# 3 25.0587 8.0623 79.1178 0.0000 0.0000 0.0000
# 4 0.0000 0.0000 0.0000 14.8537 0.0000 0.0000
# 5 0.0000 0.0000 0.0000 0.0000 21.9356 0.0000
# 6 0.0000 0.0000 0.0000 0.0000 0.0000 13.3089
#
#
#
# Elastic Compliance Matrix: (Units=1/GPa)
#
#
# Indices 1 2 3 4 5 6 
#
# 1 0.014399 -0.007430 -0.003803 0.000000 0.000000 0.000000
# 2 -0.007430 0.019257 0.000391 0.000000 0.000000 0.000000
# 3 -0.003803 0.000391 0.013804 0.000000 0.000000 0.000000
# 4 0.000000 0.000000 0.000000 0.067323 0.000000 0.000000
# 5 0.000000 0.000000 0.000000 0.000000 0.045588 0.000000
# 6 0.000000 0.000000 0.000000 0.000000 0.000000 0.075138
#
#
# Mechanical properties :
#
#
# Convention : Reuss Voigt Hill
#
# Bulk Modulus (GPa) = 38.79672 41.96558 40.38115
# Shear Modulus (GPa) = 18.81213 21.37270 20.09242
#
# Velocity S-wave (km/s) = 3.21401 3.42576 3.32157
# Velocity P-wave (km/s) = 5.92255 6.22023 6.07322
#
# Compressibility (1/GPa) = 0.02577537
#
# Stress axis : x y z
#
# Youngs Moduli (GPa) = 69.45008 51.92849 72.44187
#
# Poissons Ratio (x) = 0.38583 0.27552
# Poissons Ratio (y) = 0.51601 -0.02832
# Poissons Ratio (z) = 0.26414 -0.02030
#
# Static dielectric constant tensor:
#      x y z
#    x 1.621180 0.000000 0.000000 
#    y 0.000000 1.643140 0.000000 
#    z 0.000000 0.000000 1.638450 
# 
# From -- ./inp_files/11183.got.cif
#   From: 2010.05.17/outbox.cif.g08.bks.cpg/sg53_6_cif.got.tgz:11183.got - 2010.06.03 12:45:16.
