data_PCOD9419447
_publ_section_title
;
Structure prediction by ZEFSAII (Michael W. Deem and Ramdas Pophale) SiO2 
 PCOD9419447
Probable space group: P M N A
;
_chemical_formula_sum "Si O2"
_cell_formula_units_Z 56
_cell_length_a 30.770563
_cell_length_b 13.643052
_cell_length_c 5.698392
_cell_angle_alpha 90.000000
_cell_angle_beta 90.000000
_cell_angle_gamma 90.000000
_cell_volume 2392.209984
_symmetry_space_group_name_H-M "P M N A"
_symmetry_group_IT_number 53
_symmetry_cell_setting 'orthorhombic'
loop_
_space_group_symop_operation_xyz
x,y,z
1/2-x,-y,1/2+z
x,-y,-z
1/2-x,y,1/2-z
-x,-y,-z
1/2+x,y,1/2-z
-x,y,z
1/2+x,-y,1/2+z
loop_
_atom_site_type_symbol
_atom_site_label
_atom_site_fract_x
_atom_site_fract_y
_atom_site_fract_z
Si Si1 0.950653 0.533078 0.247582
Si Si2 0.200186 0.095972 0.661461
Si Si3 0.735230 0.387122 0.002950
Si Si4 0.453221 0.913735 0.810490
Si Si5 0.341722 0.720934 0.893118
Si Si6 0.624633 0.143410 0.490362
Si Si7 0.069226 0.746030 0.357366
O O1 0.931764 0.500000 0.500000
O O2 0.952757 0.650590 0.253606
O O3 0.000000 0.491014 0.245530
O O4 0.929722 0.500000 0.000000
O O5 0.250000 0.101340 0.750000
O O6 0.186567 0.191360 0.510776
O O7 0.195930 0.000000 0.500000
O O8 0.164114 0.094680 0.868049
O O9 0.750000 0.345896 0.750000
O O10 0.750420 0.500000 0.000000
O O11 0.750000 0.338704 0.250000
O O12 0.684295 0.376737 0.046555
O O13 0.500000 0.919511 0.677930
O O14 0.405368 0.917149 0.691051
O O15 0.454042 0.810469 0.947386
O O16 0.453475 0.000000 0.000000
O O17 0.353337 0.761998 0.636432
O O18 0.386951 0.710689 0.020564
O O19 0.586591 0.180987 0.659976
#
# Coordination Sequence:
#
# PCOD9419447 Si02
#       7
#     8   8   8   8   8   8   8
#     4  10  23  42  68 101 138 184 237 293 357 431
#     4  11  27  44  67 102 136 182 238 283 359 430
#     4  10  23  42  67  97 131 179 236 292 354 425
#     4  10  23  44  72 103 136 184 238 290 359 432
#     4  10  24  41  66  95 135 178 225 292 352 425
#     4  10  25  45  68 101 140 184 228 299 355 423
#     4  10  23  42  64 100 138 179 230 291 361 422
#
# _framework density 23.409316
#
# number of rings (size 3 to 8) (size 9 to 14) (size 15 to 20)
#    0.000    1.857    0.000    0.857   12.000    8.571 
#    0.000    1.429    0.000    0.429    0.000    0.000 
#    0.000    0.000    0.000    0.000    0.000    0.000 
#
# Total GULP energy -312353.412448 kJ/mol
# GULP energy per Si atom -5577.739508 kJ/mol
# Density = 2.335604 g / cm^3
# Si number density = 23.409316 Si / 1000 Ang^3
#
#
#
# Elastic Constant Matrix: (Units=GPa)
#
#
# Indices 1 2 3 4 5 6 
#
# 1 126.6024 16.6090 38.3829 0.0000 0.0000 0.0000
# 2 16.6090 65.4176 19.6337 0.0000 0.0000 0.0000
# 3 38.3829 19.6337 123.3269 0.0000 0.0000 0.0000
# 4 0.0000 0.0000 0.0000 9.6065 0.0000 0.0000
# 5 0.0000 0.0000 0.0000 0.0000 10.3544 0.0000
# 6 0.0000 0.0000 0.0000 0.0000 0.0000 6.0302
#
#
#
# Elastic Compliance Matrix: (Units=1/GPa)
#
#
# Indices 1 2 3 4 5 6 
#
# 1 0.008858 -0.001493 -0.002519 0.000000 0.000000 0.000000
# 2 -0.001493 0.016305 -0.002131 0.000000 0.000000 0.000000
# 3 -0.002519 -0.002131 0.009232 0.000000 0.000000 0.000000
# 4 0.000000 0.000000 0.000000 0.104096 0.000000 0.000000
# 5 0.000000 0.000000 0.000000 0.000000 0.096577 0.000000
# 6 0.000000 0.000000 0.000000 0.000000 0.000000 0.165833
#
#
# Mechanical properties :
#
#
# Convention : Reuss Voigt Hill
#
# Bulk Modulus (GPa) = 45.23129 51.62199 48.42664
# Shear Modulus (GPa) = 11.88897 21.24631 16.56764
#
# Velocity S-wave (km/s) = 2.25605 3.01591 2.66322
# Velocity P-wave (km/s) = 5.11373 5.85042 5.49443
#
# Compressibility (1/GPa) = 0.02210859
#
# Stress axis : x y z
#
# Youngs Moduli (GPa) = 112.88722 61.33059 108.32015
#
# Poissons Ratio (x) = 0.09156 0.27289
# Poissons Ratio (y) = 0.16854 0.23084
# Poissons Ratio (z) = 0.28440 0.13070
#
# Static dielectric constant tensor:
#      x y z
#    x 3.699140 0.000000 0.000000 
#    y 0.000000 1.911560 0.000000 
#    z 0.000000 0.000000 1.986610 
# 
# From -- ./inp_files/5364.got.cif
#   From: 2010.05.17/outbox.cif.g08.bks.cpg/sg53_3_cif.got.tgz:5364.got - 2010.06.03 12:45:16.
