data_PCOD9419219
_publ_section_title
;
Structure prediction by ZEFSAII (Michael W. Deem and Ramdas Pophale) SiO2 
 PCOD9419219
Probable space group: P M N A
;
_chemical_formula_sum "Si O2"
_cell_formula_units_Z 52
_cell_length_a 14.411175
_cell_length_b 19.406822
_cell_length_c 8.321063
_cell_angle_alpha 90.000000
_cell_angle_beta 90.000000
_cell_angle_gamma 90.000000
_cell_volume 2327.194193
_symmetry_space_group_name_H-M "P M N A"
_symmetry_group_IT_number 53
_symmetry_cell_setting 'orthorhombic'
loop_
_space_group_symop_operation_xyz
x,y,z
1/2-x,-y,1/2+z
x,-y,-z
1/2-x,y,1/2-z
-x,-y,-z
1/2+x,y,1/2-z
-x,y,z
1/2+x,-y,1/2+z
loop_
_atom_site_type_symbol
_atom_site_label
_atom_site_fract_x
_atom_site_fract_y
_atom_site_fract_z
Si Si1 0.750000 0.645521 0.750000
Si Si2 0.604291 0.295801 0.808617
Si Si3 0.886089 0.165983 0.835009
Si Si4 0.794363 0.568419 0.422673
Si Si5 0.106024 0.238258 0.339667
Si Si6 0.112767 0.897986 0.828349
Si Si7 0.386616 0.966936 0.167079
O O1 0.742749 0.601372 0.582405
O O2 0.835859 0.698602 0.732636
O O3 0.500000 0.310883 0.755469
O O4 0.649537 0.244025 0.680908
O O5 0.647381 0.367312 0.858651
O O6 0.603383 0.250061 0.969997
O O7 0.856169 0.110278 0.702939
O O8 0.000000 0.170432 0.829511
O O9 0.859582 0.131920 0.001535
O O10 0.839760 0.500000 0.500000
O O11 0.750000 0.545878 0.250000
O O12 0.140061 0.161555 0.297630
O O13 0.000000 0.243059 0.278992
O O14 0.000000 0.901593 0.823899
O O15 0.143129 0.975679 0.795978
O O16 0.500000 0.963897 0.167692
O O17 0.358455 0.000000 0.000000
#
# Coordination Sequence:
#
# PCOD9419219 Si02
#       7
#     4   8   8   8   8   8   8
#     4  10  22  40  62  90 118 154 194 242 296 356
#     4   9  19  35  56  83 113 147 189 239 293 354
#     4   9  16  26  42  71 108 141 185 241 288 339
#     4  11  23  41  64  86 115 151 191 237 298 368
#     4   9  18  34  56  82 115 151 193 241 292 348
#     4   9  16  25  42  71 106 146 190 239 288 334
#     4   9  15  23  38  63 101 147 191 235 285 337
#
# _framework density 22.344504000000001
#
# number of rings (size 3 to 8) (size 9 to 14) (size 15 to 20)
#    0.000    2.615    0.769    1.385    2.154    5.846 
#    0.000    0.000    0.000    0.923    2.000    0.000 
#    0.000    0.000    0.000    0.000    0.000    0.000 
#
# Total GULP energy -289866.364108 kJ/mol
# GULP energy per Si atom -5574.353156 kJ/mol
# Density = 2.229365 g / cm^3
# Si number density = 22.344504 Si / 1000 Ang^3
#
#
#
# Elastic Constant Matrix: (Units=GPa)
#
#
# Indices 1 2 3 4 5 6 
#
# 1 48.2914 9.2817 6.2391 0.0000 0.0000 0.0000
# 2 9.2817 167.7607 43.9757 0.0000 0.0000 0.0000
# 3 6.2391 43.9757 71.3979 0.0000 0.0000 0.0000
# 4 0.0000 0.0000 0.0000 50.9187 0.0000 0.0000
# 5 0.0000 0.0000 0.0000 0.0000 9.9281 0.0000
# 6 0.0000 0.0000 0.0000 0.0000 0.0000 16.5958
#
#
#
# Elastic Compliance Matrix: (Units=1/GPa)
#
#
# Indices 1 2 3 4 5 6 
#
# 1 0.021037 -0.000813 -0.001337 0.000000 0.000000 0.000000
# 2 -0.000813 0.007140 -0.004327 0.000000 0.000000 0.000000
# 3 -0.001337 -0.004327 0.016788 0.000000 0.000000 0.000000
# 4 0.000000 0.000000 0.000000 0.019639 0.000000 0.000000
# 5 0.000000 0.000000 0.000000 0.000000 0.100724 0.000000
# 6 0.000000 0.000000 0.000000 0.000000 0.000000 0.060256
#
#
# Mechanical properties :
#
#
# Convention : Reuss Voigt Hill
#
# Bulk Modulus (GPa) = 31.24034 45.16032 38.20033
# Shear Modulus (GPa) = 20.06350 30.68541 25.37446
#
# Velocity S-wave (km/s) = 2.99978 3.70981 3.37352
# Velocity P-wave (km/s) = 5.09998 6.21330 5.68396
#
# Compressibility (1/GPa) = 0.03200990
#
# Stress axis : x y z
#
# Youngs Moduli (GPa) = 47.53592 140.05542 59.56716
#
# Poissons Ratio (x) = 0.11391 0.07966
# Poissons Ratio (y) = 0.03866 0.25773
# Poissons Ratio (z) = 0.06357 0.60597
#
# Static dielectric constant tensor:
#      x y z
#    x 1.896210 0.000000 0.000000 
#    y 0.000000 1.813420 0.000000 
#    z 0.000000 0.000000 1.890470 
# 
# From -- ./inp_files/10134.got.cif
#   From: 2010.05.17/outbox.cif.g08.bks.cpg/sg53_6_cif.got.tgz:10134.got - 2010.06.03 12:45:16.
