data_PCOD9419168
_publ_section_title
;
Structure prediction by ZEFSAII (Michael W. Deem and Ramdas Pophale) SiO2 
 PCOD9419168
Probable space group: P M N A
;
_chemical_formula_sum "Si O2"
_cell_formula_units_Z 48
_cell_length_a 13.997664
_cell_length_b 5.277731
_cell_length_c 29.522953
_cell_angle_alpha 90.000000
_cell_angle_beta 90.000000
_cell_angle_gamma 90.000000
_cell_volume 2181.034878
_symmetry_space_group_name_H-M "P M N A"
_symmetry_group_IT_number 53
_symmetry_cell_setting 'orthorhombic'
loop_
_space_group_symop_operation_xyz
x,y,z
1/2-x,-y,1/2+z
x,-y,-z
1/2-x,y,1/2-z
-x,-y,-z
1/2+x,y,1/2-z
-x,y,z
1/2+x,-y,1/2+z
loop_
_atom_site_type_symbol
_atom_site_label
_atom_site_fract_x
_atom_site_fract_y
_atom_site_fract_z
Si Si1 0.244457 0.757477 0.527897
Si Si2 0.384783 0.275339 0.230130
Si Si3 0.115017 0.217986 0.678737
Si Si4 0.242370 0.559455 0.393281
Si Si5 0.392255 0.946667 0.422825
Si Si6 0.390294 0.723838 0.666040
O O1 0.234821 0.500000 0.500000
O O2 0.203285 0.675540 0.577168
O O3 0.205724 0.000000 0.500000
O O4 0.352299 0.838330 0.543183
O O5 0.500000 0.270202 0.227201
O O6 0.356823 0.553600 0.212985
O O7 0.363534 0.216745 0.282433
O O8 0.350300 0.050753 0.197713
O O9 0.160149 0.282743 0.630491
O O10 0.000000 0.215254 0.676176
O O11 0.312692 0.730115 0.423886
O O12 0.313649 0.466568 0.354166
O O13 0.500000 0.868565 0.433483
O O14 0.391032 0.052921 0.371265
O O15 0.500000 0.622173 0.666417
#
# Coordination Sequence:
#
# PCOD9419168 Si02
#       6
#     8   8   8   8   8   8
#     4  11  23  43  63  91 121 162 198 251 310 375
#     4   9  20  39  60  85 122 164 207 252 298 351
#     4  10  23  41  63  89 121 162 209 260 308 355
#     4  11  23  39  64  90 125 160 209 251 313 365
#     4  10  22  39  61  91 127 165 204 245 300 368
#     4   9  20  37  57  87 128 168 202 246 299 356
#
# _framework density 22.007899999999999
#
# number of rings (size 3 to 8) (size 9 to 14) (size 15 to 20)
#    0.000    2.000    1.667    0.500    7.000    2.000 
#    0.000    0.000    0.000    1.000    0.000    0.000 
#    0.000    0.000    0.000    0.000    0.000    0.000 
#
# Total GULP energy -267865.942240 kJ/mol
# GULP energy per Si atom -5580.540463 kJ/mol
# Density = 2.195781 g / cm^3
# Si number density = 22.007900 Si / 1000 Ang^3
#
#
#
# Elastic Constant Matrix: (Units=GPa)
#
#
# Indices 1 2 3 4 5 6 
#
# 1 38.4218 10.8943 -3.4616 0.0000 0.0000 0.0000
# 2 10.8943 90.1679 12.6465 0.0000 0.0000 0.0000
# 3 -3.4616 12.6465 39.3641 0.0000 0.0000 0.0000
# 4 0.0000 0.0000 0.0000 35.4011 0.0000 0.0000
# 5 0.0000 0.0000 0.0000 0.0000 8.2402 0.0000
# 6 0.0000 0.0000 0.0000 0.0000 0.0000 14.4462
#
#
#
# Elastic Compliance Matrix: (Units=1/GPa)
#
#
# Indices 1 2 3 4 5 6 
#
# 1 0.027440 -0.003826 0.003642 0.000000 0.000000 0.000000
# 2 -0.003826 0.012147 -0.004239 0.000000 0.000000 0.000000
# 3 0.003642 -0.004239 0.027086 0.000000 0.000000 0.000000
# 4 0.000000 0.000000 0.000000 0.028248 0.000000 0.000000
# 5 0.000000 0.000000 0.000000 0.000000 0.121357 0.000000
# 6 0.000000 0.000000 0.000000 0.000000 0.000000 0.069222
#
#
# Mechanical properties :
#
#
# Convention : Reuss Voigt Hill
#
# Bulk Modulus (GPa) = 17.29288 23.12358 20.20823
# Shear Modulus (GPa) = 15.94278 21.47580 18.70929
#
# Velocity S-wave (km/s) = 2.69441 3.12720 2.91884
# Velocity P-wave (km/s) = 4.18980 4.85479 4.53450
#
# Compressibility (1/GPa) = 0.05782725
#
# Stress axis : x y z
#
# Youngs Moduli (GPa) = 36.44327 82.32309 36.91942
#
# Poissons Ratio (x) = 0.31498 -0.13447
# Poissons Ratio (y) = 0.13944 0.15650
# Poissons Ratio (z) = -0.13274 0.34897
#
# Static dielectric constant tensor:
#      x y z
#    x 1.791000 0.000000 0.000000 
#    y 0.000000 1.857190 0.000000 
#    z 0.000000 0.000000 1.858430 
# 
# From -- ./inp_files/36993.got.cif
#   From: 2010.05.17/outbox.cif.g08.bks.cpg/sg53_19_cif.got.tgz:36993.got - 2010.06.03 12:45:16.
