data_PCOD9419814
_publ_section_title
;
Structure prediction by ZEFSAII (Michael W. Deem and Ramdas Pophale) SiO2 
 PCOD9419814
Probable space group: P M N A
;
_chemical_formula_sum "Si O2"
_cell_formula_units_Z 56
_cell_length_a 8.740759
_cell_length_b 22.184944
_cell_length_c 15.337958
_cell_angle_alpha 90.000000
_cell_angle_beta 90.000000
_cell_angle_gamma 90.000000
_cell_volume 2974.233268
_symmetry_space_group_name_H-M "P M N A"
_symmetry_group_IT_number 53
_symmetry_cell_setting 'orthorhombic'
loop_
_space_group_symop_operation_xyz
x,y,z
1/2-x,-y,1/2+z
x,-y,-z
1/2-x,y,1/2-z
-x,-y,-z
1/2+x,y,1/2-z
-x,y,z
1/2+x,-y,1/2+z
loop_
_atom_site_type_symbol
_atom_site_label
_atom_site_fract_x
_atom_site_fract_y
_atom_site_fract_z
Si Si1 0.684890 0.906545 0.003905
Si Si2 0.183706 0.696884 0.659013
Si Si3 0.181814 0.691027 0.161142
Si Si4 0.315429 0.996872 0.848827
Si Si5 0.316728 0.434782 0.893485
Si Si6 0.816070 0.433793 0.398325
Si Si7 0.816366 0.773146 0.998333
O O1 0.500000 0.902616 0.003813
O O2 0.757682 0.840969 0.006557
O O3 0.727833 0.941425 0.913853
O O4 0.727553 0.945614 0.090052
O O5 0.250000 0.718210 0.750000
O O6 0.241296 0.628099 0.642825
O O7 0.243378 0.740085 0.583990
O O8 0.000000 0.696114 0.659202
O O9 0.250000 0.715757 0.250000
O O10 0.239555 0.622843 0.148401
O O11 0.000000 0.690374 0.165335
O O12 0.230302 0.732630 0.081001
O O13 0.250000 0.995898 0.750000
O O14 0.500000 0.996580 0.841423
O O15 0.500000 0.431415 0.879836
O O16 0.259389 0.501170 0.865179
O O17 0.289402 0.431055 0.997729
O O18 0.000000 0.435027 0.387278
O O19 0.000000 0.772414 0.991753
#
# Coordination Sequence:
#
# PCOD9419814 Si02
#       7
#     8   8   8   8   8   8   8
#     4   9  20  39  61  86 119 159 192 224 278 339
#     4  11  22  38  59  83 112 151 192 237 292 348
#     4  11  24  39  56  81 112 148 193 241 291 347
#     4   9  19  37  62  92 123 153 189 230 274 328
#     4   9  16  33  58  82 108 141 185 234 291 354
#     4   8  16  31  56  83 108 142 183 231 291 353
#     4  11  24  41  59  84 117 152 196 244 283 333
#
# _framework density 18.828381
#
# number of rings (size 3 to 8) (size 9 to 14) (size 15 to 20)
#    0.000    2.286    1.429    3.000    0.000    4.571 
#    0.000   10.000    0.000    0.000    0.000    0.000 
#    0.000    0.000    0.000    0.000    0.000    0.000 
#
# Total GULP energy -312442.476900 kJ/mol
# GULP energy per Si atom -5579.329945 kJ/mol
# Density = 1.878553 g / cm^3
# Si number density = 18.828381 Si / 1000 Ang^3
#
#
#
# Elastic Constant Matrix: (Units=GPa)
#
#
# Indices 1 2 3 4 5 6 
#
# 1 27.0539 37.3661 41.9149 0.0000 0.0000 0.0000
# 2 37.3661 135.4982 72.6974 0.0000 0.0000 0.0000
# 3 41.9149 72.6974 153.2219 0.0000 0.0000 0.0000
# 4 0.0000 0.0000 0.0000 -42.8824 0.0000 0.0000
# 5 0.0000 0.0000 0.0000 0.0000 24.9191 0.0000
# 6 0.0000 0.0000 0.0000 0.0000 0.0000 13.3326
#
#
#
# Elastic Compliance Matrix: (Units=1/GPa)
#
#
# Indices 1 2 3 4 5 6 
#
# 1 0.079599 -0.013775 -0.015239 0.000000 0.000000 0.000000
# 2 -0.013775 0.012284 -0.002060 0.000000 0.000000 0.000000
# 3 -0.015239 -0.002060 0.011673 0.000000 0.000000 0.000000
# 4 0.000000 0.000000 0.000000 -0.023320 0.000000 0.000000
# 5 0.000000 0.000000 0.000000 0.000000 0.040130 0.000000
# 6 0.000000 0.000000 0.000000 0.000000 0.000000 0.075004
#
#
# Mechanical properties :
#
#
# Convention : Reuss Voigt Hill
#
# Bulk Modulus (GPa) = 24.15020 68.85898 46.50459
# Shear Modulus (GPa) = 18.42835 9.99356 14.21095
#
# Velocity S-wave (km/s) = 3.13190 2.30635 2.75027
# Velocity P-wave (km/s) = 5.09242 6.61390 5.90239
#
# Compressibility (1/GPa) = 0.04140752
#
# Stress axis : x y z
#
# Youngs Moduli (GPa) = 12.56297 81.40613 85.66945
#
# Poissons Ratio (x) = 1.12134 1.30555
# Poissons Ratio (y) = 0.17305 0.17649
# Poissons Ratio (z) = 0.19145 0.16771
#
# Static dielectric constant tensor:
#      x y z
#    x 1.627780 0.000000 0.000000 
#    y 0.000000 1.650430 0.000000 
#    z 0.000000 0.000000 1.627520 
# 
# From -- ./inp_files/20522.got.cif
#   From: 2010.05.17/outbox.cif.g08.bks.cpg/sg53_11_cif.got.tgz:20522.got - 2010.06.03 12:45:16.
