data_PCOD9419244
_publ_section_title
;
Structure prediction by ZEFSAII (Michael W. Deem and Ramdas Pophale) SiO2 
 PCOD9419244
Probable space group: P M N A
;
_chemical_formula_sum "Si O2"
_cell_formula_units_Z 32
_cell_length_a 10.215817
_cell_length_b 5.294807
_cell_length_c 27.722031
_cell_angle_alpha 90.000000
_cell_angle_beta 90.000000
_cell_angle_gamma 90.000000
_cell_volume 1499.506262
_symmetry_space_group_name_H-M "P M N A"
_symmetry_group_IT_number 53
_symmetry_cell_setting 'orthorhombic'
loop_
_space_group_symop_operation_xyz
x,y,z
1/2-x,-y,1/2+z
x,-y,-z
1/2-x,y,1/2-z
-x,-y,-z
1/2+x,y,1/2-z
-x,y,z
1/2+x,-y,1/2+z
loop_
_atom_site_type_symbol
_atom_site_label
_atom_site_fract_x
_atom_site_fract_y
_atom_site_fract_z
Si Si1 0.352007 0.449937 0.894621
Si Si2 0.647606 0.751615 0.467599
Si Si3 0.276747 0.718397 0.306095
Si Si4 0.859618 0.227906 0.144743
O O1 0.500000 0.486677 0.911101
O O2 0.261465 0.277152 0.928430
O O3 0.348080 0.328801 0.840975
O O4 0.264553 0.704602 0.888718
O O5 0.655224 0.500000 0.500000
O O6 0.500000 0.757484 0.446139
O O7 0.662971 0.000000 0.500000
O O8 0.250000 0.743743 0.250000
O O9 0.355902 0.462757 0.317876
O O10 0.343540 0.968194 0.327084
O O11 0.000000 0.233928 0.118902
#
# Coordination Sequence:
#
# PCOD9419244 Si02
#       4
#     8   8   8   8
#     4  10  25  43  65  97 137 170 209 266 330 388
#     4  10  23  43  68  96 125 164 216 266 316 384
#     4  10  23  42  62  97 128 171 216 267 318 377
#     4  10  22  40  65  90 122 170 220 262 306 369
#
# _framework density 21.340357000000001
#
# number of rings (size 3 to 8) (size 9 to 14) (size 15 to 20)
#    1.500    0.500    0.000    2.250    3.500    4.000 
#    0.000    0.000    0.000    0.000    0.000    0.000 
#    0.000    0.000    0.000    0.000    0.000    0.000 
#
# Total GULP energy -178378.606837 kJ/mol
# GULP energy per Si atom -5574.331464 kJ/mol
# Density = 2.129179 g / cm^3
# Si number density = 21.340357 Si / 1000 Ang^3
#
#
#
# Elastic Constant Matrix: (Units=GPa)
#
#
# Indices 1 2 3 4 5 6 
#
# 1 183.8662 28.5128 53.0226 0.0000 0.0000 0.0000
# 2 28.5128 161.6466 32.0312 0.0000 0.0000 0.0000
# 3 53.0226 32.0312 86.1120 0.0000 0.0000 0.0000
# 4 0.0000 0.0000 0.0000 34.9950 0.0000 0.0000
# 5 0.0000 0.0000 0.0000 0.0000 16.2211 0.0000
# 6 0.0000 0.0000 0.0000 0.0000 0.0000 -22.2577
#
#
#
# Elastic Compliance Matrix: (Units=1/GPa)
#
#
# Indices 1 2 3 4 5 6 
#
# 1 0.006636 -0.000390 -0.003941 0.000000 0.000000 0.000000
# 2 -0.000390 0.006701 -0.002253 0.000000 0.000000 0.000000
# 3 -0.003941 -0.002253 0.014877 0.000000 0.000000 0.000000
# 4 0.000000 0.000000 0.000000 0.028575 0.000000 0.000000
# 5 0.000000 0.000000 0.000000 0.000000 0.061648 0.000000
# 6 0.000000 0.000000 0.000000 0.000000 0.000000 -0.044928
#
#
# Mechanical properties :
#
#
# Convention : Reuss Voigt Hill
#
# Bulk Modulus (GPa) = 66.45513 73.19533 69.82523
# Shear Modulus (GPa) = 54.53016 26.99556 40.76286
#
# Velocity S-wave (km/s) = 5.06044 3.56054 4.37525
# Velocity P-wave (km/s) = 8.08408 7.16078 7.63639
#
# Compressibility (1/GPa) = 0.01504775
#
# Stress axis : x y z
#
# Youngs Moduli (GPa) = 150.70201 149.22094 67.21614
#
# Poissons Ratio (x) = 0.05813 0.26489
# Poissons Ratio (y) = 0.05870 0.15143
# Poissons Ratio (z) = 0.59390 0.33618
#
# Static dielectric constant tensor:
#      x y z
#    x 1.759320 0.000000 0.000000 
#    y 0.000000 1.785870 0.000000 
#    z 0.000000 0.000000 1.785640 
# 
# From -- ./inp_files/36561.got.cif
#   From: 2010.05.17/outbox.cif.g08.bks.cpg/sg53_19_cif.got.tgz:36561.got - 2010.06.03 12:45:16.
