data_PCOD9419391
_publ_section_title
;
Structure prediction by ZEFSAII (Michael W. Deem and Ramdas Pophale) SiO2 
 PCOD9419391
Probable space group: P M N A
;
_chemical_formula_sum "Si O2"
_cell_formula_units_Z 64
_cell_length_a 14.292060
_cell_length_b 23.529673
_cell_length_c 8.914374
_cell_angle_alpha 90.000000
_cell_angle_beta 90.000000
_cell_angle_gamma 90.000000
_cell_volume 2997.792531
_symmetry_space_group_name_H-M "P M N A"
_symmetry_group_IT_number 53
_symmetry_cell_setting 'orthorhombic'
loop_
_space_group_symop_operation_xyz
x,y,z
1/2-x,-y,1/2+z
x,-y,-z
1/2-x,y,1/2-z
-x,-y,-z
1/2+x,y,1/2-z
-x,y,z
1/2+x,-y,1/2+z
loop_
_atom_site_type_symbol
_atom_site_label
_atom_site_fract_x
_atom_site_fract_y
_atom_site_fract_z
Si Si1 0.607487 0.623436 0.870561
Si Si2 0.278570 0.653504 0.419206
Si Si3 0.147226 0.753557 0.679609
Si Si4 0.103733 0.762401 0.991365
Si Si5 0.611238 0.149122 0.968837
Si Si6 0.735758 0.055663 0.077813
Si Si7 0.111387 0.440215 0.062275
Si Si8 0.612268 0.883540 0.370392
O O1 0.500000 0.608709 0.915522
O O2 0.608059 0.689752 0.823875
O O3 0.636261 0.584080 0.728515
O O4 0.688961 0.626401 0.994557
O O5 0.250000 0.663513 0.250000
O O6 0.322569 0.711648 0.483930
O O7 0.358493 0.607146 0.443837
O O8 0.250000 0.752616 0.750000
O O9 0.137921 0.787077 0.523536
O O10 0.095948 0.782196 0.819058
O O11 0.130338 0.818901 0.078098
O O12 0.000000 0.742936 0.041365
O O13 0.500000 0.146393 0.979273
O O14 0.665790 0.108638 0.081219
O O15 0.636578 0.122445 0.806324
O O16 0.750000 0.040205 0.250000
O O17 0.825188 0.075607 0.975961
O O18 0.694175 0.000000 0.000000
O O19 0.000000 0.444795 0.068312
O O20 0.149985 0.500000 0.000000
O O21 0.500000 0.895186 0.384168
#
# Coordination Sequence:
#
# PCOD9419391 Si02
#       8
#     8   8   8   8   8   8   8   8
#     4  11  23  42  66  96 135 181 232 285 346 415
#     4  12  26  39  61  98 137 182 226 279 341 408
#     4  12  21  37  64  95 134 174 225 278 342 411
#     4  11  22  39  61  90 132 175 221 278 343 413
#     4  11  24  41  65  99 135 177 225 283 349 417
#     4  12  26  45  70  97 131 181 234 291 346 417
#     4  10  22  45  73  97 128 174 230 288 347 411
#     4  10  24  44  66  96 137 179 224 285 351 417
#
# _framework density 21.349042000000001
#
# number of rings (size 3 to 8) (size 9 to 14) (size 15 to 20)
#    0.000    0.875    2.500    4.875    1.750    4.000 
#    0.000    0.000    0.000    2.625    0.000    0.000 
#    0.000    0.000    0.000    0.000    0.000    0.000 
#
# Total GULP energy -356914.139637 kJ/mol
# GULP energy per Si atom -5576.783432 kJ/mol
# Density = 2.130045 g / cm^3
# Si number density = 21.349042 Si / 1000 Ang^3
#
#
#
# Elastic Constant Matrix: (Units=GPa)
#
#
# Indices 1 2 3 4 5 6 
#
# 1 69.2983 8.6649 8.1285 0.0000 0.0000 0.0000
# 2 8.6649 70.8081 15.4479 0.0000 0.0000 0.0000
# 3 8.1285 15.4479 96.0919 0.0000 0.0000 0.0000
# 4 0.0000 0.0000 0.0000 31.6644 0.0000 0.0000
# 5 0.0000 0.0000 0.0000 0.0000 18.0149 0.0000
# 6 0.0000 0.0000 0.0000 0.0000 0.0000 13.7318
#
#
#
# Elastic Compliance Matrix: (Units=1/GPa)
#
#
# Indices 1 2 3 4 5 6 
#
# 1 0.014745 -0.001588 -0.000992 0.000000 0.000000 0.000000
# 2 -0.001588 0.014807 -0.002246 0.000000 0.000000 0.000000
# 3 -0.000992 -0.002246 0.010852 0.000000 0.000000 0.000000
# 4 0.000000 0.000000 0.000000 0.031581 0.000000 0.000000
# 5 0.000000 0.000000 0.000000 0.000000 0.055510 0.000000
# 6 0.000000 0.000000 0.000000 0.000000 0.000000 0.072823
#
#
# Mechanical properties :
#
#
# Convention : Reuss Voigt Hill
#
# Bulk Modulus (GPa) = 32.51839 33.40900 32.96369
# Shear Modulus (GPa) = 22.70444 26.27935 24.49190
#
# Velocity S-wave (km/s) = 3.26465 3.51228 3.39073
# Velocity P-wave (km/s) = 5.42913 5.66843 5.55007
#
# Compressibility (1/GPa) = 0.03075183
#
# Stress axis : x y z
#
# Youngs Moduli (GPa) = 67.81832 67.53555 92.15140
#
# Poissons Ratio (x) = 0.10724 0.09142
# Poissons Ratio (y) = 0.10769 0.20698
# Poissons Ratio (z) = 0.06728 0.15169
#
# Static dielectric constant tensor:
#      x y z
#    x 2.460170 0.000000 0.000000 
#    y 0.000000 1.751390 0.000000 
#    z 0.000000 0.000000 1.935740 
# 
# From -- ./inp_files/8963.got.cif
#   From: 2010.05.17/outbox.cif.g08.bks.cpg/sg53_5_cif.got.tgz:8963.got - 2010.06.03 12:45:16.
