data_PCOD9419166
_publ_section_title
;
Structure prediction by ZEFSAII (Michael W. Deem and Ramdas Pophale) SiO2 
 PCOD9419166
Probable space group: P M N A
;
_chemical_formula_sum "Si O2"
_cell_formula_units_Z 64
_cell_length_a 8.607598
_cell_length_b 12.152530
_cell_length_c 31.545517
_cell_angle_alpha 90.000000
_cell_angle_beta 90.000000
_cell_angle_gamma 90.000000
_cell_volume 3299.790192
_symmetry_space_group_name_H-M "P M N A"
_symmetry_group_IT_number 53
_symmetry_cell_setting 'orthorhombic'
loop_
_space_group_symop_operation_xyz
x,y,z
1/2-x,-y,1/2+z
x,-y,-z
1/2-x,y,1/2-z
-x,-y,-z
1/2+x,y,1/2-z
-x,y,z
1/2+x,-y,1/2+z
loop_
_atom_site_type_symbol
_atom_site_label
_atom_site_fract_x
_atom_site_fract_y
_atom_site_fract_z
Si Si1 0.314977 0.532671 0.548187
Si Si2 0.813781 0.968755 0.951658
Si Si3 0.686206 0.619528 0.121446
Si Si4 0.687319 0.864903 0.376180
Si Si5 0.184114 0.253217 0.181102
Si Si6 0.687322 0.990613 0.705290
Si Si7 0.181713 0.750409 0.587944
Si Si8 0.815173 0.512568 0.705513
O O1 0.279291 0.500000 0.500000
O O2 0.500000 0.550631 0.551631
O O3 0.264080 0.438894 0.581179
O O4 0.227107 0.643354 0.561315
O O5 0.724824 0.859839 0.937479
O O6 0.000000 0.948354 0.948320
O O7 0.776115 0.065797 0.918525
O O8 0.779173 0.000000 0.000000
O O9 0.500000 0.608677 0.118014
O O10 0.734026 0.746414 0.123820
O O11 0.737512 0.555738 0.164258
O O12 0.500000 0.851154 0.374748
O O13 0.734733 0.936695 0.335143
O O14 0.240159 0.135939 0.199059
O O15 0.220014 0.251182 0.131150
O O16 0.264118 0.360890 0.199913
O O17 0.000000 0.261929 0.188322
O O18 0.750000 0.032998 0.750000
O O19 0.500000 0.989679 0.705955
O O20 0.000000 0.747552 0.598861
O O21 0.750000 0.469689 0.750000
O O22 0.000000 0.507542 0.706875
#
# Coordination Sequence:
#
# PCOD9419166 Si02
#       8
#     8   8   8   8   8   8   8   8
#     4  11  25  44  68  94 123 167 215 255 306 373
#     4  10  22  42  67  92 123 165 213 258 303 370
#     4  11  25  43  63  92 128 163 206 261 318 371
#     4  10  22  42  63  88 122 164 211 255 305 367
#     4  11  21  39  65  92 126 166 207 257 310 370
#     4  10  22  39  61  90 123 159 204 255 306 363
#     4  12  24  39  64  97 132 165 201 257 318 372
#     4  11  24  41  62  92 126 164 209 259 316 375
#
# _framework density 19.395171999999999
#
# number of rings (size 3 to 8) (size 9 to 14) (size 15 to 20)
#    0.000    1.250    2.500    3.000    1.750    6.250 
#    0.000    2.500    0.000    0.000    0.000    0.000 
#    0.000    0.000    0.000    0.000    0.000    0.000 
#
# Total GULP energy -357916.156589 kJ/mol
# GULP energy per Si atom -5592.439947 kJ/mol
# Density = 1.935103 g / cm^3
# Si number density = 19.395172 Si / 1000 Ang^3
#
#
#
# Elastic Constant Matrix: (Units=GPa)
#
#
# Indices 1 2 3 4 5 6 
#
# 1 16.9200 15.8434 20.4284 0.0000 0.0000 0.0000
# 2 15.8434 109.3884 47.7542 0.0000 0.0000 0.0000
# 3 20.4284 47.7542 149.1433 0.0000 0.0000 0.0000
# 4 0.0000 0.0000 0.0000 27.8142 0.0000 0.0000
# 5 0.0000 0.0000 0.0000 0.0000 29.0566 0.0000
# 6 0.0000 0.0000 0.0000 0.0000 0.0000 24.3074
#
#
#
# Elastic Compliance Matrix: (Units=1/GPa)
#
#
# Indices 1 2 3 4 5 6 
#
# 1 0.075745 -0.007488 -0.007977 0.000000 0.000000 0.000000
# 2 -0.007488 0.011367 -0.002614 0.000000 0.000000 0.000000
# 3 -0.007977 -0.002614 0.008635 0.000000 0.000000 0.000000
# 4 0.000000 0.000000 0.000000 0.035953 0.000000 0.000000
# 5 0.000000 0.000000 0.000000 0.000000 0.034416 0.000000
# 6 0.000000 0.000000 0.000000 0.000000 0.000000 0.041140
#
#
# Mechanical properties :
#
#
# Convention : Reuss Voigt Hill
#
# Bulk Modulus (GPa) = 16.78192 49.27818 33.03005
# Shear Modulus (GPa) = 18.99146 28.99736 23.99441
#
# Velocity S-wave (km/s) = 3.13259 3.87082 3.52111
# Velocity P-wave (km/s) = 4.66428 6.74094 5.79637
#
# Compressibility (1/GPa) = 0.05958794
#
# Stress axis : x y z
#
# Youngs Moduli (GPa) = 13.20226 87.97031 115.81268
#
# Poissons Ratio (x) = 0.65872 0.92387
# Poissons Ratio (y) = 0.09886 0.30275
# Poissons Ratio (z) = 0.10532 0.22996
#
# Static dielectric constant tensor:
#      x y z
#    x 1.666300 0.000000 0.000000 
#    y 0.000000 1.648810 0.000000 
#    z 0.000000 0.000000 1.667300 
# 
# From -- ./inp_files/38135.got.cif
#   From: 2010.05.17/outbox.cif.g08.bks.cpg/sg53_20_cif.got.tgz:38135.got - 2010.06.03 12:45:16.
