data_PCOD9419539
_publ_section_title
;
Structure prediction by ZEFSAII (Michael W. Deem and Ramdas Pophale) SiO2 
 PCOD9419539
Probable space group: P M N A
;
_chemical_formula_sum "Si O2"
_cell_formula_units_Z 52
_cell_length_a 14.925151
_cell_length_b 20.421135
_cell_length_c 8.670683
_cell_angle_alpha 90.000000
_cell_angle_beta 90.000000
_cell_angle_gamma 90.000000
_cell_volume 2642.724669
_symmetry_space_group_name_H-M "P M N A"
_symmetry_group_IT_number 53
_symmetry_cell_setting 'orthorhombic'
loop_
_space_group_symop_operation_xyz
x,y,z
1/2-x,-y,1/2+z
x,-y,-z
1/2-x,y,1/2-z
-x,-y,-z
1/2+x,y,1/2-z
-x,y,z
1/2+x,-y,1/2+z
loop_
_atom_site_type_symbol
_atom_site_label
_atom_site_fract_x
_atom_site_fract_y
_atom_site_fract_z
Si Si1 0.393366 0.223827 0.456749
Si Si2 0.096523 0.627713 0.058154
Si Si3 0.394455 0.810571 0.193833
Si Si4 0.250000 0.852176 0.750000
Si Si5 0.836019 0.673960 0.362835
Si Si6 0.269000 0.433427 0.069121
Si Si7 0.894326 0.076511 0.464068
O O1 0.500000 0.210129 0.422565
O O2 0.385371 0.302456 0.474039
O O3 0.371318 0.195081 0.626717
O O4 0.319996 0.193196 0.344390
O O5 0.094170 0.645301 0.239712
O O6 0.000000 0.603179 0.007935
O O7 0.174364 0.578150 0.016635
O O8 0.500000 0.797685 0.185695
O O9 0.350385 0.750098 0.103324
O O10 0.378181 0.879895 0.116770
O O11 0.181640 0.897669 0.652039
O O12 0.750000 0.670505 0.250000
O O13 0.825708 0.629082 0.511663
O O14 0.250000 0.436332 0.250000
O O15 0.309007 0.500000 0.000000
O O16 0.000000 0.087960 0.416513
O O17 0.885511 0.000000 0.500000
#
# Coordination Sequence:
#
# PCOD9419539 Si02
#       7
#     8   8   8   4   8   8   8
#     4   9  20  37  59  92 124 154 199 253 298 348
#     4   9  19  37  59  83 116 153 192 243 297 345
#     4   9  19  38  62  84 113 157 198 240 295 353
#     4  12  24  34  62  90 122 162 198 246 306 366
#     4   9  18  33  59  86 109 147 192 241 284 345
#     4  11  23  38  57  84 119 154 191 236 290 349
#     4  10  24  43  59  84 123 161 202 254 302 352
#
# _framework density 19.676662
#
# number of rings (size 3 to 8) (size 9 to 14) (size 15 to 20)
#    0.000    2.308    0.000    3.231    7.538    1.538 
#    0.000    3.077    0.000    7.846    0.000    0.000 
#    0.000    0.000    0.000    0.000    0.000    0.000 
#
# Total GULP energy -289892.829044 kJ/mol
# GULP energy per Si atom -5574.862097 kJ/mol
# Density = 1.963188 g / cm^3
# Si number density = 19.676662 Si / 1000 Ang^3
#
#
#
# Elastic Constant Matrix: (Units=GPa)
#
#
# Indices 1 2 3 4 5 6 
#
# 1 81.0148 21.3397 22.0181 0.0000 0.0000 0.0000
# 2 21.3397 101.8648 47.3414 0.0000 0.0000 0.0000
# 3 22.0181 47.3414 68.9354 0.0000 0.0000 0.0000
# 4 0.0000 0.0000 0.0000 25.5864 0.0000 0.0000
# 5 0.0000 0.0000 0.0000 0.0000 25.4964 0.0000
# 6 0.0000 0.0000 0.0000 0.0000 0.0000 10.4145
#
#
#
# Elastic Compliance Matrix: (Units=1/GPa)
#
#
# Indices 1 2 3 4 5 6 
#
# 1 0.013619 -0.001221 -0.003511 0.000000 0.000000 0.000000
# 2 -0.001221 0.014528 -0.009587 0.000000 0.000000 0.000000
# 3 -0.003511 -0.009587 0.022212 0.000000 0.000000 0.000000
# 4 0.000000 0.000000 0.000000 0.039083 0.000000 0.000000
# 5 0.000000 0.000000 0.000000 0.000000 0.039221 0.000000
# 6 0.000000 0.000000 0.000000 0.000000 0.000000 0.096020
#
#
# Mechanical properties :
#
#
# Convention : Reuss Voigt Hill
#
# Bulk Modulus (GPa) = 46.04068 48.13482 47.08775
# Shear Modulus (GPa) = 19.18915 23.04053 21.11484
#
# Velocity S-wave (km/s) = 3.12625 3.42564 3.27936
# Velocity P-wave (km/s) = 6.03992 6.33740 6.19045
#
# Compressibility (1/GPa) = 0.02171992
#
# Stress axis : x y z
#
# Youngs Moduli (GPa) = 73.42456 68.83031 45.02068
#
# Poissons Ratio (x) = 0.08406 0.15809
# Poissons Ratio (y) = 0.08967 0.43163
# Poissons Ratio (z) = 0.25782 0.65990
#
# Static dielectric constant tensor:
#      x y z
#    x 1.773370 0.000000 0.000000 
#    y 0.000000 1.678980 0.000000 
#    z 0.000000 0.000000 1.708290 
# 
# From -- ./inp_files/8800.got.cif
#   From: 2010.05.17/outbox.cif.g08.bks.cpg/sg53_5_cif.got.tgz:8800.got - 2010.06.03 12:45:16.
