data_PCOD9419091
_publ_section_title
;
Structure prediction by ZEFSAII (Michael W. Deem and Ramdas Pophale) SiO2 
 PCOD9419091
Probable space group: P M N A
;
_chemical_formula_sum "Si O2"
_cell_formula_units_Z 56
_cell_length_a 14.744112
_cell_length_b 15.292252
_cell_length_c 11.852418
_cell_angle_alpha 90.000000
_cell_angle_beta 90.000000
_cell_angle_gamma 90.000000
_cell_volume 2672.372701
_symmetry_space_group_name_H-M "P M N A"
_symmetry_group_IT_number 53
_symmetry_cell_setting 'orthorhombic'
loop_
_space_group_symop_operation_xyz
x,y,z
1/2-x,-y,1/2+z
x,-y,-z
1/2-x,y,1/2-z
-x,-y,-z
1/2+x,y,1/2-z
-x,y,z
1/2+x,-y,1/2+z
loop_
_atom_site_type_symbol
_atom_site_label
_atom_site_fract_x
_atom_site_fract_y
_atom_site_fract_z
Si Si1 0.850989 0.020410 0.764422
Si Si2 0.246296 0.406537 0.058489
Si Si3 0.393509 0.122628 0.531257
Si Si4 0.390191 0.361764 0.242616
Si Si5 0.398833 0.097494 0.951102
Si Si6 0.749328 0.245308 0.885026
Si Si7 0.891496 0.836994 0.780756
O O1 0.750000 0.053092 0.750000
O O2 0.854234 0.921493 0.719133
O O3 0.878067 0.035442 0.893576
O O4 0.909840 0.076431 0.681178
O O5 0.335819 0.403754 0.138574
O O6 0.160135 0.390524 0.141898
O O7 0.238235 0.500000 0.000000
O O8 0.252820 0.331286 0.963315
O O9 0.500000 0.133011 0.523539
O O10 0.345113 0.196687 0.603032
O O11 0.356689 0.145204 0.407023
O O12 0.500000 0.374157 0.243579
O O13 0.370064 0.257586 0.235301
O O14 0.500000 0.119466 0.998482
O O15 0.325367 0.176610 0.941472
O O16 0.370631 0.000000 0.000000
O O17 0.750000 0.265017 0.750000
O O18 0.000000 0.845638 0.781156
#
# Coordination Sequence:
#
# PCOD9419091 Si02
#       7
#     8   8   8   8   8   8   8
#     4  12  23  34  56  88 132 181 230 275 331 399
#     4  11  27  48  78 105 141 179 228 296 362 428
#     4  11  21  39  60  90 132 173 225 280 329 395
#     4  10  24  48  75 108 140 177 231 291 353 424
#     4  11  25  41  58  88 135 186 232 276 328 400
#     4  12  25  44  67 101 136 184 233 286 350 419
#     4  10  22  37  62  93 126 173 224 282 341 393
#
# _framework density 20.955161
#
# number of rings (size 3 to 8) (size 9 to 14) (size 15 to 20)
#    0.000    1.000    4.286    1.714    8.000    2.286 
#    0.000    0.000    0.000    0.000    0.000    0.000 
#    0.000    0.000    0.000    0.000    0.000    0.000 
#
# Total GULP energy -312093.473672 kJ/mol
# GULP energy per Si atom -5573.097744 kJ/mol
# Density = 2.090747 g / cm^3
# Si number density = 20.955161 Si / 1000 Ang^3
#
#
#
# Elastic Constant Matrix: (Units=GPa)
#
#
# Indices 1 2 3 4 5 6 
#
# 1 104.9818 34.2728 22.3822 0.0000 0.0000 0.0000
# 2 34.2728 118.3612 36.3555 0.0000 0.0000 0.0000
# 3 22.3822 36.3555 108.3335 0.0000 0.0000 0.0000
# 4 0.0000 0.0000 0.0000 33.4885 0.0000 0.0000
# 5 0.0000 0.0000 0.0000 0.0000 19.1481 0.0000
# 6 0.0000 0.0000 0.0000 0.0000 0.0000 -80.4185
#
#
#
# Elastic Compliance Matrix: (Units=1/GPa)
#
#
# Indices 1 2 3 4 5 6 
#
# 1 0.010682 -0.002693 -0.001303 0.000000 0.000000 0.000000
# 2 -0.002693 0.010099 -0.002833 0.000000 0.000000 0.000000
# 3 -0.001303 -0.002833 0.010451 0.000000 0.000000 0.000000
# 4 0.000000 0.000000 0.000000 0.029861 0.000000 0.000000
# 5 0.000000 0.000000 0.000000 0.000000 0.052224 0.000000
# 6 0.000000 0.000000 0.000000 0.000000 0.000000 -0.012435
#
#
# Mechanical properties :
#
#
# Convention : Reuss Voigt Hill
#
# Bulk Modulus (GPa) = 56.90237 57.52194 57.21216
# Shear Modulus (GPa) = 41.52905 10.35470 25.94188
#
# Velocity S-wave (km/s) = 4.45658 2.22533 3.52230
# Velocity P-wave (km/s) = 7.32767 5.84058 6.62598
#
# Compressibility (1/GPa) = 0.01757396
#
# Stress axis : x y z
#
# Youngs Moduli (GPa) = 93.61137 99.02445 95.68819
#
# Poissons Ratio (x) = 0.26666 0.12471
# Poissons Ratio (y) = 0.25209 0.27104
# Poissons Ratio (z) = 0.12201 0.28050
#
# Static dielectric constant tensor:
#      x y z
#    x 1.753510 0.000000 0.000000 
#    y 0.000000 1.766250 0.000000 
#    z 0.000000 0.000000 1.834810 
# 
# From -- ./inp_files/16022.got.cif
#   From: 2010.05.17/outbox.cif.g08.bks.cpg/sg53_9_cif.got.tgz:16022.got - 2010.06.03 12:45:16.
