data_PCOD9419771
_publ_section_title
;
Structure prediction by ZEFSAII (Michael W. Deem and Ramdas Pophale) SiO2 
 PCOD9419771
Probable space group: P M N A
;
_chemical_formula_sum "Si O2"
_cell_formula_units_Z 64
_cell_length_a 15.028646
_cell_length_b 21.504539
_cell_length_c 10.165403
_cell_angle_alpha 90.000000
_cell_angle_beta 90.000000
_cell_angle_gamma 90.000000
_cell_volume 3285.296661
_symmetry_space_group_name_H-M "P M N A"
_symmetry_group_IT_number 53
_symmetry_cell_setting 'orthorhombic'
loop_
_space_group_symop_operation_xyz
x,y,z
1/2-x,-y,1/2+z
x,-y,-z
1/2-x,y,1/2-z
-x,-y,-z
1/2+x,y,1/2-z
-x,y,z
1/2+x,-y,1/2+z
loop_
_atom_site_type_symbol
_atom_site_label
_atom_site_fract_x
_atom_site_fract_y
_atom_site_fract_z
Si Si1 0.749751 0.059162 0.405115
Si Si2 0.146369 0.759310 0.752484
Si Si3 0.390898 0.358557 0.857465
Si Si4 0.103770 0.494203 0.659711
Si Si5 0.898224 0.156396 0.008903
Si Si6 0.392128 0.628767 0.837163
Si Si7 0.101440 0.843466 0.515880
Si Si8 0.891714 0.773511 0.251927
O O1 0.750000 0.043212 0.250000
O O2 0.663736 0.100254 0.444049
O O3 0.834319 0.103063 0.433268
O O4 0.753232 0.000000 0.500000
O O5 0.250000 0.776516 0.750000
O O6 0.136782 0.685478 0.753145
O O7 0.104264 0.787287 0.620481
O O8 0.103112 0.792839 0.875629
O O9 0.500000 0.359188 0.856155
O O10 0.359861 0.426129 0.805311
O O11 0.361744 0.297288 0.778938
O O12 0.364930 0.356167 0.011871
O O13 0.105070 0.500000 0.500000
O O14 0.141069 0.560486 0.705580
O O15 0.000000 0.493033 0.699513
O O16 0.862299 0.191847 0.879857
O O17 0.000000 0.135923 0.985118
O O18 0.500000 0.626589 0.838050
O O19 0.131808 0.815348 0.377339
O O20 0.000000 0.865513 0.503580
O O21 0.000000 0.770935 0.246526
#
# Coordination Sequence:
#
# PCOD9419771 Si02
#       8
#     8   8   8   8   8   8   8   8
#     4  12  28  47  66  96 124 158 197 230 284 349
#     4  12  21  36  57  87 114 156 202 246 300 345
#     4   8  12  23  44  78 115 141 187 251 296 345
#     4   7  11  19  37  71 110 142 183 244 301 343
#     4  11  23  42  63  89 127 160 191 238 292 349
#     4   9  15  25  47  78 108 147 196 246 298 346
#     4  11  21  41  67  90 119 152 197 250 288 337
#     4   9  19  32  57  92 117 152 199 243 299 349
#
# _framework density 19.480736
#
# number of rings (size 3 to 8) (size 9 to 14) (size 15 to 20)
#    0.000    2.125    3.750    2.625    1.750    0.500 
#    0.000    0.000    0.000    0.750   13.000    4.375 
#    0.000    0.000    0.000    0.000    0.000    0.000 
#
# Total GULP energy -356997.577359 kJ/mol
# GULP energy per Si atom -5578.087146 kJ/mol
# Density = 1.943640 g / cm^3
# Si number density = 19.480736 Si / 1000 Ang^3
#
#
#
# Elastic Constant Matrix: (Units=GPa)
#
#
# Indices 1 2 3 4 5 6 
#
# 1 68.8220 25.9929 8.7553 0.0000 0.0000 0.0000
# 2 25.9929 141.0130 46.7907 0.0000 0.0000 0.0000
# 3 8.7553 46.7907 94.9200 0.0000 0.0000 0.0000
# 4 0.0000 0.0000 0.0000 16.4269 0.0000 0.0000
# 5 0.0000 0.0000 0.0000 0.0000 14.6257 0.0000
# 6 0.0000 0.0000 0.0000 0.0000 0.0000 19.4218
#
#
#
# Elastic Compliance Matrix: (Units=1/GPa)
#
#
# Indices 1 2 3 4 5 6 
#
# 1 0.015618 -0.002870 -0.000026 0.000000 0.000000 0.000000
# 2 -0.002870 0.009006 -0.004175 0.000000 0.000000 0.000000
# 3 -0.000026 -0.004175 0.012595 0.000000 0.000000 0.000000
# 4 0.000000 0.000000 0.000000 0.060876 0.000000 0.000000
# 5 0.000000 0.000000 0.000000 0.000000 0.068373 0.000000
# 6 0.000000 0.000000 0.000000 0.000000 0.000000 0.051489
#
#
# Mechanical properties :
#
#
# Convention : Reuss Voigt Hill
#
# Bulk Modulus (GPa) = 43.33190 51.98142 47.65666
# Shear Modulus (GPa) = 20.85158 24.97593 22.91376
#
# Velocity S-wave (km/s) = 3.27520 3.58450 3.43334
# Velocity P-wave (km/s) = 6.04932 6.62367 6.34300
#
# Compressibility (1/GPa) = 0.02307769
#
# Stress axis : x y z
#
# Youngs Moduli (GPa) = 64.03050 111.03881 79.39369
#
# Poissons Ratio (x) = 0.31871 0.00204
# Poissons Ratio (y) = 0.18379 0.33144
# Poissons Ratio (z) = 0.00164 0.46355
#
# Static dielectric constant tensor:
#      x y z
#    x 1.709580 0.000000 0.000000 
#    y 0.000000 1.699530 0.000000 
#    z 0.000000 0.000000 1.675040 
# 
# From -- ./inp_files/8938.got.cif
#   From: 2010.05.17/outbox.cif.g08.bks.cpg/sg53_5_cif.got.tgz:8938.got - 2010.06.03 12:45:16.
