data_PCOD9419818
_publ_section_title
;
Structure prediction by ZEFSAII (Michael W. Deem and Ramdas Pophale) SiO2 
 PCOD9419818
Probable space group: P M N A
;
_chemical_formula_sum "Si O2"
_cell_formula_units_Z 32
_cell_length_a 16.084512
_cell_length_b 11.012163
_cell_length_c 8.659957
_cell_angle_alpha 90.000000
_cell_angle_beta 90.000000
_cell_angle_gamma 90.000000
_cell_volume 1533.897204
_symmetry_space_group_name_H-M "P M N A"
_symmetry_group_IT_number 53
_symmetry_cell_setting 'orthorhombic'
loop_
_space_group_symop_operation_xyz
x,y,z
1/2-x,-y,1/2+z
x,-y,-z
1/2-x,y,1/2-z
-x,-y,-z
1/2+x,y,1/2-z
-x,y,z
1/2+x,-y,1/2+z
loop_
_atom_site_type_symbol
_atom_site_label
_atom_site_fract_x
_atom_site_fract_y
_atom_site_fract_z
Si Si1 0.656547 0.502811 0.813434
Si Si2 0.905762 0.757415 0.649679
Si Si3 0.844415 0.761003 0.313306
Si Si4 0.656426 0.990121 0.682771
O O1 0.750000 0.510467 0.750000
O O2 0.611077 0.627429 0.771249
O O3 0.619675 0.371236 0.767766
O O4 0.658340 0.500000 0.000000
O O5 0.847181 0.769420 0.499118
O O6 0.890155 0.870273 0.760618
O O7 0.000000 0.758413 0.591088
O O8 0.750000 0.758844 0.250000
O O9 0.882372 0.884865 0.248272
O O10 0.750000 0.981029 0.750000
O O11 0.660161 0.000000 0.500000
#
# Coordination Sequence:
#
# PCOD9419818 Si02
#       4
#     8   8   8   8
#     4   9  19  35  59  86 114 149 194 240 286 344
#     4  11  23  38  59  89 123 157 192 238 297 353
#     4   9  19  37  59  86 115 150 197 241 288 344
#     4  11  22  38  61  87 116 153 202 249 289 344
#
# _framework density 20.861892999999998
#
# number of rings (size 3 to 8) (size 9 to 14) (size 15 to 20)
#    0.000    2.000    0.000    4.500    0.000   13.000 
#    0.000    0.000    0.000    5.250    0.000    0.000 
#    0.000    0.000    0.000    0.000    0.000    0.000 
#
# Total GULP energy -178534.063718 kJ/mol
# GULP energy per Si atom -5579.189491 kJ/mol
# Density = 2.081441 g / cm^3
# Si number density = 20.861893 Si / 1000 Ang^3
#
#
#
# Elastic Constant Matrix: (Units=GPa)
#
#
# Indices 1 2 3 4 5 6 
#
# 1 43.0239 22.6444 3.7021 0.0000 0.0000 0.0000
# 2 22.6444 235.8784 55.0864 0.0000 0.0000 0.0000
# 3 3.7021 55.0864 53.0350 0.0000 0.0000 0.0000
# 4 0.0000 0.0000 0.0000 -28.7077 0.0000 0.0000
# 5 0.0000 0.0000 0.0000 0.0000 5.9921 0.0000
# 6 0.0000 0.0000 0.0000 0.0000 0.0000 -31.2327
#
#
#
# Elastic Compliance Matrix: (Units=1/GPa)
#
#
# Indices 1 2 3 4 5 6 
#
# 1 0.024517 -0.002580 0.000968 0.000000 0.000000 0.000000
# 2 -0.002580 0.005869 -0.005916 0.000000 0.000000 0.000000
# 3 0.000968 -0.005916 0.024932 0.000000 0.000000 0.000000
# 4 0.000000 0.000000 0.000000 -0.034834 0.000000 0.000000
# 5 0.000000 0.000000 0.000000 0.000000 0.166887 0.000000
# 6 0.000000 0.000000 0.000000 0.000000 0.000000 -0.032018
#
#
# Mechanical properties :
#
#
# Convention : Reuss Voigt Hill
#
# Bulk Modulus (GPa) = 24.83616 54.97813 39.90715
# Shear Modulus (GPa) = 27.19915 5.91062 16.55488
#
# Velocity S-wave (km/s) = 3.61470 1.68504 2.82005
# Velocity P-wave (km/s) = 5.41777 5.49513 5.45659
#
# Compressibility (1/GPa) = 0.04026387
#
# Stress axis : x y z
#
# Youngs Moduli (GPa) = 40.78742 170.39735 40.10867
#
# Poissons Ratio (x) = 0.43959 -0.03883
# Poissons Ratio (y) = 0.10522 0.23727
# Poissons Ratio (z) = -0.03949 1.00800
#
# Static dielectric constant tensor:
#      x y z
#    x 1.735990 0.000000 0.000000 
#    y 0.000000 1.827300 0.000000 
#    z 0.000000 0.000000 1.707690 
# 
# From -- ./inp_files/7963.got.cif
#   From: 2010.05.17/outbox.cif.g08.bks.cpg/sg53_4_cif.got.tgz:7963.got - 2010.06.03 12:45:16.
