data_PCOD9419593
_publ_section_title
;
Structure prediction by ZEFSAII (Michael W. Deem and Ramdas Pophale) SiO2 
 PCOD9419593
Probable space group: P M N A
;
_chemical_formula_sum "Si O2"
_cell_formula_units_Z 32
_cell_length_a 9.685863
_cell_length_b 10.681634
_cell_length_c 15.049432
_cell_angle_alpha 90.000000
_cell_angle_beta 90.000000
_cell_angle_gamma 90.000000
_cell_volume 1557.026930
_symmetry_space_group_name_H-M "P M N A"
_symmetry_group_IT_number 53
_symmetry_cell_setting 'orthorhombic'
loop_
_space_group_symop_operation_xyz
x,y,z
1/2-x,-y,1/2+z
x,-y,-z
1/2-x,y,1/2-z
-x,-y,-z
1/2+x,y,1/2-z
-x,y,z
1/2+x,-y,1/2+z
loop_
_atom_site_type_symbol
_atom_site_label
_atom_site_fract_x
_atom_site_fract_y
_atom_site_fract_z
Si Si1 0.500000 0.952757 0.698774
Si Si2 0.500000 0.104285 0.857907
Si Si3 0.500000 0.336855 0.354713
Si Si4 0.298942 0.094471 0.577956
Si Si5 0.500000 0.319004 0.558949
Si Si6 0.750000 0.467743 0.250000
Si Si7 0.500000 0.629402 0.234992
O O1 0.500000 0.813117 0.661283
O O2 0.500000 0.974047 0.803578
O O3 0.367429 0.029195 0.663279
O O4 0.362473 0.109594 0.914023
O O5 0.500000 0.225948 0.792977
O O6 0.500000 0.373523 0.459137
O O7 0.643117 0.385393 0.308707
O O8 0.368681 0.227269 0.562639
O O9 0.336362 0.000000 0.500000
O O10 0.500000 0.383590 0.656370
O O11 0.639193 0.560066 0.201994
#
# Coordination Sequence:
#
# PCOD9419593 Si02
#       7
#     4   4   4   8   4   4   4
#     4  11  22  37  65  95 128 167 214 245 328 408
#     4  12  24  35  68  99 129 175 203 277 332 361
#     4  11  24  45  66  96 127 172 212 266 325 390
#     4  11  21  38  58 105 136 165 204 260 331 396
#     4  11  21  40  74  88 128 171 213 266 323 383
#     4  10  26  42  64  90 124 170 224 270 306 374
#     4  11  22  45  65  93 125 163 233 272 302 385
#
# _framework density 20.551988999999999
#
# number of rings (size 3 to 8) (size 9 to 14) (size 15 to 20)
#    0.000    1.000    5.000    3.375    3.500    2.000 
#    0.000    2.500    0.000    7.500    0.000    0.000 
#    0.000    0.000    0.000    0.000    0.000    0.000 
#
# Total GULP energy -178527.483693 kJ/mol
# GULP energy per Si atom -5578.983865 kJ/mol
# Density = 2.050521 g / cm^3
# Si number density = 20.551989 Si / 1000 Ang^3
#
#
#
# Elastic Constant Matrix: (Units=GPa)
#
#
# Indices 1 2 3 4 5 6 
#
# 1 177.5635 25.6241 23.2148 0.0000 0.0000 0.0000
# 2 25.6241 71.9892 17.8936 0.0000 0.0000 0.0000
# 3 23.2148 17.8936 70.7636 0.0000 0.0000 0.0000
# 4 0.0000 0.0000 0.0000 35.2546 0.0000 0.0000
# 5 0.0000 0.0000 0.0000 0.0000 87.6845 0.0000
# 6 0.0000 0.0000 0.0000 0.0000 0.0000 23.7915
#
#
#
# Elastic Compliance Matrix: (Units=1/GPa)
#
#
# Indices 1 2 3 4 5 6 
#
# 1 0.006091 -0.001784 -0.001547 0.000000 0.000000 0.000000
# 2 -0.001784 0.015345 -0.003295 0.000000 0.000000 0.000000
# 3 -0.001547 -0.003295 0.015472 0.000000 0.000000 0.000000
# 4 0.000000 0.000000 0.000000 0.028365 0.000000 0.000000
# 5 0.000000 0.000000 0.000000 0.000000 0.011405 0.000000
# 6 0.000000 0.000000 0.000000 0.000000 0.000000 0.042032
#
#
# Mechanical properties :
#
#
# Convention : Reuss Voigt Hill
#
# Bulk Modulus (GPa) = 42.27135 50.42016 46.34575
# Shear Modulus (GPa) = 35.75316 46.25170 41.00243
#
# Velocity S-wave (km/s) = 4.17543 4.74906 4.47145
# Velocity P-wave (km/s) = 6.62256 7.39308 7.01840
#
# Compressibility (1/GPa) = 0.02365669
#
# Stress axis : x y z
#
# Youngs Moduli (GPa) = 164.16357 65.16839 64.63124
#
# Poissons Ratio (x) = 0.11624 0.10001
# Poissons Ratio (y) = 0.29280 0.21296
# Poissons Ratio (z) = 0.25402 0.21473
#
# Static dielectric constant tensor:
#      x y z
#    x 1.700870 0.000000 0.000000 
#    y 0.000000 1.774380 0.000000 
#    z 0.000000 0.000000 1.768160 
# 
# From -- ./inp_files/19588.got.cif
#   From: 2010.05.17/outbox.cif.g08.bks.cpg/sg53_10_cif.got.tgz:19588.got - 2010.06.03 12:45:16.
