data_PCOD9419826
_publ_section_title
;
Structure prediction by ZEFSAII (Michael W. Deem and Ramdas Pophale) SiO2 
 PCOD9419826
Probable space group: P M N A
;
_chemical_formula_sum "Si O2"
_cell_formula_units_Z 32
_cell_length_a 10.161492
_cell_length_b 20.247863
_cell_length_c 8.661534
_cell_angle_alpha 90.000000
_cell_angle_beta 90.000000
_cell_angle_gamma 90.000000
_cell_volume 1782.097610
_symmetry_space_group_name_H-M "P M N A"
_symmetry_group_IT_number 53
_symmetry_cell_setting 'orthorhombic'
loop_
_space_group_symop_operation_xyz
x,y,z
1/2-x,-y,1/2+z
x,-y,-z
1/2-x,y,1/2-z
-x,-y,-z
1/2+x,y,1/2-z
-x,y,z
1/2+x,-y,1/2+z
loop_
_atom_site_type_symbol
_atom_site_label
_atom_site_fract_x
_atom_site_fract_y
_atom_site_fract_z
Si Si1 0.342389 0.708442 0.097889
Si Si2 0.246138 0.848327 0.437254
Si Si3 0.000000 0.924422 0.937487
Si Si4 0.500000 0.927154 0.932460
Si Si5 0.652223 0.562969 0.106933
O O1 0.250000 0.704093 0.250000
O O2 0.500000 0.720279 0.129288
O O3 0.282822 0.772433 0.013821
O O4 0.331768 0.635037 0.026785
O O5 0.250000 0.849599 0.250000
O O6 0.375528 0.883030 0.501989
O O7 0.126030 0.890228 0.501262
O O8 0.000000 0.927606 0.752416
O O9 0.000000 0.000000 0.000000
O O10 0.500000 0.000000 0.000000
O O11 0.750000 0.559434 0.250000
O O12 0.500000 0.561114 0.160385
O O13 0.674401 0.500000 0.000000
#
# Coordination Sequence:
#
# PCOD9419826 Si02
#       5
#     8   8   4   4   8
#     4   9  18  33  58  86 114 151 196 240 284 342
#     4  11  22  39  63  88 114 151 195 243 288 349
#     4  12  26  42  60  88 119 152 193 238 295 352
#     4  12  24  42  62  84 117 152 189 238 295 348
#     4   9  18  34  56  83 117 154 195 238 282 336
#
# _framework density 17.956368999999999
#
# number of rings (size 3 to 8) (size 9 to 14) (size 15 to 20)
#    0.000    1.750    1.250    3.750    5.250    0.500 
#    0.000    2.500    0.000    0.000    0.000    0.000 
#    0.000    0.000    0.000    0.000    0.000    0.000 
#
# Total GULP energy -178324.564306 kJ/mol
# GULP energy per Si atom -5572.642635 kJ/mol
# Density = 1.791550 g / cm^3
# Si number density = 17.956369 Si / 1000 Ang^3
#
#
#
# Elastic Constant Matrix: (Units=GPa)
#
#
# Indices 1 2 3 4 5 6 
#
# 1 144.9387 93.0319 43.9942 0.0000 0.0000 0.0000
# 2 93.0319 220.4928 56.4276 0.0000 0.0000 0.0000
# 3 43.9942 56.4276 87.0874 0.0000 0.0000 0.0000
# 4 0.0000 0.0000 0.0000 21.1046 0.0000 0.0000
# 5 0.0000 0.0000 0.0000 0.0000 32.2863 0.0000
# 6 0.0000 0.0000 0.0000 0.0000 0.0000 36.3584
#
#
#
# Elastic Compliance Matrix: (Units=1/GPa)
#
#
# Indices 1 2 3 4 5 6 
#
# 1 0.009992 -0.003505 -0.002776 0.000000 0.000000 0.000000
# 2 -0.003505 0.006667 -0.002549 0.000000 0.000000 0.000000
# 3 -0.002776 -0.002549 0.014537 0.000000 0.000000 0.000000
# 4 0.000000 0.000000 0.000000 0.047383 0.000000 0.000000
# 5 0.000000 0.000000 0.000000 0.000000 0.030973 0.000000
# 6 0.000000 0.000000 0.000000 0.000000 0.000000 0.027504
#
#
# Mechanical properties :
#
#
# Convention : Reuss Voigt Hill
#
# Bulk Modulus (GPa) = 73.88635 93.26957 83.57796
# Shear Modulus (GPa) = 31.40144 35.22086 33.31115
#
# Velocity S-wave (km/s) = 4.18636 4.43365 4.31178
# Velocity P-wave (km/s) = 8.03769 8.84674 8.45190
#
# Compressibility (1/GPa) = 0.01353430
#
# Stress axis : x y z
#
# Youngs Moduli (GPa) = 100.07711 150.00144 68.79125
#
# Poissons Ratio (x) = 0.52583 0.19100
# Poissons Ratio (y) = 0.35082 0.17533
# Poissons Ratio (z) = 0.27786 0.38231
#
# Static dielectric constant tensor:
#      x y z
#    x 1.591470 0.000000 0.000000 
#    y 0.000000 1.663400 0.000000 
#    z 0.000000 0.000000 1.593230 
# 
# From -- ./inp_files/6039.got.cif
#   From: 2010.05.17/outbox.cif.g08.bks.cpg/sg53_4_cif.got.tgz:6039.got - 2010.06.03 12:45:16.
