data_PCOD9419159
_publ_section_title
;
Structure prediction by ZEFSAII (Michael W. Deem and Ramdas Pophale) SiO2 
 PCOD9419159
Probable space group: P M N A
;
_chemical_formula_sum "Si O2"
_cell_formula_units_Z 40
_cell_length_a 8.621866
_cell_length_b 26.266694
_cell_length_c 9.109060
_cell_angle_alpha 90.000000
_cell_angle_beta 90.000000
_cell_angle_gamma 90.000000
_cell_volume 2062.909834
_symmetry_space_group_name_H-M "P M N A"
_symmetry_group_IT_number 53
_symmetry_cell_setting 'orthorhombic'
loop_
_space_group_symop_operation_xyz
x,y,z
1/2-x,-y,1/2+z
x,-y,-z
1/2-x,y,1/2-z
-x,-y,-z
1/2+x,y,1/2-z
-x,y,z
1/2+x,-y,1/2+z
loop_
_atom_site_type_symbol
_atom_site_label
_atom_site_fract_x
_atom_site_fract_y
_atom_site_fract_z
Si Si1 0.686810 0.346398 0.915119
Si Si2 0.314332 0.248218 0.415103
Si Si3 0.685457 0.150022 0.914987
Si Si4 0.312882 0.550682 0.914627
Si Si5 0.185881 0.947685 0.914722
O O1 0.750000 0.346337 0.750000
O O2 0.500000 0.343110 0.913039
O O3 0.754349 0.298556 0.002916
O O4 0.732557 0.398649 0.996825
O O5 0.250000 0.247433 0.250000
O O6 0.500000 0.247720 0.412628
O O7 0.252587 0.199055 0.501592
O O8 0.750000 0.148691 0.750000
O O9 0.500000 0.152789 0.912114
O O10 0.739470 0.099640 0.000389
O O11 0.250000 0.551774 0.750000
O O12 0.500000 0.549621 0.908587
O O13 0.260151 0.500000 0.000000
O O14 0.250000 0.950108 0.750000
O O15 0.000000 0.941265 0.911416
O O16 0.221409 0.000000 0.000000
#
# Coordination Sequence:
#
# PCOD9419159 Si02
#       5
#     8   8   8   8   8
#     4  11  23  40  62  90 123 160 204 251 304 363
#     4  12  25  43  65  91 124 161 204 252 306 364
#     4  12  25  43  66  93 126 163 206 254 307 364
#     4  10  22  39  60  88 121 158 201 249 302 361
#     4  11  24  42  65  94 128 166 208 254 306 363
#
# _framework density 19.390084999999999
#
# number of rings (size 3 to 8) (size 9 to 14) (size 15 to 20)
#    0.000    0.800    0.000    7.800    0.000    6.800 
#    0.000    0.000    0.000    0.000    0.000    0.000 
#    0.000    0.000    0.000    0.000    0.000    0.000 
#
# Total GULP energy -223989.581760 kJ/mol
# GULP energy per Si atom -5599.739544 kJ/mol
# Density = 1.934595 g / cm^3
# Si number density = 19.390085 Si / 1000 Ang^3
#
#
#
# Elastic Constant Matrix: (Units=GPa)
#
#
# Indices 1 2 3 4 5 6 
#
# 1 133.3676 98.3019 86.9220 0.0000 0.0000 0.0000
# 2 98.3019 218.5890 134.6889 0.0000 0.0000 0.0000
# 3 86.9220 134.6889 239.3783 0.0000 0.0000 0.0000
# 4 0.0000 0.0000 0.0000 40.8362 0.0000 0.0000
# 5 0.0000 0.0000 0.0000 0.0000 42.3386 0.0000
# 6 0.0000 0.0000 0.0000 0.0000 0.0000 39.6859
#
#
#
# Elastic Compliance Matrix: (Units=1/GPa)
#
#
# Indices 1 2 3 4 5 6 
#
# 1 0.011804 -0.004083 -0.001989 0.000000 0.000000 0.000000
# 2 -0.004083 0.008415 -0.003252 0.000000 0.000000 0.000000
# 3 -0.001989 -0.003252 0.006730 0.000000 0.000000 0.000000
# 4 0.000000 0.000000 0.000000 0.024488 0.000000 0.000000
# 5 0.000000 0.000000 0.000000 0.000000 0.023619 0.000000
# 6 0.000000 0.000000 0.000000 0.000000 0.000000 0.025198
#
#
# Mechanical properties :
#
#
# Convention : Reuss Voigt Hill
#
# Bulk Modulus (GPa) = 120.47646 136.79560 128.63603
# Shear Modulus (GPa) = 41.09573 42.66695 41.88134
#
# Velocity S-wave (km/s) = 4.60871 4.69599 4.65255
# Velocity P-wave (km/s) = 9.51778 10.00527 9.76457
#
# Compressibility (1/GPa) = 0.00830038
#
# Stress axis : x y z
#
# Youngs Moduli (GPa) = 84.72004 118.83942 148.59864
#
# Poissons Ratio (x) = 0.48519 0.29555
# Poissons Ratio (y) = 0.34589 0.48326
# Poissons Ratio (z) = 0.16850 0.38648
#
# Static dielectric constant tensor:
#      x y z
#    x 1.653680 0.000000 0.000000 
#    y 0.000000 1.647860 0.000000 
#    z 0.000000 0.000000 1.623630 
# 
# From -- ./inp_files/6315.got.cif
#   From: 2010.05.17/outbox.cif.g08.bks.cpg/sg53_4_cif.got.tgz:6315.got - 2010.06.03 12:45:16.
