data_PCOD9419605
_publ_section_title
;
Structure prediction by ZEFSAII (Michael W. Deem and Ramdas Pophale) SiO2 
 PCOD9419605
Probable space group: P M N A
;
_chemical_formula_sum "Si O2"
_cell_formula_units_Z 24
_cell_length_a 13.571419
_cell_length_b 6.990201
_cell_length_c 13.585965
_cell_angle_alpha 90.000000
_cell_angle_beta 90.000000
_cell_angle_gamma 90.000000
_cell_volume 1288.859017
_symmetry_space_group_name_H-M "P M N A"
_symmetry_group_IT_number 53
_symmetry_cell_setting 'orthorhombic'
loop_
_space_group_symop_operation_xyz
x,y,z
1/2-x,-y,1/2+z
x,-y,-z
1/2-x,y,1/2-z
-x,-y,-z
1/2+x,y,1/2-z
-x,y,z
1/2+x,-y,1/2+z
loop_
_atom_site_type_symbol
_atom_site_label
_atom_site_fract_x
_atom_site_fract_y
_atom_site_fract_z
Si Si1 0.000000 0.785441 0.038637
Si Si2 0.329297 0.500000 0.500000
Si Si3 0.000000 0.904960 0.608295
Si Si4 0.639627 0.444223 0.110180
Si Si5 0.500000 0.289902 0.770315
O O1 0.901459 0.679886 0.002206
O O2 0.000000 0.746590 0.155091
O O3 0.000000 0.000000 0.000000
O O4 0.256086 0.472478 0.406571
O O5 0.094802 0.767051 0.624984
O O6 0.000000 0.000000 0.500000
O O7 0.000000 0.083232 0.680224
O O8 0.592426 0.586437 0.189261
O O9 0.603260 0.500000 0.000000
#
# Coordination Sequence:
#
# PCOD9419605 Si02
#       5
#     4   4   4   8   4
#     4  11  26  43  58  81 126 176 202 242 305 370
#     4   9  22  45  62  76 122 159 208 253 304 358
#     4  11  15  30  61  97 125 143 188 257 316 356
#     4   9  19  36  63  91 114 157 197 262 318 335
#     4  11  21  36  61  96 124 153 205 252 303 376
#
# _framework density 18.621120000000001
#
# number of rings (size 3 to 8) (size 9 to 14) (size 15 to 20)
#    1.000    1.000    3.333    1.000    0.000   10.667 
#    0.000    0.000    0.000    0.000    0.000    0.000 
#    0.000    0.000    0.000    0.000    0.000    0.000 
#
# Total GULP energy -133624.266473 kJ/mol
# GULP energy per Si atom -5567.677770 kJ/mol
# Density = 1.857874 g / cm^3
# Si number density = 18.621120 Si / 1000 Ang^3
#
#
#
# Elastic Constant Matrix: (Units=GPa)
#
#
# Indices 1 2 3 4 5 6 
#
# 1 168.3931 83.7402 44.1383 0.0000 0.0000 0.0000
# 2 83.7402 179.7196 43.3348 0.0000 0.0000 0.0000
# 3 44.1383 43.3348 79.7501 0.0000 0.0000 0.0000
# 4 0.0000 0.0000 0.0000 25.8785 0.0000 0.0000
# 5 0.0000 0.0000 0.0000 0.0000 -11.0674 0.0000
# 6 0.0000 0.0000 0.0000 0.0000 0.0000 -13.6076
#
#
#
# Elastic Compliance Matrix: (Units=1/GPa)
#
#
# Indices 1 2 3 4 5 6 
#
# 1 0.008258 -0.003160 -0.002853 0.000000 0.000000 0.000000
# 2 -0.003160 0.007612 -0.002388 0.000000 0.000000 0.000000
# 3 -0.002853 -0.002388 0.015416 0.000000 0.000000 0.000000
# 4 0.000000 0.000000 0.000000 0.038642 0.000000 0.000000
# 5 0.000000 0.000000 0.000000 0.000000 -0.090355 0.000000
# 6 0.000000 0.000000 0.000000 0.000000 0.000000 -0.073488
#
#
# Mechanical properties :
#
#
# Convention : Reuss Voigt Hill
#
# Bulk Modulus (GPa) = 69.03982 85.58768 77.31375
# Shear Modulus (GPa) = -69.16909 17.35067 -25.90921
#
# Velocity S-wave (km/s) = -6.10132 3.05581 -3.73418
# Velocity P-wave (km/s) = 3.53246 7.64939 4.79765
#
# Compressibility (1/GPa) = 0.01448440
#
# Stress axis : x y z
#
# Youngs Moduli (GPa) = 121.09991 131.36882 64.86864
#
# Poissons Ratio (x) = 0.41508 0.18509
# Poissons Ratio (y) = 0.38263 0.15488
# Poissons Ratio (z) = 0.34554 0.31366
#
# Static dielectric constant tensor:
#      x y z
#    x 1.684490 0.000000 0.000000 
#    y 0.000000 1.607030 0.000000 
#    z 0.000000 0.000000 1.741920 
# 
# From -- ./inp_files/22032.got.cif
#   From: 2010.05.17/outbox.cif.g08.bks.cpg/sg53_12_cif.got.tgz:22032.got - 2010.06.03 12:45:16.
