data_PCOD9419770
_publ_section_title
;
Structure prediction by ZEFSAII (Michael W. Deem and Ramdas Pophale) SiO2 
 PCOD9419770
Probable space group: P M N A
;
_chemical_formula_sum "Si O2"
_cell_formula_units_Z 32
_cell_length_a 14.518783
_cell_length_b 13.894322
_cell_length_c 7.362504
_cell_angle_alpha 90.000000
_cell_angle_beta 90.000000
_cell_angle_gamma 90.000000
_cell_volume 1485.227963
_symmetry_space_group_name_H-M "P M N A"
_symmetry_group_IT_number 53
_symmetry_cell_setting 'orthorhombic'
loop_
_space_group_symop_operation_xyz
x,y,z
1/2-x,-y,1/2+z
x,-y,-z
1/2-x,y,1/2-z
-x,-y,-z
1/2+x,y,1/2-z
-x,y,z
1/2+x,-y,1/2+z
loop_
_atom_site_type_symbol
_atom_site_label
_atom_site_fract_x
_atom_site_fract_y
_atom_site_fract_z
Si Si1 0.250000 0.224786 0.250000
Si Si2 0.000000 0.756994 0.375102
Si Si3 0.895147 0.386885 0.196250
Si Si4 0.644186 0.601817 0.266689
Si Si5 0.319789 0.894739 0.080140
O O1 0.336137 0.296161 0.249624
O O2 0.239134 0.160957 0.426961
O O3 0.079493 0.671524 0.345261
O O4 0.084274 0.838361 0.384150
O O5 0.862888 0.488291 0.278810
O O6 0.000000 0.370222 0.247368
O O7 0.886659 0.392870 0.977500
O O8 0.750000 0.631788 0.250000
O O9 0.250000 0.901799 0.250000
O O10 0.340919 0.000000 0.000000
#
# Coordination Sequence:
#
# PCOD9419770 Si02
#       5
#     4   4   8   8   8
#     4  12  26  48  76 108 146 198 248 308 366 440
#     4  12  23  43  76 109 142 194 243 294 366 440
#     4  11  22  41  68 106 153 203 247 288 363 438
#     4  11  21  41  67 106 159 201 241 295 352 439
#     4  12  28  54  78 106 145 189 251 318 377 435
#
# _framework density 21.545515000000002
#
# number of rings (size 3 to 8) (size 9 to 14) (size 15 to 20)
#    0.000    0.500    5.000    4.875    1.750    0.000 
#    0.000    1.875    0.000    0.000    0.000    0.000 
#    0.000    0.000    0.000    0.000    0.000    0.000 
#
# Total GULP energy -178161.359515 kJ/mol
# GULP energy per Si atom -5567.542485 kJ/mol
# Density = 2.149648 g / cm^3
# Si number density = 21.545515 Si / 1000 Ang^3
#
#
#
# Elastic Constant Matrix: (Units=GPa)
#
#
# Indices 1 2 3 4 5 6 
#
# 1 224.9749 73.3503 33.2890 0.0000 0.0000 0.0000
# 2 73.3503 184.4802 38.4558 0.0000 0.0000 0.0000
# 3 33.2890 38.4558 83.3230 0.0000 0.0000 0.0000
# 4 0.0000 0.0000 0.0000 19.7495 0.0000 0.0000
# 5 0.0000 0.0000 0.0000 0.0000 21.0366 0.0000
# 6 0.0000 0.0000 0.0000 0.0000 0.0000 218.7701
#
#
#
# Elastic Compliance Matrix: (Units=1/GPa)
#
#
# Indices 1 2 3 4 5 6 
#
# 1 0.005222 -0.001816 -0.001248 0.000000 0.000000 0.000000
# 2 -0.001816 0.006629 -0.002334 0.000000 0.000000 0.000000
# 3 -0.001248 -0.002334 0.013577 0.000000 0.000000 0.000000
# 4 0.000000 0.000000 0.000000 0.050634 0.000000 0.000000
# 5 0.000000 0.000000 0.000000 0.000000 0.047536 0.000000
# 6 0.000000 0.000000 0.000000 0.000000 0.000000 0.004571
#
#
# Mechanical properties :
#
#
# Convention : Reuss Voigt Hill
#
# Bulk Modulus (GPa) = 68.34291 86.99649 77.66970
# Shear Modulus (GPa) = 34.76005 75.09009 54.92507
#
# Velocity S-wave (km/s) = 4.02099 5.90995 5.05449
# Velocity P-wave (km/s) = 7.30390 9.32929 8.37802
#
# Compressibility (1/GPa) = 0.01463209
#
# Stress axis : x y z
#
# Youngs Moduli (GPa) = 191.50858 150.84690 73.65225
#
# Poissons Ratio (x) = 0.27394 0.09192
# Poissons Ratio (y) = 0.34778 0.17191
# Poissons Ratio (z) = 0.23901 0.35208
#
# Static dielectric constant tensor:
#      x y z
#    x 1.755930 0.000000 0.000000 
#    y 0.000000 1.778320 0.000000 
#    z 0.000000 0.000000 1.921010 
# 
# From -- ./inp_files/8163.got.cif
#   From: 2010.05.17/outbox.cif.g08.bks.cpg/sg53_5_cif.got.tgz:8163.got - 2010.06.03 12:45:16.
