data_PCOD9419840
_publ_section_title
;
Structure prediction by ZEFSAII (Michael W. Deem and Ramdas Pophale) SiO2 
 PCOD9419840
Probable space group: P M N A
;
_chemical_formula_sum "Si O2"
_cell_formula_units_Z 28
_cell_length_a 13.712383
_cell_length_b 8.663992
_cell_length_c 10.929099
_cell_angle_alpha 90.000000
_cell_angle_beta 90.000000
_cell_angle_gamma 90.000000
_cell_volume 1298.420422
_symmetry_space_group_name_H-M "P M N A"
_symmetry_group_IT_number 53
_symmetry_cell_setting 'orthorhombic'
loop_
_space_group_symop_operation_xyz
x,y,z
1/2-x,-y,1/2+z
x,-y,-z
1/2-x,y,1/2-z
-x,-y,-z
1/2+x,y,1/2-z
-x,y,z
1/2+x,-y,1/2+z
loop_
_atom_site_type_symbol
_atom_site_label
_atom_site_fract_x
_atom_site_fract_y
_atom_site_fract_z
Si Si1 0.392389 0.904019 0.375121
Si Si2 0.750000 0.862503 0.750000
Si Si3 0.614067 0.181761 0.032856
Si Si4 0.251609 0.618707 0.110532
O O1 0.500000 0.871337 0.327367
O O2 0.331520 0.749742 0.393727
O O3 0.399304 0.000000 0.500000
O O4 0.334412 0.022138 0.292202
O O5 0.806600 0.778816 0.639223
O O6 0.500000 0.206060 0.064549
O O7 0.648108 0.289067 0.920262
O O8 0.627081 0.000000 0.000000
O O9 0.250000 0.557309 0.250000
O O10 0.235690 0.500000 0.000000
#
# Coordination Sequence:
#
# PCOD9419840 Si02
#       4
#     8   4   8   8
#     4  11  22  40  68 100 132 170 219 278 339 397
#     4  12  18  40  72 106 130 164 220 288 344 400
#     4  11  23  42  72 101 132 176 227 284 345 405
#     4  12  26  45  67  96 141 183 227 279 335 404
#
# _framework density 21.564662999999999
#
# number of rings (size 3 to 8) (size 9 to 14) (size 15 to 20)
#    0.000    0.571    7.143    0.857    2.000    4.571 
#    0.000    0.000    0.000    0.000    0.000    0.000 
#    0.000    0.000    0.000    0.000    0.000    0.000 
#
# Total GULP energy -156395.481735 kJ/mol
# GULP energy per Si atom -5585.552919 kJ/mol
# Density = 2.151558 g / cm^3
# Si number density = 21.564663 Si / 1000 Ang^3
#
#
#
# Elastic Constant Matrix: (Units=GPa)
#
#
# Indices 1 2 3 4 5 6 
#
# 1 136.7949 15.2705 40.5064 0.0000 0.0000 0.0000
# 2 15.2705 59.0687 50.9682 0.0000 0.0000 0.0000
# 3 40.5064 50.9682 142.9469 0.0000 0.0000 0.0000
# 4 0.0000 0.0000 0.0000 45.4095 0.0000 0.0000
# 5 0.0000 0.0000 0.0000 0.0000 95.1128 0.0000
# 6 0.0000 0.0000 0.0000 0.0000 0.0000 2.7134
#
#
#
# Elastic Compliance Matrix: (Units=1/GPa)
#
#
# Indices 1 2 3 4 5 6 
#
# 1 0.007981 -0.000162 -0.002204 0.000000 0.000000 0.000000
# 2 -0.000162 0.024456 -0.008674 0.000000 0.000000 0.000000
# 3 -0.002204 -0.008674 0.010713 0.000000 0.000000 0.000000
# 4 0.000000 0.000000 0.000000 0.022022 0.000000 0.000000
# 5 0.000000 0.000000 0.000000 0.000000 0.010514 0.000000
# 6 0.000000 0.000000 0.000000 0.000000 0.000000 0.368540
#
#
# Mechanical properties :
#
#
# Convention : Reuss Voigt Hill
#
# Bulk Modulus (GPa) = 47.45972 61.36673 54.41322
# Shear Modulus (GPa) = 10.56353 44.11816 27.34084
#
# Velocity S-wave (km/s) = 2.21566 4.52802 3.56456
# Velocity P-wave (km/s) = 5.34803 7.47370 6.49837
#
# Compressibility (1/GPa) = 0.02107050
#
# Stress axis : x y z
#
# Youngs Moduli (GPa) = 125.29997 40.89041 93.34593
#
# Poissons Ratio (x) = 0.00661 0.20573
# Poissons Ratio (y) = 0.02024 0.80968
# Poissons Ratio (z) = 0.27615 0.35468
#
# Static dielectric constant tensor:
#      x y z
#    x 1.808370 0.000000 0.000000 
#    y 0.000000 1.778440 0.000000 
#    z 0.000000 0.000000 1.903650 
# 
# From -- ./inp_files/15302.got.cif
#   From: 2010.05.17/outbox.cif.g08.bks.cpg/sg53_8_cif.got.tgz:15302.got - 2010.06.03 12:45:16.
