data_PCOD9419640
_publ_section_title
;
Structure prediction by ZEFSAII (Michael W. Deem and Ramdas Pophale) SiO2 
 PCOD9419640
Probable space group: P M N A
;
_chemical_formula_sum "Si O2"
_cell_formula_units_Z 40
_cell_length_a 8.789960
_cell_length_b 11.479543
_cell_length_c 22.171070
_cell_angle_alpha 90.000000
_cell_angle_beta 90.000000
_cell_angle_gamma 90.000000
_cell_volume 2237.165694
_symmetry_space_group_name_H-M "P M N A"
_symmetry_group_IT_number 53
_symmetry_cell_setting 'orthorhombic'
loop_
_space_group_symop_operation_xyz
x,y,z
1/2-x,-y,1/2+z
x,-y,-z
1/2-x,y,1/2-z
-x,-y,-z
1/2+x,y,1/2-z
-x,y,z
1/2+x,-y,1/2+z
loop_
_atom_site_type_symbol
_atom_site_label
_atom_site_fract_x
_atom_site_fract_y
_atom_site_fract_z
Si Si1 0.826628 0.196196 0.009154
Si Si2 0.676983 0.117578 0.187433
Si Si3 0.317987 0.370939 0.316877
Si Si4 0.679970 0.422589 0.057691
Si Si5 0.826557 0.030824 0.905418
O O1 0.000000 0.243063 0.009506
O O2 0.789711 0.146569 0.942920
O O3 0.715184 0.291423 0.035669
O O4 0.828319 0.080265 0.049716
O O5 0.750000 0.081644 0.250000
O O6 0.500000 0.146471 0.192224
O O7 0.765395 0.237005 0.171209
O O8 0.707076 0.010930 0.143193
O O9 0.250000 0.401386 0.250000
O O10 0.500000 0.376772 0.313765
O O11 0.259006 0.438734 0.376699
O O12 0.500000 0.440166 0.065850
O O13 0.731330 0.500000 0.000000
O O14 0.000000 0.041163 0.881695
#
# Coordination Sequence:
#
# PCOD9419640 Si02
#       5
#     8   8   8   8   8
#     4   9  18  32  52  75 103 137 172 210 259 312
#     4  11  20  30  48  75 106 140 174 213 263 317
#     4  11  21  35  55  78 107 140 178 223 273 325
#     4  11  23  37  54  80 113 144 181 228 271 318
#     4   9  17  31  50  75 105 135 167 211 259 309
#
# _framework density 17.879766
#
# number of rings (size 3 to 8) (size 9 to 14) (size 15 to 20)
#    0.000    1.800    2.000    6.600    0.000    2.400 
#    0.000    2.000    0.000    1.200    0.000    8.400 
#    0.000    0.000    0.000    0.000    0.000    0.000 
#
# Total GULP energy -222820.925377 kJ/mol
# GULP energy per Si atom -5570.523134 kJ/mol
# Density = 1.783907 g / cm^3
# Si number density = 17.879766 Si / 1000 Ang^3
#
#
#
# Elastic Constant Matrix: (Units=GPa)
#
#
# Indices 1 2 3 4 5 6 
#
# 1 99.1446 12.1618 57.6582 0.0000 0.0000 0.0000
# 2 12.1618 22.5518 25.4948 0.0000 0.0000 0.0000
# 3 57.6582 25.4948 123.0685 0.0000 0.0000 0.0000
# 4 0.0000 0.0000 0.0000 30.3508 0.0000 0.0000
# 5 0.0000 0.0000 0.0000 0.0000 28.1091 0.0000
# 6 0.0000 0.0000 0.0000 0.0000 0.0000 21.6048
#
#
#
# Elastic Compliance Matrix: (Units=1/GPa)
#
#
# Indices 1 2 3 4 5 6 
#
# 1 0.013864 -0.000174 -0.006459 0.000000 0.000000 0.000000
# 2 -0.000174 0.057905 -0.011914 0.000000 0.000000 0.000000
# 3 -0.006459 -0.011914 0.013620 0.000000 0.000000 0.000000
# 4 0.000000 0.000000 0.000000 0.032948 0.000000 0.000000
# 5 0.000000 0.000000 0.000000 0.000000 0.035576 0.000000
# 6 0.000000 0.000000 0.000000 0.000000 0.000000 0.046286
#
#
# Mechanical properties :
#
#
# Convention : Reuss Voigt Hill
#
# Bulk Modulus (GPa) = 20.70659 48.37716 34.54188
# Shear Modulus (GPa) = 19.73230 25.97629 22.85429
#
# Velocity S-wave (km/s) = 3.32567 3.81574 3.57910
# Velocity P-wave (km/s) = 5.13351 6.82120 6.03663
#
# Compressibility (1/GPa) = 0.04829380
#
# Stress axis : x y z
#
# Youngs Moduli (GPa) = 72.12875 17.26967 73.42245
#
# Poissons Ratio (x) = 0.00301 0.47425
# Poissons Ratio (y) = 0.01258 0.87474
# Poissons Ratio (z) = 0.46590 0.20575
#
# Static dielectric constant tensor:
#      x y z
#    x 1.620780 0.000000 0.000000 
#    y 0.000000 1.593780 0.000000 
#    z 0.000000 0.000000 1.664910 
# 
# From -- ./inp_files/30363.got.cif
#   From: 2010.05.17/outbox.cif.g08.bks.cpg/sg53_16_cif.got.tgz:30363.got - 2010.06.03 12:45:16.
