data_PCOD9419387
_publ_section_title
;
Structure prediction by ZEFSAII (Michael W. Deem and Ramdas Pophale) SiO2 
 PCOD9419387
Probable space group: P M N A
;
_chemical_formula_sum "Si O2"
_cell_formula_units_Z 40
_cell_length_a 14.496778
_cell_length_b 9.150193
_cell_length_c 14.862949
_cell_angle_alpha 90.000000
_cell_angle_beta 90.000000
_cell_angle_gamma 90.000000
_cell_volume 1971.545164
_symmetry_space_group_name_H-M "P M N A"
_symmetry_group_IT_number 53
_symmetry_cell_setting 'orthorhombic'
loop_
_space_group_symop_operation_xyz
x,y,z
1/2-x,-y,1/2+z
x,-y,-z
1/2-x,y,1/2-z
-x,-y,-z
1/2+x,y,1/2-z
-x,y,z
1/2+x,-y,1/2+z
loop_
_atom_site_type_symbol
_atom_site_label
_atom_site_fract_x
_atom_site_fract_y
_atom_site_fract_z
Si Si1 0.000000 0.666747 0.962870
Si Si2 0.164881 0.133756 0.065288
Si Si3 0.500000 0.721842 0.227492
Si Si4 0.000000 0.613350 0.752909
Si Si5 0.359054 0.035438 0.742894
Si Si6 0.500000 0.674909 0.016570
Si Si7 0.362302 0.779681 0.874154
O O1 0.092222 0.760409 0.984565
O O2 0.000000 0.666629 0.854354
O O3 0.000000 0.500000 0.000000
O O4 0.253340 0.220012 0.105607
O O5 0.120750 0.055674 0.152641
O O6 0.194396 0.000000 0.000000
O O7 0.500000 0.559305 0.261980
O O8 0.412512 0.814626 0.257676
O O9 0.500000 0.708470 0.120361
O O10 0.910231 0.667564 0.696454
O O11 0.250000 0.057669 0.750000
O O12 0.384964 0.935711 0.828810
O O13 0.500000 0.500000 0.000000
O O14 0.412883 0.746074 0.966930
#
# Coordination Sequence:
#
# PCOD9419387 Si02
#       7
#     4   8   4   4   8   4   8
#     4  12  27  45  66  98 133 186 231 262 333 405
#     4  11  25  45  70  95 132 172 228 285 322 388
#     4  12  24  41  66  97 139 162 221 280 324 395
#     4  11  23  46  68  95 137 184 208 268 348 414
#     4  10  23  42  65  96 124 173 222 265 332 391
#     4  11  23  39  63 102 133 161 211 275 344 393
#     4  10  22  45  68  93 129 177 215 266 348 400
#
# _framework density 20.288654999999999
#
# number of rings (size 3 to 8) (size 9 to 14) (size 15 to 20)
#    0.000    1.200    4.000    2.100    8.400    1.600 
#    3.600    0.000    0.000    0.000    0.000    0.000 
#    0.000    0.000    0.000    0.000    0.000    0.000 
#
# Total GULP energy -223383.182937 kJ/mol
# GULP energy per Si atom -5584.579573 kJ/mol
# Density = 2.024248 g / cm^3
# Si number density = 20.288655 Si / 1000 Ang^3
#
#
#
# Elastic Constant Matrix: (Units=GPa)
#
#
# Indices 1 2 3 4 5 6 
#
# 1 109.6129 71.4158 9.5531 0.0000 0.0000 0.0000
# 2 71.4158 135.0783 5.4069 0.0000 0.0000 0.0000
# 3 9.5531 5.4069 64.4725 0.0000 0.0000 0.0000
# 4 0.0000 0.0000 0.0000 41.5753 0.0000 0.0000
# 5 0.0000 0.0000 0.0000 0.0000 30.1489 0.0000
# 6 0.0000 0.0000 0.0000 0.0000 0.0000 -38.9234
#
#
#
# Elastic Compliance Matrix: (Units=1/GPa)
#
#
# Indices 1 2 3 4 5 6 
#
# 1 0.014053 -0.007371 -0.001464 0.000000 0.000000 0.000000
# 2 -0.007371 0.011295 0.000145 0.000000 0.000000 0.000000
# 3 -0.001464 0.000145 0.015715 0.000000 0.000000 0.000000
# 4 0.000000 0.000000 0.000000 0.024053 0.000000 0.000000
# 5 0.000000 0.000000 0.000000 0.000000 0.033169 0.000000
# 6 0.000000 0.000000 0.000000 0.000000 0.000000 -0.025691
#
#
# Mechanical properties :
#
#
# Convention : Reuss Voigt Hill
#
# Bulk Modulus (GPa) = 42.22583 53.54614 47.88598
# Shear Modulus (GPa) = 51.08923 21.41267 36.25095
#
# Velocity S-wave (km/s) = 5.02353 3.25222 4.23159
# Velocity P-wave (km/s) = 7.38278 6.36805 6.89411
#
# Compressibility (1/GPa) = 0.02368219
#
# Stress axis : x y z
#
# Youngs Moduli (GPa) = 71.15796 88.53850 63.63233
#
# Poissons Ratio (x) = 0.65265 0.09317
# Poissons Ratio (y) = 0.52453 -0.00923
# Poissons Ratio (z) = 0.10418 -0.01284
#
# Static dielectric constant tensor:
#      x y z
#    x 1.756110 0.000000 0.000000 
#    y 0.000000 1.721000 0.000000 
#    z 0.000000 0.000000 1.719720 
# 
# From -- ./inp_files/22520.got.cif
#   From: 2010.05.17/outbox.cif.g08.bks.cpg/sg53_12_cif.got.tgz:22520.got - 2010.06.03 12:45:16.
