data_PCOD9419638
_publ_section_title
;
Structure prediction by ZEFSAII (Michael W. Deem and Ramdas Pophale) SiO2 
 PCOD9419638
Probable space group: P M N A
;
_chemical_formula_sum "Si O2"
_cell_formula_units_Z 40
_cell_length_a 18.783200
_cell_length_b 9.638878
_cell_length_c 9.507909
_cell_angle_alpha 90.000000
_cell_angle_beta 90.000000
_cell_angle_gamma 90.000000
_cell_volume 1721.397162
_symmetry_space_group_name_H-M "P M N A"
_symmetry_group_IT_number 53
_symmetry_cell_setting 'orthorhombic'
loop_
_space_group_symop_operation_xyz
x,y,z
1/2-x,-y,1/2+z
x,-y,-z
1/2-x,y,1/2-z
-x,-y,-z
1/2+x,y,1/2-z
-x,y,z
1/2+x,-y,1/2+z
loop_
_atom_site_type_symbol
_atom_site_label
_atom_site_fract_x
_atom_site_fract_y
_atom_site_fract_z
Si Si1 0.580638 0.742890 0.249195
Si Si2 0.584106 0.939181 0.694945
Si Si3 0.365897 0.258020 0.056547
Si Si4 0.785559 0.785992 0.905355
Si Si5 0.827260 0.509506 0.784358
O O1 0.500000 0.731708 0.295060
O O2 0.622963 0.617425 0.317139
O O3 0.602375 0.900667 0.278804
O O4 0.588828 0.720302 0.081943
O O5 0.500000 0.925695 0.655999
O O6 0.597475 0.852773 0.839217
O O7 0.642946 0.875156 0.589332
O O8 0.286788 0.205619 0.005818
O O9 0.354483 0.397572 0.150270
O O10 0.750000 0.814202 0.750000
O O11 0.812165 0.628009 0.898460
O O12 0.750000 0.449561 0.750000
#
# Coordination Sequence:
#
# PCOD9419638 Si02
#       5
#     8   8   8   8   8
#     4  11  20  27  43  74 102 117 137 183 240 275
#     4   9  17  28  42  63  91 118 146 182 222 268
#     4   9  17  30  44  62  91 123 155 184 219 270
#     4   7  15  31  45  57  84 126 164 181 203 265
#     4   8  17  30  42  59  88 125 158 181 208 263
#
# _framework density 23.236937999999999
#
# number of rings (size 3 to 8) (size 9 to 14) (size 15 to 20)
#    0.000    4.000    0.000    1.800    0.000    8.800 
#    0.000    0.000    0.000    0.000    0.000    1.400 
#    0.000   73.600    0.000    0.000    0.000    0.000 
#
# Total GULP energy -223215.757780 kJ/mol
# GULP energy per Si atom -5580.393945 kJ/mol
# Density = 2.318405 g / cm^3
# Si number density = 23.236938 Si / 1000 Ang^3
#
#
#
# Elastic Constant Matrix: (Units=GPa)
#
#
# Indices 1 2 3 4 5 6 
#
# 1 112.6074 86.4462 4.5243 0.0000 0.0000 0.0000
# 2 86.4462 125.3734 -3.1844 0.0000 0.0000 0.0000
# 3 4.5243 -3.1844 57.4824 0.0000 0.0000 0.0000
# 4 0.0000 0.0000 0.0000 12.7841 0.0000 0.0000
# 5 0.0000 0.0000 0.0000 0.0000 9.3374 0.0000
# 6 0.0000 0.0000 0.0000 0.0000 0.0000 58.2311
#
#
#
# Elastic Compliance Matrix: (Units=1/GPa)
#
#
# Indices 1 2 3 4 5 6 
#
# 1 0.019152 -0.013262 -0.002242 0.000000 0.000000 0.000000
# 2 -0.013262 0.017171 0.001995 0.000000 0.000000 0.000000
# 3 -0.002242 0.001995 0.017684 0.000000 0.000000 0.000000
# 4 0.000000 0.000000 0.000000 0.078222 0.000000 0.000000
# 5 0.000000 0.000000 0.000000 0.000000 0.107096 0.000000
# 6 0.000000 0.000000 0.000000 0.000000 0.000000 0.017173
#
#
# Mechanical properties :
#
#
# Convention : Reuss Voigt Hill
#
# Bulk Modulus (GPa) = 37.05327 52.33725 44.69526
# Shear Modulus (GPa) = 17.09332 29.91566 23.50449
#
# Velocity S-wave (km/s) = 2.71516 3.59195 3.18388
# Velocity P-wave (km/s) = 5.08034 6.30675 5.72647
#
# Compressibility (1/GPa) = 0.02698817
#
# Stress axis : x y z
#
# Youngs Moduli (GPa) = 52.21522 58.23708 56.54947
#
# Poissons Ratio (x) = 0.77235 0.12679
# Poissons Ratio (y) = 0.69248 -0.11282
# Poissons Ratio (z) = 0.11707 -0.11619
#
# Static dielectric constant tensor:
#      x y z
#    x 1.888710 0.000000 0.000000 
#    y 0.000000 1.839020 0.000000 
#    z 0.000000 0.000000 1.999850 
# 
# From -- ./inp_files/23433.got.cif
#   From: 2010.05.17/outbox.cif.g08.bks.cpg/sg53_12_cif.got.tgz:23433.got - 2010.06.03 12:45:16.
