data_PCOD9419891
_publ_section_title
;
Structure prediction by ZEFSAII (Michael W. Deem and Ramdas Pophale) SiO2 
 PCOD9419891
Probable space group: P M N A
;
_chemical_formula_sum "Si O2"
_cell_formula_units_Z 32
_cell_length_a 15.772133
_cell_length_b 8.735857
_cell_length_c 11.161838
_cell_angle_alpha 90.000000
_cell_angle_beta 90.000000
_cell_angle_gamma 90.000000
_cell_volume 1537.912624
_symmetry_space_group_name_H-M "P M N A"
_symmetry_group_IT_number 53
_symmetry_cell_setting 'orthorhombic'
loop_
_space_group_symop_operation_xyz
x,y,z
1/2-x,-y,1/2+z
x,-y,-z
1/2-x,y,1/2-z
-x,-y,-z
1/2+x,y,1/2-z
-x,y,z
1/2+x,-y,1/2+z
loop_
_atom_site_type_symbol
_atom_site_label
_atom_site_fract_x
_atom_site_fract_y
_atom_site_fract_z
Si Si1 0.096555 0.191187 0.157771
Si Si2 0.750000 0.002470 0.250000
Si Si3 0.700659 0.757732 0.433079
Si Si4 0.322290 0.500000 0.000000
Si Si5 0.903747 0.458326 0.756957
O O1 0.165394 0.102994 0.237900
O O2 0.098883 0.371268 0.189004
O O3 0.000000 0.136887 0.173069
O O4 0.128705 0.180211 0.021320
O O5 0.749416 0.892795 0.365836
O O6 0.762644 0.649341 0.509620
O O7 0.658147 0.650726 0.331770
O O8 0.375842 0.526604 0.119489
O O9 0.000000 0.400769 0.766413
#
# Coordination Sequence:
#
# PCOD9419891 Si02
#       5
#     8   4   8   4   8
#     4  11  25  45  70 100 139 181 225 281 340 405
#     4  12  26  42  64 104 138 180 214 274 350 412
#     4  12  23  42  71  98 129 179 233 278 333 400
#     4  12  21  40  67  96 132 172 222 286 336 392
#     4  11  23  41  67  99 130 174 230 283 335 397
#
# _framework density 20.807423
#
# number of rings (size 3 to 8) (size 9 to 14) (size 15 to 20)
#    0.000    0.500    5.000    3.375    0.000    5.000 
#    0.000    0.000    0.000    6.000    0.000    0.000 
#    0.000    0.000    0.000    0.000    0.000    0.000 
#
# Total GULP energy -179078.881677 kJ/mol
# GULP energy per Si atom -5596.215052 kJ/mol
# Density = 2.076006 g / cm^3
# Si number density = 20.807423 Si / 1000 Ang^3
#
#
#
# Elastic Constant Matrix: (Units=GPa)
#
#
# Indices 1 2 3 4 5 6 
#
# 1 126.8835 51.7147 49.3119 0.0000 0.0000 0.0000
# 2 51.7147 73.2813 28.3716 0.0000 0.0000 0.0000
# 3 49.3119 28.3716 103.2463 0.0000 0.0000 0.0000
# 4 0.0000 0.0000 0.0000 40.4247 0.0000 0.0000
# 5 0.0000 0.0000 0.0000 0.0000 32.6744 0.0000
# 6 0.0000 0.0000 0.0000 0.0000 0.0000 19.2689
#
#
#
# Elastic Compliance Matrix: (Units=1/GPa)
#
#
# Indices 1 2 3 4 5 6 
#
# 1 0.012332 -0.007187 -0.003915 0.000000 0.000000 0.000000
# 2 -0.007187 0.019459 -0.001915 0.000000 0.000000 0.000000
# 3 -0.003915 -0.001915 0.012082 0.000000 0.000000 0.000000
# 4 0.000000 0.000000 0.000000 0.024737 0.000000 0.000000
# 5 0.000000 0.000000 0.000000 0.000000 0.030605 0.000000
# 6 0.000000 0.000000 0.000000 0.000000 0.000000 0.051897
#
#
# Mechanical properties :
#
#
# Convention : Reuss Voigt Hill
#
# Bulk Modulus (GPa) = 56.05554 62.46751 59.26152
# Shear Modulus (GPa) = 27.30867 30.07446 28.69157
#
# Velocity S-wave (km/s) = 3.62670 3.80593 3.71740
# Velocity P-wave (km/s) = 6.67353 7.02854 6.85333
#
# Compressibility (1/GPa) = 0.01783945
#
# Stress axis : x y z
#
# Youngs Moduli (GPa) = 81.08982 51.38957 82.77059
#
# Poissons Ratio (x) = 0.36934 0.32405
# Poissons Ratio (y) = 0.58279 0.15848
# Poissons Ratio (z) = 0.31747 0.09840
#
# Static dielectric constant tensor:
#      x y z
#    x 1.737960 0.000000 0.000000 
#    y 0.000000 1.758260 0.000000 
#    z 0.000000 0.000000 1.728510 
# 
# From -- ./inp_files/15441.got.cif
#   From: 2010.05.17/outbox.cif.g08.bks.cpg/sg53_8_cif.got.tgz:15441.got - 2010.06.03 12:45:16.
