data_PCOD9419872
_publ_section_title
;
Structure prediction by ZEFSAII (Michael W. Deem and Ramdas Pophale) SiO2 
 PCOD9419872
Probable space group: P M N A
;
_chemical_formula_sum "Si O2"
_cell_formula_units_Z 48
_cell_length_a 8.646050
_cell_length_b 32.703794
_cell_length_c 9.227504
_cell_angle_alpha 90.000000
_cell_angle_beta 90.000000
_cell_angle_gamma 90.000000
_cell_volume 2609.156464
_symmetry_space_group_name_H-M "P M N A"
_symmetry_group_IT_number 53
_symmetry_cell_setting 'orthorhombic'
loop_
_space_group_symop_operation_xyz
x,y,z
1/2-x,-y,1/2+z
x,-y,-z
1/2-x,y,1/2-z
-x,-y,-z
1/2+x,y,1/2-z
-x,y,z
1/2+x,-y,1/2+z
loop_
_atom_site_type_symbol
_atom_site_label
_atom_site_fract_x
_atom_site_fract_y
_atom_site_fract_z
Si Si1 0.185996 0.881954 0.088093
Si Si2 0.686781 0.539495 0.912513
Si Si3 0.814891 0.628848 0.585284
Si Si4 0.185093 0.288012 0.085578
Si Si5 0.813510 0.198090 0.086798
Si Si6 0.814430 0.958979 0.587868
O O1 0.250000 0.884822 0.250000
O O2 0.000000 0.882908 0.091320
O O3 0.236808 0.839522 0.012563
O O4 0.246631 0.919740 0.993776
O O5 0.750000 0.537350 0.750000
O O6 0.500000 0.538360 0.907172
O O7 0.729313 0.584249 0.976607
O O8 0.741967 0.500000 0.000000
O O9 0.750000 0.628024 0.750000
O O10 0.750141 0.670452 0.515869
O O11 0.000000 0.631728 0.590795
O O12 0.250000 0.287346 0.250000
O O13 0.229891 0.243194 0.026879
O O14 0.000000 0.290933 0.090104
O O15 0.750000 0.193584 0.250000
O O16 0.000000 0.197228 0.095905
O O17 0.750000 0.961176 0.750000
O O18 0.000000 0.955902 0.592087
O O19 0.772553 0.000000 0.500000
#
# Coordination Sequence:
#
# PCOD9419872 Si02
#       6
#     8   8   8   8   8   8
#     4  11  23  39  58  81 110 144 183 223 264 310
#     4   9  18  31  46  66  93 123 157 199 244 293
#     4   9  15  24  40  63  90 119 153 194 241 290
#     4   9  15  25  42  66  95 123 155 197 245 294
#     4   9  19  33  51  76 104 133 166 208 255 304
#     4  11  24  41  62  88 117 148 182 221 265 312
#
# _framework density 18.396749
#
# number of rings (size 3 to 8) (size 9 to 14) (size 15 to 20)
#    0.000    2.333    0.000    4.000    0.000    7.000 
#    0.000    0.000    0.000    1.000    0.000    7.000 
#    0.000    0.000    0.000    0.000    0.000    0.000 
#
# Total GULP energy -267589.187262 kJ/mol
# GULP energy per Si atom -5574.774735 kJ/mol
# Density = 1.835488 g / cm^3
# Si number density = 18.396749 Si / 1000 Ang^3
#
#
#
# Elastic Constant Matrix: (Units=GPa)
#
#
# Indices 1 2 3 4 5 6 
#
# 1 41.0474 55.1992 22.0549 0.0000 0.0000 0.0000
# 2 55.1992 234.3811 79.7360 0.0000 0.0000 0.0000
# 3 22.0549 79.7360 83.3598 0.0000 0.0000 0.0000
# 4 0.0000 0.0000 0.0000 26.3111 0.0000 0.0000
# 5 0.0000 0.0000 0.0000 0.0000 18.5181 0.0000
# 6 0.0000 0.0000 0.0000 0.0000 0.0000 28.1351
#
#
#
# Elastic Compliance Matrix: (Units=1/GPa)
#
#
# Indices 1 2 3 4 5 6 
#
# 1 0.035898 -0.007743 -0.002091 0.000000 0.000000 0.000000
# 2 -0.007743 0.007995 -0.005599 0.000000 0.000000 0.000000
# 3 -0.002091 -0.005599 0.017905 0.000000 0.000000 0.000000
# 4 0.000000 0.000000 0.000000 0.038007 0.000000 0.000000
# 5 0.000000 0.000000 0.000000 0.000000 0.054001 0.000000
# 6 0.000000 0.000000 0.000000 0.000000 0.000000 0.035543
#
#
# Mechanical properties :
#
#
# Convention : Reuss Voigt Hill
#
# Bulk Modulus (GPa) = 32.32923 74.75206 53.54065
# Shear Modulus (GPa) = 21.68964 28.04608 24.86786
#
# Velocity S-wave (km/s) = 3.43737 3.90874 3.68061
# Velocity P-wave (km/s) = 5.77629 7.81617 6.87234
#
# Compressibility (1/GPa) = 0.03093176
#
# Stress axis : x y z
#
# Youngs Moduli (GPa) = 27.85657 125.08257 55.85113
#
# Poissons Ratio (x) = 0.96850 0.11681
# Poissons Ratio (y) = 0.21569 0.31269
# Poissons Ratio (z) = 0.05826 0.70029
#
# Static dielectric constant tensor:
#      x y z
#    x 1.623200 0.000000 0.000000 
#    y 0.000000 1.704990 0.000000 
#    z 0.000000 0.000000 1.590130 
# 
# From -- ./inp_files/6716.got.cif
#   From: 2010.05.17/outbox.cif.g08.bks.cpg/sg53_4_cif.got.tgz:6716.got - 2010.06.03 12:45:16.
