data_PCOD9419211
_publ_section_title
;
Structure prediction by ZEFSAII (Michael W. Deem and Ramdas Pophale) SiO2 
 PCOD9419211
Probable space group: P M N A
;
_chemical_formula_sum "Si O2"
_cell_formula_units_Z 48
_cell_length_a 9.141502
_cell_length_b 14.787231
_cell_length_c 18.458593
_cell_angle_alpha 90.000000
_cell_angle_beta 90.000000
_cell_angle_gamma 90.000000
_cell_volume 2495.186488
_symmetry_space_group_name_H-M "P M N A"
_symmetry_group_IT_number 53
_symmetry_cell_setting 'orthorhombic'
loop_
_space_group_symop_operation_xyz
x,y,z
1/2-x,-y,1/2+z
x,-y,-z
1/2-x,y,1/2-z
-x,-y,-z
1/2+x,y,1/2-z
-x,y,z
1/2+x,-y,1/2+z
loop_
_atom_site_type_symbol
_atom_site_label
_atom_site_fract_x
_atom_site_fract_y
_atom_site_fract_z
Si Si1 0.825683 0.026797 0.825525
Si Si2 0.669170 0.725077 0.819778
Si Si3 0.174093 0.180078 0.590464
Si Si4 0.169482 0.111332 0.428915
Si Si5 0.326689 0.566591 0.604793
Si Si6 0.674358 0.368993 0.560930
O O1 0.750000 0.999825 0.750000
O O2 0.761085 0.123609 0.849633
O O3 0.000000 0.028040 0.818406
O O4 0.774577 0.957942 0.888350
O O5 0.750000 0.764009 0.750000
O O6 0.500000 0.713892 0.802708
O O7 0.682653 0.793811 0.886591
O O8 0.739641 0.629910 0.841123
O O9 0.199074 0.130361 0.512949
O O10 0.234663 0.281513 0.582851
O O11 0.000000 0.179641 0.604055
O O12 0.000000 0.079922 0.421667
O O13 0.500000 0.573163 0.618793
O O14 0.302252 0.605523 0.523576
O O15 0.286655 0.460829 0.603837
O O16 0.500000 0.352441 0.569725
#
# Coordination Sequence:
#
# PCOD9419211 Si02
#       6
#     8   8   8   8   8   8
#     4  12  26  43  63  87 117 157 199 244 299 357
#     4  11  22  36  55  84 120 160 200 244 299 355
#     4  11  22  39  63  92 123 155 195 246 295 349
#     4  10  22  40  61  89 121 155 196 244 296 352
#     4   9  18  34  56  83 117 154 192 240 290 344
#     4   9  18  34  58  87 117 151 194 240 289 342
#
# _framework density 19.237038999999999
#
# number of rings (size 3 to 8) (size 9 to 14) (size 15 to 20)
#    0.000    1.667    1.667    4.500    0.000    6.667 
#    0.000    2.500    0.000    4.000    0.000    0.000 
#    0.000    0.000    0.000    0.000    0.000    0.000 
#
# Total GULP energy -268246.179128 kJ/mol
# GULP energy per Si atom -5588.462065 kJ/mol
# Density = 1.919326 g / cm^3
# Si number density = 19.237039 Si / 1000 Ang^3
#
#
#
# Elastic Constant Matrix: (Units=GPa)
#
#
# Indices 1 2 3 4 5 6 
#
# 1 99.3656 63.5568 32.8456 0.0000 0.0000 0.0000
# 2 63.5568 103.4741 11.5182 0.0000 0.0000 0.0000
# 3 32.8456 11.5182 42.5535 0.0000 0.0000 0.0000
# 4 0.0000 0.0000 0.0000 8.6312 0.0000 0.0000
# 5 0.0000 0.0000 0.0000 0.0000********** 0.0000
# 6 0.0000 0.0000 0.0000 0.0000 0.0000 31.0386
#
#
#
# Elastic Compliance Matrix: (Units=1/GPa)
#
#
# Indices 1 2 3 4 5 6 
#
# 1 0.022606 -0.012314 -0.014116 0.000000 0.000000 0.000000
# 2 -0.012314 0.016672 0.004992 0.000000 0.000000 0.000000
# 3 -0.014116 0.004992 0.033044 0.000000 0.000000 0.000000
# 4 0.000000 0.000000 0.000000 0.115858 0.000000 0.000000
# 5 0.000000 0.000000 0.000000 0.000000 -0.000037 0.000000
# 6 0.000000 0.000000 0.000000 0.000000 0.000000 0.032218
#
#
# Mechanical properties :
#
#
# Convention : Reuss Voigt Hill
#
# Bulk Modulus (GPa) = 33.95950 51.24827 42.60389
# Shear Modulus (GPa) = 18.31144 -5338.53883 -2660.11369
#
# Velocity S-wave (km/s) = 3.08861 -52.73670 -37.22647
# Velocity P-wave (km/s) = 5.51460 60.67549 42.72648
#
# Compressibility (1/GPa) = 0.02944684
#
# Stress axis : x y z
#
# Youngs Moduli (GPa) = 44.23527 59.97978 30.26249
#
# Poissons Ratio (x) = 0.73860 0.42718
# Poissons Ratio (y) = 0.54472 -0.15107
# Poissons Ratio (z) = 0.62442 -0.29943
#
# Static dielectric constant tensor:
#      x y z
#    x 1.636450 0.000000 0.000000 
#    y 0.000000 1.674020 0.000000 
#    z 0.000000 0.000000 1.675760 
# 
# From -- ./inp_files/26165.got.cif
#   From: 2010.05.17/outbox.cif.g08.bks.cpg/sg53_14_cif.got.tgz:26165.got - 2010.06.03 12:45:16.
