data_PCOD9419965
_publ_section_title
;
Structure prediction by ZEFSAII (Michael W. Deem and Ramdas Pophale) SiO2 
 PCOD9419965
Probable space group: P M N A
;
_chemical_formula_sum "Si O2"
_cell_formula_units_Z 36
_cell_length_a 19.489404
_cell_length_b 8.718507
_cell_length_c 10.093909
_cell_angle_alpha 90.000000
_cell_angle_beta 90.000000
_cell_angle_gamma 90.000000
_cell_volume 1715.141929
_symmetry_space_group_name_H-M "P M N A"
_symmetry_group_IT_number 53
_symmetry_cell_setting 'orthorhombic'
loop_
_space_group_symop_operation_xyz
x,y,z
1/2-x,-y,1/2+z
x,-y,-z
1/2-x,y,1/2-z
-x,-y,-z
1/2+x,y,1/2-z
-x,y,z
1/2+x,-y,1/2+z
loop_
_atom_site_type_symbol
_atom_site_label
_atom_site_fract_x
_atom_site_fract_y
_atom_site_fract_z
Si Si1 0.500000 0.905432 0.196580
Si Si2 0.363416 0.072408 0.633847
Si Si3 0.750000 0.161658 0.250000
Si Si4 0.688962 0.412403 0.639934
Si Si5 0.500000 0.759770 0.931273
Si Si6 0.357634 0.601097 0.867549
O O1 0.428432 0.900830 0.273312
O O2 0.500000 0.069954 0.126207
O O3 0.500000 0.771279 0.089372
O O4 0.329116 0.237299 0.611164
O O5 0.391345 0.000000 0.500000
O O6 0.305960 0.951818 0.684487
O O7 0.703917 0.274733 0.157101
O O8 0.697147 0.500000 0.500000
O O9 0.750000 0.410657 0.750000
O O10 0.635238 0.503216 0.732265
O O11 0.429869 0.682427 0.888078
O O12 0.344830 0.500000 0.000000
#
# Coordination Sequence:
#
# PCOD9419965 Si02
#       6
#     4   8   4   8   4   8
#     4  11  25  48  74 110 148 194 251 311 367 437
#     4  12  27  47  74 107 146 196 252 303 378 447
#     4  12  26  44  74 114 146 194 248 308 370 448
#     4  12  27  47  72 108 148 192 242 312 378 443
#     4  11  25  48  78 109 147 200 249 309 372 445
#     4  12  26  47  77 111 155 194 248 307 373 443
#
# _framework density 20.989518
#
# number of rings (size 3 to 8) (size 9 to 14) (size 15 to 20)
#    0.000    0.222    4.444    4.000    3.111    2.667 
#    0.000    1.111    0.000    0.000    0.000    0.000 
#    0.000    0.000    0.000    0.000    0.000    0.000 
#
# Total GULP energy -201114.932416 kJ/mol
# GULP energy per Si atom -5586.525900 kJ/mol
# Density = 2.094174 g / cm^3
# Si number density = 20.989518 Si / 1000 Ang^3
#
#
#
# Elastic Constant Matrix: (Units=GPa)
#
#
# Indices 1 2 3 4 5 6 
#
# 1 147.7752 60.6440 51.6046 0.0000 0.0000 0.0000
# 2 60.6440 158.4132 64.5940 0.0000 0.0000 0.0000
# 3 51.6046 64.5940 133.3137 0.0000 0.0000 0.0000
# 4 0.0000 0.0000 0.0000 46.7309 0.0000 0.0000
# 5 0.0000 0.0000 0.0000 0.0000 38.3279 0.0000
# 6 0.0000 0.0000 0.0000 0.0000 0.0000 36.2774
#
#
#
# Elastic Compliance Matrix: (Units=1/GPa)
#
#
# Indices 1 2 3 4 5 6 
#
# 1 0.008488 -0.002380 -0.002133 0.000000 0.000000 0.000000
# 2 -0.002380 0.008534 -0.003214 0.000000 0.000000 0.000000
# 3 -0.002133 -0.003214 0.009884 0.000000 0.000000 0.000000
# 4 0.000000 0.000000 0.000000 0.021399 0.000000 0.000000
# 5 0.000000 0.000000 0.000000 0.000000 0.026091 0.000000
# 6 0.000000 0.000000 0.000000 0.000000 0.000000 0.027565
#
#
# Mechanical properties :
#
#
# Convention : Reuss Voigt Hill
#
# Bulk Modulus (GPa) = 87.30844 88.13190 87.72017
# Shear Modulus (GPa) = 41.24318 41.77788 41.51053
#
# Velocity S-wave (km/s) = 4.43758 4.46625 4.45193
# Velocity P-wave (km/s) = 8.24273 8.28711 8.26495
#
# Compressibility (1/GPa) = 0.01145365
#
# Stress axis : x y z
#
# Youngs Moduli (GPa) = 117.80691 117.17653 101.17586
#
# Poissons Ratio (x) = 0.27888 0.21577
# Poissons Ratio (y) = 0.28038 0.32515
# Poissons Ratio (z) = 0.25124 0.37658
#
# Static dielectric constant tensor:
#      x y z
#    x 1.788050 0.000000 0.000000 
#    y 0.000000 1.748340 0.000000 
#    z 0.000000 0.000000 1.772300 
# 
# From -- ./inp_files/10622.got.cif
#   From: 2010.05.17/outbox.cif.g08.bks.cpg/sg53_6_cif.got.tgz:10622.got - 2010.06.03 12:45:16.
