data_PCOD9419482
_publ_section_title
;
Structure prediction by ZEFSAII (Michael W. Deem and Ramdas Pophale) SiO2 
 PCOD9419482
Probable space group: P M N A
;
_chemical_formula_sum "Si O2"
_cell_formula_units_Z 34
_cell_length_a 9.850363
_cell_length_b 9.083998
_cell_length_c 16.857677
_cell_angle_alpha 90.000000
_cell_angle_beta 90.000000
_cell_angle_gamma 90.000000
_cell_volume 1508.436364
_symmetry_space_group_name_H-M "P M N A"
_symmetry_group_IT_number 53
_symmetry_cell_setting 'orthorhombic'
loop_
_space_group_symop_operation_xyz
x,y,z
1/2-x,-y,1/2+z
x,-y,-z
1/2-x,y,1/2-z
-x,-y,-z
1/2+x,y,1/2-z
-x,y,z
1/2+x,-y,1/2+z
loop_
_atom_site_type_symbol
_atom_site_label
_atom_site_fract_x
_atom_site_fract_y
_atom_site_fract_z
Si Si1 0.500000 0.503424 0.700477
Si Si2 0.500000 0.500000 0.500000
Si Si3 0.000000 0.843824 0.383108
Si Si4 0.720954 0.997391 0.588511
Si Si5 0.500000 0.497526 0.110610
Si Si6 0.781299 0.344841 0.090161
Si Si7 0.500000 0.842131 0.307737
O O1 0.500000 0.518949 0.793776
O O2 0.631163 0.576211 0.659706
O O3 0.500000 0.332482 0.676201
O O4 0.620306 0.623991 0.515797
O O5 0.000000 0.671712 0.404887
O O6 0.134462 0.922126 0.414420
O O7 0.000000 0.857904 0.287218
O O8 0.734702 0.826004 0.609574
O O9 0.629015 0.081125 0.652150
O O10 0.661109 0.000000 0.500000
O O11 0.635786 0.419099 0.081214
#
# Coordination Sequence:
#
# PCOD9419482 Si02
#       7
#     4   2   4   8   4   8   4
#     4  10  23  43  70 105 136 173 235 283 335 417
#     4  10  26  44  62  96 126 172 224 264 340 400
#     4  11  26  47  67 101 142 182 229 286 352 415
#     4  12  27  44  67 105 141 183 228 289 345 416
#     4  11  24  44  72 102 131 183 229 285 343 410
#     4  11  25  42  69  98 134 180 224 283 339 400
#     4  11  24  45  73  96 138 191 228 279 350 417
#
# _framework density 22.539898000000001
#
# number of rings (size 3 to 8) (size 9 to 14) (size 15 to 20)
#    0.000    0.941    0.000    5.647    9.882    9.882 
#    0.000    0.000    0.000    0.000    0.000    0.000 
#    0.000    0.000    0.000    0.000    0.000    0.000 
#
# Total GULP energy -189981.279627 kJ/mol
# GULP energy per Si atom -5587.684695 kJ/mol
# Density = 2.248860 g / cm^3
# Si number density = 22.539898 Si / 1000 Ang^3
#
#
#
# Elastic Constant Matrix: (Units=GPa)
#
#
# Indices 1 2 3 4 5 6 
#
# 1 196.7223 67.4062 23.8320 0.0000 0.0000 0.0000
# 2 67.4062 183.1197 33.7743 0.0000 0.0000 0.0000
# 3 23.8320 33.7743 94.6025 0.0000 0.0000 0.0000
# 4 0.0000 0.0000 0.0000 32.3815 0.0000 0.0000
# 5 0.0000 0.0000 0.0000 0.0000 25.5148 0.0000
# 6 0.0000 0.0000 0.0000 0.0000 0.0000 45.1784
#
#
#
# Elastic Compliance Matrix: (Units=1/GPa)
#
#
# Indices 1 2 3 4 5 6 
#
# 1 0.005867 -0.002020 -0.000757 0.000000 0.000000 0.000000
# 2 -0.002020 0.006541 -0.001826 0.000000 0.000000 0.000000
# 3 -0.000757 -0.001826 0.011413 0.000000 0.000000 0.000000
# 4 0.000000 0.000000 0.000000 0.030882 0.000000 0.000000
# 5 0.000000 0.000000 0.000000 0.000000 0.039193 0.000000
# 6 0.000000 0.000000 0.000000 0.000000 0.000000 0.022134
#
#
# Mechanical properties :
#
#
# Convention : Reuss Voigt Hill
#
# Bulk Modulus (GPa) = 68.42275 80.49661 74.45968
# Shear Modulus (GPa) = 38.42915 43.91040 41.16977
#
# Velocity S-wave (km/s) = 4.13357 4.41854 4.27843
# Velocity P-wave (km/s) = 7.29411 7.86268 7.58373
#
# Compressibility (1/GPa) = 0.01461502
#
# Stress axis : x y z
#
# Youngs Moduli (GPa) = 170.43966 152.87291 87.61724
#
# Poissons Ratio (x) = 0.30882 0.06631
# Poissons Ratio (y) = 0.34431 0.16003
# Poissons Ratio (z) = 0.12900 0.27922
#
# Static dielectric constant tensor:
#      x y z
#    x 1.774980 0.000000 0.000000 
#    y 0.000000 1.792050 0.000000 
#    z 0.000000 0.000000 1.925320 
# 
# From -- ./inp_files/30210.got.cif
#   From: 2010.05.17/outbox.cif.g08.bks.cpg/sg53_16_cif.got.tgz:30210.got - 2010.06.03 12:45:16.
