data_PCOD9419787
_publ_section_title
;
Structure prediction by ZEFSAII (Michael W. Deem and Ramdas Pophale) SiO2 
 PCOD9419787
Probable space group: P M N A
;
_chemical_formula_sum "Si O2"
_cell_formula_units_Z 64
_cell_length_a 8.575251
_cell_length_b 24.017376
_cell_length_c 17.778048
_cell_angle_alpha 90.000000
_cell_angle_beta 90.000000
_cell_angle_gamma 90.000000
_cell_volume 3661.478366
_symmetry_space_group_name_H-M "P M N A"
_symmetry_group_IT_number 53
_symmetry_cell_setting 'orthorhombic'
loop_
_space_group_symop_operation_xyz
x,y,z
1/2-x,-y,1/2+z
x,-y,-z
1/2-x,y,1/2-z
-x,-y,-z
1/2+x,y,1/2-z
-x,y,z
1/2+x,-y,1/2+z
loop_
_atom_site_type_symbol
_atom_site_label
_atom_site_fract_x
_atom_site_fract_y
_atom_site_fract_z
Si Si1 0.313336 0.543189 0.833255
Si Si2 0.191009 0.135006 0.517193
Si Si3 0.315188 0.630537 0.558868
Si Si4 0.188714 0.737854 0.483797
Si Si5 0.689355 0.068326 0.833063
Si Si6 0.179260 0.964417 0.577573
Si Si7 0.686408 0.319757 0.830052
Si Si8 0.811664 0.430320 0.587971
O O1 0.250000 0.534586 0.750000
O O2 0.500000 0.542991 0.832486
O O3 0.253170 0.600548 0.868193
O O4 0.262073 0.491115 0.885309
O O5 0.238305 0.198586 0.505438
O O6 0.235317 0.110713 0.599531
O O7 0.249149 0.093735 0.451094
O O8 0.000000 0.132757 0.515762
O O9 0.500000 0.631905 0.562383
O O10 0.251384 0.692153 0.541765
O O11 0.260861 0.592047 0.488841
O O12 0.239320 0.716996 0.400831
O O13 0.000000 0.735714 0.485789
O O14 0.750000 0.081854 0.750000
O O15 0.500000 0.067552 0.831874
O O16 0.745962 0.006829 0.860661
O O17 0.000000 0.953525 0.600466
O O18 0.173883 0.000000 0.500000
O O19 0.750000 0.302159 0.750000
O O20 0.500000 0.316762 0.827763
O O21 0.728758 0.383626 0.849732
O O22 0.000000 0.430174 0.578486
#
# Coordination Sequence:
#
# PCOD9419787 Si02
#       8
#     8   8   8   8   8   8   8   8
#     4  11  22  36  55  78 103 128 157 198 248 298
#     4   8  14  27  48  68  86 119 166 203 228 270
#     4  11  22  35  52  74 100 130 165 203 244 291
#     4   9  18  33  50  67  89 122 166 208 244 281
#     4   9  16  26  43  70 101 126 150 186 233 283
#     4   7  11  22  42  66  88 114 153 193 222 259
#     4   9  17  28  42  63  92 123 153 188 231 281
#     4   9  19  35  53  73  98 128 161 198 241 289
#
# _framework density 17.479278000000001
#
# number of rings (size 3 to 8) (size 9 to 14) (size 15 to 20)
#    0.000    2.875    0.000    4.500    0.000    5.000 
#    0.000    0.625    0.000    4.875    0.000    1.750 
#    0.000    0.000    0.000    0.000    0.000    0.000 
#
# Total GULP energy -356546.812844 kJ/mol
# GULP energy per Si atom -5571.043951 kJ/mol
# Density = 1.743949 g / cm^3
# Si number density = 17.479278 Si / 1000 Ang^3
#
#
#
# Elastic Constant Matrix: (Units=GPa)
#
#
# Indices 1 2 3 4 5 6 
#
# 1 17.3001 24.2516 11.3613 0.0000 0.0000 0.0000
# 2 24.2516 138.9994 28.1178 0.0000 0.0000 0.0000
# 3 11.3613 28.1178 27.4525 0.0000 0.0000 0.0000
# 4 0.0000 0.0000 0.0000 12.4521 0.0000 0.0000
# 5 0.0000 0.0000 0.0000 0.0000 24.9255 0.0000
# 6 0.0000 0.0000 0.0000 0.0000 0.0000 8.0159
#
#
#
# Elastic Compliance Matrix: (Units=1/GPa)
#
#
# Indices 1 2 3 4 5 6 
#
# 1 0.089653 -0.010263 -0.026591 0.000000 0.000000 0.000000
# 2 -0.010263 0.010249 -0.006250 0.000000 0.000000 0.000000
# 3 -0.026591 -0.006250 0.053833 0.000000 0.000000 0.000000
# 4 0.000000 0.000000 0.000000 0.080308 0.000000 0.000000
# 5 0.000000 0.000000 0.000000 0.000000 0.040120 0.000000
# 6 0.000000 0.000000 0.000000 0.000000 0.000000 0.124752
#
#
# Mechanical properties :
#
#
# Convention : Reuss Voigt Hill
#
# Bulk Modulus (GPa) = 14.80911 34.57925 24.69418
# Shear Modulus (GPa) = 9.84966 17.08013 13.46489
#
# Velocity S-wave (km/s) = 2.37640 3.12935 2.77850
# Velocity P-wave (km/s) = 4.00256 5.73438 4.94487
#
# Compressibility (1/GPa) = 0.06752600
#
# Stress axis : x y z
#
# Youngs Moduli (GPa) = 11.15416 97.56850 18.57586
#
# Poissons Ratio (x) = 1.00133 0.49396
# Poissons Ratio (y) = 0.11447 0.11610
# Poissons Ratio (z) = 0.29661 0.60983
#
# Static dielectric constant tensor:
#      x y z
#    x 1.593700 0.000000 0.000000 
#    y 0.000000 1.623250 0.000000 
#    z 0.000000 0.000000 1.595220 
# 
# From -- ./inp_files/27034.got.cif
#   From: 2010.05.17/outbox.cif.g08.bks.cpg/sg53_14_cif.got.tgz:27034.got - 2010.06.03 12:45:16.
