data_PCOD9419897
_publ_section_title
;
Structure prediction by ZEFSAII (Michael W. Deem and Ramdas Pophale) SiO2 
 PCOD9419897
Probable space group: P M N A
;
_chemical_formula_sum "Si O2"
_cell_formula_units_Z 24
_cell_length_a 11.794063
_cell_length_b 8.227699
_cell_length_c 11.042222
_cell_angle_alpha 90.000000
_cell_angle_beta 90.000000
_cell_angle_gamma 90.000000
_cell_volume 1071.515142
_symmetry_space_group_name_H-M "P M N A"
_symmetry_group_IT_number 53
_symmetry_cell_setting 'orthorhombic'
loop_
_space_group_symop_operation_xyz
x,y,z
1/2-x,-y,1/2+z
x,-y,-z
1/2-x,y,1/2-z
-x,-y,-z
1/2+x,y,1/2-z
-x,y,z
1/2+x,-y,1/2+z
loop_
_atom_site_type_symbol
_atom_site_label
_atom_site_fract_x
_atom_site_fract_y
_atom_site_fract_z
Si Si1 0.760443 0.086193 0.878783
Si Si2 0.000000 0.770071 0.045354
Si Si3 0.000000 0.428626 0.187086
Si Si4 0.130183 0.418659 0.616340
O O1 0.750000 0.994309 0.750000
O O2 0.691982 0.252617 0.857551
O O3 0.888958 0.135545 0.911347
O O4 0.714964 0.000000 0.000000
O O5 0.000000 0.595717 0.111320
O O6 0.000000 0.723250 0.902677
O O7 0.109004 0.453418 0.275105
O O8 0.186865 0.500000 0.500000
O O9 0.000000 0.373348 0.583245
#
# Coordination Sequence:
#
# PCOD9419897 Si02
#       4
#     8   4   4   8
#     4  12  26  44  63  95 133 174 215 261 319 385
#     4  11  23  42  66  95 125 173 210 266 320 379
#     4   9  19  40  68  95 120 162 212 266 318 372
#     4   9  20  41  67  98 127 161 214 268 323 380
#
# _framework density 22.398191000000001
#
# number of rings (size 3 to 8) (size 9 to 14) (size 15 to 20)
#    1.000    0.667    3.333    0.500    4.667    3.333 
#    0.000    0.000    0.000    0.000    0.000    0.000 
#    0.000    0.000    0.000    0.000    0.000    0.000 
#
# Total GULP energy -133855.406236 kJ/mol
# GULP energy per Si atom -5577.308593 kJ/mol
# Density = 2.234721 g / cm^3
# Si number density = 22.398191 Si / 1000 Ang^3
#
#
#
# Elastic Constant Matrix: (Units=GPa)
#
#
# Indices 1 2 3 4 5 6 
#
# 1 75.2889 21.1977 20.2726 0.0000 0.0000 0.0000
# 2 21.1977 37.0008 47.6089 0.0000 0.0000 0.0000
# 3 20.2726 47.6089 212.7296 0.0000 0.0000 0.0000
# 4 0.0000 0.0000 0.0000 38.2651 0.0000 0.0000
# 5 0.0000 0.0000 0.0000 0.0000 13.9279 0.0000
# 6 0.0000 0.0000 0.0000 0.0000 0.0000 26.7946
#
#
#
# Elastic Compliance Matrix: (Units=1/GPa)
#
#
# Indices 1 2 3 4 5 6 
#
# 1 0.015918 -0.010066 0.000736 0.000000 0.000000 0.000000
# 2 -0.010066 0.044322 -0.008960 0.000000 0.000000 0.000000
# 3 0.000736 -0.008960 0.006636 0.000000 0.000000 0.000000
# 4 0.000000 0.000000 0.000000 0.026133 0.000000 0.000000
# 5 0.000000 0.000000 0.000000 0.000000 0.071799 0.000000
# 6 0.000000 0.000000 0.000000 0.000000 0.000000 0.037321
#
#
# Mechanical properties :
#
#
# Convention : Reuss Voigt Hill
#
# Bulk Modulus (GPa) = 33.00827 55.90863 44.45845
# Shear Modulus (GPa) = 20.09572 31.52684 25.81128
#
# Velocity S-wave (km/s) = 2.99858 3.75582 3.39836
# Velocity P-wave (km/s) = 5.17278 6.61994 5.94060
#
# Compressibility (1/GPa) = 0.03029544
#
# Stress axis : x y z
#
# Youngs Moduli (GPa) = 62.82108 22.56194 150.69456
#
# Poissons Ratio (x) = 0.22712 -0.11090
# Poissons Ratio (y) = 0.63238 1.35023
# Poissons Ratio (z) = -0.04623 0.20216
#
# Static dielectric constant tensor:
#      x y z
#    x 1.811720 0.000000 0.000000 
#    y 0.000000 1.805440 0.000000 
#    z 0.000000 0.000000 2.047630 
# 
# From -- ./inp_files/14421.got.cif
#   From: 2010.05.17/outbox.cif.g08.bks.cpg/sg53_8_cif.got.tgz:14421.got - 2010.06.03 12:45:16.
