data_PCOD9419004
_publ_section_title
;
Structure prediction by ZEFSAII (Michael W. Deem and Ramdas Pophale) SiO2 
 PCOD9419004
Probable space group: P M N A
;
_chemical_formula_sum "Si O2"
_cell_formula_units_Z 60
_cell_length_a 9.293601
_cell_length_b 10.796625
_cell_length_c 30.450328
_cell_angle_alpha 90.000000
_cell_angle_beta 90.000000
_cell_angle_gamma 90.000000
_cell_volume 3055.371444
_symmetry_space_group_name_H-M "P M N A"
_symmetry_group_IT_number 53
_symmetry_cell_setting 'orthorhombic'
loop_
_space_group_symop_operation_xyz
x,y,z
1/2-x,-y,1/2+z
x,-y,-z
1/2-x,y,1/2-z
-x,-y,-z
1/2+x,y,1/2-z
-x,y,z
1/2+x,-y,1/2+z
loop_
_atom_site_type_symbol
_atom_site_label
_atom_site_fract_x
_atom_site_fract_y
_atom_site_fract_z
Si Si1 0.661830 0.386707 0.291116
Si Si2 0.787520 0.018639 0.319164
Si Si3 0.663088 0.230606 0.868408
Si Si4 0.324703 0.630708 0.548680
Si Si5 0.326751 0.366230 0.957622
Si Si6 0.343690 0.319755 0.710340
Si Si7 0.500000 0.998931 0.264711
Si Si8 0.831836 0.722689 0.631541
O O1 0.750000 0.332012 0.250000
O O2 0.500000 0.333144 0.294378
O O3 0.644902 0.533227 0.283064
O O4 0.755626 0.370743 0.334428
O O5 0.625829 0.010048 0.302411
O O6 0.820498 0.147652 0.343178
O O7 0.880588 0.001642 0.275603
O O8 0.821962 0.911245 0.354451
O O9 0.500000 0.272032 0.857717
O O10 0.689653 0.267692 0.918532
O O11 0.772466 0.298900 0.836136
O O12 0.500000 0.624747 0.547876
O O13 0.255808 0.671105 0.502128
O O14 0.252391 0.494570 0.556049
O O15 0.261680 0.715478 0.587369
O O16 0.500000 0.384951 0.964595
O O17 0.250000 0.268275 0.750000
O O18 0.500000 0.258700 0.713574
O O19 0.000000 0.692602 0.623580
#
# Coordination Sequence:
#
# PCOD9419004 Si02
#       8
#     8   8   8   8   8   8   4   8
#     4  10  22  37  54  81 118 155 198 247 305 366
#     4  11  25  42  62  92 121 166 212 257 307 357
#     4  11  23  39  61  89 121 156 203 253 302 367
#     4  11  23  41  66  95 128 160 202 255 313 373
#     4  10  21  41  69  96 125 162 204 249 311 378
#     4  10  22  36  53  80 115 156 195 244 302 359
#     4  10  24  44  64  82 124 168 216 258 298 356
#     4  12  24  39  62  87 121 159 206 255 303 368
#
# _framework density 19.637547999999999
#
# number of rings (size 3 to 8) (size 9 to 14) (size 15 to 20)
#    0.000    1.333    1.333    4.400    6.533    4.800 
#    0.000    0.667    0.000    3.200    0.000    0.000 
#    0.000    0.000    0.000    0.000    0.000    0.000 
#
# Total GULP energy -334089.782099 kJ/mol
# GULP energy per Si atom -5568.163035 kJ/mol
# Density = 1.959285 g / cm^3
# Si number density = 19.637548 Si / 1000 Ang^3
#
#
#
# Elastic Constant Matrix: (Units=GPa)
#
#
# Indices 1 2 3 4 5 6 
#
# 1 203.7147 15.9907 44.4826 0.0000 0.0000 0.0000
# 2 15.9907 28.0994 13.4349 0.0000 0.0000 0.0000
# 3 44.4826 13.4349 84.1442 0.0000 0.0000 0.0000
# 4 0.0000 0.0000 0.0000 102.2517 0.0000 0.0000
# 5 0.0000 0.0000 0.0000 0.0000 36.2568 0.0000
# 6 0.0000 0.0000 0.0000 0.0000 0.0000 -6.4782
#
#
#
# Elastic Compliance Matrix: (Units=1/GPa)
#
#
# Indices 1 2 3 4 5 6 
#
# 1 0.005645 -0.001933 -0.002675 0.000000 0.000000 0.000000
# 2 -0.001933 0.039191 -0.005236 0.000000 0.000000 0.000000
# 3 -0.002675 -0.005236 0.014135 0.000000 0.000000 0.000000
# 4 0.000000 0.000000 0.000000 0.009780 0.000000 0.000000
# 5 0.000000 0.000000 0.000000 0.000000 0.027581 0.000000
# 6 0.000000 0.000000 0.000000 0.000000 0.000000 -0.154365
#
#
# Mechanical properties :
#
#
# Convention : Reuss Voigt Hill
#
# Bulk Modulus (GPa) = 25.45661 51.53051 38.49356
# Shear Modulus (GPa) = -198.01333 42.54275 -77.73529
#
# Velocity S-wave (km/s) = -10.05251 4.65951 -6.29849
# Velocity P-wave (km/s) = 11.03385 7.43275 5.76629
#
# Compressibility (1/GPa) = 0.03928253
#
# Stress axis : x y z
#
# Youngs Moduli (GPa) = 177.15519 25.51586 70.74814
#
# Poissons Ratio (x) = 0.04933 0.18928
# Poissons Ratio (y) = 0.34246 0.37040
# Poissons Ratio (z) = 0.47397 0.13359
#
# Static dielectric constant tensor:
#      x y z
#    x 1.706110 0.000000 0.000000 
#    y 0.000000 1.936140 0.000000 
#    z 0.000000 0.000000 1.641820 
# 
# From -- ./inp_files/38091.got.cif
#   From: 2010.05.17/outbox.cif.g08.bks.cpg/sg53_20_cif.got.tgz:38091.got - 2010.06.03 12:45:16.
