data_PCOD9419957
_publ_section_title
;
Structure prediction by ZEFSAII (Michael W. Deem and Ramdas Pophale) SiO2 
 PCOD9419957
Probable space group: P M N A
;
_chemical_formula_sum "Si O2"
_cell_formula_units_Z 24
_cell_length_a 7.703102
_cell_length_b 10.122763
_cell_length_c 12.244930
_cell_angle_alpha 90.000000
_cell_angle_beta 90.000000
_cell_angle_gamma 90.000000
_cell_volume 954.818938
_symmetry_space_group_name_H-M "P M N A"
_symmetry_group_IT_number 53
_symmetry_cell_setting 'orthorhombic'
loop_
_space_group_symop_operation_xyz
x,y,z
1/2-x,-y,1/2+z
x,-y,-z
1/2-x,y,1/2-z
-x,-y,-z
1/2+x,y,1/2-z
-x,y,z
1/2+x,-y,1/2+z
loop_
_atom_site_type_symbol
_atom_site_label
_atom_site_fract_x
_atom_site_fract_y
_atom_site_fract_z
Si Si1 0.205589 0.402033 0.135940
Si Si2 0.788908 0.697179 0.091316
Si Si3 0.805420 0.984929 0.374048
O O1 0.250000 0.340857 0.250000
O O2 0.271930 0.553073 0.132670
O O3 0.000000 0.415638 0.123229
O O4 0.261253 0.313701 0.035870
O O5 0.702193 0.825957 0.137931
O O6 0.000000 0.707981 0.103142
O O7 0.750000 0.031326 0.250000
O O8 0.000000 0.035482 0.386531
O O9 0.722335 0.000000 0.500000
#
# Coordination Sequence:
#
# PCOD9419957 Si02
#       3
#     8   8   8
#     4   9  18  32  52  81 115 149 186 231 284 342
#     4   9  19  36  56  80 113 151 189 232 286 345
#     4  11  25  43  63  88 117 153 199 247 296 350
#
# _framework density 25.135655
#
# number of rings (size 3 to 8) (size 9 to 14) (size 15 to 20)
#    0.000    2.333    0.000    4.000    0.000    9.333 
#    0.000   10.000    0.000    0.000    0.000    0.000 
#    0.000    0.000    0.000    0.000    0.000    0.000 
#
# Total GULP energy -133708.616127 kJ/mol
# GULP energy per Si atom -5571.192339 kJ/mol
# Density = 2.507845 g / cm^3
# Si number density = 25.135655 Si / 1000 Ang^3
#
#
#
# Elastic Constant Matrix: (Units=GPa)
#
#
# Indices 1 2 3 4 5 6 
#
# 1 47.6380 4.5744 12.3478 0.0000 0.0000 0.0000
# 2 4.5744 98.0223 13.0793 0.0000 0.0000 0.0000
# 3 12.3478 13.0793 248.9089 0.0000 0.0000 0.0000
# 4 0.0000 0.0000 0.0000 -12.1341 0.0000 0.0000
# 5 0.0000 0.0000 0.0000 0.0000 40.5411 0.0000
# 6 0.0000 0.0000 0.0000 0.0000 0.0000 18.9290
#
#
#
# Elastic Compliance Matrix: (Units=1/GPa)
#
#
# Indices 1 2 3 4 5 6 
#
# 1 0.021337 -0.000861 -0.001013 0.000000 0.000000 0.000000
# 2 -0.000861 0.010309 -0.000499 0.000000 0.000000 0.000000
# 3 -0.001013 -0.000499 0.004094 0.000000 0.000000 0.000000
# 4 0.000000 0.000000 0.000000 -0.082412 0.000000 0.000000
# 5 0.000000 0.000000 0.000000 0.000000 0.024666 0.000000
# 6 0.000000 0.000000 0.000000 0.000000 0.000000 0.052829
#
#
# Mechanical properties :
#
#
# Convention : Reuss Voigt Hill
#
# Bulk Modulus (GPa) = 32.26443 50.50801 41.38622
# Shear Modulus (GPa) = 108.93409 33.77171 71.35290
#
# Velocity S-wave (km/s) = 6.59034 3.66946 5.33374
# Velocity P-wave (km/s) = 8.41273 6.17180 7.37784
#
# Compressibility (1/GPa) = 0.03099389
#
# Stress axis : x y z
#
# Youngs Moduli (GPa) = 46.86714 97.00730 244.25876
#
# Poissons Ratio (x) = 0.08348 0.24750
# Poissons Ratio (y) = 0.04033 0.12188
# Poissons Ratio (z) = 0.04749 0.04841
#
# Static dielectric constant tensor:
#      x y z
#    x 1.956620 0.000000 0.000000 
#    y 0.000000 1.939230 0.000000 
#    z 0.000000 0.000000 2.167390 
# 
# From -- ./inp_files/13574.got.cif
#   From: 2010.05.17/outbox.cif.g08.bks.cpg/sg53_7_cif.got.tgz:13574.got - 2010.06.03 12:45:16.
