data_PCOD9419199
_publ_section_title
;
Structure prediction by ZEFSAII (Michael W. Deem and Ramdas Pophale) SiO2 
 PCOD9419199
Probable space group: P M N A
;
_chemical_formula_sum "Si O2"
_cell_formula_units_Z 40
_cell_length_a 7.700457
_cell_length_b 15.774147
_cell_length_c 14.489524
_cell_angle_alpha 90.000000
_cell_angle_beta 90.000000
_cell_angle_gamma 90.000000
_cell_volume 1760.015540
_symmetry_space_group_name_H-M "P M N A"
_symmetry_group_IT_number 53
_symmetry_cell_setting 'orthorhombic'
loop_
_space_group_symop_operation_xyz
x,y,z
1/2-x,-y,1/2+z
x,-y,-z
1/2-x,y,1/2-z
-x,-y,-z
1/2+x,y,1/2-z
-x,y,z
1/2+x,-y,1/2+z
loop_
_atom_site_type_symbol
_atom_site_label
_atom_site_fract_x
_atom_site_fract_y
_atom_site_fract_z
Si Si1 0.209714 0.241644 0.141512
Si Si2 0.708988 0.573281 0.640434
Si Si3 0.802478 0.091924 0.016119
Si Si4 0.801599 0.795493 0.357196
Si Si5 0.792377 0.390486 0.859302
O O1 0.250000 0.234418 0.250000
O O2 0.273035 0.334727 0.107804
O O3 0.278374 0.160431 0.086237
O O4 0.000000 0.242888 0.130116
O O5 0.750000 0.573411 0.750000
O O6 0.500000 0.572297 0.628641
O O7 0.771433 0.481702 0.604303
O O8 0.000000 0.075991 0.049711
O O9 0.806816 0.141426 0.919582
O O10 0.720064 0.000000 0.000000
O O11 0.750000 0.797009 0.250000
O O12 0.780943 0.698797 0.392003
O O13 0.000000 0.821309 0.365704
O O14 0.750000 0.392161 0.750000
O O15 0.000000 0.386394 0.871694
#
# Coordination Sequence:
#
# PCOD9419199 Si02
#       5
#     8   8   8   8   8
#     4   9  18  34  56  81 110 142 178 220 268 323
#     4   8  14  25  45  74 105 139 174 210 256 312
#     4  10  22  40  59  80 108 142 182 230 279 325
#     4  11  22  37  58  82 110 144 182 224 271 323
#     4   9  15  26  47  75 107 140 175 213 257 313
#
# _framework density 22.727072
#
# number of rings (size 3 to 8) (size 9 to 14) (size 15 to 20)
#    0.000    2.600    0.000    3.600    0.000    2.800 
#    0.000    3.000    0.000    6.000    0.000    0.000 
#    0.000    0.000    0.000    0.000    0.000    0.000 
#
# Total GULP energy -223135.208723 kJ/mol
# GULP energy per Si atom -5578.380218 kJ/mol
# Density = 2.267534 g / cm^3
# Si number density = 22.727072 Si / 1000 Ang^3
#
#
#
# Elastic Constant Matrix: (Units=GPa)
#
#
# Indices 1 2 3 4 5 6 
#
# 1 60.2501 -5.3127 -14.4876 0.0000 0.0000 0.0000
# 2 -5.3127 221.6293 42.4982 0.0000 0.0000 0.0000
# 3 -14.4876 42.4982 76.4235 0.0000 0.0000 0.0000
# 4 0.0000 0.0000 0.0000 32.2048 0.0000 0.0000
# 5 0.0000 0.0000 0.0000 0.0000 9.5483 0.0000
# 6 0.0000 0.0000 0.0000 0.0000 0.0000 0.7270
#
#
#
# Elastic Compliance Matrix: (Units=1/GPa)
#
#
# Indices 1 2 3 4 5 6 
#
# 1 0.017402 -0.000241 0.003433 0.000000 0.000000 0.000000
# 2 -0.000241 0.005054 -0.002856 0.000000 0.000000 0.000000
# 3 0.003433 -0.002856 0.015324 0.000000 0.000000 0.000000
# 4 0.000000 0.000000 0.000000 0.031051 0.000000 0.000000
# 5 0.000000 0.000000 0.000000 0.000000 0.104731 0.000000
# 6 0.000000 0.000000 0.000000 0.000000 0.000000 1.375481
#
#
# Mechanical properties :
#
#
# Convention : Reuss Voigt Hill
#
# Bulk Modulus (GPa) = 26.00716 44.85542 35.43129
# Shear Modulus (GPa) = 3.20269 30.86968 17.03618
#
# Velocity S-wave (km/s) = 1.18838 3.68948 2.74085
# Velocity P-wave (km/s) = 3.65392 6.15866 5.06361
#
# Compressibility (1/GPa) = 0.03845095
#
# Stress axis : x y z
#
# Youngs Moduli (GPa) = 57.46567 197.86564 65.25699
#
# Poissons Ratio (x) = 0.04771 -0.22402
# Poissons Ratio (y) = 0.01386 0.18638
# Poissons Ratio (z) = -0.19728 0.56513
#
# Static dielectric constant tensor:
#      x y z
#    x 1.821220 0.000000 0.000000 
#    y 0.000000 1.881450 0.000000 
#    z 0.000000 0.000000 1.836120 
# 
# From -- ./inp_files/19861.got.cif
#   From: 2010.05.17/outbox.cif.g08.bks.cpg/sg53_10_cif.got.tgz:19861.got - 2010.06.03 12:45:16.
