data_PCOD9419549
_publ_section_title
;
Structure prediction by ZEFSAII (Michael W. Deem and Ramdas Pophale) SiO2 
 PCOD9419549
Probable space group: P M N A
;
_chemical_formula_sum "Si O2"
_cell_formula_units_Z 64
_cell_length_a 17.913562
_cell_length_b 15.590650
_cell_length_c 11.917672
_cell_angle_alpha 90.000000
_cell_angle_beta 90.000000
_cell_angle_gamma 90.000000
_cell_volume 3328.416005
_symmetry_space_group_name_H-M "P M N A"
_symmetry_group_IT_number 53
_symmetry_cell_setting 'orthorhombic'
loop_
_space_group_symop_operation_xyz
x,y,z
1/2-x,-y,1/2+z
x,-y,-z
1/2-x,y,1/2-z
-x,-y,-z
1/2+x,y,1/2-z
-x,y,z
1/2+x,-y,1/2+z
loop_
_atom_site_type_symbol
_atom_site_label
_atom_site_fract_x
_atom_site_fract_y
_atom_site_fract_z
Si Si1 0.836412 0.236431 0.422123
Si Si2 0.411042 0.637683 0.513563
Si Si3 0.159136 0.905240 0.751605
Si Si4 0.165001 0.187867 0.021511
Si Si5 0.089768 0.569612 0.224132
Si Si6 0.335170 0.902623 0.291743
Si Si7 0.589117 0.252808 0.838135
Si Si8 0.661987 0.602921 0.755064
O O1 0.861681 0.150549 0.356497
O O2 0.748428 0.224409 0.453056
O O3 0.880698 0.248649 0.536042
O O4 0.848618 0.316919 0.338718
O O5 0.500000 0.629539 0.528879
O O6 0.387704 0.734612 0.482687
O O7 0.389223 0.577936 0.407980
O O8 0.370323 0.622524 0.631393
O O9 0.250000 0.907123 0.750000
O O10 0.137036 0.853416 0.862856
O O11 0.134310 0.003370 0.760634
O O12 0.166829 0.117006 0.924196
O O13 0.114131 0.657656 0.282485
O O14 0.122993 0.486732 0.284676
O O15 0.000000 0.564495 0.227248
O O16 0.250000 0.898240 0.250000
O O17 0.379490 0.827545 0.230268
O O18 0.500000 0.251298 0.836025
O O19 0.750000 0.588874 0.750000
#
# Coordination Sequence:
#
# PCOD9419549 Si02
#       8
#     8   8   8   8   8   8   8   8
#     4  11  22  41  62  89 133 165 205 257 308 376
#     4  11  22  40  67  92 122 165 207 260 324 375
#     4   9  20  37  61  95 126 159 204 257 313 376
#     4  11  19  38  66  93 124 158 210 260 312 366
#     4  10  24  44  63  88 123 164 214 262 316 381
#     4  11  21  37  67  94 121 164 209 257 313 369
#     4  11  25  43  62  88 126 172 210 254 313 380
#     4  12  23  40  65  96 124 160 205 264 314 366
#
# _framework density 19.228366000000001
#
# number of rings (size 3 to 8) (size 9 to 14) (size 15 to 20)
#    0.000    1.250    5.000    1.500    0.000    4.500 
#    2.250    3.125    0.000    1.500    0.000    0.000 
#    0.000    0.000    0.000    0.000    0.000    0.000 
#
# Total GULP energy -357458.060149 kJ/mol
# GULP energy per Si atom -5585.282190 kJ/mol
# Density = 1.918460 g / cm^3
# Si number density = 19.228366 Si / 1000 Ang^3
#
#
#
# Elastic Constant Matrix: (Units=GPa)
#
#
# Indices 1 2 3 4 5 6 
#
# 1 41.4149 27.3261 29.1479 0.0000 0.0000 0.0000
# 2 27.3261 149.0007 54.6292 0.0000 0.0000 0.0000
# 3 29.1479 54.6292 123.8437 0.0000 0.0000 0.0000
# 4 0.0000 0.0000 0.0000 -20.4118 0.0000 0.0000
# 5 0.0000 0.0000 0.0000 0.0000 30.3266 0.0000
# 6 0.0000 0.0000 0.0000 0.0000 0.0000 66.4899
#
#
#
# Elastic Compliance Matrix: (Units=1/GPa)
#
#
# Indices 1 2 3 4 5 6 
#
# 1 0.030415 -0.003523 -0.005604 0.000000 0.000000 0.000000
# 2 -0.003523 0.008414 -0.002882 0.000000 0.000000 0.000000
# 3 -0.005604 -0.002882 0.010665 0.000000 0.000000 0.000000
# 4 0.000000 0.000000 0.000000 -0.048991 0.000000 0.000000
# 5 0.000000 0.000000 0.000000 0.000000 0.032974 0.000000
# 6 0.000000 0.000000 0.000000 0.000000 0.000000 0.015040
#
#
# Mechanical properties :
#
#
# Convention : Reuss Voigt Hill
#
# Bulk Modulus (GPa) = 39.25500 59.60731 49.43116
# Shear Modulus (GPa) = 61.70645 28.82468 45.26557
#
# Velocity S-wave (km/s) = 5.67107 3.87598 4.85717
# Velocity P-wave (km/s) = 7.95870 7.14828 7.56435
#
# Compressibility (1/GPa) = 0.02547446
#
# Stress axis : x y z
#
# Youngs Moduli (GPa) = 32.87863 118.84479 93.76271
#
# Poissons Ratio (x) = 0.41872 0.52548
# Poissons Ratio (y) = 0.11584 0.27027
# Poissons Ratio (z) = 0.18426 0.34256
#
# Static dielectric constant tensor:
#      x y z
#    x 1.641450 0.000000 0.000000 
#    y 0.000000 1.697310 0.000000 
#    z 0.000000 0.000000 1.665190 
# 
# From -- ./inp_files/17094.got.cif
#   From: 2010.05.17/outbox.cif.g08.bks.cpg/sg53_9_cif.got.tgz:17094.got - 2010.06.03 12:45:16.
