data_PCOD9419544
_publ_section_title
;
Structure prediction by ZEFSAII (Michael W. Deem and Ramdas Pophale) SiO2 
 PCOD9419544
Probable space group: P M N A
;
_chemical_formula_sum "Si O2"
_cell_formula_units_Z 40
_cell_length_a 24.965597
_cell_length_b 8.479342
_cell_length_c 9.133597
_cell_angle_alpha 90.000000
_cell_angle_beta 90.000000
_cell_angle_gamma 90.000000
_cell_volume 1933.507911
_symmetry_space_group_name_H-M "P M N A"
_symmetry_group_IT_number 53
_symmetry_cell_setting 'orthorhombic'
loop_
_space_group_symop_operation_xyz
x,y,z
1/2-x,-y,1/2+z
x,-y,-z
1/2-x,y,1/2-z
-x,-y,-z
1/2+x,y,1/2-z
-x,y,z
1/2+x,-y,1/2+z
loop_
_atom_site_type_symbol
_atom_site_label
_atom_site_fract_x
_atom_site_fract_y
_atom_site_fract_z
Si Si1 0.000000 0.024640 0.671955
Si Si2 0.375926 0.500000 0.000000
Si Si3 0.605656 0.780770 0.197560
Si Si4 0.000000 0.176068 0.073234
Si Si5 0.806921 0.275374 0.290330
Si Si6 0.117761 0.688091 0.985026
Si Si7 0.180100 0.000000 0.500000
O O1 0.051670 0.122315 0.717877
O O2 0.000000 0.000000 0.500000
O O3 0.000000 0.858839 0.753730
O O4 0.406269 0.618866 0.109641
O O5 0.339727 0.391655 0.104552
O O6 0.632329 0.753477 0.354765
O O7 0.643346 0.886082 0.096933
O O8 0.944623 0.264478 0.038337
O O9 0.000000 0.000000 0.000000
O O10 0.750000 0.349743 0.250000
O O11 0.792742 0.117615 0.383575
O O12 0.844705 0.250830 0.147526
O O13 0.122500 0.500000 0.000000
#
# Coordination Sequence:
#
# PCOD9419544 Si02
#       7
#     4   4   8   4   8   8   4
#     4  12  24  37  65  98 137 182 231 273 341 405
#     4  10  24  43  64  96 136 173 230 280 344 416
#     4  11  22  42  66  97 136 179 227 280 340 405
#     4  12  25  42  66 102 136 182 228 284 336 415
#     4  11  26  45  71  99 135 181 228 288 348 405
#     4  12  25  44  68 102 140 180 227 284 346 410
#     4  10  24  43  64  98 132 171 226 284 336 408
#
# _framework density 20.687785999999999
#
# number of rings (size 3 to 8) (size 9 to 14) (size 15 to 20)
#    0.000    0.800    5.000    1.500    4.200    2.000 
#    0.000    4.000    0.000    0.000    0.000    0.000 
#    0.000    0.000    0.000    0.000    0.000    0.000 
#
# Total GULP energy -223369.029397 kJ/mol
# GULP energy per Si atom -5584.225735 kJ/mol
# Density = 2.064070 g / cm^3
# Si number density = 20.687786 Si / 1000 Ang^3
#
#
#
# Elastic Constant Matrix: (Units=GPa)
#
#
# Indices 1 2 3 4 5 6 
#
# 1 57.8563 -8.1913 20.3778 0.0000 0.0000 0.0000
# 2 -8.1913 63.8705 30.7747 0.0000 0.0000 0.0000
# 3 20.3778 30.7747 165.4255 0.0000 0.0000 0.0000
# 4 0.0000 0.0000 0.0000 39.8546 0.0000 0.0000
# 5 0.0000 0.0000 0.0000 0.0000 36.7213 0.0000
# 6 0.0000 0.0000 0.0000 0.0000 0.0000 19.7653
#
#
#
# Elastic Compliance Matrix: (Units=1/GPa)
#
#
# Indices 1 2 3 4 5 6 
#
# 1 0.018912 0.003897 -0.003055 0.000000 0.000000 0.000000
# 2 0.003897 0.018001 -0.003829 0.000000 0.000000 0.000000
# 3 -0.003055 -0.003829 0.007134 0.000000 0.000000 0.000000
# 4 0.000000 0.000000 0.000000 0.025091 0.000000 0.000000
# 5 0.000000 0.000000 0.000000 0.000000 0.027232 0.000000
# 6 0.000000 0.000000 0.000000 0.000000 0.000000 0.050594
#
#
# Mechanical properties :
#
#
# Convention : Reuss Voigt Hill
#
# Bulk Modulus (GPa) = 26.26454 41.45275 33.85864
# Shear Modulus (GPa) = 30.18811 35.54764 32.86788
#
# Velocity S-wave (km/s) = 3.82412 4.14972 3.99025
# Velocity P-wave (km/s) = 5.67642 6.56057 6.13445
#
# Compressibility (1/GPa) = 0.03807414
#
# Stress axis : x y z
#
# Youngs Moduli (GPa) = 52.87685 55.55128 140.18135
#
# Poissons Ratio (x) = -0.21650 0.42821
# Poissons Ratio (y) = -0.20607 0.53675
# Poissons Ratio (z) = 0.16152 0.21270
#
# Static dielectric constant tensor:
#      x y z
#    x 1.681550 0.000000 0.000000 
#    y 0.000000 1.754640 0.000000 
#    z 0.000000 0.000000 1.812680 
# 
# From -- ./inp_files/12378.got.cif
#   From: 2010.05.17/outbox.cif.g08.bks.cpg/sg53_7_cif.got.tgz:12378.got - 2010.06.03 12:45:16.
