data_PCOD9419395
_publ_section_title
;
Structure prediction by ZEFSAII (Michael W. Deem and Ramdas Pophale) SiO2 
 PCOD9419395
Probable space group: P M N A
;
_chemical_formula_sum "Si O2"
_cell_formula_units_Z 58
_cell_length_a 15.311805
_cell_length_b 7.683491
_cell_length_c 25.084201
_cell_angle_alpha 90.000000
_cell_angle_beta 90.000000
_cell_angle_gamma 90.000000
_cell_volume 2951.108987
_symmetry_space_group_name_H-M "P M N A"
_symmetry_group_IT_number 53
_symmetry_cell_setting 'orthorhombic'
loop_
_space_group_symop_operation_xyz
x,y,z
1/2-x,-y,1/2+z
x,-y,-z
1/2-x,y,1/2-z
-x,-y,-z
1/2+x,y,1/2-z
-x,y,z
1/2+x,-y,1/2+z
loop_
_atom_site_type_symbol
_atom_site_label
_atom_site_fract_x
_atom_site_fract_y
_atom_site_fract_z
Si Si1 0.310296 0.847522 0.865806
Si Si2 0.147265 0.038880 0.914932
Si Si3 0.754481 0.632797 0.039321
Si Si4 0.602543 0.829005 0.194518
Si Si5 0.098946 0.196188 0.476951
Si Si6 0.269844 0.522985 0.159440
Si Si7 0.500000 0.000000 0.500000
Si Si8 0.098375 0.729742 0.186094
O O1 0.374823 0.807179 0.914981
O O2 0.293856 0.676600 0.830480
O O3 0.219594 0.906363 0.893274
O O4 0.349532 0.008577 0.832880
O O5 0.195344 0.190866 0.948035
O O6 0.108326 0.139944 0.863682
O O7 0.075482 0.964411 0.954156
O O8 0.737924 0.542077 0.095584
O O9 0.803146 0.500000 0.000000
O O10 0.666141 0.688079 0.009875
O O11 0.500000 0.823257 0.179291
O O12 0.654934 0.656014 0.177484
O O13 0.607819 0.833087 0.258558
O O14 0.000000 0.255854 0.483731
O O15 0.105668 0.000000 0.500000
O O16 0.177271 0.590837 0.182419
O O17 0.000000 0.653399 0.185067
#
# Coordination Sequence:
#
# PCOD9419395 Si02
#       8
#     8   8   8   8   8   8   2   8
#     4  12  23  42  66 101 134 178 229 281 348 415
#     4  11  23  42  66  94 135 174 221 284 346 413
#     4  11  21  39  60  90 132 178 212 267 330 403
#     4  11  24  45  73  97 138 179 229 292 353 414
#     4  11  21  35  57  87 129 171 216 262 320 398
#     4  11  24  42  69  97 136 177 230 281 345 419
#     4  12  24  40  70 104 130 172 238 288 340 416
#     4  10  22  48  69  95 130 181 228 288 356 415
#
# _framework density 19.653628999999999
#
# number of rings (size 3 to 8) (size 9 to 14) (size 15 to 20)
#    0.000    0.966    6.207    1.655    0.000    3.034 
#    6.207    0.345    0.000    0.000    0.000    0.000 
#    0.000    0.000    0.000    0.000    0.000    0.000 
#
# Total GULP energy -323540.594009 kJ/mol
# GULP energy per Si atom -5578.286104 kJ/mol
# Density = 1.960890 g / cm^3
# Si number density = 19.653629 Si / 1000 Ang^3
#
#
#
# Elastic Constant Matrix: (Units=GPa)
#
#
# Indices 1 2 3 4 5 6 
#
# 1 129.4881 55.3346 49.2894 0.0000 0.0000 0.0000
# 2 55.3346 96.4068 13.5957 0.0000 0.0000 0.0000
# 3 49.2894 13.5957 81.4683 0.0000 0.0000 0.0000
# 4 0.0000 0.0000 0.0000 15.2391 0.0000 0.0000
# 5 0.0000 0.0000 0.0000 0.0000 31.4359 0.0000
# 6 0.0000 0.0000 0.0000 0.0000 0.0000 -15.5977
#
#
#
# Elastic Compliance Matrix: (Units=1/GPa)
#
#
# Indices 1 2 3 4 5 6 
#
# 1 0.013142 -0.006577 -0.006853 0.000000 0.000000 0.000000
# 2 -0.006577 0.013914 0.001657 0.000000 0.000000 0.000000
# 3 -0.006853 0.001657 0.016145 0.000000 0.000000 0.000000
# 4 0.000000 0.000000 0.000000 0.065621 0.000000 0.000000
# 5 0.000000 0.000000 0.000000 0.000000 0.031811 0.000000
# 6 0.000000 0.000000 0.000000 0.000000 0.000000 -0.064112
#
#
# Mechanical properties :
#
#
# Convention : Reuss Voigt Hill
#
# Bulk Modulus (GPa) = 50.88003 60.42253 55.65128
# Shear Modulus (GPa) = 46.89658 18.82501 32.86079
#
# Velocity S-wave (km/s) = 4.89013 3.09825 4.09344
# Velocity P-wave (km/s) = 7.60454 6.60374 7.12174
#
# Compressibility (1/GPa) = 0.01965408
#
# Stress axis : x y z
#
# Youngs Moduli (GPa) = 76.09280 71.87122 61.93998
#
# Poissons Ratio (x) = 0.47266 0.42450
# Poissons Ratio (y) = 0.50043 -0.10263
# Poissons Ratio (z) = 0.52150 -0.11908
#
# Static dielectric constant tensor:
#      x y z
#    x 1.688050 0.000000 0.000000 
#    y 0.000000 1.718950 0.000000 
#    z 0.000000 0.000000 1.692070 
# 
# From -- ./inp_files/35296.got.cif
#   From: 2010.05.17/outbox.cif.g08.bks.cpg/sg53_18_cif.got.tgz:35296.got - 2010.06.03 12:45:16.
