data_PCOD9419505
_publ_section_title
;
Structure prediction by ZEFSAII (Michael W. Deem and Ramdas Pophale) SiO2 
 PCOD9419505
Probable space group: P M N A
;
_chemical_formula_sum "Si O2"
_cell_formula_units_Z 48
_cell_length_a 16.669909
_cell_length_b 9.884499
_cell_length_c 12.791180
_cell_angle_alpha 90.000000
_cell_angle_beta 90.000000
_cell_angle_gamma 90.000000
_cell_volume 2107.650041
_symmetry_space_group_name_H-M "P M N A"
_symmetry_group_IT_number 53
_symmetry_cell_setting 'orthorhombic'
loop_
_space_group_symop_operation_xyz
x,y,z
1/2-x,-y,1/2+z
x,-y,-z
1/2-x,y,1/2-z
-x,-y,-z
1/2+x,y,1/2-z
-x,y,z
1/2+x,-y,1/2+z
loop_
_atom_site_type_symbol
_atom_site_label
_atom_site_fract_x
_atom_site_fract_y
_atom_site_fract_z
Si Si1 0.090816 0.042287 0.623592
Si Si2 0.905111 0.591708 0.904141
Si Si3 0.789933 0.709811 0.358751
Si Si4 0.319606 0.852174 0.522787
Si Si5 0.903999 0.469209 0.339913
Si Si6 0.318157 0.198635 0.169595
O O1 0.150155 0.163740 0.647435
O O2 0.000000 0.082639 0.646796
O O3 0.092520 0.000000 0.500000
O O4 0.117409 0.915774 0.695813
O O5 0.872864 0.744156 0.915019
O O6 0.892460 0.533704 0.787384
O O7 0.000000 0.598210 0.918090
O O8 0.872068 0.500000 0.000000
O O9 0.750000 0.672597 0.250000
O O10 0.716139 0.764800 0.427637
O O11 0.847540 0.584559 0.388301
O O12 0.238996 0.879199 0.588551
O O13 0.355499 0.000000 0.500000
O O14 0.867587 0.324651 0.373657
O O15 0.000000 0.482017 0.360790
O O16 0.250000 0.247594 0.250000
#
# Coordination Sequence:
#
# PCOD9419505 Si02
#       6
#     8   8   8   8   8   8
#     4  11  23  43  65  92 134 177 215 269 334 391
#     4  10  23  45  69  96 136 177 220 280 338 394
#     4  12  24  42  66  98 130 174 221 275 327 398
#     4  12  25  43  67 100 134 173 228 274 328 401
#     4  11  25  43  65  99 131 172 223 270 338 400
#     4  12  22  42  67  95 129 172 218 273 327 393
#
# _framework density 22.774177999999999
#
# number of rings (size 3 to 8) (size 9 to 14) (size 15 to 20)
#    0.000    0.667    5.000    3.000    2.333    0.333 
#    0.000    1.667    0.000    0.000    0.000    0.000 
#    0.000    0.000    0.000    0.000    0.000    0.000 
#
# Total GULP energy -267977.249751 kJ/mol
# GULP energy per Si atom -5582.859370 kJ/mol
# Density = 2.272234 g / cm^3
# Si number density = 22.774178 Si / 1000 Ang^3
#
#
#
# Elastic Constant Matrix: (Units=GPa)
#
#
# Indices 1 2 3 4 5 6 
#
# 1 69.2096 33.9035 24.1219 0.0000 0.0000 0.0000
# 2 33.9035 157.5283 3.3974 0.0000 0.0000 0.0000
# 3 24.1219 3.3974 36.8436 0.0000 0.0000 0.0000
# 4 0.0000 0.0000 0.0000 16.0864 0.0000 0.0000
# 5 0.0000 0.0000 0.0000 0.0000 -28.1241 0.0000
# 6 0.0000 0.0000 0.0000 0.0000 0.0000 33.0255
#
#
#
# Elastic Compliance Matrix: (Units=1/GPa)
#
#
# Indices 1 2 3 4 5 6 
#
# 1 0.021262 -0.004284 -0.013525 0.000000 0.000000 0.000000
# 2 -0.004284 0.007224 0.002139 0.000000 0.000000 0.000000
# 3 -0.013525 0.002139 0.035800 0.000000 0.000000 0.000000
# 4 0.000000 0.000000 0.000000 0.062164 0.000000 0.000000
# 5 0.000000 0.000000 0.000000 0.000000 -0.035557 0.000000
# 6 0.000000 0.000000 0.000000 0.000000 0.000000 0.030280
#
#
# Mechanical properties :
#
#
# Convention : Reuss Voigt Hill
#
# Bulk Modulus (GPa) = 30.35452 42.93634 36.64543
# Shear Modulus (GPa) = 30.58204 17.67481 24.12842
#
# Velocity S-wave (km/s) = 3.66845 2.78886 3.25847
# Velocity P-wave (km/s) = 5.59471 5.40965 5.50296
#
# Compressibility (1/GPa) = 0.03294402
#
# Stress axis : x y z
#
# Youngs Moduli (GPa) = 47.03335 138.42746 27.93334
#
# Poissons Ratio (x) = 0.59306 0.37780
# Poissons Ratio (y) = 0.20150 -0.05974
# Poissons Ratio (z) = 0.63613 -0.29607
#
# Static dielectric constant tensor:
#      x y z
#    x 1.783000 0.000000 0.000000 
#    y 0.000000 1.872110 0.000000 
#    z 0.000000 0.000000 2.006220 
# 
# From -- ./inp_files/23648.got.cif
#   From: 2010.05.17/outbox.cif.g08.bks.cpg/sg53_12_cif.got.tgz:23648.got - 2010.06.03 12:45:16.
