data_PCOD9419595
_publ_section_title
;
Structure prediction by ZEFSAII (Michael W. Deem and Ramdas Pophale) SiO2 
 PCOD9419595
Probable space group: P M N A
;
_chemical_formula_sum "Si O2"
_cell_formula_units_Z 24
_cell_length_a 18.162990
_cell_length_b 5.047676
_cell_length_c 10.443281
_cell_angle_alpha 90.000000
_cell_angle_beta 90.000000
_cell_angle_gamma 90.000000
_cell_volume 957.449283
_symmetry_space_group_name_H-M "P M N A"
_symmetry_group_IT_number 53
_symmetry_cell_setting 'orthorhombic'
loop_
_space_group_symop_operation_xyz
x,y,z
1/2-x,-y,1/2+z
x,-y,-z
1/2-x,y,1/2-z
-x,-y,-z
1/2+x,y,1/2-z
-x,y,z
1/2+x,-y,1/2+z
loop_
_atom_site_type_symbol
_atom_site_label
_atom_site_fract_x
_atom_site_fract_y
_atom_site_fract_z
Si Si1 0.747528 0.200076 0.612950
Si Si2 0.381302 0.500000 0.000000
Si Si3 0.500000 0.781208 0.376995
Si Si4 0.871723 0.500000 0.000000
Si Si5 0.000000 0.280758 0.312382
O O1 0.750000 0.065959 0.750000
O O2 0.827118 0.316016 0.581305
O O3 0.688082 0.440952 0.612151
O O4 0.726290 0.000000 0.500000
O O5 0.430828 0.319605 0.092978
O O6 0.570575 0.733959 0.468464
O O7 0.500000 0.529530 0.282490
O O8 0.500000 0.025387 0.278707
#
# Coordination Sequence:
#
# PCOD9419595 Si02
#       5
#     8   4   4   4   4
#     4  11  26  46  77 110 159 207 269 325 396 469
#     4  10  26  46  72 114 152 214 260 330 394 478
#     4  11  26  45  78 111 156 202 260 324 400 469
#     4  10  26  46  70 114 152 210 260 328 394 476
#     4  11  26  45  80 109 160 197 266 320 401 470
#
# _framework density 25.066603000000001
#
# number of rings (size 3 to 8) (size 9 to 14) (size 15 to 20)
#    0.000    1.333    0.000    2.000   14.000    8.000 
#    0.000    0.000    0.000    0.000    0.000    0.000 
#    0.000    0.000    0.000    0.000    0.000    0.000 
#
# Total GULP energy -134044.024597 kJ/mol
# GULP energy per Si atom -5585.167692 kJ/mol
# Density = 2.500955 g / cm^3
# Si number density = 25.066603 Si / 1000 Ang^3
#
#
#
# Elastic Constant Matrix: (Units=GPa)
#
#
# Indices 1 2 3 4 5 6 
#
# 1 200.8757 60.1815 64.0881 0.0000 0.0000 0.0000
# 2 60.1815 177.4285 86.1853 0.0000 0.0000 0.0000
# 3 64.0881 86.1853 190.4027 0.0000 0.0000 0.0000
# 4 0.0000 0.0000 0.0000 59.5449 0.0000 0.0000
# 5 0.0000 0.0000 0.0000 0.0000 -15.5338 0.0000
# 6 0.0000 0.0000 0.0000 0.0000 0.0000 -54.4014
#
#
#
# Elastic Compliance Matrix: (Units=1/GPa)
#
#
# Indices 1 2 3 4 5 6 
#
# 1 0.005804 -0.001307 -0.001362 0.000000 0.000000 0.000000
# 2 -0.001307 0.007519 -0.002963 0.000000 0.000000 0.000000
# 3 -0.001362 -0.002963 0.007052 0.000000 0.000000 0.000000
# 4 0.000000 0.000000 0.000000 0.016794 0.000000 0.000000
# 5 0.000000 0.000000 0.000000 0.000000 -0.064376 0.000000
# 6 0.000000 0.000000 0.000000 0.000000 0.000000 -0.018382
#
#
# Mechanical properties :
#
#
# Convention : Reuss Voigt Hill
#
# Bulk Modulus (GPa) = 109.77066 109.95741 109.86404
# Shear Modulus (GPa) = -159.81236 21.80542 -69.00347
#
# Velocity S-wave (km/s) = -7.99334 2.95261 -5.25241
# Velocity P-wave (km/s) = 6.42687 7.45555 2.67213
#
# Compressibility (1/GPa) = 0.00910990
#
# Stress axis : x y z
#
# Youngs Moduli (GPa) = 172.28403 132.99766 141.80647
#
# Poissons Ratio (x) = 0.17385 0.19314
# Poissons Ratio (y) = 0.22520 0.42023
# Poissons Ratio (z) = 0.23465 0.39413
#
# Static dielectric constant tensor:
#      x y z
#    x 1.966540 0.000000 0.000000 
#    y 0.000000 2.038780 0.000000 
#    z 0.000000 0.000000 1.984810 
# 
# From -- ./inp_files/16391.got.cif
#   From: 2010.05.17/outbox.cif.g08.bks.cpg/sg53_9_cif.got.tgz:16391.got - 2010.06.03 12:45:16.
