data_PCOD9419170
_publ_section_title
;
Structure prediction by ZEFSAII (Michael W. Deem and Ramdas Pophale) SiO2 
 PCOD9419170
Probable space group: P M N A
;
_chemical_formula_sum "Si O2"
_cell_formula_units_Z 64
_cell_length_a 26.693435
_cell_length_b 13.904787
_cell_length_c 8.485862
_cell_angle_alpha 90.000000
_cell_angle_beta 90.000000
_cell_angle_gamma 90.000000
_cell_volume 3149.667935
_symmetry_space_group_name_H-M "P M N A"
_symmetry_group_IT_number 53
_symmetry_cell_setting 'orthorhombic'
loop_
_space_group_symop_operation_xyz
x,y,z
1/2-x,-y,1/2+z
x,-y,-z
1/2-x,y,1/2-z
-x,-y,-z
1/2+x,y,1/2-z
-x,y,z
1/2+x,-y,1/2+z
loop_
_atom_site_type_symbol
_atom_site_label
_atom_site_fract_x
_atom_site_fract_y
_atom_site_fract_z
Si Si1 0.878788 0.779639 0.942879
Si Si2 0.122949 0.091788 0.778965
Si Si3 0.441480 0.786877 0.061547
Si Si4 0.720725 0.902740 0.086274
Si Si5 0.559496 0.395050 0.422990
Si Si6 0.198964 0.733081 0.665767
Si Si7 0.110663 0.396421 0.421306
Si Si8 0.557236 0.908608 0.746729
O O1 0.899558 0.677092 0.002147
O O2 0.839372 0.773009 0.799387
O O3 0.929972 0.824355 0.873625
O O4 0.856392 0.853467 0.068733
O O5 0.082195 0.165635 0.712996
O O6 0.165239 0.075359 0.650102
O O7 0.094432 0.992738 0.801177
O O8 0.500000 0.772389 0.076623
O O9 0.415672 0.686858 0.022130
O O10 0.433249 0.863274 0.918801
O O11 0.750000 0.880984 0.250000
O O12 0.713936 0.814330 0.963569
O O13 0.740381 0.000000 0.000000
O O14 0.562848 0.500000 0.500000
O O15 0.500000 0.367460 0.427986
O O16 0.580036 0.398828 0.243319
O O17 0.250000 0.702923 0.750000
O O18 0.167183 0.643792 0.598895
O O19 0.109291 0.500000 0.500000
O O20 0.500000 0.941031 0.740230
#
# Coordination Sequence:
#
# PCOD9419170 Si02
#       8
#     8   8   8   8   8   8   8   8
#     4  11  23  40  63  92 133 175 220 275 327 388
#     4  12  24  38  61  98 132 176 223 274 318 397
#     4  11  22  40  64  94 134 177 216 269 334 401
#     4  12  25  42  68 100 135 172 225 278 331 396
#     4  10  22  39  62  92 129 171 217 274 333 392
#     4  11  23  47  70  92 128 176 215 276 345 399
#     4  11  24  44  68  94 126 167 221 281 340 406
#     4  11  22  39  60  88 133 183 220 260 325 396
#
# _framework density 20.319602
#
# number of rings (size 3 to 8) (size 9 to 14) (size 15 to 20)
#    0.000    0.875    3.750    4.500    1.750    5.500 
#    0.000    3.125    0.000    0.000    0.000    0.000 
#    0.000    0.000    0.000    0.000    0.000    0.000 
#
# Total GULP energy -357437.680221 kJ/mol
# GULP energy per Si atom -5584.963753 kJ/mol
# Density = 2.027335 g / cm^3
# Si number density = 20.319602 Si / 1000 Ang^3
#
#
#
# Elastic Constant Matrix: (Units=GPa)
#
#
# Indices 1 2 3 4 5 6 
#
# 1 91.6507 36.3992 18.2551 0.0000 0.0000 0.0000
# 2 36.3992 97.5633 23.1984 0.0000 0.0000 0.0000
# 3 18.2551 23.1984 44.7993 0.0000 0.0000 0.0000
# 4 0.0000 0.0000 0.0000 39.8024 0.0000 0.0000
# 5 0.0000 0.0000 0.0000 0.0000 26.1209 0.0000
# 6 0.0000 0.0000 0.0000 0.0000 0.0000 20.3527
#
#
#
# Elastic Compliance Matrix: (Units=1/GPa)
#
#
# Indices 1 2 3 4 5 6 
#
# 1 0.013206 -0.004159 -0.003227 0.000000 0.000000 0.000000
# 2 -0.004159 0.012999 -0.005036 0.000000 0.000000 0.000000
# 3 -0.003227 -0.005036 0.026245 0.000000 0.000000 0.000000
# 4 0.000000 0.000000 0.000000 0.025124 0.000000 0.000000
# 5 0.000000 0.000000 0.000000 0.000000 0.038284 0.000000
# 6 0.000000 0.000000 0.000000 0.000000 0.000000 0.049133
#
#
# Mechanical properties :
#
#
# Convention : Reuss Voigt Hill
#
# Bulk Modulus (GPa) = 36.22736 43.30207 39.76472
# Shear Modulus (GPa) = 25.12079 27.66590 26.39334
#
# Velocity S-wave (km/s) = 3.51990 3.69390 3.60795
# Velocity P-wave (km/s) = 5.86405 6.28888 6.08017
#
# Compressibility (1/GPa) = 0.02760345
#
# Stress axis : x y z
#
# Youngs Moduli (GPa) = 75.72465 76.92820 38.10267
#
# Poissons Ratio (x) = 0.31998 0.12297
# Poissons Ratio (y) = 0.31497 0.19190
# Poissons Ratio (z) = 0.24438 0.38744
#
# Static dielectric constant tensor:
#      x y z
#    x 1.716080 0.000000 0.000000 
#    y 0.000000 1.757470 0.000000 
#    z 0.000000 0.000000 1.758130 
# 
# From -- ./inp_files/13242.got.cif
#   From: 2010.05.17/outbox.cif.g08.bks.cpg/sg53_7_cif.got.tgz:13242.got - 2010.06.03 12:45:16.
