data_PCOD9419910
_publ_section_title
;
Structure prediction by ZEFSAII (Michael W. Deem and Ramdas Pophale) SiO2 
 PCOD9419910
Probable space group: P M N A
;
_chemical_formula_sum "Si O2"
_cell_formula_units_Z 18
_cell_length_a 14.483533
_cell_length_b 10.505873
_cell_length_c 4.807902
_cell_angle_alpha 90.000000
_cell_angle_beta 90.000000
_cell_angle_gamma 90.000000
_cell_volume 731.580745
_symmetry_space_group_name_H-M "P M N A"
_symmetry_group_IT_number 53
_symmetry_cell_setting 'orthorhombic'
loop_
_space_group_symop_operation_xyz
x,y,z
1/2-x,-y,1/2+z
x,-y,-z
1/2-x,y,1/2-z
-x,-y,-z
1/2+x,y,1/2-z
-x,y,z
1/2+x,-y,1/2+z
loop_
_atom_site_type_symbol
_atom_site_label
_atom_site_fract_x
_atom_site_fract_y
_atom_site_fract_z
Si Si1 0.350693 0.288534 0.330711
Si Si2 0.606543 0.879460 0.174612
Si Si3 0.500000 0.500000 0.500000
O O1 0.250000 0.338998 0.250000
O O2 0.342847 0.172233 0.551905
O O3 0.419419 0.391431 0.453575
O O4 0.392458 0.234265 0.046885
O O5 0.500000 0.907399 0.252997
O O6 0.642783 0.000000 0.000000
#
# Coordination Sequence:
#
# PCOD9419910 Si02
#       3
#     8   8   2
#     4  12  27  47  78 115 153 209 260 320 393 463
#     4  11  23  47  79 113 155 197 251 323 404 463
#     4  12  28  54  74 112 164 210 264 336 368 464
#
# _framework density 24.604258999999999
#
# number of rings (size 3 to 8) (size 9 to 14) (size 15 to 20)
#    0.000    0.444    4.444    2.667    0.000   14.222 
#    0.000    0.000    0.000    0.000    0.000    0.000 
#    0.000    0.000    0.000    0.000    0.000    0.000 
#
# Total GULP energy -100322.598584 kJ/mol
# GULP energy per Si atom -5573.477699 kJ/mol
# Density = 2.454826 g / cm^3
# Si number density = 24.604259 Si / 1000 Ang^3
#
#
#
# Elastic Constant Matrix: (Units=GPa)
#
#
# Indices 1 2 3 4 5 6 
#
# 1 190.2458 73.2546 28.9915 0.0000 0.0000 0.0000
# 2 73.2546 102.4165 34.2099 0.0000 0.0000 0.0000
# 3 28.9915 34.2099 130.0863 0.0000 0.0000 0.0000
# 4 0.0000 0.0000 0.0000 -23.8191 0.0000 0.0000
# 5 0.0000 0.0000 0.0000 0.0000 -1.9627 0.0000
# 6 0.0000 0.0000 0.0000 0.0000 0.0000 -26.6945
#
#
#
# Elastic Compliance Matrix: (Units=1/GPa)
#
#
# Indices 1 2 3 4 5 6 
#
# 1 0.007263 -0.005103 -0.000277 0.000000 0.000000 0.000000
# 2 -0.005103 0.014289 -0.002621 0.000000 0.000000 0.000000
# 3 -0.000277 -0.002621 0.008438 0.000000 0.000000 0.000000
# 4 0.000000 0.000000 0.000000 -0.041983 0.000000 0.000000
# 5 0.000000 0.000000 0.000000 0.000000 -0.509496 0.000000
# 6 0.000000 0.000000 0.000000 0.000000 0.000000 -0.037461
#
#
# Mechanical properties :
#
#
# Convention : Reuss Voigt Hill
#
# Bulk Modulus (GPa) = 71.47765 77.29560 74.38663
# Shear Modulus (GPa) = -9.28874 8.59092 -0.34891
#
# Velocity S-wave (km/s) = -1.94511 1.87062 -0.37698
# Velocity P-wave (km/s) = 4.90606 6.01243 5.48720
#
# Compressibility (1/GPa) = 0.01399039
#
# Stress axis : x y z
#
# Youngs Moduli (GPa) = 137.67721 69.98306 118.51089
#
# Poissons Ratio (x) = 0.35711 0.03281
# Poissons Ratio (y) = 0.70253 0.31056
# Poissons Ratio (z) = 0.03811 0.18339
#
# Static dielectric constant tensor:
#      x y z
#    x 1.915890 0.000000 0.000000 
#    y 0.000000 1.936450 0.000000 
#    z 0.000000 0.000000 1.941750 
# 
# From -- ./inp_files/918.got.cif
#   From: 2010.05.17/outbox.cif.g08.bks.cpg/sg53_1_cif.got.tgz:918.got - 2010.06.03 12:45:16.
