data_PCOD9419804
_publ_section_title
;
Structure prediction by ZEFSAII (Michael W. Deem and Ramdas Pophale) SiO2 
 PCOD9419804
Probable space group: P M N A
;
_chemical_formula_sum "Si O2"
_cell_formula_units_Z 48
_cell_length_a 8.389352
_cell_length_b 12.430451
_cell_length_c 26.923151
_cell_angle_alpha 90.000000
_cell_angle_beta 90.000000
_cell_angle_gamma 90.000000
_cell_volume 2807.638505
_symmetry_space_group_name_H-M "P M N A"
_symmetry_group_IT_number 53
_symmetry_cell_setting 'orthorhombic'
loop_
_space_group_symop_operation_xyz
x,y,z
1/2-x,-y,1/2+z
x,-y,-z
1/2-x,y,1/2-z
-x,-y,-z
1/2+x,y,1/2-z
-x,y,z
1/2+x,-y,1/2+z
loop_
_atom_site_type_symbol
_atom_site_label
_atom_site_fract_x
_atom_site_fract_y
_atom_site_fract_z
Si Si1 0.804888 0.777443 0.429551
Si Si2 0.804796 0.533041 0.443751
Si Si3 0.192800 0.014288 0.619493
Si Si4 0.687378 0.669378 0.883763
Si Si5 0.812264 0.837389 0.805768
Si Si6 0.812021 0.144470 0.464453
O O1 0.753964 0.653469 0.429309
O O2 0.759094 0.861260 0.386355
O O3 0.747604 0.829626 0.481449
O O4 0.000000 0.774924 0.430766
O O5 0.756495 0.500000 0.500000
O O6 0.751035 0.444864 0.403423
O O7 0.000000 0.530217 0.444044
O O8 0.000000 0.009985 0.618826
O O9 0.245805 0.942864 0.665876
O O10 0.252208 0.950505 0.570189
O O11 0.500000 0.658900 0.871821
O O12 0.766021 0.732870 0.838462
O O13 0.699542 0.748696 0.931148
O O14 0.750000 0.829341 0.750000
O O15 0.000000 0.846618 0.804857
O O16 0.000000 0.120648 0.471568
#
# Coordination Sequence:
#
# PCOD9419804 Si02
#       6
#     8   8   8   8   8   8
#     4   9  14  21  39  70 106 138 166 195 229 270
#     4   9  14  22  41  74 109 138 169 203 230 265
#     4   9  17  28  45  72 101 128 161 200 242 286
#     4   9  16  28  48  75 104 130 164 204 240 278
#     4  11  22  37  56  73  91 117 156 207 262 307
#     4   8  12  20  37  65  99 132 163 196 226 262
#
# _framework density 17.096216999999999
#
# number of rings (size 3 to 8) (size 9 to 14) (size 15 to 20)
#    0.000    2.833    1.667    3.000    0.000    2.000 
#    0.000    0.000    0.000   10.500    0.000    0.000 
#    0.000    0.000    0.000    0.000    0.000    0.000 
#
# Total GULP energy -267271.021383 kJ/mol
# GULP energy per Si atom -5568.146279 kJ/mol
# Density = 1.705731 g / cm^3
# Si number density = 17.096217 Si / 1000 Ang^3
#
#
#
# Elastic Constant Matrix: (Units=GPa)
#
#
# Indices 1 2 3 4 5 6 
#
# 1 19.8691 25.1391 21.4465 0.0000 0.0000 0.0000
# 2 25.1391 140.2471 75.2185 0.0000 0.0000 0.0000
# 3 21.4465 75.2185 107.3557 0.0000 0.0000 0.0000
# 4 0.0000 0.0000 0.0000 7.6529 0.0000 0.0000
# 5 0.0000 0.0000 0.0000 0.0000 13.5660 0.0000
# 6 0.0000 0.0000 0.0000 0.0000 0.0000 8.5047
#
#
#
# Elastic Compliance Matrix: (Units=1/GPa)
#
#
# Indices 1 2 3 4 5 6 
#
# 1 0.069364 -0.008013 -0.008243 0.000000 0.000000 0.000000
# 2 -0.008013 0.012348 -0.007051 0.000000 0.000000 0.000000
# 3 -0.008243 -0.007051 0.015902 0.000000 0.000000 0.000000
# 4 0.000000 0.000000 0.000000 0.130669 0.000000 0.000000
# 5 0.000000 0.000000 0.000000 0.000000 0.073714 0.000000
# 6 0.000000 0.000000 0.000000 0.000000 0.000000 0.117582
#
#
# Mechanical properties :
#
#
# Convention : Reuss Voigt Hill
#
# Bulk Modulus (GPa) = 19.60735 56.78668 38.19702
# Shear Modulus (GPa) = 10.34783 15.65590 13.00187
#
# Velocity S-wave (km/s) = 2.46289 3.02942 2.76073
# Velocity P-wave (km/s) = 4.42510 6.74719 5.70553
#
# Compressibility (1/GPa) = 0.05100129
#
# Stress axis : x y z
#
# Youngs Moduli (GPa) = 14.41660 80.98359 62.88574
#
# Poissons Ratio (x) = 0.64888 0.51837
# Poissons Ratio (y) = 0.11551 0.44341
# Poissons Ratio (z) = 0.11884 0.57102
#
# Static dielectric constant tensor:
#      x y z
#    x 1.595490 0.000000 0.000000 
#    y 0.000000 1.619560 0.000000 
#    z 0.000000 0.000000 1.620330 
# 
# From -- ./inp_files/31899.got.cif
#   From: 2010.05.17/outbox.cif.g08.bks.cpg/sg53_16_cif.got.tgz:31899.got - 2010.06.03 12:45:16.
