data_PCOD9419811
_publ_section_title
;
Structure prediction by ZEFSAII (Michael W. Deem and Ramdas Pophale) SiO2 
 PCOD9419811
Probable space group: P M N A
;
_chemical_formula_sum "Si O2"
_cell_formula_units_Z 58
_cell_length_a 25.945527
_cell_length_b 9.093177
_cell_length_c 12.173907
_cell_angle_alpha 90.000000
_cell_angle_beta 90.000000
_cell_angle_gamma 90.000000
_cell_volume 2872.156636
_symmetry_space_group_name_H-M "P M N A"
_symmetry_group_IT_number 53
_symmetry_cell_setting 'orthorhombic'
loop_
_space_group_symop_operation_xyz
x,y,z
1/2-x,-y,1/2+z
x,-y,-z
1/2-x,y,1/2-z
-x,-y,-z
1/2+x,y,1/2-z
-x,y,z
1/2+x,-y,1/2+z
loop_
_atom_site_type_symbol
_atom_site_label
_atom_site_fract_x
_atom_site_fract_y
_atom_site_fract_z
Si Si1 0.943262 0.844588 0.062622
Si Si2 0.342592 0.324627 0.486137
Si Si3 0.141294 0.406988 0.605569
Si Si4 0.177956 0.035662 0.377062
Si Si5 0.255750 0.232486 0.875143
Si Si6 0.310286 0.338221 0.240908
Si Si7 0.419100 0.126337 0.816015
Si Si8 0.000000 0.000000 0.500000
O O1 0.942092 0.864942 0.194257
O O2 0.000000 0.785059 0.032147
O O3 0.896027 0.742827 0.026860
O O4 0.937324 0.000000 0.000000
O O5 0.342675 0.500000 0.500000
O O6 0.295161 0.263224 0.557414
O O7 0.331015 0.290229 0.359286
O O8 0.124391 0.500000 0.500000
O O9 0.194500 0.319673 0.579183
O O10 0.156610 0.524526 0.698323
O O11 0.099627 0.287603 0.643538
O O12 0.185636 0.202407 0.343309
O O13 0.159299 0.000000 0.500000
O O14 0.229724 0.939528 0.370890
O O15 0.133846 0.965489 0.302308
O O16 0.250000 0.281262 0.750000
O O17 0.250000 0.377394 0.250000
O O18 0.455250 0.052833 0.908618
#
# Coordination Sequence:
#
# PCOD9419811 Si02
#       8
#     8   8   8   8   8   8   8   2
#     4  11  25  46  68  95 130 177 230 290 349 407
#     4  12  24  41  66  97 136 183 230 280 342 414
#     4  11  23  41  65  97 136 178 215 273 351 418
#     4  11  22  37  61  94 132 172 218 279 341 402
#     4  11  22  38  59  90 132 180 221 268 337 405
#     4  12  23  38  64 100 138 179 230 270 329 422
#     4  11  23  45  71  97 132 173 225 293 355 411
#     4  12  24  44  80 100 126 174 242 298 358 424
#
# _framework density 20.193885000000002
#
# number of rings (size 3 to 8) (size 9 to 14) (size 15 to 20)
#    0.000    0.690    1.379    9.517    0.000    1.931 
#    0.000    0.345    0.000    0.000    0.000    0.000 
#    0.000    0.000    0.000    0.000    0.000    0.000 
#
# Total GULP energy -323817.330190 kJ/mol
# GULP energy per Si atom -5583.057417 kJ/mol
# Density = 2.014792 g / cm^3
# Si number density = 20.193885 Si / 1000 Ang^3
#
#
#
# Elastic Constant Matrix: (Units=GPa)
#
#
# Indices 1 2 3 4 5 6 
#
# 1 134.8656 52.9835 60.9670 0.0000 0.0000 0.0000
# 2 52.9835 98.0729 43.9847 0.0000 0.0000 0.0000
# 3 60.9670 43.9847 146.9014 0.0000 0.0000 0.0000
# 4 0.0000 0.0000 0.0000 23.4302 0.0000 0.0000
# 5 0.0000 0.0000 0.0000 0.0000 66.6051 0.0000
# 6 0.0000 0.0000 0.0000 0.0000 0.0000 61.6219
#
#
#
# Elastic Compliance Matrix: (Units=1/GPa)
#
#
# Indices 1 2 3 4 5 6 
#
# 1 0.010487 -0.004290 -0.003068 0.000000 0.000000 0.000000
# 2 -0.004290 0.013533 -0.002272 0.000000 0.000000 0.000000
# 3 -0.003068 -0.002272 0.008761 0.000000 0.000000 0.000000
# 4 0.000000 0.000000 0.000000 0.042680 0.000000 0.000000
# 5 0.000000 0.000000 0.000000 0.000000 0.015014 0.000000
# 6 0.000000 0.000000 0.000000 0.000000 0.000000 0.016228
#
#
# Mechanical properties :
#
#
# Convention : Reuss Voigt Hill
#
# Bulk Modulus (GPa) = 73.95331 77.30114 75.62722
# Shear Modulus (GPa) = 38.32365 45.12508 41.72436
#
# Velocity S-wave (km/s) = 4.36108 4.73227 4.55047
# Velocity P-wave (km/s) = 7.87781 8.25965 8.07099
#
# Compressibility (1/GPa) = 0.01352205
#
# Stress axis : x y z
#
# Youngs Moduli (GPa) = 95.35744 73.89487 114.14615
#
# Poissons Ratio (x) = 0.31698 0.35019
# Poissons Ratio (y) = 0.40904 0.25930
# Poissons Ratio (z) = 0.29255 0.16786
#
# Static dielectric constant tensor:
#      x y z
#    x 1.701800 0.000000 0.000000 
#    y 0.000000 1.728130 0.000000 
#    z 0.000000 0.000000 1.753210 
# 
# From -- ./inp_files/18794.got.cif
#   From: 2010.05.17/outbox.cif.g08.bks.cpg/sg53_10_cif.got.tgz:18794.got - 2010.06.03 12:45:16.
