data_PCOD9419394
_publ_section_title
;
Structure prediction by ZEFSAII (Michael W. Deem and Ramdas Pophale) SiO2 
 PCOD9419394
Probable space group: P M N A
;
_chemical_formula_sum "Si O2"
_cell_formula_units_Z 40
_cell_length_a 14.031056
_cell_length_b 11.107861
_cell_length_c 11.239071
_cell_angle_alpha 90.000000
_cell_angle_beta 90.000000
_cell_angle_gamma 90.000000
_cell_volume 1751.665632
_symmetry_space_group_name_H-M "P M N A"
_symmetry_group_IT_number 53
_symmetry_cell_setting 'orthorhombic'
loop_
_space_group_symop_operation_xyz
x,y,z
1/2-x,-y,1/2+z
x,-y,-z
1/2-x,y,1/2-z
-x,-y,-z
1/2+x,y,1/2-z
-x,y,z
1/2+x,-y,1/2+z
loop_
_atom_site_type_symbol
_atom_site_label
_atom_site_fract_x
_atom_site_fract_y
_atom_site_fract_z
Si Si1 0.706449 0.832817 0.621476
Si Si2 0.804754 0.177569 0.604523
Si Si3 0.385546 0.573035 0.619412
Si Si4 0.114782 0.443017 0.630181
Si Si5 0.108424 0.073719 0.820143
O O1 0.750000 0.833153 0.750000
O O2 0.796252 0.846799 0.534081
O O3 0.656176 0.705651 0.604152
O O4 0.633498 0.944911 0.622892
O O5 0.840557 0.310568 0.632071
O O6 0.692219 0.161768 0.635254
O O7 0.867884 0.083964 0.679462
O O8 0.357736 0.500000 0.500000
O O9 0.500000 0.578936 0.620501
O O10 0.358380 0.515546 0.748679
O O11 0.138234 0.500000 0.500000
O O12 0.000000 0.431758 0.633346
O O13 0.000000 0.108692 0.843684
#
# Coordination Sequence:
#
# PCOD9419394 Si02
#       5
#     8   8   8   8   8
#     4  12  25  45  72 107 149 191 244 308 371 438
#     4  11  25  46  75 105 147 192 250 305 370 450
#     4  10  24  43  70 110 148 190 247 303 368 446
#     4  10  22  46  76 110 152 199 248 305 379 456
#     4  11  26  48  75 104 144 195 248 305 370 442
#
# _framework density 22.83541
#
# number of rings (size 3 to 8) (size 9 to 14) (size 15 to 20)
#    0.000    1.200    2.000    3.000    5.600    4.800 
#    0.000    4.000    0.000    0.600    0.000    0.000 
#    0.000    0.000    0.000    0.000    0.000    0.000 
#
# Total GULP energy -223594.210905 kJ/mol
# GULP energy per Si atom -5589.855273 kJ/mol
# Density = 2.278344 g / cm^3
# Si number density = 22.835410 Si / 1000 Ang^3
#
#
#
# Elastic Constant Matrix: (Units=GPa)
#
#
# Indices 1 2 3 4 5 6 
#
# 1 98.6066 41.8029 -12.6687 0.0000 0.0000 0.0000
# 2 41.8029 160.2292 58.4653 0.0000 0.0000 0.0000
# 3 -12.6687 58.4653 136.6939 0.0000 0.0000 0.0000
# 4 0.0000 0.0000 0.0000 44.9040 0.0000 0.0000
# 5 0.0000 0.0000 0.0000 0.0000 -18.4959 0.0000
# 6 0.0000 0.0000 0.0000 0.0000 0.0000 34.9769
#
#
#
# Elastic Compliance Matrix: (Units=1/GPa)
#
#
# Indices 1 2 3 4 5 6 
#
# 1 0.012354 -0.004314 0.002990 0.000000 0.000000 0.000000
# 2 -0.004314 0.008902 -0.004207 0.000000 0.000000 0.000000
# 3 0.002990 -0.004207 0.009392 0.000000 0.000000 0.000000
# 4 0.000000 0.000000 0.000000 0.022270 0.000000 0.000000
# 5 0.000000 0.000000 0.000000 0.000000 -0.054066 0.000000
# 6 0.000000 0.000000 0.000000 0.000000 0.000000 0.028590
#
#
# Mechanical properties :
#
#
# Convention : Reuss Voigt Hill
#
# Bulk Modulus (GPa) = 51.05697 63.41430 57.23564
# Shear Modulus (GPa) = 111.02774 32.80568 71.91671
#
# Velocity S-wave (km/s) = 6.98043 3.79438 5.61800
# Velocity P-wave (km/s) = 9.34750 6.85762 8.19764
#
# Compressibility (1/GPa) = 0.01958596
#
# Stress axis : x y z
#
# Youngs Moduli (GPa) = 80.94228 112.33683 106.47095
#
# Poissons Ratio (x) = 0.48466 -0.31838
# Poissons Ratio (y) = 0.34921 0.44795
# Poissons Ratio (z) = -0.24204 0.47263
#
# Static dielectric constant tensor:
#      x y z
#    x 1.811360 0.000000 0.000000 
#    y 0.000000 1.943250 0.000000 
#    z 0.000000 0.000000 2.128290 
# 
# From -- ./inp_files/15768.got.cif
#   From: 2010.05.17/outbox.cif.g08.bks.cpg/sg53_8_cif.got.tgz:15768.got - 2010.06.03 12:45:16.
