data_PCOD9419882
_publ_section_title
;
Structure prediction by ZEFSAII (Michael W. Deem and Ramdas Pophale) SiO2 
 PCOD9419882
Probable space group: P M N A
;
_chemical_formula_sum "Si O2"
_cell_formula_units_Z 40
_cell_length_a 16.802191
_cell_length_b 15.211952
_cell_length_c 8.549714
_cell_angle_alpha 90.000000
_cell_angle_beta 90.000000
_cell_angle_gamma 90.000000
_cell_volume 2185.256652
_symmetry_space_group_name_H-M "P M N A"
_symmetry_group_IT_number 53
_symmetry_cell_setting 'orthorhombic'
loop_
_space_group_symop_operation_xyz
x,y,z
1/2-x,-y,1/2+z
x,-y,-z
1/2-x,y,1/2-z
-x,-y,-z
1/2+x,y,1/2-z
-x,y,z
1/2+x,-y,1/2+z
loop_
_atom_site_type_symbol
_atom_site_label
_atom_site_fract_x
_atom_site_fract_y
_atom_site_fract_z
Si Si1 0.823782 0.261476 0.864839
Si Si2 0.232333 0.598053 0.566965
Si Si3 0.592100 0.093193 0.568287
Si Si4 0.593448 0.714526 0.051935
Si Si5 0.592497 0.909496 0.055571
O O1 0.750000 0.236693 0.750000
O O2 0.854414 0.178382 0.963532
O O3 0.890893 0.289957 0.739327
O O4 0.794224 0.340420 0.972611
O O5 0.234870 0.500000 0.500000
O O6 0.250000 0.597887 0.750000
O O7 0.147063 0.642415 0.531106
O O8 0.500000 0.106246 0.517322
O O9 0.592537 0.087895 0.756726
O O10 0.619552 0.000000 0.500000
O O11 0.500000 0.706651 0.020774
O O12 0.622187 0.813483 0.005120
O O13 0.500000 0.910757 0.002201
O O14 0.631745 0.000000 0.000000
#
# Coordination Sequence:
#
# PCOD9419882 Si02
#       5
#     8   8   8   8   8
#     4   9  18  35  55  76 106 142 180 220 268 322
#     4  11  23  40  59  79 106 141 177 220 278 334
#     4   9  17  30  50  76 107 141 175 215 261 307
#     4   9  18  35  59  83 108 142 183 226 268 313
#     4   8  14  26  46  73 104 137 171 208 255 307
#
# _framework density 18.304487000000002
#
# number of rings (size 3 to 8) (size 9 to 14) (size 15 to 20)
#    0.000    2.800    0.000    3.600    0.000    2.000 
#    0.000   14.000    0.000    4.200    0.000    0.000 
#    0.000    0.000    0.000    0.000    0.000    0.000 
#
# Total GULP energy -222827.285639 kJ/mol
# GULP energy per Si atom -5570.682141 kJ/mol
# Density = 1.826282 g / cm^3
# Si number density = 18.304487 Si / 1000 Ang^3
#
#
#
# Elastic Constant Matrix: (Units=GPa)
#
#
# Indices 1 2 3 4 5 6 
#
# 1 52.5125 77.1698 33.1026 0.0000 0.0000 0.0000
# 2 77.1698 204.0810 62.8936 0.0000 0.0000 0.0000
# 3 33.1026 62.8936 55.0268 0.0000 0.0000 0.0000
# 4 0.0000 0.0000 0.0000 36.4709 0.0000 0.0000
# 5 0.0000 0.0000 0.0000 0.0000 14.1283 0.0000
# 6 0.0000 0.0000 0.0000 0.0000 0.0000 21.1526
#
#
#
# Elastic Compliance Matrix: (Units=1/GPa)
#
#
# Indices 1 2 3 4 5 6 
#
# 1 0.047858 -0.014240 -0.012514 0.000000 0.000000 0.000000
# 2 -0.014240 0.011802 -0.004922 0.000000 0.000000 0.000000
# 3 -0.012514 -0.004922 0.031327 0.000000 0.000000 0.000000
# 4 0.000000 0.000000 0.000000 0.027419 0.000000 0.000000
# 5 0.000000 0.000000 0.000000 0.000000 0.070780 0.000000
# 6 0.000000 0.000000 0.000000 0.000000 0.000000 0.047275
#
#
# Mechanical properties :
#
#
# Convention : Reuss Voigt Hill
#
# Bulk Modulus (GPa) = 36.18765 73.10579 54.64672
# Shear Modulus (GPa) = 16.17982 23.58065 19.88023
#
# Velocity S-wave (km/s) = 2.97632 3.59311 3.29916
# Velocity P-wave (km/s) = 5.62352 7.56567 6.66571
#
# Compressibility (1/GPa) = 0.02763374
#
# Stress axis : x y z
#
# Youngs Moduli (GPa) = 20.89494 84.73361 31.92104
#
# Poissons Ratio (x) = 1.20663 0.39947
# Poissons Ratio (y) = 0.29755 0.15713
# Poissons Ratio (z) = 0.26148 0.41709
#
# Static dielectric constant tensor:
#      x y z
#    x 1.663040 0.000000 0.000000 
#    y 0.000000 1.657390 0.000000 
#    z 0.000000 0.000000 1.619450 
# 
# From -- ./inp_files/9772.got.cif
#   From: 2010.05.17/outbox.cif.g08.bks.cpg/sg53_5_cif.got.tgz:9772.got - 2010.06.03 12:45:16.
