data_PCOD9419380
_publ_section_title
;
Structure prediction by ZEFSAII (Michael W. Deem and Ramdas Pophale) SiO2 
 PCOD9419380
Probable space group: P M N A
;
_chemical_formula_sum "Si O2"
_cell_formula_units_Z 56
_cell_length_a 13.240688
_cell_length_b 5.371224
_cell_length_c 31.676857
_cell_angle_alpha 90.000000
_cell_angle_beta 90.000000
_cell_angle_gamma 90.000000
_cell_volume 2252.816927
_symmetry_space_group_name_H-M "P M N A"
_symmetry_group_IT_number 53
_symmetry_cell_setting 'orthorhombic'
loop_
_space_group_symop_operation_xyz
x,y,z
1/2-x,-y,1/2+z
x,-y,-z
1/2-x,y,1/2-z
-x,-y,-z
1/2+x,y,1/2-z
-x,y,z
1/2+x,-y,1/2+z
loop_
_atom_site_type_symbol
_atom_site_label
_atom_site_fract_x
_atom_site_fract_y
_atom_site_fract_z
Si Si1 0.890689 0.975934 0.598683
Si Si2 0.878511 0.912735 0.811992
Si Si3 0.118549 0.342704 0.667696
Si Si4 0.780524 0.351583 0.112910
Si Si5 0.166888 0.239985 0.524161
Si Si6 0.620866 0.411962 0.733345
Si Si7 0.389295 0.336177 0.542424
O O1 0.878557 0.066816 0.646983
O O2 0.883268 0.223407 0.570157
O O3 0.000000 0.861333 0.592948
O O4 0.800182 0.799097 0.585254
O O5 0.840610 0.843637 0.858365
O O6 0.844792 0.682456 0.782382
O O7 0.000000 0.917411 0.812176
O O8 0.843387 0.177962 0.794484
O O9 0.205866 0.491795 0.643223
O O10 0.137482 0.360907 0.717465
O O11 0.000000 0.424683 0.661343
O O12 0.857360 0.505271 0.083866
O O13 0.153191 0.500000 0.500000
O O14 0.286086 0.193136 0.532867
O O15 0.124911 0.000000 0.500000
O O16 0.500000 0.416652 0.727695
O O17 0.398648 0.500000 0.500000
O O18 0.500000 0.214739 0.548928
#
# Coordination Sequence:
#
# PCOD9419380 Si02
#       7
#     8   8   8   8   8   8   8
#     4  11  25  44  68 100 140 185 236 294 358 426
#     4  10  23  43  69 101 140 183 231 293 355 416
#     4  10  23  43  67  95 136 186 234 290 350 420
#     4  12  24  43  69 104 142 185 241 298 352 428
#     4  11  24  46  73 105 142 183 236 295 355 430
#     4   9  21  43  67  96 137 184 233 286 351 421
#     4  10  22  44  72 103 141 187 233 289 358 427
#
# _framework density 24.857769000000001
#
# number of rings (size 3 to 8) (size 9 to 14) (size 15 to 20)
#    0.000    1.571    1.429    2.571    4.000    1.429 
#    0.000    2.857    0.000    0.857    0.000    0.000 
#    0.000    0.000    0.000    0.000    0.000    0.000 
#
# Total GULP energy -313132.297054 kJ/mol
# GULP energy per Si atom -5591.648162 kJ/mol
# Density = 2.480119 g / cm^3
# Si number density = 24.857769 Si / 1000 Ang^3
#
#
#
# Elastic Constant Matrix: (Units=GPa)
#
#
# Indices 1 2 3 4 5 6 
#
# 1 107.8517 21.5837 8.0900 0.0000 0.0000 0.0000
# 2 21.5837 95.8008 26.2825 0.0000 0.0000 0.0000
# 3 8.0900 26.2825 93.6511 0.0000 0.0000 0.0000
# 4 0.0000 0.0000 0.0000 37.5932 0.0000 0.0000
# 5 0.0000 0.0000 0.0000 0.0000 48.8564 0.0000
# 6 0.0000 0.0000 0.0000 0.0000 0.0000 33.2401
#
#
#
# Elastic Compliance Matrix: (Units=1/GPa)
#
#
# Indices 1 2 3 4 5 6 
#
# 1 0.009715 -0.002122 -0.000244 0.000000 0.000000 0.000000
# 2 -0.002122 0.011772 -0.003121 0.000000 0.000000 0.000000
# 3 -0.000244 -0.003121 0.011575 0.000000 0.000000 0.000000
# 4 0.000000 0.000000 0.000000 0.026601 0.000000 0.000000
# 5 0.000000 0.000000 0.000000 0.000000 0.020468 0.000000
# 6 0.000000 0.000000 0.000000 0.000000 0.000000 0.030084
#
#
# Mechanical properties :
#
#
# Convention : Reuss Voigt Hill
#
# Bulk Modulus (GPa) = 45.26975 45.46844 45.36909
# Shear Modulus (GPa) = 38.89519 40.02777 39.46148
#
# Velocity S-wave (km/s) = 3.95993 4.01717 3.98866
# Velocity P-wave (km/s) = 6.25773 6.31253 6.28519
#
# Compressibility (1/GPa) = 0.02208981
#
# Stress axis : x y z
#
# Youngs Moduli (GPa) = 102.93451 84.94383 86.39501
#
# Poissons Ratio (x) = 0.18024 0.02106
# Poissons Ratio (y) = 0.21841 0.26960
# Poissons Ratio (z) = 0.02509 0.26507
#
# Static dielectric constant tensor:
#      x y z
#    x 1.995070 0.000000 0.000000 
#    y 0.000000 1.975810 0.000000 
#    z 0.000000 0.000000 1.983020 
# 
# From -- ./inp_files/38860.got.cif
#   From: 2010.05.17/outbox.cif.g08.bks.cpg/sg53_20_cif.got.tgz:38860.got - 2010.06.03 12:45:16.
