data_PCOD9419357
_publ_section_title
;
Structure prediction by ZEFSAII (Michael W. Deem and Ramdas Pophale) SiO2 
 PCOD9419357
Probable space group: P M N A
;
_chemical_formula_sum "Si O2"
_cell_formula_units_Z 64
_cell_length_a 15.574525
_cell_length_b 11.446444
_cell_length_c 17.268045
_cell_angle_alpha 90.000000
_cell_angle_beta 90.000000
_cell_angle_gamma 90.000000
_cell_volume 3078.424947
_symmetry_space_group_name_H-M "P M N A"
_symmetry_group_IT_number 53
_symmetry_cell_setting 'orthorhombic'
loop_
_space_group_symop_operation_xyz
x,y,z
1/2-x,-y,1/2+z
x,-y,-z
1/2-x,y,1/2-z
-x,-y,-z
1/2+x,y,1/2-z
-x,y,z
1/2+x,-y,1/2+z
loop_
_atom_site_type_symbol
_atom_site_label
_atom_site_fract_x
_atom_site_fract_y
_atom_site_fract_z
Si Si1 0.274828 0.978994 0.085943
Si Si2 0.093830 0.084226 0.118525
Si Si3 0.171121 0.509799 0.834801
Si Si4 0.099918 0.106488 0.294114
Si Si5 0.348913 0.364711 0.186927
Si Si6 0.094670 0.668252 0.956286
Si Si7 0.759350 0.288830 0.916838
Si Si8 0.908129 0.637354 0.512638
O O1 0.255627 0.844569 0.107016
O O2 0.181330 0.038612 0.082849
O O3 0.338252 0.039256 0.147110
O O4 0.312578 0.000000 0.000000
O O5 0.098953 0.051929 0.208775
O O6 0.093768 0.223325 0.103725
O O7 0.000000 0.041919 0.089396
O O8 0.125748 0.539295 0.752575
O O9 0.252099 0.598550 0.833893
O O10 0.115640 0.552047 0.907577
O O11 0.211929 0.382434 0.851079
O O12 0.138502 0.235587 0.280814
O O13 0.000000 0.113702 0.320117
O O14 0.395471 0.353844 0.104654
O O15 0.000000 0.661303 0.991423
O O16 0.165922 0.698444 0.019304
O O17 0.671523 0.321141 0.961596
O O18 0.911626 0.500000 0.500000
O O19 0.000000 0.691453 0.490174
#
# Coordination Sequence:
#
# PCOD9419357 Si02
#       8
#     8   8   8   8   8   8   8   8
#     4  12  25  41  67  96 131 180 227 268 328 396
#     4  10  22  43  68  96 125 165 219 278 334 389
#     4  11  23  38  65  95 136 168 210 268 335 406
#     4  11  24  43  69  97 126 165 223 287 329 382
#     4  11  21  39  66  94 122 166 217 271 331 388
#     4  11  21  39  70  99 129 166 211 272 337 397
#     4  12  24  44  61  97 142 176 216 269 334 399
#     4  11  22  40  64  90 126 173 220 266 321 391
#
# _framework density 20.789852
#
# number of rings (size 3 to 8) (size 9 to 14) (size 15 to 20)
#    0.000    0.875    5.000    2.625    1.750    3.000 
#    4.500    0.000    0.000    0.000    0.000    0.000 
#    0.000    0.000    0.000    0.000    0.000    0.000 
#
# Total GULP energy -357136.462563 kJ/mol
# GULP energy per Si atom -5580.257228 kJ/mol
# Density = 2.074253 g / cm^3
# Si number density = 20.789852 Si / 1000 Ang^3
#
#
#
# Elastic Constant Matrix: (Units=GPa)
#
#
# Indices 1 2 3 4 5 6 
#
# 1 97.3095 31.1391 0.3905 0.0000 0.0000 0.0000
# 2 31.1391 107.9467 25.8900 0.0000 0.0000 0.0000
# 3 0.3905 25.8900 62.1188 0.0000 0.0000 0.0000
# 4 0.0000 0.0000 0.0000 32.7613 0.0000 0.0000
# 5 0.0000 0.0000 0.0000 0.0000 -8.3709 0.0000
# 6 0.0000 0.0000 0.0000 0.0000 0.0000 13.7792
#
#
#
# Elastic Compliance Matrix: (Units=1/GPa)
#
#
# Indices 1 2 3 4 5 6 
#
# 1 0.011438 -0.003647 0.001448 0.000000 0.000000 0.000000
# 2 -0.003647 0.011455 -0.004751 0.000000 0.000000 0.000000
# 3 0.001448 -0.004751 0.018069 0.000000 0.000000 0.000000
# 4 0.000000 0.000000 0.000000 0.030524 0.000000 0.000000
# 5 0.000000 0.000000 0.000000 0.000000 -0.119462 0.000000
# 6 0.000000 0.000000 0.000000 0.000000 0.000000 0.072573
#
#
# Mechanical properties :
#
#
# Convention : Reuss Voigt Hill
#
# Bulk Modulus (GPa) = 36.95210 42.46825 39.71017
# Shear Modulus (GPa) = 105.22184 21.63094 63.42639
#
# Velocity S-wave (km/s) = 7.12194 3.22911 5.52943
# Velocity P-wave (km/s) = 9.24348 5.86299 7.74005
#
# Compressibility (1/GPa) = 0.02706206
#
# Stress axis : x y z
#
# Youngs Moduli (GPa) = 87.43079 87.29528 55.34212
#
# Poissons Ratio (x) = 0.31834 -0.08013
# Poissons Ratio (y) = 0.31883 0.26296
# Poissons Ratio (z) = -0.12660 0.41478
#
# Static dielectric constant tensor:
#      x y z
#    x 1.774870 0.000000 0.000000 
#    y 0.000000 1.855580 0.000000 
#    z 0.000000 0.000000 1.682010 
# 
# From -- ./inp_files/28536.got.cif
#   From: 2010.05.17/outbox.cif.g08.bks.cpg/sg53_15_cif.got.tgz:28536.got - 2010.06.03 12:45:16.
