data_PCOD9419694
_publ_section_title
;
Structure prediction by ZEFSAII (Michael W. Deem and Ramdas Pophale) SiO2 
 PCOD9419694
Probable space group: P M N A
;
_chemical_formula_sum "Si O2"
_cell_formula_units_Z 40
_cell_length_a 8.487851
_cell_length_b 19.136100
_cell_length_c 13.994171
_cell_angle_alpha 90.000000
_cell_angle_beta 90.000000
_cell_angle_gamma 90.000000
_cell_volume 2272.994346
_symmetry_space_group_name_H-M "P M N A"
_symmetry_group_IT_number 53
_symmetry_cell_setting 'orthorhombic'
loop_
_space_group_symop_operation_xyz
x,y,z
1/2-x,-y,1/2+z
x,-y,-z
1/2-x,y,1/2-z
-x,-y,-z
1/2+x,y,1/2-z
-x,y,z
1/2+x,-y,1/2+z
loop_
_atom_site_type_symbol
_atom_site_label
_atom_site_fract_x
_atom_site_fract_y
_atom_site_fract_z
Si Si1 0.311259 0.248882 0.642027
Si Si2 0.810163 0.538495 0.854450
Si Si3 0.191988 0.393903 0.949810
Si Si4 0.309487 0.108245 0.952405
Si Si5 0.689589 0.035583 0.145539
O O1 0.250000 0.245593 0.750000
O O2 0.500000 0.250594 0.644122
O O3 0.253610 0.320221 0.591565
O O4 0.257213 0.180543 0.585067
O O5 0.750000 0.557128 0.750000
O O6 0.759002 0.588615 0.941604
O O7 0.000000 0.538898 0.853036
O O8 0.759452 0.459920 0.884625
O O9 0.000000 0.393515 0.949542
O O10 0.500000 0.111250 0.950201
O O11 0.260542 0.042779 0.885624
O O12 0.260640 0.087203 0.060007
O O13 0.750000 0.053573 0.250000
O O14 0.500000 0.035683 0.146489
#
# Coordination Sequence:
#
# PCOD9419694 Si02
#       5
#     8   8   8   8   8
#     4  11  21  33  50  73  99 128 159 196 241 290
#     4   9  16  31  52  71  93 125 161 198 236 278
#     4   8  17  32  49  69  97 129 159 191 236 288
#     4   9  19  35  51  72 100 129 160 198 240 285
#     4   9  18  33  53  73  97 127 162 201 240 281
#
# _framework density 17.597930999999999
#
# number of rings (size 3 to 8) (size 9 to 14) (size 15 to 20)
#    0.000    2.800    0.000    4.200    0.000    3.200 
#    0.000    8.000    0.000    4.800    0.000    0.000 
#    0.000    0.000    0.000    0.000    0.000    0.000 
#
# Total GULP energy -223043.524229 kJ/mol
# GULP energy per Si atom -5576.088106 kJ/mol
# Density = 1.755788 g / cm^3
# Si number density = 17.597931 Si / 1000 Ang^3
#
#
#
# Elastic Constant Matrix: (Units=GPa)
#
#
# Indices 1 2 3 4 5 6 
#
# 1 14.3285 23.8195 22.7177 0.0000 0.0000 0.0000
# 2 23.8195 142.0175 84.7449 0.0000 0.0000 0.0000
# 3 22.7177 84.7449 161.2166 0.0000 0.0000 0.0000
# 4 0.0000 0.0000 0.0000 16.3079 0.0000 0.0000
# 5 0.0000 0.0000 0.0000 0.0000 31.7261 0.0000
# 6 0.0000 0.0000 0.0000 0.0000 0.0000 34.1421
#
#
#
# Elastic Compliance Matrix: (Units=1/GPa)
#
#
# Indices 1 2 3 4 5 6 
#
# 1 0.103308 -0.012589 -0.007940 0.000000 0.000000 0.000000
# 2 -0.012589 0.011794 -0.004425 0.000000 0.000000 0.000000
# 3 -0.007940 -0.004425 0.009648 0.000000 0.000000 0.000000
# 4 0.000000 0.000000 0.000000 0.061320 0.000000 0.000000
# 5 0.000000 0.000000 0.000000 0.000000 0.031520 0.000000
# 6 0.000000 0.000000 0.000000 0.000000 0.000000 0.029289
#
#
# Mechanical properties :
#
#
# Convention : Reuss Voigt Hill
#
# Bulk Modulus (GPa) = 13.36175 64.45852 38.91014
# Shear Modulus (GPa) = 15.54077 28.85391 22.19734
#
# Velocity S-wave (km/s) = 2.97493 4.05361 3.55542
# Velocity P-wave (km/s) = 4.40563 7.65618 6.24606
#
# Compressibility (1/GPa) = 0.07484048
#
# Stress axis : x y z
#
# Youngs Moduli (GPa) = 9.67981 84.79175 103.64887
#
# Poissons Ratio (x) = 1.06745 0.82297
# Poissons Ratio (y) = 0.12186 0.45869
# Poissons Ratio (z) = 0.07686 0.37524
#
# Static dielectric constant tensor:
#      x y z
#    x 1.609530 0.000000 0.000000 
#    y 0.000000 1.588320 0.000000 
#    z 0.000000 0.000000 1.587280 
# 
# From -- ./inp_files/13892.got.cif
#   From: 2010.05.17/outbox.cif.g08.bks.cpg/sg53_7_cif.got.tgz:13892.got - 2010.06.03 12:45:16.
