data_PCOD9419637
_publ_section_title
;
Structure prediction by ZEFSAII (Michael W. Deem and Ramdas Pophale) SiO2 
 PCOD9419637
Probable space group: P M N A
;
_chemical_formula_sum "Si O2"
_cell_formula_units_Z 56
_cell_length_a 8.868455
_cell_length_b 16.509233
_cell_length_c 25.612283
_cell_angle_alpha 90.000000
_cell_angle_beta 90.000000
_cell_angle_gamma 90.000000
_cell_volume 3749.929954
_symmetry_space_group_name_H-M "P M N A"
_symmetry_group_IT_number 53
_symmetry_cell_setting 'orthorhombic'
loop_
_space_group_symop_operation_xyz
x,y,z
1/2-x,-y,1/2+z
x,-y,-z
1/2-x,y,1/2-z
-x,-y,-z
1/2+x,y,1/2-z
-x,y,z
1/2+x,-y,1/2+z
loop_
_atom_site_type_symbol
_atom_site_label
_atom_site_fract_x
_atom_site_fract_y
_atom_site_fract_z
Si Si1 0.321082 0.305204 0.488698
Si Si2 0.674299 0.543762 0.943115
Si Si3 0.182967 0.375953 0.594911
Si Si4 0.181938 0.915804 0.305408
Si Si5 0.183117 0.977784 0.416699
Si Si6 0.318970 0.726466 0.195247
Si Si7 0.317608 0.130520 0.014047
O O1 0.500000 0.302365 0.491598
O O2 0.269419 0.374937 0.448264
O O3 0.253338 0.333007 0.544481
O O4 0.254490 0.217256 0.476365
O O5 0.500000 0.564567 0.932466
O O6 0.724995 0.471094 0.905328
O O7 0.678405 0.500000 0.000000
O O8 0.228259 0.328403 0.646704
O O9 0.000000 0.372656 0.589547
O O10 0.250000 0.942743 0.250000
O O11 0.233810 0.962250 0.357599
O O12 0.222545 0.820848 0.312765
O O13 0.000000 0.921010 0.302367
O O14 0.226890 0.906918 0.457507
O O15 0.000000 0.976522 0.415976
O O16 0.226291 0.062862 0.443131
O O17 0.250000 0.699560 0.250000
O O18 0.500000 0.723188 0.198386
O O19 0.500000 0.137643 0.014298
#
# Coordination Sequence:
#
# PCOD9419637 Si02
#       7
#     8   8   8   8   8   8   8
#     4  11  20  27  39  63  91 114 136 168 213 256
#     4   8  15  28  44  60  79 107 143 174 199 236
#     4   9  17  30  46  61  81 114 149 176 202 238
#     4   9  16  27  42  62  86 111 139 170 205 246
#     4   8  15  28  47  65  80 106 147 183 208 244
#     4   9  17  28  43  63  87 112 139 171 204 243
#     4   9  16  29  47  63  81 110 145 179 213 251
#
# _framework density 14.933612999999999
#
# number of rings (size 3 to 8) (size 9 to 14) (size 15 to 20)
#    0.000    3.000    0.000    3.857    0.000    5.429 
#    0.000    5.714    0.000    0.000    0.000    1.000 
#    0.000    0.000    0.000    0.000    0.000    0.000 
#
# Total GULP energy -311845.630373 kJ/mol
# GULP energy per Si atom -5568.671971 kJ/mol
# Density = 1.489962 g / cm^3
# Si number density = 14.933613 Si / 1000 Ang^3
#
#
#
# Elastic Constant Matrix: (Units=GPa)
#
#
# Indices 1 2 3 4 5 6 
#
# 1 23.8370 33.5489 21.7092 0.0000 0.0000 0.0000
# 2 33.5489 104.5632 51.2593 0.0000 0.0000 0.0000
# 3 21.7092 51.2593 104.4387 0.0000 0.0000 0.0000
# 4 0.0000 0.0000 0.0000 24.3257 0.0000 0.0000
# 5 0.0000 0.0000 0.0000 0.0000 18.4709 0.0000
# 6 0.0000 0.0000 0.0000 0.0000 0.0000 3.3916
#
#
#
# Elastic Compliance Matrix: (Units=1/GPa)
#
#
# Indices 1 2 3 4 5 6 
#
# 1 0.078593 -0.022660 -0.005215 0.000000 0.000000 0.000000
# 2 -0.022660 0.019127 -0.004677 0.000000 0.000000 0.000000
# 3 -0.005215 -0.004677 0.012955 0.000000 0.000000 0.000000
# 4 0.000000 0.000000 0.000000 0.041109 0.000000 0.000000
# 5 0.000000 0.000000 0.000000 0.000000 0.054139 0.000000
# 6 0.000000 0.000000 0.000000 0.000000 0.000000 0.294847
#
#
# Mechanical properties :
#
#
# Convention : Reuss Voigt Hill
#
# Bulk Modulus (GPa) = 21.94428 49.54154 35.74291
# Shear Modulus (GPa) = 8.60489 17.65907 13.13198
#
# Velocity S-wave (km/s) = 2.40304 3.44249 2.96861
# Velocity P-wave (km/s) = 4.73560 7.00339 5.97802
#
# Compressibility (1/GPa) = 0.04556997
#
# Stress axis : x y z
#
# Youngs Moduli (GPa) = 12.72374 52.28226 77.19156
#
# Poissons Ratio (x) = 1.18471 0.40257
# Poissons Ratio (y) = 0.28832 0.36106
# Poissons Ratio (z) = 0.06636 0.24455
#
# Static dielectric constant tensor:
#      x y z
#    x 1.499750 0.000000 0.000000 
#    y 0.000000 1.499750 0.000000 
#    z 0.000000 0.000000 1.490660 
# 
# From -- ./inp_files/34385.got.cif
#   From: 2010.05.17/outbox.cif.g08.bks.cpg/sg53_18_cif.got.tgz:34385.got - 2010.06.03 12:45:16.
