data_PCOD9419285
_publ_section_title
;
Structure prediction by ZEFSAII (Michael W. Deem and Ramdas Pophale) SiO2 
 PCOD9419285
Probable space group: P M N A
;
_chemical_formula_sum "Si O2"
_cell_formula_units_Z 40
_cell_length_a 16.191153
_cell_length_b 12.414269
_cell_length_c 8.535562
_cell_angle_alpha 90.000000
_cell_angle_beta 90.000000
_cell_angle_gamma 90.000000
_cell_volume 1715.659304
_symmetry_space_group_name_H-M "P M N A"
_symmetry_group_IT_number 53
_symmetry_cell_setting 'orthorhombic'
loop_
_space_group_symop_operation_xyz
x,y,z
1/2-x,-y,1/2+z
x,-y,-z
1/2-x,y,1/2-z
-x,-y,-z
1/2+x,y,1/2-z
-x,y,z
1/2+x,-y,1/2+z
loop_
_atom_site_type_symbol
_atom_site_label
_atom_site_fract_x
_atom_site_fract_y
_atom_site_fract_z
Si Si1 0.405934 0.844147 0.086338
Si Si2 0.900547 0.258674 0.119339
Si Si3 0.596073 0.443259 0.154984
Si Si4 0.155427 0.050862 0.276056
Si Si5 0.844838 0.648898 0.206623
O O1 0.500000 0.836867 0.030111
O O2 0.380015 0.733728 0.166588
O O3 0.396951 0.942076 0.209201
O O4 0.352398 0.884567 0.940424
O O5 0.872338 0.333727 0.266487
O O6 0.877091 0.135552 0.150304
O O7 0.000000 0.269726 0.104344
O O8 0.857232 0.300822 0.963461
O O9 0.500000 0.422638 0.118583
O O10 0.606090 0.537239 0.282339
O O11 0.634103 0.500000 0.000000
O O12 0.250000 0.020976 0.250000
O O13 0.750000 0.629469 0.250000
#
# Coordination Sequence:
#
# PCOD9419285 Si02
#       5
#     8   8   8   8   8
#     4  11  23  43  66  89 124 170 213 251 309 382
#     4  11  23  41  65  93 126 166 213 259 308 371
#     4  10  22  41  65  91 123 166 213 258 310 378
#     4  11  23  40  64  94 127 161 206 260 313 368
#     4  12  25  40  61  92 128 164 208 266 323 369
#
# _framework density 23.314654000000001
#
# number of rings (size 3 to 8) (size 9 to 14) (size 15 to 20)
#    0.000    1.000    0.000    7.800    0.000    8.000 
#    0.000    2.000    0.000    0.000    0.000    0.000 
#    0.000    0.000    0.000    0.000    0.000    0.000 
#
# Total GULP energy -223942.289581 kJ/mol
# GULP energy per Si atom -5598.557240 kJ/mol
# Density = 2.326159 g / cm^3
# Si number density = 23.314654 Si / 1000 Ang^3
#
#
#
# Elastic Constant Matrix: (Units=GPa)
#
#
# Indices 1 2 3 4 5 6 
#
# 1 67.9320 -5.6916 12.8332 0.0000 0.0000 0.0000
# 2 -5.6916 90.8024 -24.0593 0.0000 0.0000 0.0000
# 3 12.8332 -24.0593 44.5332 0.0000 0.0000 0.0000
# 4 0.0000 0.0000 0.0000 40.2759 0.0000 0.0000
# 5 0.0000 0.0000 0.0000 0.0000 8.9994 0.0000
# 6 0.0000 0.0000 0.0000 0.0000 0.0000 11.0457
#
#
#
# Elastic Compliance Matrix: (Units=1/GPa)
#
#
# Indices 1 2 3 4 5 6 
#
# 1 0.015573 -0.000249 -0.004622 0.000000 0.000000 0.000000
# 2 -0.000249 0.012857 0.007018 0.000000 0.000000 0.000000
# 3 -0.004622 0.007018 0.027578 0.000000 0.000000 0.000000
# 4 0.000000 0.000000 0.000000 0.024829 0.000000 0.000000
# 5 0.000000 0.000000 0.000000 0.000000 0.111119 0.000000
# 6 0.000000 0.000000 0.000000 0.000000 0.000000 0.090533
#
#
# Mechanical properties :
#
#
# Convention : Reuss Voigt Hill
#
# Bulk Modulus (GPa) = 16.58313 18.82578 17.70446
# Shear Modulus (GPa) = 16.76193 26.74322 21.75258
#
# Velocity S-wave (km/s) = 2.68422 3.39050 3.05782
# Velocity P-wave (km/s) = 4.09083 4.83937 4.48076
#
# Compressibility (1/GPa) = 0.06030225
#
# Stress axis : x y z
#
# Youngs Moduli (GPa) = 64.21403 77.78018 36.26033
#
# Poissons Ratio (x) = 0.01933 0.16759
# Poissons Ratio (y) = 0.01596 -0.25446
# Poissons Ratio (z) = 0.29679 -0.54583
#
# Static dielectric constant tensor:
#      x y z
#    x 1.826300 0.000000 0.000000 
#    y 0.000000 1.856560 0.000000 
#    z 0.000000 0.000000 1.946920 
# 
# From -- ./inp_files/8394.got.cif
#   From: 2010.05.17/outbox.cif.g08.bks.cpg/sg53_5_cif.got.tgz:8394.got - 2010.06.03 12:45:16.
