data_PCOD9419532
_publ_section_title
;
Structure prediction by ZEFSAII (Michael W. Deem and Ramdas Pophale) SiO2 
 PCOD9419532
Probable space group: P M N A
;
_chemical_formula_sum "Si O2"
_cell_formula_units_Z 34
_cell_length_a 7.753026
_cell_length_b 21.389946
_cell_length_c 9.439029
_cell_angle_alpha 90.000000
_cell_angle_beta 90.000000
_cell_angle_gamma 90.000000
_cell_volume 1565.338435
_symmetry_space_group_name_H-M "P M N A"
_symmetry_group_IT_number 53
_symmetry_cell_setting 'orthorhombic'
loop_
_space_group_symop_operation_xyz
x,y,z
1/2-x,-y,1/2+z
x,-y,-z
1/2-x,y,1/2-z
-x,-y,-z
1/2+x,y,1/2-z
-x,y,z
1/2+x,-y,1/2+z
loop_
_atom_site_type_symbol
_atom_site_label
_atom_site_fract_x
_atom_site_fract_y
_atom_site_fract_z
Si Si1 0.000000 0.000000 0.500000
Si Si2 0.206983 0.196315 0.086221
Si Si3 0.203967 0.314893 0.914628
Si Si4 0.795326 0.559957 0.584253
Si Si5 0.206135 0.916088 0.103360
O O1 0.156029 0.972002 0.397722
O O2 0.250000 0.204597 0.250000
O O3 0.000000 0.195856 0.073177
O O4 0.278112 0.253355 0.992057
O O5 0.262504 0.129292 0.025148
O O6 0.250000 0.320541 0.750000
O O7 0.000000 0.308323 0.919869
O O8 0.247720 0.376566 0.003707
O O9 0.721085 0.500000 0.500000
O O10 0.750000 0.560630 0.750000
O O11 0.000000 0.555368 0.578121
O O12 0.250000 0.880729 0.250000
O O13 0.000000 0.929637 0.092091
#
# Coordination Sequence:
#
# PCOD9419532 Si02
#       5
#     2   8   8   8   8
#     4  12  26  44  72 104 132 180 220 278 328 406
#     4  10  24  42  65  97 131 168 215 271 328 386
#     4  11  23  41  65  96 128 171 219 268 327 389
#     4  11  24  41  62  92 130 172 217 270 325 386
#     4  11  24  47  70 100 135 177 224 275 332 399
#
# _framework density 21.720544
#
# number of rings (size 3 to 8) (size 9 to 14) (size 15 to 20)
#    0.000    1.176    1.176    3.882    1.647    8.471 
#    4.235    0.000    0.000    0.000    0.000    0.000 
#    0.000    0.000    0.000    0.000    0.000    0.000 
#
# Total GULP energy -189367.010403 kJ/mol
# GULP energy per Si atom -5569.617953 kJ/mol
# Density = 2.167111 g / cm^3
# Si number density = 21.720544 Si / 1000 Ang^3
#
#
#
# Elastic Constant Matrix: (Units=GPa)
#
#
# Indices 1 2 3 4 5 6 
#
# 1 111.9045 18.4333 14.3208 0.0000 0.0000 0.0000
# 2 18.4333 29.4389 32.1218 0.0000 0.0000 0.0000
# 3 14.3208 32.1218 162.1599 0.0000 0.0000 0.0000
# 4 0.0000 0.0000 0.0000 42.6193 0.0000 0.0000
# 5 0.0000 0.0000 0.0000 0.0000 41.5449 0.0000
# 6 0.0000 0.0000 0.0000 0.0000 0.0000 -340.5849
#
#
#
# Elastic Compliance Matrix: (Units=1/GPa)
#
#
# Indices 1 2 3 4 5 6 
#
# 1 0.009990 -0.006752 0.000455 0.000000 0.000000 0.000000
# 2 -0.006752 0.047899 -0.008892 0.000000 0.000000 0.000000
# 3 0.000455 -0.008892 0.007888 0.000000 0.000000 0.000000
# 4 0.000000 0.000000 0.000000 0.023464 0.000000 0.000000
# 5 0.000000 0.000000 0.000000 0.000000 0.024070 0.000000
# 6 0.000000 0.000000 0.000000 0.000000 0.000000 -0.002936
#
#
# Mechanical properties :
#
#
# Convention : Reuss Voigt Hill
#
# Bulk Modulus (GPa) = 28.24906 48.13946 38.19426
# Shear Modulus (GPa) = 32.77572 -35.37566 -1.29997
#
# Velocity S-wave (km/s) = 3.88876 -4.04006 -0.77447
# Velocity P-wave (km/s) = 5.76170 0.66965 4.10157
#
# Compressibility (1/GPa) = 0.03539941
#
# Stress axis : x y z
#
# Youngs Moduli (GPa) = 100.09844 20.87735 126.77626
#
# Poissons Ratio (x) = 0.14097 -0.05772
# Poissons Ratio (y) = 0.67588 1.12728
# Poissons Ratio (z) = -0.04557 0.18564
#
# Static dielectric constant tensor:
#      x y z
#    x 1.777450 0.000000 0.000000 
#    y 0.000000 1.904380 0.000000 
#    z 0.000000 0.000000 1.859160 
# 
# From -- ./inp_files/6104.got.cif
#   From: 2010.05.17/outbox.cif.g08.bks.cpg/sg53_4_cif.got.tgz:6104.got - 2010.06.03 12:45:16.
