data_PCOD9419561
_publ_section_title
;
Structure prediction by ZEFSAII (Michael W. Deem and Ramdas Pophale) SiO2 
 PCOD9419561
Probable space group: P M N A
;
_chemical_formula_sum "Si O2"
_cell_formula_units_Z 48
_cell_length_a 21.042555
_cell_length_b 12.040265
_cell_length_c 9.350631
_cell_angle_alpha 90.000000
_cell_angle_beta 90.000000
_cell_angle_gamma 90.000000
_cell_volume 2369.056594
_symmetry_space_group_name_H-M "P M N A"
_symmetry_group_IT_number 53
_symmetry_cell_setting 'orthorhombic'
loop_
_space_group_symop_operation_xyz
x,y,z
1/2-x,-y,1/2+z
x,-y,-z
1/2-x,y,1/2-z
-x,-y,-z
1/2+x,y,1/2-z
-x,y,z
1/2+x,-y,1/2+z
loop_
_atom_site_type_symbol
_atom_site_label
_atom_site_fract_x
_atom_site_fract_y
_atom_site_fract_z
Si Si1 0.574717 0.682608 0.093296
Si Si2 0.656257 0.901234 0.116316
Si Si3 0.726424 0.245778 0.509934
Si Si4 0.311165 0.942569 0.648949
Si Si5 0.320486 0.590837 0.888930
Si Si6 0.641119 0.436741 0.643711
O O1 0.500000 0.681124 0.071504
O O2 0.603125 0.807012 0.101677
O O3 0.593056 0.618536 0.240904
O O4 0.612501 0.625642 0.961469
O O5 0.723331 0.832539 0.099167
O O6 0.647346 0.970048 0.263099
O O7 0.653369 0.000000 0.000000
O O8 0.675333 0.180014 0.411346
O O9 0.775216 0.305288 0.403700
O O10 0.689331 0.336698 0.602976
O O11 0.250000 0.931096 0.750000
O O12 0.296964 0.000000 0.500000
O O13 0.326214 0.533395 0.737323
O O14 0.293618 0.500000 0.000000
O O15 0.617822 0.500000 0.500000
#
# Coordination Sequence:
#
# PCOD9419561 Si02
#       6
#     8   8   8   8   8   8
#     4  10  24  45  66  85 112 158 214 267 311 354
#     4  11  23  39  62  92 123 158 202 248 304 367
#     4  11  22  35  60  89 133 156 194 231 303 369
#     4  12  21  34  56  88 126 169 188 231 288 362
#     4   9  22  39  59  87 121 160 202 252 299 359
#     4  11  25  38  60  93 127 164 199 250 303 364
#
# _framework density 20.261229
#
# number of rings (size 3 to 8) (size 9 to 14) (size 15 to 20)
#    0.000    1.333    3.333    1.500    2.333   14.333 
#    0.000    0.000    0.000    4.500    0.000    0.000 
#    0.000    0.000    0.000    0.000    0.000    0.000 
#
# Total GULP energy -267575.421319 kJ/mol
# GULP energy per Si atom -5574.487944 kJ/mol
# Density = 2.021511 g / cm^3
# Si number density = 20.261229 Si / 1000 Ang^3
#
#
#
# Elastic Constant Matrix: (Units=GPa)
#
#
# Indices 1 2 3 4 5 6 
#
# 1 75.9380 42.9736 20.2943 0.0000 0.0000 0.0000
# 2 42.9736 132.3715 51.1537 0.0000 0.0000 0.0000
# 3 20.2943 51.1537 136.7172 0.0000 0.0000 0.0000
# 4 0.0000 0.0000 0.0000 51.8686 0.0000 0.0000
# 5 0.0000 0.0000 0.0000 0.0000 13.7690 0.0000
# 6 0.0000 0.0000 0.0000 0.0000 0.0000 17.8829
#
#
#
# Elastic Compliance Matrix: (Units=1/GPa)
#
#
# Indices 1 2 3 4 5 6 
#
# 1 0.016163 -0.005050 -0.000510 0.000000 0.000000 0.000000
# 2 -0.005050 0.010409 -0.003145 0.000000 0.000000 0.000000
# 3 -0.000510 -0.003145 0.008567 0.000000 0.000000 0.000000
# 4 0.000000 0.000000 0.000000 0.019279 0.000000 0.000000
# 5 0.000000 0.000000 0.000000 0.000000 0.072627 0.000000
# 6 0.000000 0.000000 0.000000 0.000000 0.000000 0.055919
#
#
# Mechanical properties :
#
#
# Convention : Reuss Voigt Hill
#
# Bulk Modulus (GPa) = 56.40449 63.76333 60.08391
# Shear Modulus (GPa) = 24.23841 32.07777 28.15809
#
# Velocity S-wave (km/s) = 3.46250 3.98327 3.73198
# Velocity P-wave (km/s) = 6.62452 7.25908 6.94905
#
# Compressibility (1/GPa) = 0.01772909
#
# Stress axis : x y z
#
# Youngs Moduli (GPa) = 61.87054 96.06686 116.72996
#
# Poissons Ratio (x) = 0.48516 0.05949
# Poissons Ratio (y) = 0.31246 0.36713
# Poissons Ratio (z) = 0.03153 0.30214
#
# Static dielectric constant tensor:
#      x y z
#    x 1.709460 0.000000 0.000000 
#    y 0.000000 1.839230 0.000000 
#    z 0.000000 0.000000 1.791120 
# 
# From -- ./inp_files/11785.got.cif
#   From: 2010.05.17/outbox.cif.g08.bks.cpg/sg53_6_cif.got.tgz:11785.got - 2010.06.03 12:45:16.
