data_PCOD9419596
_publ_section_title
;
Structure prediction by ZEFSAII (Michael W. Deem and Ramdas Pophale) SiO2 
 PCOD9419596
Probable space group: P M N A
;
_chemical_formula_sum "Si O2"
_cell_formula_units_Z 20
_cell_length_a 30.604333
_cell_length_b 5.114752
_cell_length_c 5.150755
_cell_angle_alpha 90.000000
_cell_angle_beta 90.000000
_cell_angle_gamma 90.000000
_cell_volume 806.266086
_symmetry_space_group_name_H-M "P M N A"
_symmetry_group_IT_number 53
_symmetry_cell_setting 'orthorhombic'
loop_
_space_group_symop_operation_xyz
x,y,z
1/2-x,-y,1/2+z
x,-y,-z
1/2-x,y,1/2-z
-x,-y,-z
1/2+x,y,1/2-z
-x,y,z
1/2+x,-y,1/2+z
loop_
_atom_site_type_symbol
_atom_site_label
_atom_site_fract_x
_atom_site_fract_y
_atom_site_fract_z
Si Si1 0.925843 0.500000 0.000000
Si Si2 0.000000 0.750053 0.317899
Si Si3 0.779021 0.500000 0.000000
Si Si4 0.151004 0.253159 0.319214
O O1 0.957137 0.294399 0.855078
O O2 0.894667 0.670968 0.815161
O O3 0.000000 0.500000 0.500000
O O4 0.000000 0.000000 0.500000
O O5 0.750000 0.576000 0.250000
O O6 0.811275 0.271751 0.102185
O O7 0.160858 0.500000 0.500000
O O8 0.149479 0.000000 0.500000
#
# Coordination Sequence:
#
# PCOD9419596 Si02
#       4
#     4   4   4   8
#     4  10  26  47  80 116 158 210 270 333 402 482
#     4  11  26  47  75 114 157 209 266 334 402 474
#     4  11  24  53  82 123 162 215 268 337 404 489
#     4  11  26  50  79 117 159 212 267 331 403 482
#
# _framework density 24.805707000000002
#
# number of rings (size 3 to 8) (size 9 to 14) (size 15 to 20)
#    0.000    1.200    2.000    1.200    0.000   19.200 
#    7.200    3.000    0.000    0.000    0.000    0.000 
#    0.000    0.000    0.000    0.000    0.000    0.000 
#
# Total GULP energy -112121.755112 kJ/mol
# GULP energy per Si atom -5606.087756 kJ/mol
# Density = 2.474925 g / cm^3
# Si number density = 24.805707 Si / 1000 Ang^3
#
#
#
# Elastic Constant Matrix: (Units=GPa)
#
#
# Indices 1 2 3 4 5 6 
#
# 1 219.2521 84.4558 125.0142 0.0000 0.0000 0.0000
# 2 84.4558 233.8852 112.7001 0.0000 0.0000 0.0000
# 3 125.0142 112.7001 193.0719 0.0000 0.0000 0.0000
# 4 0.0000 0.0000 0.0000 69.9438 0.0000 0.0000
# 5 0.0000 0.0000 0.0000 0.0000 160.9707 0.0000
# 6 0.0000 0.0000 0.0000 0.0000 0.0000 -7.4270
#
#
#
# Elastic Compliance Matrix: (Units=1/GPa)
#
#
# Indices 1 2 3 4 5 6 
#
# 1 0.007272 -0.000497 -0.004418 0.000000 0.000000 0.000000
# 2 -0.000497 0.005983 -0.003171 0.000000 0.000000 0.000000
# 3 -0.004418 -0.003171 0.009891 0.000000 0.000000 0.000000
# 4 0.000000 0.000000 0.000000 0.014297 0.000000 0.000000
# 5 0.000000 0.000000 0.000000 0.000000 0.006212 0.000000
# 6 0.000000 0.000000 0.000000 0.000000 0.000000 -0.134645
#
#
# Mechanical properties :
#
#
# Convention : Reuss Voigt Hill
#
# Bulk Modulus (GPa) = 143.39113 143.39438 143.39275
# Shear Modulus (GPa) = -68.97183 66.30011 -1.33586
#
# Velocity S-wave (km/s) = -5.27875 5.17550 -0.73464
# Velocity P-wave (km/s) = 4.55825 9.67713 7.56388
#
# Compressibility (1/GPa) = 0.00697393
#
# Stress axis : x y z
#
# Youngs Moduli (GPa) = 137.52105 167.14641 101.10058
#
# Poissons Ratio (x) = 0.08302 0.44671
# Poissons Ratio (y) = 0.06831 0.32056
# Poissons Ratio (z) = 0.60763 0.52996
#
# Static dielectric constant tensor:
#      x y z
#    x 2.064400 0.000000 0.000000 
#    y 0.000000 1.901280 0.000000 
#    z 0.000000 0.000000 2.140900 
# 
# From -- ./inp_files/4745.got.cif
#   From: 2010.05.17/outbox.cif.g08.bks.cpg/sg53_3_cif.got.tgz:4745.got - 2010.06.03 12:45:16.
