data_PCOD9419398
_publ_section_title
;
Structure prediction by ZEFSAII (Michael W. Deem and Ramdas Pophale) SiO2 
 PCOD9419398
Probable space group: P M N A
;
_chemical_formula_sum "Si O2"
_cell_formula_units_Z 20
_cell_length_a 28.369320
_cell_length_b 5.167137
_cell_length_c 5.303573
_cell_angle_alpha 90.000000
_cell_angle_beta 90.000000
_cell_angle_gamma 90.000000
_cell_volume 777.441024
_symmetry_space_group_name_H-M "P M N A"
_symmetry_group_IT_number 53
_symmetry_cell_setting 'orthorhombic'
loop_
_space_group_symop_operation_xyz
x,y,z
1/2-x,-y,1/2+z
x,-y,-z
1/2-x,y,1/2-z
-x,-y,-z
1/2+x,y,1/2-z
-x,y,z
1/2+x,-y,1/2+z
loop_
_atom_site_type_symbol
_atom_site_label
_atom_site_fract_x
_atom_site_fract_y
_atom_site_fract_z
Si Si1 0.422736 0.000000 0.000000
Si Si2 0.000000 0.320847 0.751401
Si Si3 0.750000 0.824781 0.750000
Si Si4 0.852973 0.734594 0.838737
O O1 0.387896 0.787948 0.887678
O O2 0.455504 0.129978 0.787527
O O3 0.000000 0.500000 0.500000
O O4 0.000000 0.500000 0.000000
O O5 0.799138 0.672891 0.761236
O O6 0.753227 0.000000 0.500000
O O7 0.871665 0.500000 0.000000
O O8 0.851007 0.000000 0.000000
#
# Coordination Sequence:
#
# PCOD9419398 Si02
#       4
#     4   4   4   8
#     4  11  28  52  82 122 164 212 286 347 422 504
#     4  11  30  53  87 116 164 214 280 354 434 500
#     4  10  22  50  76 120 170 220 272 340 404 492
#     4  11  27  47  82 118 169 220 278 336 415 495
#
# _framework density 25.725425999999999
#
# number of rings (size 3 to 8) (size 9 to 14) (size 15 to 20)
#    0.000    1.200    2.000    0.000   11.200    8.000 
#    0.000    3.000    0.000    0.000    0.000    0.000 
#    0.000    0.000    0.000    0.000    0.000    0.000 
#
# Total GULP energy -112269.643955 kJ/mol
# GULP energy per Si atom -5613.482198 kJ/mol
# Density = 2.566687 g / cm^3
# Si number density = 25.725426 Si / 1000 Ang^3
#
#
#
# Elastic Constant Matrix: (Units=GPa)
#
#
# Indices 1 2 3 4 5 6 
#
# 1 197.9528 40.9947 55.5127 0.0000 0.0000 0.0000
# 2 40.9947 125.9376 61.6339 0.0000 0.0000 0.0000
# 3 55.5127 61.6339 168.9821 0.0000 0.0000 0.0000
# 4 0.0000 0.0000 0.0000 76.1443 0.0000 0.0000
# 5 0.0000 0.0000 0.0000 0.0000 20.8758 0.0000
# 6 0.0000 0.0000 0.0000 0.0000 0.0000 665.6121
#
#
#
# Elastic Compliance Matrix: (Units=1/GPa)
#
#
# Indices 1 2 3 4 5 6 
#
# 1 0.005696 -0.001142 -0.001455 0.000000 0.000000 0.000000
# 2 -0.001142 0.009895 -0.003234 0.000000 0.000000 0.000000
# 3 -0.001455 -0.003234 0.007575 0.000000 0.000000 0.000000
# 4 0.000000 0.000000 0.000000 0.013133 0.000000 0.000000
# 5 0.000000 0.000000 0.000000 0.000000 0.047902 0.000000
# 6 0.000000 0.000000 0.000000 0.000000 0.000000 0.001502
#
#
# Mechanical properties :
#
#
# Convention : Reuss Voigt Hill
#
# Bulk Modulus (GPa) = 86.92018 89.90612 88.41315
# Shear Modulus (GPa) = 49.40697 174.84185 112.12441
#
# Velocity S-wave (km/s) = 4.38716 8.25301 6.60906
# Velocity P-wave (km/s) = 7.71518 11.21786 9.62716
#
# Compressibility (1/GPa) = 0.01150481
#
# Stress axis : x y z
#
# Youngs Moduli (GPa) = 175.55562 101.06230 132.01114
#
# Poissons Ratio (x) = 0.11544 0.19203
# Poissons Ratio (y) = 0.20054 0.42689
# Poissons Ratio (z) = 0.25537 0.32681
#
# Static dielectric constant tensor:
#      x y z
#    x 2.015630 0.000000 0.000000 
#    y 0.000000 2.103660 0.000000 
#    z 0.000000 0.000000 2.026820 
# 
# From -- ./inp_files/3992.got.cif
#   From: 2010.05.17/outbox.cif.g08.bks.cpg/sg53_2_cif.got.tgz:3992.got - 2010.06.03 12:45:16.
