data_PCOD9419627
_publ_section_title
;
Structure prediction by ZEFSAII (Michael W. Deem and Ramdas Pophale) SiO2 
 PCOD9419627
Probable space group: P M N A
;
_chemical_formula_sum "Si O2"
_cell_formula_units_Z 40
_cell_length_a 17.711158
_cell_length_b 9.076021
_cell_length_c 12.153879
_cell_angle_alpha 90.000000
_cell_angle_beta 90.000000
_cell_angle_gamma 90.000000
_cell_volume 1953.697667
_symmetry_space_group_name_H-M "P M N A"
_symmetry_group_IT_number 53
_symmetry_cell_setting 'orthorhombic'
loop_
_space_group_symop_operation_xyz
x,y,z
1/2-x,-y,1/2+z
x,-y,-z
1/2-x,y,1/2-z
-x,-y,-z
1/2+x,y,1/2-z
-x,y,z
1/2+x,-y,1/2+z
loop_
_atom_site_type_symbol
_atom_site_label
_atom_site_fract_x
_atom_site_fract_y
_atom_site_fract_z
Si Si1 0.305562 0.324671 0.529573
Si Si2 0.335903 0.263370 0.289376
Si Si3 0.085292 0.096129 0.396919
Si Si4 0.913263 0.584906 0.216196
Si Si5 0.633731 0.337813 0.952531
O O1 0.304050 0.500000 0.500000
O O2 0.332767 0.239819 0.420589
O O3 0.362352 0.323019 0.631210
O O4 0.219893 0.280087 0.557086
O O5 0.250000 0.290629 0.250000
O O6 0.369413 0.131346 0.214789
O O7 0.381126 0.417425 0.274177
O O8 0.086103 0.252674 0.457314
O O9 0.000000 0.045101 0.373104
O O10 0.116563 0.000000 0.500000
O O11 0.904925 0.658699 0.334939
O O12 0.000000 0.578612 0.180536
O O13 0.641092 0.500000 0.000000
#
# Coordination Sequence:
#
# PCOD9419627 Si02
#       5
#     8   8   8   8   8
#     4   9  19  33  56  86 121 157 200 254 303 357
#     4  11  19  37  60  82 120 162 205 249 304 371
#     4  11  24  39  59  89 121 154 198 256 310 359
#     4  11  21  31  54  94 129 158 199 253 314 369
#     4  11  19  36  62  85 118 160 205 254 304 362
#
# _framework density 20.473994999999999
#
# number of rings (size 3 to 8) (size 9 to 14) (size 15 to 20)
#    0.000    1.400    4.000    4.200    0.000    5.200 
#    0.000    2.000    0.000    0.000    0.000    4.200 
#    0.000    0.000    0.000    0.000    0.000    0.000 
#
# Total GULP energy -223087.132760 kJ/mol
# GULP energy per Si atom -5577.178319 kJ/mol
# Density = 2.042740 g / cm^3
# Si number density = 20.473995 Si / 1000 Ang^3
#
#
#
# Elastic Constant Matrix: (Units=GPa)
#
#
# Indices 1 2 3 4 5 6 
#
# 1 109.2457 11.9347 29.2978 0.0000 0.0000 0.0000
# 2 11.9347 24.0059 18.3386 0.0000 0.0000 0.0000
# 3 29.2978 18.3386 101.7956 0.0000 0.0000 0.0000
# 4 0.0000 0.0000 0.0000 36.9297 0.0000 0.0000
# 5 0.0000 0.0000 0.0000 0.0000 1.8134 0.0000
# 6 0.0000 0.0000 0.0000 0.0000 0.0000 7.1408
#
#
#
# Elastic Compliance Matrix: (Units=1/GPa)
#
#
# Indices 1 2 3 4 5 6 
#
# 1 0.010134 -0.003259 -0.002330 0.000000 0.000000 0.000000
# 2 -0.003259 0.049352 -0.007953 0.000000 0.000000 0.000000
# 3 -0.002330 -0.007953 0.011927 0.000000 0.000000 0.000000
# 4 0.000000 0.000000 0.000000 0.027078 0.000000 0.000000
# 5 0.000000 0.000000 0.000000 0.000000 0.551436 0.000000
# 6 0.000000 0.000000 0.000000 0.000000 0.000000 0.140041
#
#
# Mechanical properties :
#
#
# Convention : Reuss Voigt Hill
#
# Bulk Modulus (GPa) = 22.55780 39.35437 30.95609
# Shear Modulus (GPa) = 6.01086 20.87519 13.44303
#
# Velocity S-wave (km/s) = 1.71529 3.19657 2.56518
# Velocity P-wave (km/s) = 3.86842 5.73476 4.89143
#
# Compressibility (1/GPa) = 0.04433057
#
# Stress axis : x y z
#
# Youngs Moduli (GPa) = 98.67308 20.26261 83.84427
#
# Poissons Ratio (x) = 0.06603 0.19534
# Poissons Ratio (y) = 0.32154 0.66681
# Poissons Ratio (z) = 0.22988 0.16115
#
# Static dielectric constant tensor:
#      x y z
#    x 1.755400 0.000000 0.000000 
#    y 0.000000 1.946130 0.000000 
#    z 0.000000 0.000000 1.941380 
# 
# From -- ./inp_files/16686.got.cif
#   From: 2010.05.17/outbox.cif.g08.bks.cpg/sg53_9_cif.got.tgz:16686.got - 2010.06.03 12:45:16.
