data_PCOD9419853
_publ_section_title
;
Structure prediction by ZEFSAII (Michael W. Deem and Ramdas Pophale) SiO2 
 PCOD9419853
Probable space group: P M N A
;
_chemical_formula_sum "Si O2"
_cell_formula_units_Z 32
_cell_length_a 14.584293
_cell_length_b 10.545157
_cell_length_c 9.622031
_cell_angle_alpha 90.000000
_cell_angle_beta 90.000000
_cell_angle_gamma 90.000000
_cell_volume 1479.807359
_symmetry_space_group_name_H-M "P M N A"
_symmetry_group_IT_number 53
_symmetry_cell_setting 'orthorhombic'
loop_
_space_group_symop_operation_xyz
x,y,z
1/2-x,-y,1/2+z
x,-y,-z
1/2-x,y,1/2-z
-x,-y,-z
1/2+x,y,1/2-z
-x,y,z
1/2+x,-y,1/2+z
loop_
_atom_site_type_symbol
_atom_site_label
_atom_site_fract_x
_atom_site_fract_y
_atom_site_fract_z
Si Si1 0.158499 0.527152 0.160849
Si Si2 0.602914 0.194695 0.669067
Si Si3 0.793654 0.143455 0.542354
Si Si4 0.896372 0.371343 0.407791
O O1 0.250000 0.555904 0.250000
O O2 0.098979 0.653117 0.166290
O O3 0.113895 0.413552 0.247884
O O4 0.176866 0.500000 0.000000
O O5 0.500000 0.143520 0.649217
O O6 0.684135 0.156620 0.563914
O O7 0.647863 0.161789 0.817107
O O8 0.827608 0.258365 0.444894
O O9 0.812692 0.000000 0.500000
O O10 0.882650 0.500000 0.500000
O O11 0.000000 0.328324 0.437055
#
# Coordination Sequence:
#
# PCOD9419853 Si02
#       4
#     8   8   8   8
#     4  12  23  42  71 106 147 187 234 298 361 419
#     4  11  23  44  72 100 138 186 238 297 356 419
#     4  11  24  46  71 100 144 190 233 293 358 429
#     4  11  22  42  74 107 141 187 240 292 353 423
#
# _framework density 21.624435999999999
#
# number of rings (size 3 to 8) (size 9 to 14) (size 15 to 20)
#    0.000    0.750    5.000    3.750    0.000    4.500 
#   13.500    0.000    0.000    0.000    0.000    0.000 
#    0.000    0.000    0.000    0.000    0.000    0.000 
#
# Total GULP energy -178837.441150 kJ/mol
# GULP energy per Si atom -5588.670036 kJ/mol
# Density = 2.157522 g / cm^3
# Si number density = 21.624436 Si / 1000 Ang^3
#
#
#
# Elastic Constant Matrix: (Units=GPa)
#
#
# Indices 1 2 3 4 5 6 
#
# 1 167.8923 41.9385 41.9558 0.0000 0.0000 0.0000
# 2 41.9385 131.6538 54.9347 0.0000 0.0000 0.0000
# 3 41.9558 54.9347 127.0383 0.0000 0.0000 0.0000
# 4 0.0000 0.0000 0.0000 14.1198 0.0000 0.0000
# 5 0.0000 0.0000 0.0000 0.0000 -6.9132 0.0000
# 6 0.0000 0.0000 0.0000 0.0000 0.0000 4.0244
#
#
#
# Elastic Compliance Matrix: (Units=1/GPa)
#
#
# Indices 1 2 3 4 5 6 
#
# 1 0.006721 -0.001482 -0.001579 0.000000 0.000000 0.000000
# 2 -0.001482 0.009595 -0.003660 0.000000 0.000000 0.000000
# 3 -0.001579 -0.003660 0.009976 0.000000 0.000000 0.000000
# 4 0.000000 0.000000 0.000000 0.070822 0.000000 0.000000
# 5 0.000000 0.000000 0.000000 0.000000 -0.144651 0.000000
# 6 0.000000 0.000000 0.000000 0.000000 0.000000 0.248484
#
#
# Mechanical properties :
#
#
# Convention : Reuss Voigt Hill
#
# Bulk Modulus (GPa) = 77.81887 78.24914 78.03401
# Shear Modulus (GPa) = 22.86537 21.42990 22.14764
#
# Velocity S-wave (km/s) = 3.25527 3.15144 3.20378
# Velocity P-wave (km/s) = 7.08475 7.03606 7.06045
#
# Compressibility (1/GPa) = 0.01285035
#
# Stress axis : x y z
#
# Youngs Moduli (GPa) = 148.78805 104.22261 100.24546
#
# Poissons Ratio (x) = 0.15448 0.15826
# Poissons Ratio (y) = 0.22054 0.36685
# Poissons Ratio (z) = 0.23489 0.38141
#
# Static dielectric constant tensor:
#      x y z
#    x 1.838840 0.000000 0.000000 
#    y 0.000000 1.859460 0.000000 
#    z 0.000000 0.000000 1.804810 
# 
# From -- ./inp_files/7977.got.cif
#   From: 2010.05.17/outbox.cif.g08.bks.cpg/sg53_4_cif.got.tgz:7977.got - 2010.06.03 12:45:16.
