data_PCOD9419195
_publ_section_title
;
Structure prediction by ZEFSAII (Michael W. Deem and Ramdas Pophale) SiO2 
 PCOD9419195
Probable space group: P M N A
;
_chemical_formula_sum "Si O2"
_cell_formula_units_Z 64
_cell_length_a 8.005755
_cell_length_b 24.685037
_cell_length_c 15.990976
_cell_angle_alpha 90.000000
_cell_angle_beta 90.000000
_cell_angle_gamma 90.000000
_cell_volume 3160.174390
_symmetry_space_group_name_H-M "P M N A"
_symmetry_group_IT_number 53
_symmetry_cell_setting 'orthorhombic'
loop_
_space_group_symop_operation_xyz
x,y,z
1/2-x,-y,1/2+z
x,-y,-z
1/2-x,y,1/2-z
-x,-y,-z
1/2+x,y,1/2-z
-x,y,z
1/2+x,-y,1/2+z
loop_
_atom_site_type_symbol
_atom_site_label
_atom_site_fract_x
_atom_site_fract_y
_atom_site_fract_z
Si Si1 0.796487 0.060118 0.597473
Si Si2 0.300859 0.174923 0.841241
Si Si3 0.201229 0.438878 0.156823
Si Si4 0.799094 0.058617 0.401483
Si Si5 0.302546 0.825859 0.658885
Si Si6 0.798760 0.436997 0.843155
Si Si7 0.299039 0.242858 0.497512
Si Si8 0.205000 0.366716 0.000856
O O1 0.735324 0.113391 0.644762
O O2 0.750611 0.064911 0.499298
O O3 0.000000 0.059885 0.600709
O O4 0.739126 0.000795 0.627585
O O5 0.250000 0.194842 0.750000
O O6 0.500000 0.172822 0.845609
O O7 0.240731 0.212166 0.916797
O O8 0.250000 0.420983 0.250000
O O9 0.261688 0.500934 0.145404
O O10 0.259473 0.399820 0.082877
O O11 0.000000 0.440293 0.152734
O O12 0.741743 0.111059 0.352253
O O13 0.000000 0.057944 0.399259
O O14 0.250000 0.806125 0.750000
O O15 0.500000 0.821710 0.654271
O O16 0.231318 0.791633 0.581124
O O17 0.750000 0.419070 0.750000
O O18 0.000000 0.438401 0.847190
O O19 0.740168 0.398174 0.917339
O O20 0.500000 0.244980 0.490243
O O21 0.238305 0.304638 0.497664
O O22 0.000000 0.366670 0.000647
#
# Coordination Sequence:
#
# PCOD9419195 Si02
#       8
#     8   8   8   8   8   8   8   8
#     4   8  16  31  56  83 108 138 169 211 268 324
#     4  11  22  38  59  82 108 142 179 220 270 323
#     4   9  17  31  53  81 110 140 174 214 261 314
#     4   9  16  33  58  82 108 137 172 214 267 326
#     4  11  23  37  55  79 107 141 181 224 271 323
#     4   9  17  31  53  80 109 140 174 213 261 314
#     4  10  22  40  57  77 106 141 185 232 269 310
#     4   9  18  34  56  77 103 141 181 219 261 312
#
# _framework density 20.252047000000001
#
# number of rings (size 3 to 8) (size 9 to 14) (size 15 to 20)
#    0.000    2.500    1.250    1.875    0.000    3.500 
#    0.000    6.875    0.000    3.000    0.000    0.000 
#    0.000    0.000    0.000    0.000    0.000    0.000 
#
# Total GULP energy -357222.647778 kJ/mol
# GULP energy per Si atom -5581.603872 kJ/mol
# Density = 2.020595 g / cm^3
# Si number density = 20.252047 Si / 1000 Ang^3
#
#
#
# Elastic Constant Matrix: (Units=GPa)
#
#
# Indices 1 2 3 4 5 6 
#
# 1 13.0856 11.6538 5.0503 0.0000 0.0000 0.0000
# 2 11.6538 145.0092 111.4834 0.0000 0.0000 0.0000
# 3 5.0503 111.4834 173.8858 0.0000 0.0000 0.0000
# 4 0.0000 0.0000 0.0000 -12.7413 0.0000 0.0000
# 5 0.0000 0.0000 0.0000 0.0000 23.1629 0.0000
# 6 0.0000 0.0000 0.0000 0.0000 0.0000 12.1372
#
#
#
# Elastic Compliance Matrix: (Units=1/GPa)
#
#
# Indices 1 2 3 4 5 6 
#
# 1 0.083502 -0.009557 0.003702 0.000000 0.000000 0.000000
# 2 -0.009557 0.014693 -0.009143 0.000000 0.000000 0.000000
# 3 0.003702 -0.009143 0.011505 0.000000 0.000000 0.000000
# 4 0.000000 0.000000 0.000000 -0.078485 0.000000 0.000000
# 5 0.000000 0.000000 0.000000 0.000000 0.043172 0.000000
# 6 0.000000 0.000000 0.000000 0.000000 0.000000 0.082391
#
#
# Mechanical properties :
#
#
# Convention : Reuss Voigt Hill
#
# Bulk Modulus (GPa) = 12.54619 65.37284 38.95951
# Shear Modulus (GPa) = 23.43654 18.09798 20.76726
#
# Velocity S-wave (km/s) = 3.40552 2.99262 3.20572
# Velocity P-wave (km/s) = 4.65531 6.65513 5.74293
#
# Compressibility (1/GPa) = 0.07970549
#
# Stress axis : x y z
#
# Youngs Moduli (GPa) = 11.97570 68.05988 86.91932
#
# Poissons Ratio (x) = 0.65044 -0.32177
# Poissons Ratio (y) = 0.11445 0.79466
# Poissons Ratio (z) = -0.04433 0.62224
#
# Static dielectric constant tensor:
#      x y z
#    x 1.727420 0.000000 0.000000 
#    y 0.000000 1.720300 0.000000 
#    z 0.000000 0.000000 1.756750 
# 
# From -- ./inp_files/20894.got.cif
#   From: 2010.05.17/outbox.cif.g08.bks.cpg/sg53_11_cif.got.tgz:20894.got - 2010.06.03 12:45:16.
