data_PCOD9419971
_publ_section_title
;
Structure prediction by ZEFSAII (Michael W. Deem and Ramdas Pophale) SiO2 
 PCOD9419971
Probable space group: P M N A
;
_chemical_formula_sum "Si O2"
_cell_formula_units_Z 24
_cell_length_a 21.799745
_cell_length_b 5.041795
_cell_length_c 8.898381
_cell_angle_alpha 90.000000
_cell_angle_beta 90.000000
_cell_angle_gamma 90.000000
_cell_volume 978.019680
_symmetry_space_group_name_H-M "P M N A"
_symmetry_group_IT_number 53
_symmetry_cell_setting 'orthorhombic'
loop_
_space_group_symop_operation_xyz
x,y,z
1/2-x,-y,1/2+z
x,-y,-z
1/2-x,y,1/2-z
-x,-y,-z
1/2+x,y,1/2-z
-x,y,z
1/2+x,-y,1/2+z
loop_
_atom_site_type_symbol
_atom_site_label
_atom_site_fract_x
_atom_site_fract_y
_atom_site_fract_z
Si Si1 0.627866 0.245494 0.395841
Si Si2 0.306862 0.577474 0.171618
Si Si3 0.934001 0.895558 0.330165
O O1 0.613031 0.500000 0.500000
O O2 0.680953 0.329427 0.281209
O O3 0.646064 0.000000 0.500000
O O4 0.574192 0.131803 0.289808
O O5 0.250000 0.723808 0.250000
O O6 0.372375 0.723892 0.179015
O O7 0.294462 0.500000 0.000000
O O8 0.000000 0.760587 0.302782
O O9 0.934661 0.000000 0.500000
#
# Coordination Sequence:
#
# PCOD9419971 Si02
#       3
#     8   8   8
#     4  12  26  50  78 122 161 206 264 334 404 473
#     4  12  27  51  82 121 160 217 271 337 400 487
#     4  11  26  51  84 120 163 215 274 335 404 485
#
# _framework density 24.539383999999998
#
# number of rings (size 3 to 8) (size 9 to 14) (size 15 to 20)
#    0.000    0.333    6.667    1.000    0.000    4.667 
#    6.000    0.000    0.000    0.000    0.000    0.000 
#    0.000    0.000    0.000    0.000    0.000    0.000 
#
# Total GULP energy -134274.377072 kJ/mol
# GULP energy per Si atom -5594.765711 kJ/mol
# Density = 2.448353 g / cm^3
# Si number density = 24.539384 Si / 1000 Ang^3
#
#
#
# Elastic Constant Matrix: (Units=GPa)
#
#
# Indices 1 2 3 4 5 6 
#
# 1 222.2699 55.5356 71.7245 0.0000 0.0000 0.0000
# 2 55.5356 122.0494 73.5167 0.0000 0.0000 0.0000
# 3 71.7245 73.5167 223.2910 0.0000 0.0000 0.0000
# 4 0.0000 0.0000 0.0000 28.2121 0.0000 0.0000
# 5 0.0000 0.0000 0.0000 0.0000 -72.6411 0.0000
# 6 0.0000 0.0000 0.0000 0.0000 0.0000 34.6808
#
#
#
# Elastic Compliance Matrix: (Units=1/GPa)
#
#
# Indices 1 2 3 4 5 6 
#
# 1 0.005296 -0.001728 -0.001132 0.000000 0.000000 0.000000
# 2 -0.001728 0.010784 -0.002996 0.000000 0.000000 0.000000
# 3 -0.001132 -0.002996 0.005828 0.000000 0.000000 0.000000
# 4 0.000000 0.000000 0.000000 0.035446 0.000000 0.000000
# 5 0.000000 0.000000 0.000000 0.000000 -0.013766 0.000000
# 6 0.000000 0.000000 0.000000 0.000000 0.000000 0.028834
#
#
# Mechanical properties :
#
#
# Convention : Reuss Voigt Hill
#
# Bulk Modulus (GPa) = 98.06628 107.68487 102.87557
# Shear Modulus (GPa) = 57.12141 22.50592 39.81367
#
# Velocity S-wave (km/s) = 4.82990 3.03171 4.03232
# Velocity P-wave (km/s) = 8.43526 7.49885 7.98080
#
# Compressibility (1/GPa) = 0.01019719
#
# Stress axis : x y z
#
# Youngs Moduli (GPa) = 188.81701 92.73023 171.57261
#
# Poissons Ratio (x) = 0.16022 0.19428
# Poissons Ratio (y) = 0.32624 0.51395
# Poissons Ratio (z) = 0.21380 0.27778
#
# Static dielectric constant tensor:
#      x y z
#    x 2.013730 0.000000 0.000000 
#    y 0.000000 2.044200 0.000000 
#    z 0.000000 0.000000 1.938220 
# 
# From -- ./inp_files/11300.got.cif
#   From: 2010.05.17/outbox.cif.g08.bks.cpg/sg53_6_cif.got.tgz:11300.got - 2010.06.03 12:45:16.
