data_PCOD9419863
_publ_section_title
;
Structure prediction by ZEFSAII (Michael W. Deem and Ramdas Pophale) SiO2 
 PCOD9419863
Probable space group: P M N A
;
_chemical_formula_sum "Si O2"
_cell_formula_units_Z 64
_cell_length_a 29.233540
_cell_length_b 9.340530
_cell_length_c 12.110873
_cell_angle_alpha 90.000000
_cell_angle_beta 90.000000
_cell_angle_gamma 90.000000
_cell_volume 3306.955710
_symmetry_space_group_name_H-M "P M N A"
_symmetry_group_IT_number 53
_symmetry_cell_setting 'orthorhombic'
loop_
_space_group_symop_operation_xyz
x,y,z
1/2-x,-y,1/2+z
x,-y,-z
1/2-x,y,1/2-z
-x,-y,-z
1/2+x,y,1/2-z
-x,y,z
1/2+x,-y,1/2+z
loop_
_atom_site_type_symbol
_atom_site_label
_atom_site_fract_x
_atom_site_fract_y
_atom_site_fract_z
Si Si1 0.640445 0.103134 0.396947
Si Si2 0.355636 0.574189 0.248176
Si Si3 0.204031 0.667576 0.682592
Si Si4 0.205792 0.728844 0.431657
Si Si5 0.799807 0.006379 0.704710
Si Si6 0.307456 0.663678 0.463935
Si Si7 0.447864 0.276213 0.429600
Si Si8 0.948286 0.598321 0.168379
O O1 0.661741 0.004477 0.300262
O O2 0.675282 0.228289 0.440796
O O3 0.591693 0.178809 0.378171
O O4 0.634455 0.000000 0.500000
O O5 0.339095 0.409236 0.240051
O O6 0.323078 0.642553 0.157442
O O7 0.343213 0.643859 0.365597
O O8 0.409197 0.604560 0.239446
O O9 0.250000 0.619239 0.750000
O O10 0.200714 0.652163 0.550439
O O11 0.204750 0.838722 0.681603
O O12 0.260198 0.721166 0.416215
O O13 0.191192 0.891590 0.399973
O O14 0.750000 0.050573 0.750000
O O15 0.299747 0.500000 0.500000
O O16 0.500000 0.224848 0.411739
O O17 0.444710 0.436402 0.379733
O O18 0.441257 0.298832 0.561787
O O19 0.000000 0.620537 0.208036
#
# Coordination Sequence:
#
# PCOD9419863 Si02
#       8
#     8   8   8   8   8   8   8   8
#     4  12  23  35  57  90 125 162 201 242 308 377
#     4  12  21  34  58  87 116 148 193 252 303 361
#     4  11  23  39  57  80 109 152 203 248 299 362
#     4  12  24  38  54  80 118 154 197 254 302 356
#     4  11  23  38  54  76 115 161 202 236 288 360
#     4  12  22  37  59  85 119 162 208 251 300 362
#     4   9  18  35  57  86 122 158 201 251 304 366
#     4   9  18  34  58  86 116 154 197 248 310 368
#
# _framework density 19.353145999999999
#
# number of rings (size 3 to 8) (size 9 to 14) (size 15 to 20)
#    0.000    1.000    1.250   10.125    0.000    0.250 
#    0.000    0.000    0.000    1.500    0.000    0.000 
#    0.000    5.000    0.000    0.000    0.000    0.000 
#
# Total GULP energy -356865.199048 kJ/mol
# GULP energy per Si atom -5576.018735 kJ/mol
# Density = 1.930910 g / cm^3
# Si number density = 19.353146 Si / 1000 Ang^3
#
#
#
# Elastic Constant Matrix: (Units=GPa)
#
#
# Indices 1 2 3 4 5 6 
#
# 1 135.3554 20.2186 33.9915 0.0000 0.0000 0.0000
# 2 20.2186 63.1864 24.0590 0.0000 0.0000 0.0000
# 3 33.9915 24.0590 63.7261 0.0000 0.0000 0.0000
# 4 0.0000 0.0000 0.0000 29.5193 0.0000 0.0000
# 5 0.0000 0.0000 0.0000 0.0000 -24.5120 0.0000
# 6 0.0000 0.0000 0.0000 0.0000 0.0000 3.3299
#
#
#
# Elastic Compliance Matrix: (Units=1/GPa)
#
#
# Indices 1 2 3 4 5 6 
#
# 1 0.008605 -0.001175 -0.004146 0.000000 0.000000 0.000000
# 2 -0.001175 0.018644 -0.006412 0.000000 0.000000 0.000000
# 3 -0.004146 -0.006412 0.020325 0.000000 0.000000 0.000000
# 4 0.000000 0.000000 0.000000 0.033876 0.000000 0.000000
# 5 0.000000 0.000000 0.000000 0.000000 -0.040796 0.000000
# 6 0.000000 0.000000 0.000000 0.000000 0.000000 0.300306
#
#
# Mechanical properties :
#
#
# Convention : Reuss Voigt Hill
#
# Bulk Modulus (GPa) = 41.48204 46.53404 44.00804
# Shear Modulus (GPa) = 13.42427 13.93404 13.67915
#
# Velocity S-wave (km/s) = 2.63658 2.68617 2.66149
# Velocity P-wave (km/s) = 5.54522 5.80668 5.67746
#
# Compressibility (1/GPa) = 0.02410682
#
# Stress axis : x y z
#
# Youngs Moduli (GPa) = 116.21613 53.63787 49.20150
#
# Poissons Ratio (x) = 0.06300 0.20400
# Poissons Ratio (y) = 0.13651 0.31549
# Poissons Ratio (z) = 0.48186 0.34393
#
# Static dielectric constant tensor:
#      x y z
#    x 1.720090 0.000000 0.000000 
#    y 0.000000 1.778000 0.000000 
#    z 0.000000 0.000000 1.756300 
# 
# From -- ./inp_files/19012.got.cif
#   From: 2010.05.17/outbox.cif.g08.bks.cpg/sg53_10_cif.got.tgz:19012.got - 2010.06.03 12:45:16.
