data_PCOD9419232
_publ_section_title
;
Structure prediction by ZEFSAII (Michael W. Deem and Ramdas Pophale) SiO2 
 PCOD9419232
Probable space group: P M N A
;
_chemical_formula_sum "Si O2"
_cell_formula_units_Z 64
_cell_length_a 8.457755
_cell_length_b 12.242123
_cell_length_c 31.752964
_cell_angle_alpha 90.000000
_cell_angle_beta 90.000000
_cell_angle_gamma 90.000000
_cell_volume 3287.729740
_symmetry_space_group_name_H-M "P M N A"
_symmetry_group_IT_number 53
_symmetry_cell_setting 'orthorhombic'
loop_
_space_group_symop_operation_xyz
x,y,z
1/2-x,-y,1/2+z
x,-y,-z
1/2-x,y,1/2-z
-x,-y,-z
1/2+x,y,1/2-z
-x,y,z
1/2+x,-y,1/2+z
loop_
_atom_site_type_symbol
_atom_site_label
_atom_site_fract_x
_atom_site_fract_y
_atom_site_fract_z
Si Si1 0.307611 0.479549 0.452764
Si Si2 0.189124 0.030638 0.452260
Si Si3 0.192985 0.371809 0.875390
Si Si4 0.187970 0.750721 0.911634
Si Si5 0.811116 0.487185 0.205030
Si Si6 0.185464 0.249491 0.317911
Si Si7 0.307980 0.118937 0.622680
Si Si8 0.311704 0.014142 0.294502
O O1 0.249626 0.500000 0.500000
O O2 0.500000 0.485616 0.453835
O O3 0.254313 0.567062 0.417931
O O4 0.268093 0.358923 0.436453
O O5 0.272190 0.142367 0.438193
O O6 0.000000 0.044824 0.450177
O O7 0.232363 0.000000 0.500000
O O8 0.240588 0.938952 0.418758
O O9 0.245524 0.440233 0.834485
O O10 0.239927 0.245462 0.874402
O O11 0.000000 0.374232 0.875212
O O12 0.279505 0.754603 0.867696
O O13 0.000000 0.747053 0.902287
O O14 0.750000 0.527754 0.250000
O O15 0.757587 0.362189 0.198835
O O16 0.000000 0.489682 0.205010
O O17 0.259510 0.139752 0.299109
O O18 0.000000 0.249286 0.309270
O O19 0.500000 0.113859 0.620652
O O20 0.256316 0.052688 0.664402
O O21 0.250000 0.970179 0.250000
O O22 0.500000 0.009656 0.294229
#
# Coordination Sequence:
#
# PCOD9419232 Si02
#       8
#     8   8   8   8   8   8   8   8
#     4   9  18  33  58  92 122 150 191 243 296 347
#     4  11  25  42  60  87 126 165 201 246 302 358
#     4   9  19  37  59  85 120 156 195 249 298 346
#     4  11  21  37  64  94 121 156 200 249 300 354
#     4  11  22  39  61  88 122 157 200 248 298 353
#     4  12  23  38  61  89 124 160 196 244 305 360
#     4  10  22  40  64  89 116 157 208 253 297 357
#     4  11  23  39  60  89 120 155 202 249 301 360
#
# _framework density 19.46632
#
# number of rings (size 3 to 8) (size 9 to 14) (size 15 to 20)
#    0.000    1.500    2.500    3.000    1.750    2.000 
#    0.000    1.250    0.000    1.500    0.000    0.000 
#    0.000    0.000    0.000    0.000    0.000    0.000 
#
# Total GULP energy -357731.328738 kJ/mol
# GULP energy per Si atom -5589.552012 kJ/mol
# Density = 1.942201 g / cm^3
# Si number density = 19.466320 Si / 1000 Ang^3
#
#
#
# Elastic Constant Matrix: (Units=GPa)
#
#
# Indices 1 2 3 4 5 6 
#
# 1 29.9295 12.2434 17.1649 0.0000 0.0000 0.0000
# 2 12.2434 140.4462 72.9851 0.0000 0.0000 0.0000
# 3 17.1649 72.9851 177.6249 0.0000 0.0000 0.0000
# 4 0.0000 0.0000 0.0000 43.2535 0.0000 0.0000
# 5 0.0000 0.0000 0.0000 0.0000 27.2810 0.0000
# 6 0.0000 0.0000 0.0000 0.0000 0.0000 -84.4413
#
#
#
# Elastic Compliance Matrix: (Units=1/GPa)
#
#
# Indices 1 2 3 4 5 6 
#
# 1 0.035680 -0.001677 -0.002759 0.000000 0.000000 0.000000
# 2 -0.001677 0.009132 -0.003590 0.000000 0.000000 0.000000
# 3 -0.002759 -0.003590 0.007372 0.000000 0.000000 0.000000
# 4 0.000000 0.000000 0.000000 0.023120 0.000000 0.000000
# 5 0.000000 0.000000 0.000000 0.000000 0.036656 0.000000
# 6 0.000000 0.000000 0.000000 0.000000 0.000000 -0.011843
#
#
# Mechanical properties :
#
#
# Convention : Reuss Voigt Hill
#
# Bulk Modulus (GPa) = 27.67638 61.42083 44.54861
# Shear Modulus (GPa) = 38.99783 13.59247 26.29515
#
# Velocity S-wave (km/s) = 4.48073 2.64532 3.67931
# Velocity P-wave (km/s) = 6.40451 6.39931 6.40191
#
# Compressibility (1/GPa) = 0.03613189
#
# Stress axis : x y z
#
# Youngs Moduli (GPa) = 28.02685 109.50411 135.65400
#
# Poissons Ratio (x) = 0.18360 0.37428
# Poissons Ratio (y) = 0.04699 0.48704
# Poissons Ratio (z) = 0.07733 0.39315
#
# Static dielectric constant tensor:
#      x y z
#    x 1.668270 0.000000 0.000000 
#    y 0.000000 1.654220 0.000000 
#    z 0.000000 0.000000 1.676620 
# 
# From -- ./inp_files/38226.got.cif
#   From: 2010.05.17/outbox.cif.g08.bks.cpg/sg53_20_cif.got.tgz:38226.got - 2010.06.03 12:45:16.
