data_PCOD9419237
_publ_section_title
;
Structure prediction by ZEFSAII (Michael W. Deem and Ramdas Pophale) SiO2 
 PCOD9419237
Probable space group: P M N A
;
_chemical_formula_sum "Si O2"
_cell_formula_units_Z 64
_cell_length_a 18.129680
_cell_length_b 5.232037
_cell_length_c 29.475714
_cell_angle_alpha 90.000000
_cell_angle_beta 90.000000
_cell_angle_gamma 90.000000
_cell_volume 2795.923466
_symmetry_space_group_name_H-M "P M N A"
_symmetry_group_IT_number 53
_symmetry_cell_setting 'orthorhombic'
loop_
_space_group_symop_operation_xyz
x,y,z
1/2-x,-y,1/2+z
x,-y,-z
1/2-x,y,1/2-z
-x,-y,-z
1/2+x,y,1/2-z
-x,y,z
1/2+x,-y,1/2+z
loop_
_atom_site_type_symbol
_atom_site_label
_atom_site_fract_x
_atom_site_fract_y
_atom_site_fract_z
Si Si1 0.418821 0.712857 0.367988
Si Si2 0.687330 0.926963 0.594444
Si Si3 0.638419 0.444734 0.226533
Si Si4 0.587820 0.372992 0.049972
Si Si5 0.580128 0.335749 0.454743
Si Si6 0.417598 0.938967 0.185424
Si Si7 0.159210 0.866139 0.408701
Si Si8 0.705581 0.426443 0.320237
O O1 0.500000 0.714826 0.347022
O O2 0.419712 0.519063 0.410372
O O3 0.350088 0.647293 0.336014
O O4 0.392810 0.978230 0.388535
O O5 0.659555 0.800251 0.548366
O O6 0.752352 0.126830 0.586400
O O7 0.714146 0.748665 0.635537
O O8 0.590206 0.223584 0.204393
O O9 0.662534 0.332901 0.275368
O O10 0.713920 0.487636 0.198289
O O11 0.600234 0.720954 0.222716
O O12 0.500000 0.346860 0.058567
O O13 0.625261 0.097559 0.060425
O O14 0.625208 0.590260 0.080732
O O15 0.596273 0.500000 0.000000
O O16 0.580347 0.500000 0.500000
O O17 0.500000 0.195948 0.455272
O O18 0.500000 0.893569 0.168109
O O19 0.362861 0.922071 0.143017
#
# Coordination Sequence:
#
# PCOD9419237 Si02
#       8
#     8   8   8   8   8   8   8   8
#     4  10  22  40  64  94 126 171 222 273 336 404
#     4  11  23  40  65  94 133 175 224 281 335 411
#     4  11  25  44  69  98 133 177 225 277 335 410
#     4  11  25  47  71 101 138 182 231 283 345 414
#     4   9  20  40  63  91 129 173 221 274 337 403
#     4  12  25  43  67 101 136 173 223 278 341 402
#     4  12  25  43  71 101 138 182 229 282 347 412
#     4  10  24  43  67  91 130 174 222 273 340 399
#
# _framework density 22.890467999999998
#
# number of rings (size 3 to 8) (size 9 to 14) (size 15 to 20)
#    0.000    1.250    1.250    3.750    5.250    4.500 
#    2.250    1.875    0.000    0.000    0.000    0.000 
#    0.000    0.000    0.000    0.000    0.000    0.000 
#
# Total GULP energy -357166.959813 kJ/mol
# GULP energy per Si atom -5580.733747 kJ/mol
# Density = 2.283837 g / cm^3
# Si number density = 22.890468 Si / 1000 Ang^3
#
#
#
# Elastic Constant Matrix: (Units=GPa)
#
#
# Indices 1 2 3 4 5 6 
#
# 1 89.4333 13.9034 10.5042 0.0000 0.0000 0.0000
# 2 13.9034 63.8994 2.5034 0.0000 0.0000 0.0000
# 3 10.5042 2.5034 45.0241 0.0000 0.0000 0.0000
# 4 0.0000 0.0000 0.0000 19.0900 0.0000 0.0000
# 5 0.0000 0.0000 0.0000 0.0000 24.1014 0.0000
# 6 0.0000 0.0000 0.0000 0.0000 0.0000 22.3829
#
#
#
# Elastic Compliance Matrix: (Units=1/GPa)
#
#
# Indices 1 2 3 4 5 6 
#
# 1 0.011876 -0.002481 -0.002633 0.000000 0.000000 0.000000
# 2 -0.002481 0.016202 -0.000322 0.000000 0.000000 0.000000
# 3 -0.002633 -0.000322 0.022843 0.000000 0.000000 0.000000
# 4 0.000000 0.000000 0.000000 0.052383 0.000000 0.000000
# 5 0.000000 0.000000 0.000000 0.000000 0.041491 0.000000
# 6 0.000000 0.000000 0.000000 0.000000 0.000000 0.044677
#
#
# Mechanical properties :
#
#
# Convention : Reuss Voigt Hill
#
# Bulk Modulus (GPa) = 24.96925 28.01987 26.49456
# Shear Modulus (GPa) = 23.39793 24.54458 23.97126
#
# Velocity S-wave (km/s) = 3.20061 3.27809 3.23958
# Velocity P-wave (km/s) = 4.95886 5.15706 5.05893
#
# Compressibility (1/GPa) = 0.04004925
#
# Stress axis : x y z
#
# Youngs Moduli (GPa) = 84.20030 61.72062 43.77803
#
# Poissons Ratio (x) = 0.15313 0.11526
# Poissons Ratio (y) = 0.20890 0.01410
# Poissons Ratio (z) = 0.22169 0.01988
#
# Static dielectric constant tensor:
#      x y z
#    x 1.826590 0.000000 0.000000 
#    y 0.000000 1.925330 0.000000 
#    z 0.000000 0.000000 2.002790 
# 
# From -- ./inp_files/39042.got.cif
#   From: 2010.05.17/outbox.cif.g08.bks.cpg/sg53_20_cif.got.tgz:39042.got - 2010.06.03 12:45:16.
