data_PCOD9419556
_publ_section_title
;
Structure prediction by ZEFSAII (Michael W. Deem and Ramdas Pophale) SiO2 
 PCOD9419556
Probable space group: P M N A
;
_chemical_formula_sum "Si O2"
_cell_formula_units_Z 40
_cell_length_a 13.477904
_cell_length_b 14.166851
_cell_length_c 8.589193
_cell_angle_alpha 90.000000
_cell_angle_beta 90.000000
_cell_angle_gamma 90.000000
_cell_volume 1640.015854
_symmetry_space_group_name_H-M "P M N A"
_symmetry_group_IT_number 53
_symmetry_cell_setting 'orthorhombic'
loop_
_space_group_symop_operation_xyz
x,y,z
1/2-x,-y,1/2+z
x,-y,-z
1/2-x,y,1/2-z
-x,-y,-z
1/2+x,y,1/2-z
-x,y,z
1/2+x,-y,1/2+z
loop_
_atom_site_type_symbol
_atom_site_label
_atom_site_fract_x
_atom_site_fract_y
_atom_site_fract_z
Si Si1 0.890921 0.102809 0.082581
Si Si2 0.668504 0.272005 0.866256
Si Si3 0.000000 0.391126 0.185273
Si Si4 0.000000 0.620140 0.177631
Si Si5 0.678032 0.583309 0.885419
Si Si6 0.660634 0.893399 0.941639
O O1 0.884161 0.103718 0.269716
O O2 0.778080 0.136449 0.049329
O O3 0.000000 0.145669 0.039395
O O4 0.892579 0.000000 0.000000
O O5 0.750000 0.233271 0.750000
O O6 0.593812 0.336150 0.766157
O O7 0.719442 0.339719 0.995436
O O8 0.613830 0.185702 0.949131
O O9 0.905709 0.363742 0.286862
O O10 0.000000 0.506240 0.189287
O O11 0.000000 0.361096 0.007210
O O12 0.750000 0.545565 0.750000
O O13 0.642724 0.500000 0.000000
O O14 0.653066 0.000000 0.000000
#
# Coordination Sequence:
#
# PCOD9419556 Si02
#       6
#     8   8   4   4   8   8
#     4   9  20  42  71 100 133 185 249 303 367 432
#     4  12  27  47  68 107 148 192 246 302 370 450
#     4  11  24  47  80 102 142 187 246 308 381 443
#     4  11  25  48  74 107 140 193 244 310 376 453
#     4  12  25  43  72 104 141 187 235 301 372 445
#     4  10  24  44  69  99 145 193 240 308 361 429
#
# _framework density 24.390007000000001
#
# number of rings (size 3 to 8) (size 9 to 14) (size 15 to 20)
#    0.000    1.200    2.000    2.700   12.600    0.400 
#    1.800    0.000    0.000    0.000    0.000    0.000 
#    0.000    0.000    0.000    0.000    0.000    0.000 
#
# Total GULP energy -223396.479640 kJ/mol
# GULP energy per Si atom -5584.911991 kJ/mol
# Density = 2.433449 g / cm^3
# Si number density = 24.390007 Si / 1000 Ang^3
#
#
#
# Elastic Constant Matrix: (Units=GPa)
#
#
# Indices 1 2 3 4 5 6 
#
# 1 103.7459 -9.1599 28.4393 0.0000 0.0000 0.0000
# 2 -9.1599 115.5932 61.0842 0.0000 0.0000 0.0000
# 3 28.4393 61.0842 185.1672 0.0000 0.0000 0.0000
# 4 0.0000 0.0000 0.0000 44.0721 0.0000 0.0000
# 5 0.0000 0.0000 0.0000 0.0000 268.7188 0.0000
# 6 0.0000 0.0000 0.0000 0.0000 0.0000 56.4577
#
#
#
# Elastic Compliance Matrix: (Units=1/GPa)
#
#
# Indices 1 2 3 4 5 6 
#
# 1 0.010441 0.002028 -0.002273 0.000000 0.000000 0.000000
# 2 0.002028 0.010872 -0.003898 0.000000 0.000000 0.000000
# 3 -0.002273 -0.003898 0.007035 0.000000 0.000000 0.000000
# 4 0.000000 0.000000 0.000000 0.022690 0.000000 0.000000
# 5 0.000000 0.000000 0.000000 0.000000 0.003721 0.000000
# 6 0.000000 0.000000 0.000000 0.000000 0.000000 0.017712
#
#
# Mechanical properties :
#
#
# Convention : Reuss Voigt Hill
#
# Bulk Modulus (GPa) = 49.84170 62.80373 56.32271
# Shear Modulus (GPa) = 57.17925 95.45925 76.31925
#
# Velocity S-wave (km/s) = 4.84712 6.26288 5.59992
# Velocity P-wave (km/s) = 7.19763 8.83764 8.05946
#
# Compressibility (1/GPa) = 0.02006352
#
# Stress axis : x y z
#
# Youngs Moduli (GPa) = 95.77592 91.98287 142.13707
#
# Poissons Ratio (x) = -0.18658 0.32304
# Poissons Ratio (y) = -0.19427 0.55404
# Poissons Ratio (z) = 0.21767 0.35854
#
# Static dielectric constant tensor:
#      x y z
#    x 2.036940 0.000000 0.000000 
#    y 0.000000 1.943120 0.000000 
#    z 0.000000 0.000000 1.891300 
# 
# From -- ./inp_files/8449.got.cif
#   From: 2010.05.17/outbox.cif.g08.bks.cpg/sg53_5_cif.got.tgz:8449.got - 2010.06.03 12:45:16.
