data_PCOD9419468
_publ_section_title
;
Structure prediction by ZEFSAII (Michael W. Deem and Ramdas Pophale) SiO2 
 PCOD9419468
Probable space group: P M N A
;
_chemical_formula_sum "Si O2"
_cell_formula_units_Z 56
_cell_length_a 9.450818
_cell_length_b 20.195426
_cell_length_c 15.668273
_cell_angle_alpha 90.000000
_cell_angle_beta 90.000000
_cell_angle_gamma 90.000000
_cell_volume 2990.498220
_symmetry_space_group_name_H-M "P M N A"
_symmetry_group_IT_number 53
_symmetry_cell_setting 'orthorhombic'
loop_
_space_group_symop_operation_xyz
x,y,z
1/2-x,-y,1/2+z
x,-y,-z
1/2-x,y,1/2-z
-x,-y,-z
1/2+x,y,1/2-z
-x,y,z
1/2+x,-y,1/2+z
loop_
_atom_site_type_symbol
_atom_site_label
_atom_site_fract_x
_atom_site_fract_y
_atom_site_fract_z
Si Si1 0.664729 0.878342 0.328797
Si Si2 0.340528 0.420707 0.502634
Si Si3 0.160518 0.393290 0.669122
Si Si4 0.837201 0.785897 0.569703
Si Si5 0.656318 0.241141 0.868029
Si Si6 0.663799 0.921349 0.010679
Si Si7 0.670131 0.329231 0.339045
O O1 0.750000 0.908429 0.250000
O O2 0.500000 0.886643 0.319922
O O3 0.713708 0.802054 0.335557
O O4 0.725845 0.907151 0.415375
O O5 0.345904 0.500000 0.500000
O O6 0.500000 0.396434 0.524496
O O7 0.233781 0.406650 0.578979
O O8 0.302689 0.384525 0.413339
O O9 0.250000 0.417889 0.750000
O O10 0.156829 0.313677 0.670034
O O11 0.000000 0.418541 0.672321
O O12 0.832459 0.759627 0.471369
O O13 0.806500 0.865185 0.561803
O O14 0.733026 0.740294 0.624729
O O15 0.000000 0.777740 0.599579
O O16 0.500000 0.211596 0.847322
O O17 0.500000 0.906727 0.035090
O O18 0.670007 0.000000 0.000000
O O19 0.750000 0.344340 0.250000
O O20 0.500000 0.325653 0.326829
#
# Coordination Sequence:
#
# PCOD9419468 Si02
#       7
#     8   8   8   8   8   8   8
#     4  11  21  32  50  77 110 145 185 230 277 336
#     4  10  23  43  63  86 119 157 200 251 307 366
#     4  11  22  36  57  86 119 154 191 235 289 353
#     4   9  17  34  59  86 116 148 190 241 291 350
#     4   9  18  33  54  81 113 147 182 226 282 341
#     4   9  19  37  59  82 113 153 191 235 297 358
#     4  11  23  39  63  90 119 158 205 257 308 363
#
# _framework density 18.725977
#
# number of rings (size 3 to 8) (size 9 to 14) (size 15 to 20)
#    0.000    2.000    1.429    3.429    0.000    6.286 
#    0.000    2.143    0.000    0.000    0.000    0.000 
#    0.000    0.000    0.000    0.000    0.000    0.000 
#
# Total GULP energy -312027.426087 kJ/mol
# GULP energy per Si atom -5571.918323 kJ/mol
# Density = 1.868336 g / cm^3
# Si number density = 18.725977 Si / 1000 Ang^3
#
#
#
# Elastic Constant Matrix: (Units=GPa)
#
#
# Indices 1 2 3 4 5 6 
#
# 1 154.7467 42.3087 83.2178 0.0000 0.0000 0.0000
# 2 42.3087 80.6179 32.6389 0.0000 0.0000 0.0000
# 3 83.2178 32.6389 110.0093 0.0000 0.0000 0.0000
# 4 0.0000 0.0000 0.0000 5.1788 0.0000 0.0000
# 5 0.0000 0.0000 0.0000 0.0000 46.5512 0.0000
# 6 0.0000 0.0000 0.0000 0.0000 0.0000 19.0119
#
#
#
# Elastic Compliance Matrix: (Units=1/GPa)
#
#
# Indices 1 2 3 4 5 6 
#
# 1 0.011439 -0.002841 -0.007810 0.000000 0.000000 0.000000
# 2 -0.002841 0.014803 -0.002243 0.000000 0.000000 0.000000
# 3 -0.007810 -0.002243 0.015664 0.000000 0.000000 0.000000
# 4 0.000000 0.000000 0.000000 0.193095 0.000000 0.000000
# 5 0.000000 0.000000 0.000000 0.000000 0.021482 0.000000
# 6 0.000000 0.000000 0.000000 0.000000 0.000000 0.052599
#
#
# Mechanical properties :
#
#
# Convention : Reuss Voigt Hill
#
# Bulk Modulus (GPa) = 62.04393 73.52275 67.78334
# Shear Modulus (GPa) = 14.69539 26.62895 20.66217
#
# Velocity S-wave (km/s) = 2.80440 3.77508 3.32534
# Velocity P-wave (km/s) = 6.60989 7.63867 7.14283
#
# Compressibility (1/GPa) = 0.01611761
#
# Stress axis : x y z
#
# Youngs Moduli (GPa) = 87.41954 67.55256 63.84189
#
# Poissons Ratio (x) = 0.19193 0.49862
# Poissons Ratio (y) = 0.24838 0.14318
# Poissons Ratio (z) = 0.68277 0.15150
#
# Static dielectric constant tensor:
#      x y z
#    x 1.654740 0.000000 0.000000 
#    y 0.000000 1.688120 0.000000 
#    z 0.000000 0.000000 1.673600 
# 
# From -- ./inp_files/20487.got.cif
#   From: 2010.05.17/outbox.cif.g08.bks.cpg/sg53_11_cif.got.tgz:20487.got - 2010.06.03 12:45:16.
