data_PCOD9419689
_publ_section_title
;
Structure prediction by ZEFSAII (Michael W. Deem and Ramdas Pophale) SiO2 
 PCOD9419689
Probable space group: P M N A
;
_chemical_formula_sum "Si O2"
_cell_formula_units_Z 56
_cell_length_a 9.223246
_cell_length_b 19.534573
_cell_length_c 18.407232
_cell_angle_alpha 90.000000
_cell_angle_beta 90.000000
_cell_angle_gamma 90.000000
_cell_volume 3316.470975
_symmetry_space_group_name_H-M "P M N A"
_symmetry_group_IT_number 53
_symmetry_cell_setting 'orthorhombic'
loop_
_space_group_symop_operation_xyz
x,y,z
1/2-x,-y,1/2+z
x,-y,-z
1/2-x,y,1/2-z
-x,-y,-z
1/2+x,y,1/2-z
-x,y,z
1/2+x,-y,1/2+z
loop_
_atom_site_type_symbol
_atom_site_label
_atom_site_fract_x
_atom_site_fract_y
_atom_site_fract_z
Si Si1 0.663685 0.717259 0.975691
Si Si2 0.166742 0.980849 0.586240
Si Si3 0.671824 0.574436 0.034213
Si Si4 0.834899 0.754166 0.352828
Si Si5 0.165972 0.152065 0.052998
Si Si6 0.672469 0.383585 0.679133
Si Si7 0.833020 0.886040 0.119939
O O1 0.500000 0.721777 0.946300
O O2 0.709511 0.637815 0.980672
O O3 0.656877 0.740586 0.060313
O O4 0.767867 0.772286 0.938807
O O5 0.238188 0.906264 0.590824
O O6 0.000000 0.981521 0.610262
O O7 0.167005 0.000000 0.500000
O O8 0.260618 0.039553 0.624750
O O9 0.500000 0.584267 0.052212
O O10 0.766756 0.582004 0.106241
O O11 0.689398 0.500000 0.000000
O O12 0.729056 0.694701 0.325911
O O13 0.764247 0.828174 0.342174
O O14 0.000000 0.748498 0.324635
O O15 0.000000 0.148808 0.077102
O O16 0.166739 0.133681 0.966419
O O17 0.750000 0.414044 0.750000
O O18 0.500000 0.386605 0.683938
O O19 0.000000 0.885184 0.144116
#
# Coordination Sequence:
#
# PCOD9419689 Si02
#       7
#     8   8   8   8   8   8   8
#     4   8  14  24  38  55  76 104 137 172 212 262
#     4   9  15  21  29  42  63  94 131 169 208 250
#     4   9  18  33  51  70  93 121 153 190 235 288
#     4   9  16  27  41  57  78 106 141 178 217 260
#     4   9  15  21  30  45  67  96 131 171 210 249
#     4  11  21  33  49  69  93 121 155 193 233 277
#     4   9  15  22  32  48  70  97 131 170 210 250
#
# _framework density 16.885418999999999
#
# number of rings (size 3 to 8) (size 9 to 14) (size 15 to 20)
#    0.000    2.857    0.000    3.857    0.000    8.857 
#    0.000    0.000    0.000    0.000    0.000    0.000 
#    0.000    0.000    0.000    1.286    0.000   20.286 
#
# Total GULP energy -312018.433645 kJ/mol
# GULP energy per Si atom -5571.757744 kJ/mol
# Density = 1.684699 g / cm^3
# Si number density = 16.885419 Si / 1000 Ang^3
#
#
#
# Elastic Constant Matrix: (Units=GPa)
#
#
# Indices 1 2 3 4 5 6 
#
# 1 135.4962 70.3830 23.2704 0.0000 0.0000 0.0000
# 2 70.3830 129.8170 16.1491 0.0000 0.0000 0.0000
# 3 23.2704 16.1491 17.1308 0.0000 0.0000 0.0000
# 4 0.0000 0.0000 0.0000 2.4981 0.0000 0.0000
# 5 0.0000 0.0000 0.0000 0.0000 7.8434 0.0000
# 6 0.0000 0.0000 0.0000 0.0000 0.0000 22.2177
#
#
#
# Elastic Compliance Matrix: (Units=1/GPa)
#
#
# Indices 1 2 3 4 5 6 
#
# 1 0.011990 -0.005069 -0.011508 0.000000 0.000000 0.000000
# 2 -0.005069 0.010869 -0.003361 0.000000 0.000000 0.000000
# 3 -0.011508 -0.003361 0.077176 0.000000 0.000000 0.000000
# 4 0.000000 0.000000 0.000000 0.400308 0.000000 0.000000
# 5 0.000000 0.000000 0.000000 0.000000 0.127496 0.000000
# 6 0.000000 0.000000 0.000000 0.000000 0.000000 0.045009
#
#
# Mechanical properties :
#
#
# Convention : Reuss Voigt Hill
#
# Bulk Modulus (GPa) = 16.62282 55.78323 36.20303
# Shear Modulus (GPa) = 6.82335 18.02128 12.42231
#
# Velocity S-wave (km/s) = 2.01240 3.27045 2.71529
# Velocity P-wave (km/s) = 3.90711 6.88253 5.59619
#
# Compressibility (1/GPa) = 0.06015826
#
# Stress axis : x y z
#
# Youngs Moduli (GPa) = 83.40436 92.00098 12.95744
#
# Poissons Ratio (x) = 0.46634 0.14912
# Poissons Ratio (y) = 0.42277 0.04355
# Poissons Ratio (z) = 0.95986 0.30921
#
# Static dielectric constant tensor:
#      x y z
#    x 1.569980 0.000000 0.000000 
#    y 0.000000 1.573640 0.000000 
#    z 0.000000 0.000000 1.583210 
# 
# From -- ./inp_files/30988.got.cif
#   From: 2010.05.17/outbox.cif.g08.bks.cpg/sg53_16_cif.got.tgz:30988.got - 2010.06.03 12:45:16.
