data_PCOD9419248
_publ_section_title
;
Structure prediction by ZEFSAII (Michael W. Deem and Ramdas Pophale) SiO2 
 PCOD9419248
Probable space group: P M N A
;
_chemical_formula_sum "Si O2"
_cell_formula_units_Z 20
_cell_length_a 28.439440
_cell_length_b 4.960386
_cell_length_c 5.059483
_cell_angle_alpha 90.000000
_cell_angle_beta 90.000000
_cell_angle_gamma 90.000000
_cell_volume 713.744303
_symmetry_space_group_name_H-M "P M N A"
_symmetry_group_IT_number 53
_symmetry_cell_setting 'orthorhombic'
loop_
_space_group_symop_operation_xyz
x,y,z
1/2-x,-y,1/2+z
x,-y,-z
1/2-x,y,1/2-z
-x,-y,-z
1/2+x,y,1/2-z
-x,y,z
1/2+x,-y,1/2+z
loop_
_atom_site_type_symbol
_atom_site_label
_atom_site_fract_x
_atom_site_fract_y
_atom_site_fract_z
Si Si1 0.000000 0.805730 0.250042
Si Si2 0.821087 0.500000 0.000000
Si Si3 0.250000 0.092412 0.750000
Si Si4 0.397557 0.199706 0.754099
O O1 0.050537 0.665252 0.249736
O O2 0.000000 0.000000 0.500000
O O3 0.000000 0.000000 0.000000
O O4 0.783802 0.260244 0.955041
O O5 0.858096 0.427921 0.772332
O O6 0.217084 0.000000 0.500000
O O7 0.392084 0.000000 0.500000
O O8 0.394463 0.000000 0.000000
#
# Coordination Sequence:
#
# PCOD9419248 Si02
#       4
#     4   4   4   8
#     4   8  16  35  60  93 138 176 210 268 336 398
#     4  12  26  45  72  96 128 181 234 284 354 414
#     4  12  28  48  68  96 134 174 230 300 358 416
#     4  10  22  40  66 100 137 176 223 277 335 411
#
# _framework density 28.021239999999999
#
# number of rings (size 3 to 8) (size 9 to 14) (size 15 to 20)
#    0.000    1.600    0.000    3.600    0.000    8.800 
#    0.000    0.000    0.000   14.400    0.000    0.000 
#    0.000    0.000    0.000    0.000    0.000    0.000 
#
# Total GULP energy -111438.927416 kJ/mol
# GULP energy per Si atom -5571.946371 kJ/mol
# Density = 2.795746 g / cm^3
# Si number density = 28.021240 Si / 1000 Ang^3
#
#
#
# Elastic Constant Matrix: (Units=GPa)
#
#
# Indices 1 2 3 4 5 6 
#
# 1 86.4690 -48.7032 -88.8618 0.0000 0.0000 0.0000
# 2 -48.7032 59.6265 7.7319 0.0000 0.0000 0.0000
# 3 -88.8618 7.7319 239.5860 0.0000 0.0000 0.0000
# 4 0.0000 0.0000 0.0000 64.1073 0.0000 0.0000
# 5 0.0000 0.0000 0.0000 0.0000 49.1585 0.0000
# 6 0.0000 0.0000 0.0000 0.0000 0.0000 -63.6287
#
#
#
# Elastic Compliance Matrix: (Units=1/GPa)
#
#
# Indices 1 2 3 4 5 6 
#
# 1 0.055163 0.042583 0.019086 0.000000 0.000000 0.000000
# 2 0.042583 0.049713 0.014189 0.000000 0.000000 0.000000
# 3 0.019086 0.014189 0.010795 0.000000 0.000000 0.000000
# 4 0.000000 0.000000 0.000000 0.015599 0.000000 0.000000
# 5 0.000000 0.000000 0.000000 0.000000 0.020342 0.000000
# 6 0.000000 0.000000 0.000000 0.000000 0.000000 -0.015716
#
#
# Mechanical properties :
#
#
# Convention : Reuss Voigt Hill
#
# Bulk Modulus (GPa) = 3.73992 14.00170 8.87081
# Shear Modulus (GPa) = 68.20452 44.29505 56.24979
#
# Velocity S-wave (km/s) = 4.93894 3.98020 4.48526
# Velocity P-wave (km/s) = 5.81909 5.11178 5.47686
#
# Compressibility (1/GPa) = 0.26738535
#
# Stress axis : x y z
#
# Youngs Moduli (GPa) = 18.12811 20.11557 92.63786
#
# Poissons Ratio (x) = -0.85657 -1.76804
# Poissons Ratio (y) = -0.77194 -1.31448
# Poissons Ratio (z) = -0.34599 -0.28543
#
# Static dielectric constant tensor:
#      x y z
#    x 2.332260 0.000000 0.000000 
#    y 0.000000 3.218350 0.000000 
#    z 0.000000 0.000000 2.051410 
# 
# From -- ./inp_files/4758.got.cif
#   From: 2010.05.17/outbox.cif.g08.bks.cpg/sg53_3_cif.got.tgz:4758.got - 2010.06.03 12:45:16.
