data_PCOD9419311
_publ_section_title
;
Structure prediction by ZEFSAII (Michael W. Deem and Ramdas Pophale) SiO2 
 PCOD9419311
Probable space group: P M N A
;
_chemical_formula_sum "Si O2"
_cell_formula_units_Z 56
_cell_length_a 21.043753
_cell_length_b 14.958311
_cell_length_c 8.793081
_cell_angle_alpha 90.000000
_cell_angle_beta 90.000000
_cell_angle_gamma 90.000000
_cell_volume 2767.877262
_symmetry_space_group_name_H-M "P M N A"
_symmetry_group_IT_number 53
_symmetry_cell_setting 'orthorhombic'
loop_
_space_group_symop_operation_xyz
x,y,z
1/2-x,-y,1/2+z
x,-y,-z
1/2-x,y,1/2-z
-x,-y,-z
1/2+x,y,1/2-z
-x,y,z
1/2+x,-y,1/2+z
loop_
_atom_site_type_symbol
_atom_site_label
_atom_site_fract_x
_atom_site_fract_y
_atom_site_fract_z
Si Si1 0.178968 0.401461 0.932132
Si Si2 0.326959 0.401417 0.931728
Si Si3 0.069581 0.081627 0.882699
Si Si4 0.881767 0.232044 0.079517
Si Si5 0.368110 0.096140 0.926139
Si Si6 0.573458 0.736551 0.923357
Si Si7 0.234183 0.094031 0.074117
O O1 0.253085 0.377541 0.964534
O O2 0.168035 0.402565 0.751084
O O3 0.168135 0.500000 0.000000
O O4 0.135156 0.327365 0.008955
O O5 0.337201 0.500000 0.000000
O O6 0.377315 0.334470 0.005937
O O7 0.122669 0.085660 0.753233
O O8 0.000000 0.070045 0.809288
O O9 0.071750 0.173451 0.976009
O O10 0.076870 0.000000 0.000000
O O11 0.907573 0.244337 0.248975
O O12 0.818596 0.170356 0.075769
O O13 0.415321 0.171486 0.986130
O O14 0.297468 0.122372 0.982026
O O15 0.381006 0.000000 0.000000
O O16 0.500000 0.708193 0.933825
O O17 0.250000 0.076407 0.250000
O O18 0.214628 0.000000 0.000000
#
# Coordination Sequence:
#
# PCOD9419311 Si02
#       7
#     8   8   8   8   8   8   8
#     4  10  22  41  69 100 131 167 208 273 344 408
#     4  10  22  43  68  98 130 165 215 271 336 402
#     4  11  25  43  63  91 130 177 226 274 323 388
#     4  12  24  40  66  93 132 170 220 270 337 392
#     4  11  24  41  64  90 127 169 214 269 329 393
#     4  12  25  42  66  95 130 177 226 269 319 392
#     4  11  25  42  63  97 133 170 214 276 341 394
#
# _framework density 20.232109999999999
#
# number of rings (size 3 to 8) (size 9 to 14) (size 15 to 20)
#    0.000    1.000    1.429    4.714    6.000    4.857 
#    0.000    0.714    0.000    3.000    0.000    0.000 
#    0.000    0.000    0.000    0.000    0.000    0.000 
#
# Total GULP energy -313272.763077 kJ/mol
# GULP energy per Si atom -5594.156484 kJ/mol
# Density = 2.018606 g / cm^3
# Si number density = 20.232110 Si / 1000 Ang^3
#
#
#
# Elastic Constant Matrix: (Units=GPa)
#
#
# Indices 1 2 3 4 5 6 
#
# 1 111.7680 43.7043 52.6413 0.0000 0.0000 0.0000
# 2 43.7043 101.5916 28.4111 0.0000 0.0000 0.0000
# 3 52.6413 28.4111 103.7633 0.0000 0.0000 0.0000
# 4 0.0000 0.0000 0.0000 39.0565 0.0000 0.0000
# 5 0.0000 0.0000 0.0000 0.0000 20.7634 0.0000
# 6 0.0000 0.0000 0.0000 0.0000 0.0000 14.4266
#
#
#
# Elastic Compliance Matrix: (Units=1/GPa)
#
#
# Indices 1 2 3 4 5 6 
#
# 1 0.013172 -0.004113 -0.005557 0.000000 0.000000 0.000000
# 2 -0.004113 0.011944 -0.001184 0.000000 0.000000 0.000000
# 3 -0.005557 -0.001184 0.012780 0.000000 0.000000 0.000000
# 4 0.000000 0.000000 0.000000 0.025604 0.000000 0.000000
# 5 0.000000 0.000000 0.000000 0.000000 0.048162 0.000000
# 6 0.000000 0.000000 0.000000 0.000000 0.000000 0.069317
#
#
# Mechanical properties :
#
#
# Convention : Reuss Voigt Hill
#
# Bulk Modulus (GPa) = 61.76527 62.95958 62.36242
# Shear Modulus (GPa) = 24.02904 27.67369 25.85137
#
# Velocity S-wave (km/s) = 3.45000 3.70240 3.57843
# Velocity P-wave (km/s) = 6.81649 7.03301 6.92560
#
# Compressibility (1/GPa) = 0.01619033
#
# Stress axis : x y z
#
# Youngs Moduli (GPa) = 75.91662 83.72630 78.24494
#
# Poissons Ratio (x) = 0.34435 0.43477
# Poissons Ratio (y) = 0.31223 0.09262
# Poissons Ratio (z) = 0.42183 0.09911
#
# Static dielectric constant tensor:
#      x y z
#    x 1.753790 0.000000 0.000000 
#    y 0.000000 1.675710 0.000000 
#    z 0.000000 0.000000 1.704950 
# 
# From -- ./inp_files/11091.got.cif
#   From: 2010.05.17/outbox.cif.g08.bks.cpg/sg53_6_cif.got.tgz:11091.got - 2010.06.03 12:45:16.
