data_PCOD9419061
_publ_section_title
;
Structure prediction by ZEFSAII (Michael W. Deem and Ramdas Pophale) SiO2 
 PCOD9419061
Probable space group: P M N A
;
_chemical_formula_sum "Si O2"
_cell_formula_units_Z 64
_cell_length_a 16.254465
_cell_length_b 10.460401
_cell_length_c 20.811343
_cell_angle_alpha 90.000000
_cell_angle_beta 90.000000
_cell_angle_gamma 90.000000
_cell_volume 3538.515646
_symmetry_space_group_name_H-M "P M N A"
_symmetry_group_IT_number 53
_symmetry_cell_setting 'orthorhombic'
loop_
_space_group_symop_operation_xyz
x,y,z
1/2-x,-y,1/2+z
x,-y,-z
1/2-x,y,1/2-z
-x,-y,-z
1/2+x,y,1/2-z
-x,y,z
1/2+x,-y,1/2+z
loop_
_atom_site_type_symbol
_atom_site_label
_atom_site_fract_x
_atom_site_fract_y
_atom_site_fract_z
Si Si1 0.172447 0.957810 0.800462
Si Si2 0.705855 0.719756 0.125032
Si Si3 0.900572 0.185736 0.384681
Si Si4 0.819879 0.455371 0.804393
Si Si5 0.596518 0.350906 0.992351
Si Si6 0.903867 0.781387 0.250263
Si Si7 0.404159 0.705700 0.746342
Si Si8 0.234456 0.993097 0.422447
O O1 0.250000 0.950225 0.750000
O O2 0.111232 0.843133 0.784633
O O3 0.202324 0.938537 0.873739
O O4 0.128997 0.093463 0.786666
O O5 0.768528 0.602145 0.135786
O O6 0.639178 0.687599 0.072416
O O7 0.656572 0.760771 0.189050
O O8 0.747355 0.847011 0.098266
O O9 0.876080 0.271138 0.445860
O O10 0.877196 0.265886 0.320539
O O11 0.852708 0.052642 0.397176
O O12 0.000000 0.166814 0.382257
O O13 0.750000 0.448323 0.750000
O O14 0.888768 0.348142 0.790130
O O15 0.856974 0.596000 0.793512
O O16 0.500000 0.327537 0.987057
O O17 0.610653 0.500000 0.000000
O O18 0.000000 0.795272 0.267208
O O19 0.500000 0.670947 0.748590
O O20 0.240172 0.000000 0.500000
#
# Coordination Sequence:
#
# PCOD9419061 Si02
#       8
#     8   8   8   8   8   8   8   8
#     4  12  21  39  61  87 123 154 201 254 297 354
#     4  11  21  38  58  87 118 160 200 242 297 360
#     4  10  22  36  57  89 126 164 199 241 301 370
#     4  10  22  37  58  87 120 152 194 250 299 353
#     4  10  22  36  51  81 127 169 202 235 286 371
#     4  11  21  36  60  87 118 157 197 245 300 352
#     4  11  23  39  62  92 120 154 199 254 314 363
#     4  12  23  39  60  86 124 162 204 249 300 363
#
# _framework density 18.086680000000001
#
# number of rings (size 3 to 8) (size 9 to 14) (size 15 to 20)
#    0.000    1.125    5.000    1.875    3.500    2.250 
#    0.000    0.000    0.000    1.500    0.000    0.875 
#    0.000    0.000    0.000    0.000    0.000    0.000 
#
# Total GULP energy -356574.989051 kJ/mol
# GULP energy per Si atom -5571.484204 kJ/mol
# Density = 1.804551 g / cm^3
# Si number density = 18.086680 Si / 1000 Ang^3
#
#
#
# Elastic Constant Matrix: (Units=GPa)
#
#
# Indices 1 2 3 4 5 6 
#
# 1 45.1943 16.5671 32.5479 0.0000 0.0000 0.0000
# 2 16.5671 88.0721 18.9304 0.0000 0.0000 0.0000
# 3 32.5479 18.9304 93.4788 0.0000 0.0000 0.0000
# 4 0.0000 0.0000 0.0000 21.9824 0.0000 0.0000
# 5 0.0000 0.0000 0.0000 0.0000 36.0849 0.0000
# 6 0.0000 0.0000 0.0000 0.0000 0.0000 42.3272
#
#
#
# Elastic Compliance Matrix: (Units=1/GPa)
#
#
# Indices 1 2 3 4 5 6 
#
# 1 0.030600 -0.003624 -0.009920 0.000000 0.000000 0.000000
# 2 -0.003624 0.012300 -0.001229 0.000000 0.000000 0.000000
# 3 -0.009920 -0.001229 0.014401 0.000000 0.000000 0.000000
# 4 0.000000 0.000000 0.000000 0.045491 0.000000 0.000000
# 5 0.000000 0.000000 0.000000 0.000000 0.027712 0.000000
# 6 0.000000 0.000000 0.000000 0.000000 0.000000 0.023625
#
#
# Mechanical properties :
#
#
# Convention : Reuss Voigt Hill
#
# Bulk Modulus (GPa) = 36.03123 40.31512 38.17318
# Shear Modulus (GPa) = 25.91652 30.65889 28.28770
#
# Velocity S-wave (km/s) = 3.78948 4.12164 3.95904
# Velocity P-wave (km/s) = 6.25392 6.70737 6.48461
#
# Compressibility (1/GPa) = 0.02775370
#
# Stress axis : x y z
#
# Youngs Moduli (GPa) = 32.68020 81.29956 69.44113
#
# Poissons Ratio (x) = 0.29461 0.68889
# Poissons Ratio (y) = 0.11842 0.08536
# Poissons Ratio (z) = 0.32420 0.09993
#
# Static dielectric constant tensor:
#      x y z
#    x 1.646720 0.000000 0.000000 
#    y 0.000000 1.642050 0.000000 
#    z 0.000000 0.000000 1.608850 
# 
# From -- ./inp_files/32851.got.cif
#   From: 2010.05.17/outbox.cif.g08.bks.cpg/sg53_17_cif.got.tgz:32851.got - 2010.06.03 12:45:16.
