data_PCOD9419900
_publ_section_title
;
Structure prediction by ZEFSAII (Michael W. Deem and Ramdas Pophale) SiO2 
 PCOD9419900
Probable space group: P M N A
;
_chemical_formula_sum "Si O2"
_cell_formula_units_Z 40
_cell_length_a 8.427007
_cell_length_b 9.852591
_cell_length_c 22.425230
_cell_angle_alpha 90.000000
_cell_angle_beta 90.000000
_cell_angle_gamma 90.000000
_cell_volume 1861.918707
_symmetry_space_group_name_H-M "P M N A"
_symmetry_group_IT_number 53
_symmetry_cell_setting 'orthorhombic'
loop_
_space_group_symop_operation_xyz
x,y,z
1/2-x,-y,1/2+z
x,-y,-z
1/2-x,y,1/2-z
-x,-y,-z
1/2+x,y,1/2-z
-x,y,z
1/2+x,-y,1/2+z
loop_
_atom_site_type_symbol
_atom_site_label
_atom_site_fract_x
_atom_site_fract_y
_atom_site_fract_z
Si Si1 0.189325 0.993962 0.314331
Si Si2 0.313782 0.214164 0.406692
Si Si3 0.815227 0.300460 0.848120
Si Si4 0.312359 0.653217 0.022190
Si Si5 0.684784 0.580943 0.813833
O O1 0.250000 0.044647 0.250000
O O2 0.245739 0.090952 0.367743
O O3 0.000000 0.987526 0.313656
O O4 0.261552 0.845299 0.324829
O O5 0.500000 0.195446 0.416960
O O6 0.226929 0.243955 0.468782
O O7 0.282190 0.346072 0.365744
O O8 0.784536 0.309908 0.918936
O O9 0.711550 0.420615 0.820011
O O10 0.000000 0.323787 0.834448
O O11 0.500000 0.656200 0.036277
O O12 0.274550 0.500000 0.000000
O O13 0.750000 0.625014 0.750000
O O14 0.500000 0.615596 0.820452
#
# Coordination Sequence:
#
# PCOD9419900 Si02
#       5
#     8   8   8   8   8
#     4  12  26  47  70  97 136 178 222 274 334 398
#     4  12  25  43  68  99 133 174 222 274 332 393
#     4  12  25  43  68  99 133 174 222 274 332 393
#     4  11  23  42  69 100 136 175 221 275 332 392
#     4  12  24  41  64  95 130 172 222 274 330 392
#
# _framework density 21.483214
#
# number of rings (size 3 to 8) (size 9 to 14) (size 15 to 20)
#    0.000    0.200    2.000    9.000    0.000    1.600 
#    0.000    4.000    0.000    0.000    0.000    0.000 
#    0.000    0.000    0.000    0.000    0.000    0.000 
#
# Total GULP energy -224184.857671 kJ/mol
# GULP energy per Si atom -5604.621442 kJ/mol
# Density = 2.143432 g / cm^3
# Si number density = 21.483214 Si / 1000 Ang^3
#
#
#
# Elastic Constant Matrix: (Units=GPa)
#
#
# Indices 1 2 3 4 5 6 
#
# 1 96.9043 -7.9283 -5.1445 0.0000 0.0000 0.0000
# 2 -7.9283 62.7848 -5.3112 0.0000 0.0000 0.0000
# 3 -5.1445 -5.3112 73.5094 0.0000 0.0000 0.0000
# 4 0.0000 0.0000 0.0000 33.9601 0.0000 0.0000
# 5 0.0000 0.0000 0.0000 0.0000 28.2897 0.0000
# 6 0.0000 0.0000 0.0000 0.0000 0.0000 34.7727
#
#
#
# Elastic Compliance Matrix: (Units=1/GPa)
#
#
# Indices 1 2 3 4 5 6 
#
# 1 0.010478 0.001394 0.000834 0.000000 0.000000 0.000000
# 2 0.001394 0.016211 0.001269 0.000000 0.000000 0.000000
# 3 0.000834 0.001269 0.013754 0.000000 0.000000 0.000000
# 4 0.000000 0.000000 0.000000 0.029446 0.000000 0.000000
# 5 0.000000 0.000000 0.000000 0.000000 0.035349 0.000000
# 6 0.000000 0.000000 0.000000 0.000000 0.000000 0.028758
#
#
# Mechanical properties :
#
#
# Convention : Reuss Voigt Hill
#
# Bulk Modulus (GPa) = 21.08146 21.82563 21.45355
# Shear Modulus (GPa) = 35.01051 36.17664 35.59357
#
# Velocity S-wave (km/s) = 4.04129 4.10805 4.07481
# Velocity P-wave (km/s) = 5.62231 5.71689 5.66980
#
# Compressibility (1/GPa) = 0.04743504
#
# Stress axis : x y z
#
# Youngs Moduli (GPa) = 95.44034 61.68746 72.70746
#
# Poissons Ratio (x) = -0.08597 -0.06064
# Poissons Ratio (y) = -0.13301 -0.09225
# Poissons Ratio (z) = -0.07959 -0.07827
#
# Static dielectric constant tensor:
#      x y z
#    x 1.711420 0.000000 0.000000 
#    y 0.000000 1.767260 0.000000 
#    z 0.000000 0.000000 1.764380 
# 
# From -- ./inp_files/33649.got.cif
#   From: 2010.05.17/outbox.cif.g08.bks.cpg/sg53_17_cif.got.tgz:33649.got - 2010.06.03 12:45:16.
