data_PCOD9419367
_publ_section_title
;
Structure prediction by ZEFSAII (Michael W. Deem and Ramdas Pophale) SiO2 
 PCOD9419367
Probable space group: P M N A
;
_chemical_formula_sum "Si O2"
_cell_formula_units_Z 20
_cell_length_a 15.366910
_cell_length_b 11.292577
_cell_length_c 5.136089
_cell_angle_alpha 90.000000
_cell_angle_beta 90.000000
_cell_angle_gamma 90.000000
_cell_volume 891.275870
_symmetry_space_group_name_H-M "P M N A"
_symmetry_group_IT_number 53
_symmetry_cell_setting 'orthorhombic'
loop_
_space_group_symop_operation_xyz
x,y,z
1/2-x,-y,1/2+z
x,-y,-z
1/2-x,y,1/2-z
-x,-y,-z
1/2+x,y,1/2-z
-x,y,z
1/2+x,-y,1/2+z
loop_
_atom_site_type_symbol
_atom_site_label
_atom_site_fract_x
_atom_site_fract_y
_atom_site_fract_z
Si Si1 0.750000 0.582246 0.750000
Si Si2 0.843524 0.256858 0.602243
Si Si3 0.500000 0.415568 0.745431
Si Si4 0.688118 0.000000 0.000000
O O1 0.732509 0.500000 0.500000
O O2 0.826766 0.669255 0.661790
O O3 0.750000 0.255912 0.750000
O O4 0.916538 0.330092 0.748556
O O5 0.864628 0.120191 0.549821
O O6 0.500000 0.500000 0.500000
O O7 0.500000 0.500000 0.000000
O O8 0.750000 0.977955 0.750000
#
# Coordination Sequence:
#
# PCOD9419367 Si02
#       4
#     4   8   4   4
#     4  12  24  38  72 100 134 190 226 278 366 412
#     4  11  26  47  73 101 145 184 240 294 359 418
#     4  12  32  43  68 111 144 188 243 288 351 438
#     4  10  22  43  74 103 132 186 244 287 352 427
#
# _framework density 22.439738999999999
#
# number of rings (size 3 to 8) (size 9 to 14) (size 15 to 20)
#    0.000    0.800    4.000    1.200   11.200    0.800 
#    0.000    0.000    0.000    8.400    0.000    0.000 
#    0.000    0.000    0.000    0.000    0.000    0.000 
#
# Total GULP energy -111946.998579 kJ/mol
# GULP energy per Si atom -5597.349929 kJ/mol
# Density = 2.238867 g / cm^3
# Si number density = 22.439739 Si / 1000 Ang^3
#
#
#
# Elastic Constant Matrix: (Units=GPa)
#
#
# Indices 1 2 3 4 5 6 
#
# 1 116.6172 79.3816 39.8613 0.0000 0.0000 0.0000
# 2 79.3816 265.5264 75.7220 0.0000 0.0000 0.0000
# 3 39.8613 75.7220 154.6822 0.0000 0.0000 0.0000
# 4 0.0000 0.0000 0.0000 32.2068 0.0000 0.0000
# 5 0.0000 0.0000 0.0000 0.0000 21.6492 0.0000
# 6 0.0000 0.0000 0.0000 0.0000 0.0000 -27.5838
#
#
#
# Elastic Compliance Matrix: (Units=1/GPa)
#
#
# Indices 1 2 3 4 5 6 
#
# 1 0.011031 -0.002891 -0.001428 0.000000 0.000000 0.000000
# 2 -0.002891 0.005135 -0.001769 0.000000 0.000000 0.000000
# 3 -0.001428 -0.001769 0.007699 0.000000 0.000000 0.000000
# 4 0.000000 0.000000 0.000000 0.031049 0.000000 0.000000
# 5 0.000000 0.000000 0.000000 0.000000 0.046191 0.000000
# 6 0.000000 0.000000 0.000000 0.000000 0.000000 -0.036253
#
#
# Mechanical properties :
#
#
# Convention : Reuss Voigt Hill
#
# Bulk Modulus (GPa) = 85.54145 102.97285 94.25715
# Shear Modulus (GPa) = 61.78819 28.04516 44.91667
#
# Velocity S-wave (km/s) = 5.25309 3.53908 4.47884
# Velocity P-wave (km/s) = 8.66005 7.91760 8.29714
#
# Compressibility (1/GPa) = 0.01169024
#
# Stress axis : x y z
#
# Youngs Moduli (GPa) = 90.65638 194.75448 129.89427
#
# Poissons Ratio (x) = 0.56296 0.18543
# Poissons Ratio (y) = 0.26205 0.22974
# Poissons Ratio (z) = 0.12941 0.34446
#
# Static dielectric constant tensor:
#      x y z
#    x 1.855180 0.000000 0.000000 
#    y 0.000000 1.847170 0.000000 
#    z 0.000000 0.000000 1.774090 
# 
# From -- ./inp_files/1028.got.cif
#   From: 2010.05.17/outbox.cif.g08.bks.cpg/sg53_1_cif.got.tgz:1028.got - 2010.06.03 12:45:16.
