data_PCOD9419471
_publ_section_title
;
Structure prediction by ZEFSAII (Michael W. Deem and Ramdas Pophale) SiO2 
 PCOD9419471
Probable space group: P M N A
;
_chemical_formula_sum "Si O2"
_cell_formula_units_Z 64
_cell_length_a 31.597766
_cell_length_b 12.143904
_cell_length_c 8.698311
_cell_angle_alpha 90.000000
_cell_angle_beta 90.000000
_cell_angle_gamma 90.000000
_cell_volume 3337.717958
_symmetry_space_group_name_H-M "P M N A"
_symmetry_group_IT_number 53
_symmetry_cell_setting 'orthorhombic'
loop_
_space_group_symop_operation_xyz
x,y,z
1/2-x,-y,1/2+z
x,-y,-z
1/2-x,y,1/2-z
-x,-y,-z
1/2+x,y,1/2-z
-x,y,z
1/2+x,-y,1/2+z
loop_
_atom_site_type_symbol
_atom_site_label
_atom_site_fract_x
_atom_site_fract_y
_atom_site_fract_z
Si Si1 0.048152 0.725260 0.816821
Si Si2 0.705656 0.267920 0.184344
Si Si3 0.877191 0.871849 0.314633
Si Si4 0.122809 0.871849 0.685367
Si Si5 0.205656 0.267919 0.684344
Si Si6 0.417880 0.500000 0.817076
Si Si7 0.548152 0.725260 0.316821
Si Si8 0.823228 0.500000 0.816499
O O1 0.082731 0.812112 0.759930
O O2 0.057870 0.609356 0.735257
O O3 0.000000 0.759954 0.782937
O O4 0.052186 0.709853 0.000000
O O5 0.750000 0.225455 0.250000
O O6 0.665642 0.192658 0.228948
O O7 0.697702 0.389949 0.249674
O O8 0.707568 0.272757 1.000000
O O9 0.881084 0.864014 0.500000
O O10 0.834358 0.807342 0.271052
O O11 0.917269 0.812112 0.240070
O O12 0.874902 0.000000 0.272568
O O13 0.250000 0.225455 0.750000
O O14 0.197702 0.389949 0.749674
O O15 0.442130 0.390644 0.764743
O O16 0.372080 0.500000 0.736488
O O17 0.411803 0.500000 0.000000
O O18 0.500000 0.759954 0.282937
O O19 0.820272 0.500000 0.000000
#
# Coordination Sequence:
#
# PCOD9419471 Si02
#       8
#     8   8   8   8   8   8   8   8
#     4  11  24  41  63  93 127 163 205 254 308 367
#     4  11  23  40  63  92 126 163 206 254 307 367
#     4  10  23  43  65  89 121 164 213 260 306 362
#     4  10  23  43  65  89 121 164 213 260 306 362
#     4  11  23  40  63  92 126 163 206 254 307 367
#     4  12  23  38  63  94 126 163 202 248 308 374
#     4  11  24  41  63  93 127 163 205 254 308 367
#     4  12  23  38  63  93 127 162 201 250 308 370
#
# _framework density 19.174776000000001
#
# number of rings (size 3 to 8) (size 9 to 14) (size 15 to 20)
#    0.000    1.000    2.500    4.500    0.000    6.000 
#    0.000    2.500    0.000    0.000    0.000    0.000 
#    0.000    0.000    0.000    0.000    0.000    0.000 
#
# Total GULP energy -358072.724944 kJ/mol
# GULP energy per Si atom -5594.886327 kJ/mol
# Density = 1.913113 g / cm^3
# Si number density = 19.174776 Si / 1000 Ang^3
#
#
#
# Elastic Constant Matrix: (Units=GPa)
#
#
# Indices 1 2 3 4 5 6 
#
# 1 165.4372 66.3653 53.4132 0.0000 0.0000 0.0000
# 2 66.3653 133.8178 45.1859 0.0000 0.0000 0.0000
# 3 53.4132 45.1859 69.7980 0.0000 0.0000 0.0000
# 4 0.0000 0.0000 0.0000 14.4609 0.0000 0.0000
# 5 0.0000 0.0000 0.0000 0.0000 37.1109 0.0000
# 6 0.0000 0.0000 0.0000 0.0000 0.0000 -7.0159
#
#
#
# Elastic Compliance Matrix: (Units=1/GPa)
#
#
# Indices 1 2 3 4 5 6 
#
# 1 0.008703 -0.002646 -0.004947 0.000000 0.000000 0.000000
# 2 -0.002646 0.010368 -0.004687 0.000000 0.000000 0.000000
# 3 -0.004947 -0.004687 0.021148 0.000000 0.000000 0.000000
# 4 0.000000 0.000000 0.000000 0.069152 0.000000 0.000000
# 5 0.000000 0.000000 0.000000 0.000000 0.026946 0.000000
# 6 0.000000 0.000000 0.000000 0.000000 0.000000 -0.142534
#
#
# Mechanical properties :
#
#
# Convention : Reuss Voigt Hill
#
# Bulk Modulus (GPa) = 63.86602 77.66463 70.76533
# Shear Modulus (GPa) = 212.19630 22.51708 117.35669
#
# Velocity S-wave (km/s) = 10.53112 3.43053 7.83177
# Velocity P-wave (km/s) = 13.46300 7.50219 10.89806
#
# Compressibility (1/GPa) = 0.01565778
#
# Stress axis : x y z
#
# Youngs Moduli (GPa) = 114.89982 96.45375 47.28686
#
# Poissons Ratio (x) = 0.25519 0.23395
# Poissons Ratio (y) = 0.30399 0.22164
# Poissons Ratio (z) = 0.56846 0.45210
#
# Static dielectric constant tensor:
#      x y z
#    x 1.666360 0.000000 0.000000 
#    y 0.000000 1.634150 0.000000 
#    z 0.000000 0.000000 1.643560 
# 
# From -- ./inp_files/13249.got.cif
#   From: 2010.05.17/outbox.cif.g08.bks.cpg/sg53_7_cif.got.tgz:13249.got - 2010.06.03 12:45:16.
