data_PCOD9419990
_publ_section_title
;
Structure prediction by ZEFSAII (Michael W. Deem and Ramdas Pophale) SiO2 
 PCOD9419990
Probable space group: P M N A
;
_chemical_formula_sum "Si O2"
_cell_formula_units_Z 36
_cell_length_a 21.166416
_cell_length_b 4.975666
_cell_length_c 16.659372
_cell_angle_alpha 90.000000
_cell_angle_beta 90.000000
_cell_angle_gamma 90.000000
_cell_volume 1754.515355
_symmetry_space_group_name_H-M "P M N A"
_symmetry_group_IT_number 53
_symmetry_cell_setting 'orthorhombic'
loop_
_space_group_symop_operation_xyz
x,y,z
1/2-x,-y,1/2+z
x,-y,-z
1/2-x,y,1/2-z
-x,-y,-z
1/2+x,y,1/2-z
-x,y,z
1/2+x,-y,1/2+z
loop_
_atom_site_type_symbol
_atom_site_label
_atom_site_fract_x
_atom_site_fract_y
_atom_site_fract_z
Si Si1 0.610127 0.226449 0.685257
Si Si2 0.820114 0.907728 0.591704
Si Si3 0.924371 0.728342 0.710652
Si Si4 0.748170 0.584524 0.342778
Si Si5 0.000000 0.748753 0.057770
O O1 0.591267 0.432508 0.756454
O O2 0.677834 0.301656 0.649160
O O3 0.559741 0.254696 0.615461
O O4 0.603331 0.930529 0.722167
O O5 0.794723 0.164954 0.641284
O O6 0.826558 0.000000 0.500000
O O7 0.885004 0.798461 0.630772
O O8 0.769960 0.664624 0.602949
O O9 0.000000 0.762932 0.703024
O O10 0.750000 0.491622 0.250000
O O11 0.000000 0.500000 0.000000
O O12 0.000000 0.000000 0.000000
#
# Coordination Sequence:
#
# PCOD9419990 Si02
#       5
#     8   8   8   8   4
#     4  12  24  42  71  95 127 182 228 269 329 408
#     4  12  26  43  67 105 140 168 219 295 341 386
#     4  12  22  42  70  98 129 178 229 268 330 411
#     4  12  23  44  71  98 131 180 230 270 333 411
#     4  12  26  44  62  98 137 166 217 284 332 378
#
# _framework density 20.518488000000001
#
# number of rings (size 3 to 8) (size 9 to 14) (size 15 to 20)
#    0.000    0.000    6.667    4.000    0.000    3.111 
#    0.000    0.000    0.000    5.333    0.000    0.000 
#    0.000    0.000    0.000    0.000    0.000    0.000 
#
# Total GULP energy -201493.167131 kJ/mol
# GULP energy per Si atom -5597.032420 kJ/mol
# Density = 2.047179 g / cm^3
# Si number density = 20.518488 Si / 1000 Ang^3
#
#
#
# Elastic Constant Matrix: (Units=GPa)
#
#
# Indices 1 2 3 4 5 6 
#
# 1 146.8277 15.5951 45.1137 0.0000 0.0000 0.0000
# 2 15.5951 79.7986 0.9835 0.0000 0.0000 0.0000
# 3 45.1137 0.9835 82.3459 0.0000 0.0000 0.0000
# 4 0.0000 0.0000 0.0000 32.7652 0.0000 0.0000
# 5 0.0000 0.0000 0.0000 0.0000 30.6546 0.0000
# 6 0.0000 0.0000 0.0000 0.0000 0.0000 32.9150
#
#
#
# Elastic Compliance Matrix: (Units=1/GPa)
#
#
# Indices 1 2 3 4 5 6 
#
# 1 0.008384 -0.001582 -0.004574 0.000000 0.000000 0.000000
# 2 -0.001582 0.012832 0.000714 0.000000 0.000000 0.000000
# 3 -0.004574 0.000714 0.014642 0.000000 0.000000 0.000000
# 4 0.000000 0.000000 0.000000 0.030520 0.000000 0.000000
# 5 0.000000 0.000000 0.000000 0.000000 0.032622 0.000000
# 6 0.000000 0.000000 0.000000 0.000000 0.000000 0.030381
#
#
# Mechanical properties :
#
#
# Convention : Reuss Voigt Hill
#
# Bulk Modulus (GPa) = 40.04555 48.03964 44.04259
# Shear Modulus (GPa) = 33.64942 35.75227 34.70085
#
# Velocity S-wave (km/s) = 4.05403 4.17879 4.11688
# Velocity P-wave (km/s) = 6.43993 6.83715 6.64151
#
# Compressibility (1/GPa) = 0.02497156
#
# Stress axis : x y z
#
# Youngs Moduli (GPa) = 119.27065 77.93042 68.29887
#
# Poissons Ratio (x) = 0.12330 0.31243
# Poissons Ratio (y) = 0.18871 -0.04873
# Poissons Ratio (z) = 0.54560 -0.05561
#
# Static dielectric constant tensor:
#      x y z
#    x 1.741110 0.000000 0.000000 
#    y 0.000000 1.710940 0.000000 
#    z 0.000000 0.000000 1.703820 
# 
# From -- ./inp_files/24067.got.cif
#   From: 2010.05.17/outbox.cif.g08.bks.cpg/sg53_13_cif.got.tgz:24067.got - 2010.06.03 12:45:16.
