data_PCOD9419507
_publ_section_title
;
Structure prediction by ZEFSAII (Michael W. Deem and Ramdas Pophale) SiO2 
 PCOD9419507
Probable space group: P M N A
;
_chemical_formula_sum "Si O2"
_cell_formula_units_Z 40
_cell_length_a 8.661068
_cell_length_b 14.688503
_cell_length_c 15.829736
_cell_angle_alpha 90.000000
_cell_angle_beta 90.000000
_cell_angle_gamma 90.000000
_cell_volume 2013.829306
_symmetry_space_group_name_H-M "P M N A"
_symmetry_group_IT_number 53
_symmetry_cell_setting 'orthorhombic'
loop_
_space_group_symop_operation_xyz
x,y,z
1/2-x,-y,1/2+z
x,-y,-z
1/2-x,y,1/2-z
-x,-y,-z
1/2+x,y,1/2-z
-x,y,z
1/2+x,-y,1/2+z
loop_
_atom_site_type_symbol
_atom_site_label
_atom_site_fract_x
_atom_site_fract_y
_atom_site_fract_z
Si Si1 0.315259 0.596569 0.595426
Si Si2 0.315170 0.218723 0.662466
Si Si3 0.315314 0.404435 0.904535
Si Si4 0.314621 0.893495 0.505610
Si Si5 0.816677 0.782804 0.662232
O O1 0.500000 0.594090 0.593112
O O2 0.251363 0.606384 0.499649
O O3 0.249643 0.500618 0.628166
O O4 0.256808 0.683406 0.646424
O O5 0.250000 0.180647 0.750000
O O6 0.500000 0.226182 0.666599
O O7 0.242727 0.318162 0.647498
O O8 0.274544 0.157242 0.581619
O O9 0.500000 0.407284 0.907888
O O10 0.500000 0.884148 0.517548
O O11 0.231946 0.844987 0.583508
O O12 0.277551 0.000000 0.500000
O O13 0.750000 0.819956 0.750000
O O14 0.000000 0.774642 0.666765
#
# Coordination Sequence:
#
# PCOD9419507 Si02
#       5
#     8   8   8   8   8
#     4  11  21  37  61  91 128 170 213 257 312 373
#     4  11  23  40  64  93 129 168 212 261 315 375
#     4  11  21  36  60  92 128 168 214 258 310 373
#     4  10  23  45  70  95 127 166 208 263 325 383
#     4  12  25  42  66  96 130 169 214 264 318 379
#
# _framework density 19.862656000000001
#
# number of rings (size 3 to 8) (size 9 to 14) (size 15 to 20)
#    0.000    1.000    2.000    7.200    0.000    2.800 
#    0.000    6.000    0.000    0.000    0.000    0.000 
#    0.000    0.000    0.000    0.000    0.000    0.000 
#
# Total GULP energy -223858.880174 kJ/mol
# GULP energy per Si atom -5596.472004 kJ/mol
# Density = 1.981745 g / cm^3
# Si number density = 19.862656 Si / 1000 Ang^3
#
#
#
# Elastic Constant Matrix: (Units=GPa)
#
#
# Indices 1 2 3 4 5 6 
#
# 1 159.0052 66.1694 73.3126 0.0000 0.0000 0.0000
# 2 66.1694 109.5228 60.0105 0.0000 0.0000 0.0000
# 3 73.3126 60.0105 136.2312 0.0000 0.0000 0.0000
# 4 0.0000 0.0000 0.0000 -5.5331 0.0000 0.0000
# 5 0.0000 0.0000 0.0000 0.0000 30.3196 0.0000
# 6 0.0000 0.0000 0.0000 0.0000 0.0000 25.5616
#
#
#
# Elastic Compliance Matrix: (Units=1/GPa)
#
#
# Indices 1 2 3 4 5 6 
#
# 1 0.009457 -0.003856 -0.003391 0.000000 0.000000 0.000000
# 2 -0.003856 0.013607 -0.003919 0.000000 0.000000 0.000000
# 3 -0.003391 -0.003919 0.010892 0.000000 0.000000 0.000000
# 4 0.000000 0.000000 0.000000 -0.180731 0.000000 0.000000
# 5 0.000000 0.000000 0.000000 0.000000 0.032982 0.000000
# 6 0.000000 0.000000 0.000000 0.000000 0.000000 0.039121
#
#
# Mechanical properties :
#
#
# Convention : Reuss Voigt Hill
#
# Bulk Modulus (GPa) = 86.02385 89.30491 87.66438
# Shear Modulus (GPa) = -103.16567 23.75406 -39.70580
#
# Velocity S-wave (km/s) = -7.21473 3.46195 -4.47589
# Velocity P-wave (km/s) = 5.09899 7.81274 4.18565
#
# Compressibility (1/GPa) = 0.01162468
#
# Stress axis : x y z
#
# Youngs Moduli (GPa) = 105.74142 73.48951 91.81313
#
# Poissons Ratio (x) = 0.28335 0.31133
# Poissons Ratio (y) = 0.40770 0.35984
# Poissons Ratio (z) = 0.35856 0.28802
#
# Static dielectric constant tensor:
#      x y z
#    x 1.659370 0.000000 0.000000 
#    y 0.000000 1.680200 0.000000 
#    z 0.000000 0.000000 1.729290 
# 
# From -- ./inp_files/19831.got.cif
#   From: 2010.05.17/outbox.cif.g08.bks.cpg/sg53_10_cif.got.tgz:19831.got - 2010.06.03 12:45:16.
