data_PCOD9419180
_publ_section_title
;
Structure prediction by ZEFSAII (Michael W. Deem and Ramdas Pophale) SiO2 
 PCOD9419180
Probable space group: P M N A
;
_chemical_formula_sum "Si O2"
_cell_formula_units_Z 36
_cell_length_a 14.644382
_cell_length_b 15.145576
_cell_length_c 8.358087
_cell_angle_alpha 90.000000
_cell_angle_beta 90.000000
_cell_angle_gamma 90.000000
_cell_volume 1853.803642
_symmetry_space_group_name_H-M "P M N A"
_symmetry_group_IT_number 53
_symmetry_cell_setting 'orthorhombic'
loop_
_space_group_symop_operation_xyz
x,y,z
1/2-x,-y,1/2+z
x,-y,-z
1/2-x,y,1/2-z
-x,-y,-z
1/2+x,y,1/2-z
-x,y,z
1/2+x,-y,1/2+z
loop_
_atom_site_type_symbol
_atom_site_label
_atom_site_fract_x
_atom_site_fract_y
_atom_site_fract_z
Si Si1 0.750000 0.803278 0.750000
Si Si2 0.606356 0.105079 0.012019
Si Si3 0.402965 0.306167 0.421670
Si Si4 0.356975 0.253240 0.774907
Si Si5 0.000000 0.547278 0.773378
Si Si6 0.000000 0.626191 0.417693
O O1 0.817439 0.858890 0.635312
O O2 0.683729 0.740119 0.651019
O O3 0.500000 0.123533 0.056153
O O4 0.624805 0.155441 0.843501
O O5 0.615873 0.000000 0.000000
O O6 0.500000 0.269560 0.356180
O O7 0.400215 0.281151 0.606915
O O8 0.415363 0.409345 0.372065
O O9 0.250000 0.267160 0.750000
O O10 0.408819 0.315543 0.901050
O O11 0.000000 0.586033 0.593835
O O12 0.000000 0.444624 0.728935
#
# Coordination Sequence:
#
# PCOD9419180 Si02
#       6
#     4   8   8   8   4   4
#     4  12  22  38  68  92 126 170 218 270 328 406
#     4  11  25  43  65  95 133 173 221 278 340 404
#     4  10  22  39  63  94 128 169 215 267 325 397
#     4  12  23  40  65  92 125 175 221 269 334 397
#     4   9  23  41  65  96 129 172 216 271 341 391
#     4  11  21  45  64  92 135 168 216 277 330 401
#
# _framework density 19.419533999999999
#
# number of rings (size 3 to 8) (size 9 to 14) (size 15 to 20)
#    0.667    0.444    4.444    2.000    1.556    1.778 
#    2.000    0.000    0.000    5.333    0.000    0.000 
#    0.000    0.000    0.000    0.000    0.000    0.000 
#
# Total GULP energy -200508.948432 kJ/mol
# GULP energy per Si atom -5569.693012 kJ/mol
# Density = 1.937533 g / cm^3
# Si number density = 19.419534 Si / 1000 Ang^3
#
#
#
# Elastic Constant Matrix: (Units=GPa)
#
#
# Indices 1 2 3 4 5 6 
#
# 1 159.2515 45.1760 20.9290 0.0000 0.0000 0.0000
# 2 45.1760 118.3703 42.9397 0.0000 0.0000 0.0000
# 3 20.9290 42.9397 84.7052 0.0000 0.0000 0.0000
# 4 0.0000 0.0000 0.0000 35.5525 0.0000 0.0000
# 5 0.0000 0.0000 0.0000 0.0000 83.0044 0.0000
# 6 0.0000 0.0000 0.0000 0.0000 0.0000 48.3606
#
#
#
# Elastic Compliance Matrix: (Units=1/GPa)
#
#
# Indices 1 2 3 4 5 6 
#
# 1 0.007057 -0.002525 -0.000464 0.000000 0.000000 0.000000
# 2 -0.002525 0.011255 -0.005082 0.000000 0.000000 0.000000
# 3 -0.000464 -0.005082 0.014496 0.000000 0.000000 0.000000
# 4 0.000000 0.000000 0.000000 0.028127 0.000000 0.000000
# 5 0.000000 0.000000 0.000000 0.000000 0.012048 0.000000
# 6 0.000000 0.000000 0.000000 0.000000 0.000000 0.020678
#
#
# Mechanical properties :
#
#
# Convention : Reuss Voigt Hill
#
# Bulk Modulus (GPa) = 59.99701 64.49072 62.24387
# Shear Modulus (GPa) = 43.34361 50.26899 46.80630
#
# Velocity S-wave (km/s) = 4.72949 5.09333 4.91478
# Velocity P-wave (km/s) = 7.79656 8.23836 8.02050
#
# Compressibility (1/GPa) = 0.01666750
#
# Stress axis : x y z
#
# Youngs Moduli (GPa) = 141.71179 88.84824 68.98329
#
# Poissons Ratio (x) = 0.22434 0.03198
# Poissons Ratio (y) = 0.35782 0.35055
# Poissons Ratio (z) = 0.06569 0.45150
#
# Static dielectric constant tensor:
#      x y z
#    x 0.687400 0.000000 0.000000 
#    y 0.000000 1.688560 0.000000 
#    z 0.000000 0.000000 1.714450 
# 
# From -- ./inp_files/8297.got.cif
#   From: 2010.05.17/outbox.cif.g08.bks.cpg/sg53_5_cif.got.tgz:8297.got - 2010.06.03 12:45:16.
