data_PCOD9419730
_publ_section_title
;
Structure prediction by ZEFSAII (Michael W. Deem and Ramdas Pophale) SiO2 
 PCOD9419730
Probable space group: P M N A
;
_chemical_formula_sum "Si O2"
_cell_formula_units_Z 48
_cell_length_a 14.259915
_cell_length_b 27.978729
_cell_length_c 5.010323
_cell_angle_alpha 90.000000
_cell_angle_beta 90.000000
_cell_angle_gamma 90.000000
_cell_volume 1998.990098
_symmetry_space_group_name_H-M "P M N A"
_symmetry_group_IT_number 53
_symmetry_cell_setting 'orthorhombic'
loop_
_space_group_symop_operation_xyz
x,y,z
1/2-x,-y,1/2+z
x,-y,-z
1/2-x,y,1/2-z
-x,-y,-z
1/2+x,y,1/2-z
-x,y,z
1/2+x,-y,1/2+z
loop_
_atom_site_type_symbol
_atom_site_label
_atom_site_fract_x
_atom_site_fract_y
_atom_site_fract_z
Si Si1 0.114094 0.872616 0.975978
Si Si2 0.679949 0.448259 0.501705
Si Si3 0.352572 0.651980 0.366797
Si Si4 0.394354 0.713301 0.864797
Si Si5 0.106795 0.967643 0.261252
Si Si6 0.114527 0.816396 0.472107
O O1 0.148373 0.919340 0.134719
O O2 0.138939 0.828955 0.170077
O O3 0.000000 0.877896 0.964340
O O4 0.143663 0.858228 0.678433
O O5 0.630187 0.500000 0.500000
O O6 0.750000 0.440225 0.250000
O O7 0.616906 0.401242 0.546391
O O8 0.750000 0.453567 0.750000
O O9 0.250000 0.644705 0.250000
O O10 0.347840 0.684840 0.625806
O O11 0.400677 0.680522 0.127657
O O12 0.500000 0.722829 0.765781
O O13 0.351726 0.764447 0.939822
O O14 0.000000 0.955523 0.359505
O O15 0.150141 0.000000 0.500000
O O16 0.099366 0.000000 0.000000
O O17 0.000000 0.815476 0.478665
#
# Coordination Sequence:
#
# PCOD9419730 Si02
#       6
#     8   8   8   8   8   8
#     4   9  15  24  37  53  77 111 157 205 240 285
#     4   9  17  31  53  80 106 134 173 219 260 307
#     4  11  21  36  57  82 108 137 177 221 266 314
#     4  11  22  36  54  77 108 143 180 221 265 313
#     4   9  15  21  30  47  72 104 145 194 244 289
#     4   9  17  28  42  60  83 119 165 205 240 289
#
# _framework density 24.012125999999999
#
# number of rings (size 3 to 8) (size 9 to 14) (size 15 to 20)
#    0.000    2.333    0.000    5.000    0.000    6.667 
#    0.000    0.000    0.000    3.000    0.000    0.000 
#    0.000    0.000    0.000    0.000    0.000  210.000 
#
# Total GULP energy -267972.691403 kJ/mol
# GULP energy per Si atom -5582.764404 kJ/mol
# Density = 2.395747 g / cm^3
# Si number density = 24.012126 Si / 1000 Ang^3
#
#
#
# Elastic Constant Matrix: (Units=GPa)
#
#
# Indices 1 2 3 4 5 6 
#
# 1 41.6030 -14.7965 -16.8490 0.0000 0.0000 0.0000
# 2 -14.7965 127.3070 25.6997 0.0000 0.0000 0.0000
# 3 -16.8490 25.6997 148.0830 0.0000 0.0000 0.0000
# 4 0.0000 0.0000 0.0000 37.0315 0.0000 0.0000
# 5 0.0000 0.0000 0.0000 0.0000 9.2671 0.0000
# 6 0.0000 0.0000 0.0000 0.0000 0.0000 -2.1334
#
#
#
# Elastic Compliance Matrix: (Units=1/GPa)
#
#
# Indices 1 2 3 4 5 6 
#
# 1 0.025948 0.002508 0.002517 0.000000 0.000000 0.000000
# 2 0.002508 0.008383 -0.001169 0.000000 0.000000 0.000000
# 3 0.002517 -0.001169 0.007242 0.000000 0.000000 0.000000
# 4 0.000000 0.000000 0.000000 0.027004 0.000000 0.000000
# 5 0.000000 0.000000 0.000000 0.000000 0.107909 0.000000
# 6 0.000000 0.000000 0.000000 0.000000 0.000000 -0.468742
#
#
# Mechanical properties :
#
#
# Convention : Reuss Voigt Hill
#
# Bulk Modulus (GPa) = 20.29062 33.90017 27.09540
# Shear Modulus (GPa) = -17.63425 30.36228 6.36402
#
# Velocity S-wave (km/s) = -2.71290 3.55978 1.62975
# Velocity P-wave (km/s) = 1.15957 5.57177 3.85357
#
# Compressibility (1/GPa) = 0.04928385
#
# Stress axis : x y z
#
# Youngs Moduli (GPa) = 38.53850 119.29516 138.07700
#
# Poissons Ratio (x) = -0.29916 -0.34756
# Poissons Ratio (y) = -0.09664 0.16148
# Poissons Ratio (z) = -0.09701 0.13951
#
# Static dielectric constant tensor:
#      x y z
#    x 2.002470 0.000000 0.000000 
#    y 0.000000 2.014440 0.000000 
#    z 0.000000 0.000000 1.844620 
# 
# From -- ./inp_files/2231.got.cif
#   From: 2010.05.17/outbox.cif.g08.bks.cpg/sg53_2_cif.got.tgz:2231.got - 2010.06.03 12:45:16.
