data_PCOD9419041
_publ_section_title
;
Structure prediction by ZEFSAII (Michael W. Deem and Ramdas Pophale) SiO2 
 PCOD9419041
Probable space group: P M N A
;
_chemical_formula_sum "Si O2"
_cell_formula_units_Z 48
_cell_length_a 23.765622
_cell_length_b 9.396202
_cell_length_c 10.479384
_cell_angle_alpha 90.000000
_cell_angle_beta 90.000000
_cell_angle_gamma 90.000000
_cell_volume 2340.115454
_symmetry_space_group_name_H-M "P M N A"
_symmetry_group_IT_number 53
_symmetry_cell_setting 'orthorhombic'
loop_
_space_group_symop_operation_xyz
x,y,z
1/2-x,-y,1/2+z
x,-y,-z
1/2-x,y,1/2-z
-x,-y,-z
1/2+x,y,1/2-z
-x,y,z
1/2+x,-y,1/2+z
loop_
_atom_site_type_symbol
_atom_site_label
_atom_site_fract_x
_atom_site_fract_y
_atom_site_fract_z
Si Si1 0.781322 0.733802 0.435538
Si Si2 0.434028 0.074649 0.132281
Si Si3 0.288276 0.099791 0.364202
Si Si4 0.834539 0.417556 0.870381
Si Si5 0.365913 0.862630 0.281800
Si Si6 0.653076 0.327326 0.188437
O O1 0.747177 0.855292 0.513410
O O2 0.731049 0.635374 0.379413
O O3 0.824269 0.802580 0.332504
O O4 0.815505 0.663304 0.552442
O O5 0.500000 0.105741 0.127484
O O6 0.398935 0.218433 0.162483
O O7 0.419034 0.946530 0.228281
O O8 0.415501 0.000000 0.000000
O O9 0.250000 0.040473 0.250000
O O10 0.311985 0.243691 0.298257
O O11 0.336355 0.983491 0.365602
O O12 0.872794 0.277313 0.864709
O O13 0.850638 0.516585 0.749978
O O14 0.845270 0.500000 0.000000
#
# Coordination Sequence:
#
# PCOD9419041 Si02
#       6
#     8   8   8   8   8   8
#     4  11  22  37  59  89 138 173 210 250 310 396
#     4  10  21  46  74  96 118 155 215 290 339 363
#     4   9  19  33  53  85 123 170 208 247 305 371
#     4  12  26  38  55  92 137 182 210 238 309 401
#     4  11  24  37  60  94 127 163 213 266 317 378
#     4  10  22  39  61  94 130 172 213 261 311 380
#
# _framework density 20.511809
#
# number of rings (size 3 to 8) (size 9 to 14) (size 15 to 20)
#    0.000    1.500    3.333    1.500    4.667    4.667 
#    0.000    0.833    0.000    5.000    0.000    0.000 
#    0.000    0.000    0.000    0.000    0.000    0.000 
#
# Total GULP energy -267736.307265 kJ/mol
# GULP energy per Si atom -5577.839735 kJ/mol
# Density = 2.046512 g / cm^3
# Si number density = 20.511809 Si / 1000 Ang^3
#
#
#
# Elastic Constant Matrix: (Units=GPa)
#
#
# Indices 1 2 3 4 5 6 
#
# 1 41.3788 19.0100 5.2647 0.0000 0.0000 0.0000
# 2 19.0100 116.5686 15.3127 0.0000 0.0000 0.0000
# 3 5.2647 15.3127 88.2619 0.0000 0.0000 0.0000
# 4 0.0000 0.0000 0.0000 39.8964 0.0000 0.0000
# 5 0.0000 0.0000 0.0000 0.0000 20.1253 0.0000
# 6 0.0000 0.0000 0.0000 0.0000 0.0000 24.2532
#
#
#
# Elastic Compliance Matrix: (Units=1/GPa)
#
#
# Indices 1 2 3 4 5 6 
#
# 1 0.026185 -0.004160 -0.000840 0.000000 0.000000 0.000000
# 2 -0.004160 0.009440 -0.001390 0.000000 0.000000 0.000000
# 3 -0.000840 -0.001390 0.011621 0.000000 0.000000 0.000000
# 4 0.000000 0.000000 0.000000 0.025065 0.000000 0.000000
# 5 0.000000 0.000000 0.000000 0.000000 0.049689 0.000000
# 6 0.000000 0.000000 0.000000 0.000000 0.000000 0.041232
#
#
# Mechanical properties :
#
#
# Convention : Reuss Voigt Hill
#
# Bulk Modulus (GPa) = 29.01377 36.15380 32.58379
# Shear Modulus (GPa) = 26.66680 30.62977 28.64828
#
# Velocity S-wave (km/s) = 3.60956 3.86848 3.74126
# Velocity P-wave (km/s) = 5.61672 6.13332 5.88070
#
# Compressibility (1/GPa) = 0.03446639
#
# Stress axis : x y z
#
# Youngs Moduli (GPa) = 38.18983 105.93701 86.05034
#
# Poissons Ratio (x) = 0.44069 0.07230
# Poissons Ratio (y) = 0.15887 0.11957
# Poissons Ratio (z) = 0.03209 0.14721
#
# Static dielectric constant tensor:
#      x y z
#    x 1.716410 0.000000 0.000000 
#    y 0.000000 1.801890 0.000000 
#    z 0.000000 0.000000 1.858340 
# 
# From -- ./inp_files/18294.got.cif
#   From: 2010.05.17/outbox.cif.g08.bks.cpg/sg53_10_cif.got.tgz:18294.got - 2010.06.03 12:45:16.
