data_PCOD9419920
_publ_section_title
;
Structure prediction by ZEFSAII (Michael W. Deem and Ramdas Pophale) SiO2 
 PCOD9419920
Probable space group: P M N A
;
_chemical_formula_sum "Si O2"
_cell_formula_units_Z 40
_cell_length_a 9.695242
_cell_length_b 24.401645
_cell_length_c 8.724454
_cell_angle_alpha 90.000000
_cell_angle_beta 90.000000
_cell_angle_gamma 90.000000
_cell_volume 2064.030049
_symmetry_space_group_name_H-M "P M N A"
_symmetry_group_IT_number 53
_symmetry_cell_setting 'orthorhombic'
loop_
_space_group_symop_operation_xyz
x,y,z
1/2-x,-y,1/2+z
x,-y,-z
1/2-x,y,1/2-z
-x,-y,-z
1/2+x,y,1/2-z
-x,y,z
1/2+x,-y,1/2+z
loop_
_atom_site_type_symbol
_atom_site_label
_atom_site_fract_x
_atom_site_fract_y
_atom_site_fract_z
Si Si1 0.500000 0.560516 0.432463
Si Si2 0.252608 0.369759 0.433507
Si Si3 0.337226 0.056351 0.904968
Si Si4 0.338164 0.259283 0.595632
Si Si5 0.836068 0.853551 0.906328
Si Si6 0.000000 0.562037 0.435111
O O1 0.500000 0.500000 0.500000
O O2 0.374195 0.593843 0.500127
O O3 0.500000 0.559234 0.248777
O O4 0.250000 0.368904 0.250000
O O5 0.273206 0.308748 0.497975
O O6 0.124692 0.402112 0.501922
O O7 0.250000 0.048013 0.750000
O O8 0.500000 0.071869 0.878805
O O9 0.249846 0.101269 0.998933
O O10 0.338547 0.000000 0.000000
O O11 0.250000 0.253651 0.750000
O O12 0.500000 0.271626 0.628234
O O13 0.333464 0.203054 0.500617
O O14 0.750000 0.846581 0.750000
O O15 0.000000 0.867904 0.882470
O O16 0.000000 0.500000 0.500000
#
# Coordination Sequence:
#
# PCOD9419920 Si02
#       6
#     4   8   8   8   8   4
#     4  12  24  44  68  94 132 168 215 268 323 398
#     4  12  25  44  66  96 131 169 217 269 329 395
#     4  11  24  42  66  98 136 179 228 281 341 404
#     4  11  25  44  67  97 132 172 219 272 330 396
#     4  11  24  43  67  98 136 177 226 279 337 401
#     4  12  26  44  68  98 128 172 215 266 333 392
#
# _framework density 19.379562
#
# number of rings (size 3 to 8) (size 9 to 14) (size 15 to 20)
#    0.000    0.600    1.000    7.200    1.400    6.400 
#    0.000    0.000    0.000    0.000    0.000    0.000 
#    0.000    0.000    0.000    0.000    0.000    0.000 
#
# Total GULP energy -223592.979233 kJ/mol
# GULP energy per Si atom -5589.824481 kJ/mol
# Density = 1.933545 g / cm^3
# Si number density = 19.379562 Si / 1000 Ang^3
#
#
#
# Elastic Constant Matrix: (Units=GPa)
#
#
# Indices 1 2 3 4 5 6 
#
# 1 219.7899 79.0832 94.8536 0.0000 0.0000 0.0000
# 2 79.0832 133.1856 58.7527 0.0000 0.0000 0.0000
# 3 94.8536 58.7527 199.0168 0.0000 0.0000 0.0000
# 4 0.0000 0.0000 0.0000 42.5489 0.0000 0.0000
# 5 0.0000 0.0000 0.0000 0.0000 33.6299 0.0000
# 6 0.0000 0.0000 0.0000 0.0000 0.0000 36.7329
#
#
#
# Elastic Compliance Matrix: (Units=1/GPa)
#
#
# Indices 1 2 3 4 5 6 
#
# 1 0.006576 -0.002900 -0.002278 0.000000 0.000000 0.000000
# 2 -0.002900 0.009911 -0.001544 0.000000 0.000000 0.000000
# 3 -0.002278 -0.001544 0.006566 0.000000 0.000000 0.000000
# 4 0.000000 0.000000 0.000000 0.023502 0.000000 0.000000
# 5 0.000000 0.000000 0.000000 0.000000 0.029735 0.000000
# 6 0.000000 0.000000 0.000000 0.000000 0.000000 0.027224
#
#
# Mechanical properties :
#
#
# Convention : Reuss Voigt Hill
#
# Bulk Modulus (GPa) = 104.05890 113.04125 108.55008
# Shear Modulus (GPa) = 41.61019 43.86920 42.73970
#
# Velocity S-wave (km/s) = 4.63873 4.76298 4.70126
# Velocity P-wave (km/s) = 9.08307 9.41832 9.25221
#
# Compressibility (1/GPa) = 0.00960994
#
# Stress axis : x y z
#
# Youngs Moduli (GPa) = 152.05696 100.89507 152.29221
#
# Poissons Ratio (x) = 0.29259 0.34697
# Poissons Ratio (y) = 0.44096 0.23511
# Poissons Ratio (z) = 0.34643 0.15576
#
# Static dielectric constant tensor:
#      x y z
#    x 1.638170 0.000000 0.000000 
#    y 0.000000 1.671320 0.000000 
#    z 0.000000 0.000000 1.641690 
# 
# From -- ./inp_files/6352.got.cif
#   From: 2010.05.17/outbox.cif.g08.bks.cpg/sg53_4_cif.got.tgz:6352.got - 2010.06.03 12:45:16.
