data_PCOD9419921
_publ_section_title
;
Structure prediction by ZEFSAII (Michael W. Deem and Ramdas Pophale) SiO2 
 PCOD9419921
Probable space group: P M N A
;
_chemical_formula_sum "Si O2"
_cell_formula_units_Z 24
_cell_length_a 25.336514
_cell_length_b 7.354970
_cell_length_c 7.033442
_cell_angle_alpha 90.000000
_cell_angle_beta 90.000000
_cell_angle_gamma 90.000000
_cell_volume 1310.676996
_symmetry_space_group_name_H-M "P M N A"
_symmetry_group_IT_number 53
_symmetry_cell_setting 'orthorhombic'
loop_
_space_group_symop_operation_xyz
x,y,z
1/2-x,-y,1/2+z
x,-y,-z
1/2-x,y,1/2-z
-x,-y,-z
1/2+x,y,1/2-z
-x,y,z
1/2+x,-y,1/2+z
loop_
_atom_site_type_symbol
_atom_site_label
_atom_site_fract_x
_atom_site_fract_y
_atom_site_fract_z
Si Si1 0.385193 0.000000 0.000000
Si Si2 0.561004 0.647003 0.169296
Si Si3 0.636405 0.500000 0.500000
Si Si4 0.190981 0.852583 0.830974
O O1 0.348173 0.083707 0.163901
O O2 0.420458 0.840668 0.089044
O O3 0.500000 0.653833 0.231552
O O4 0.599162 0.586465 0.338718
O O5 0.565261 0.500000 0.000000
O O6 0.671688 0.659282 0.589535
O O7 0.250000 0.841261 0.750000
O O8 0.189308 0.000000 0.000000
#
# Coordination Sequence:
#
# PCOD9419921 Si02
#       4
#     4   8   4   8
#     4  12  23  44  68  94 132 178 213 268 324 388
#     4  11  24  42  67 100 135 172 216 267 326 386
#     4  12  25  44  68 100 132 172 215 276 320 388
#     4  12  26  43  69  97 133 170 219 271 328 384
#
# _framework density 18.311146000000001
#
# number of rings (size 3 to 8) (size 9 to 14) (size 15 to 20)
#    0.000    0.333    8.333    1.000    0.000    4.000 
#    0.000    1.667    0.000    0.000    0.000    0.000 
#    0.000    0.000    0.000    0.000    0.000    0.000 
#
# Total GULP energy -134282.153040 kJ/mol
# GULP energy per Si atom -5595.089710 kJ/mol
# Density = 1.826947 g / cm^3
# Si number density = 18.311146 Si / 1000 Ang^3
#
#
#
# Elastic Constant Matrix: (Units=GPa)
#
#
# Indices 1 2 3 4 5 6 
#
# 1 68.2170 49.3290 21.2039 0.0000 0.0000 0.0000
# 2 49.3290 161.8988 52.8919 0.0000 0.0000 0.0000
# 3 21.2039 52.8919 86.7996 0.0000 0.0000 0.0000
# 4 0.0000 0.0000 0.0000 45.6091 0.0000 0.0000
# 5 0.0000 0.0000 0.0000 0.0000 15.9780 0.0000
# 6 0.0000 0.0000 0.0000 0.0000 0.0000 23.4886
#
#
#
# Elastic Compliance Matrix: (Units=1/GPa)
#
#
# Indices 1 2 3 4 5 6 
#
# 1 0.018934 -0.005316 -0.001386 0.000000 0.000000 0.000000
# 2 -0.005316 0.009205 -0.004310 0.000000 0.000000 0.000000
# 3 -0.001386 -0.004310 0.014486 0.000000 0.000000 0.000000
# 4 0.000000 0.000000 0.000000 0.021925 0.000000 0.000000
# 5 0.000000 0.000000 0.000000 0.000000 0.062586 0.000000
# 6 0.000000 0.000000 0.000000 0.000000 0.000000 0.042574
#
#
# Mechanical properties :
#
#
# Convention : Reuss Voigt Hill
#
# Bulk Modulus (GPa) = 48.54389 62.64057 55.59223
# Shear Modulus (GPa) = 25.17603 29.91449 27.54526
#
# Velocity S-wave (km/s) = 3.71199 4.04626 3.88272
# Velocity P-wave (km/s) = 6.70373 7.49085 7.10819
#
# Compressibility (1/GPa) = 0.02059992
#
# Stress axis : x y z
#
# Youngs Moduli (GPa) = 52.81453 108.64049 69.03315
#
# Poissons Ratio (x) = 0.57757 0.09567
# Poissons Ratio (y) = 0.28078 0.29755
# Poissons Ratio (z) = 0.07319 0.46827
#
# Static dielectric constant tensor:
#      x y z
#    x 1.589470 0.000000 0.000000 
#    y 0.000000 1.593630 0.000000 
#    z 0.000000 0.000000 1.601100 
# 
# From -- ./inp_files/3286.got.cif
#   From: 2010.05.17/outbox.cif.g08.bks.cpg/sg53_2_cif.got.tgz:3286.got - 2010.06.03 12:45:16.
