data_PCOD9419737
_publ_section_title
;
Structure prediction by ZEFSAII (Michael W. Deem and Ramdas Pophale) SiO2 
 PCOD9419737
Probable space group: P M N A
;
_chemical_formula_sum "Si O2"
_cell_formula_units_Z 32
_cell_length_a 16.219530
_cell_length_b 5.053784
_cell_length_c 17.656027
_cell_angle_alpha 90.000000
_cell_angle_beta 90.000000
_cell_angle_gamma 90.000000
_cell_volume 1447.264554
_symmetry_space_group_name_H-M "P M N A"
_symmetry_group_IT_number 53
_symmetry_cell_setting 'orthorhombic'
loop_
_space_group_symop_operation_xyz
x,y,z
1/2-x,-y,1/2+z
x,-y,-z
1/2-x,y,1/2-z
-x,-y,-z
1/2+x,y,1/2-z
-x,y,z
1/2+x,-y,1/2+z
loop_
_atom_site_type_symbol
_atom_site_label
_atom_site_fract_x
_atom_site_fract_y
_atom_site_fract_z
Si Si1 0.119337 0.254776 0.547733
Si Si2 0.000000 0.374099 0.675515
Si Si3 0.818268 0.073267 0.181770
Si Si4 0.198266 0.426397 0.919647
Si Si5 0.500000 0.119561 0.260907
O O1 0.088067 0.500000 0.500000
O O2 0.216324 0.290364 0.555812
O O3 0.078693 0.273834 0.629173
O O4 0.098880 0.000000 0.500000
O O5 0.000000 0.685946 0.687969
O O6 0.000000 0.196430 0.749779
O O7 0.750000 0.042861 0.250000
O O8 0.785257 0.301053 0.125134
O O9 0.909680 0.176578 0.204634
O O10 0.834652 0.796094 0.138135
O O11 0.154514 0.500000 0.000000
#
# Coordination Sequence:
#
# PCOD9419737 Si02
#       5
#     8   4   8   8   4
#     4  11  21  36  60  93 126 164 206 252 320 399
#     4  12  22  39  58  90 131 166 201 264 321 388
#     4  12  24  44  67  95 129 170 215 270 325 384
#     4  11  23  42  66  93 126 169 217 268 322 381
#     4  12  26  41  63  92 124 168 221 262 319 386
#
# _framework density 22.110679000000001
#
# number of rings (size 3 to 8) (size 9 to 14) (size 15 to 20)
#    0.000    0.500    0.000   11.250    0.000    0.000 
#    0.000    3.750    0.000    0.000    0.000    0.000 
#    0.000    0.000    0.000    0.000    0.000    0.000 
#
# Total GULP energy -178553.525351 kJ/mol
# GULP energy per Si atom -5579.797667 kJ/mol
# Density = 2.206035 g / cm^3
# Si number density = 22.110679 Si / 1000 Ang^3
#
#
#
# Elastic Constant Matrix: (Units=GPa)
#
#
# Indices 1 2 3 4 5 6 
#
# 1 92.7764 4.5967 25.3507 0.0000 0.0000 0.0000
# 2 4.5967 152.5054 49.5884 0.0000 0.0000 0.0000
# 3 25.3507 49.5884 108.0087 0.0000 0.0000 0.0000
# 4 0.0000 0.0000 0.0000 58.3718 0.0000 0.0000
# 5 0.0000 0.0000 0.0000 0.0000 27.8413 0.0000
# 6 0.0000 0.0000 0.0000 0.0000 0.0000 19.0814
#
#
#
# Elastic Compliance Matrix: (Units=1/GPa)
#
#
# Indices 1 2 3 4 5 6 
#
# 1 0.011568 0.000628 -0.003003 0.000000 0.000000 0.000000
# 2 0.000628 0.007742 -0.003702 0.000000 0.000000 0.000000
# 3 -0.003003 -0.003702 0.011663 0.000000 0.000000 0.000000
# 4 0.000000 0.000000 0.000000 0.017132 0.000000 0.000000
# 5 0.000000 0.000000 0.000000 0.000000 0.035918 0.000000
# 6 0.000000 0.000000 0.000000 0.000000 0.000000 0.052407
#
#
# Mechanical properties :
#
#
# Convention : Reuss Voigt Hill
#
# Bulk Modulus (GPa) = 53.13946 56.92912 55.03429
# Shear Modulus (GPa) = 32.28786 39.30920 35.79853
#
# Velocity S-wave (km/s) = 3.82551 4.22102 4.02812
# Velocity P-wave (km/s) = 6.60290 7.03983 6.82486
#
# Compressibility (1/GPa) = 0.01881841
#
# Stress axis : x y z
#
# Youngs Moduli (GPa) = 86.44414 129.16745 85.74120
#
# Poissons Ratio (x) = -0.08111 0.25752
# Poissons Ratio (y) = -0.05428 0.31740
# Poissons Ratio (z) = 0.25963 0.47815
#
# Static dielectric constant tensor:
#      x y z
#    x 1.851580 0.000000 0.000000 
#    y 0.000000 1.811080 0.000000 
#    z 0.000000 0.000000 1.936540 
# 
# From -- ./inp_files/23280.got.cif
#   From: 2010.05.17/outbox.cif.g08.bks.cpg/sg53_12_cif.got.tgz:23280.got - 2010.06.03 12:45:16.
