data_PCOD9419922
_publ_section_title
;
Structure prediction by ZEFSAII (Michael W. Deem and Ramdas Pophale) SiO2 
 PCOD9419922
Probable space group: P M N A
;
_chemical_formula_sum "Si O2"
_cell_formula_units_Z 26
_cell_length_a 7.813172
_cell_length_b 17.548149
_cell_length_c 8.595313
_cell_angle_alpha 90.000000
_cell_angle_beta 90.000000
_cell_angle_gamma 90.000000
_cell_volume 1178.475056
_symmetry_space_group_name_H-M "P M N A"
_symmetry_group_IT_number 53
_symmetry_cell_setting 'orthorhombic'
loop_
_space_group_symop_operation_xyz
x,y,z
1/2-x,-y,1/2+z
x,-y,-z
1/2-x,y,1/2-z
-x,-y,-z
1/2+x,y,1/2-z
-x,y,z
1/2+x,-y,1/2+z
loop_
_atom_site_type_symbol
_atom_site_label
_atom_site_fract_x
_atom_site_fract_y
_atom_site_fract_z
Si Si1 0.803493 0.607323 0.429603
Si Si2 0.301324 0.240715 0.429092
Si Si3 0.500000 0.500000 0.500000
Si Si4 0.204286 0.920259 0.430667
O O1 0.750000 0.594359 0.250000
O O2 0.796389 0.696726 0.469040
O O3 0.654864 0.564232 0.524617
O O4 0.000000 0.581907 0.452607
O O5 0.250000 0.249293 0.250000
O O6 0.500000 0.257294 0.448556
O O7 0.269856 0.154432 0.482196
O O8 0.250000 0.915472 0.250000
O O9 0.000000 0.920167 0.447398
O O10 0.271179 0.000000 0.500000
#
# Coordination Sequence:
#
# PCOD9419922 Si02
#       4
#     8   8   2   8
#     4  12  25  49  74 103 141 185 234 289 351 422
#     4  12  25  45  69 102 140 182 233 286 347 416
#     4  12  26  48  72 112 134 184 230 298 348 430
#     4  11  24  42  67 101 139 184 232 285 343 407
#
# _framework density 22.062408000000001
#
# number of rings (size 3 to 8) (size 9 to 14) (size 15 to 20)
#    0.000    0.308    3.077    6.000    0.000    6.154 
#    5.538    0.000    0.000    0.000    0.000    0.000 
#    0.000    0.000    0.000    0.000    0.000    0.000 
#
# Total GULP energy -145001.427876 kJ/mol
# GULP energy per Si atom -5576.977995 kJ/mol
# Density = 2.201219 g / cm^3
# Si number density = 22.062408 Si / 1000 Ang^3
#
#
#
# Elastic Constant Matrix: (Units=GPa)
#
#
# Indices 1 2 3 4 5 6 
#
# 1 202.0201 48.4600 16.6671 0.0000 0.0000 0.0000
# 2 48.4600 145.1094 1.0062 0.0000 0.0000 0.0000
# 3 16.6671 1.0062 42.0658 0.0000 0.0000 0.0000
# 4 0.0000 0.0000 0.0000 10.8595 0.0000 0.0000
# 5 0.0000 0.0000 0.0000 0.0000 12.4728 0.0000
# 6 0.0000 0.0000 0.0000 0.0000 0.0000 34.2603
#
#
#
# Elastic Compliance Matrix: (Units=1/GPa)
#
#
# Indices 1 2 3 4 5 6 
#
# 1 0.005571 -0.001846 -0.002163 0.000000 0.000000 0.000000
# 2 -0.001846 0.007504 0.000552 0.000000 0.000000 0.000000
# 3 -0.002163 0.000552 0.024616 0.000000 0.000000 0.000000
# 4 0.000000 0.000000 0.000000 0.092086 0.000000 0.000000
# 5 0.000000 0.000000 0.000000 0.000000 0.080174 0.000000
# 6 0.000000 0.000000 0.000000 0.000000 0.000000 0.029188
#
#
# Mechanical properties :
#
#
# Convention : Reuss Voigt Hill
#
# Bulk Modulus (GPa) = 32.49165 57.94021 45.21593
# Shear Modulus (GPa) = 19.50743 33.05598 26.28170
#
# Velocity S-wave (km/s) = 2.97676 3.87498 3.45518
# Velocity P-wave (km/s) = 5.15499 6.80732 6.03795
#
# Compressibility (1/GPa) = 0.03077713
#
# Stress axis : x y z
#
# Youngs Moduli (GPa) = 179.49538 133.26493 40.62370
#
# Poissons Ratio (x) = 0.24594 0.08788
# Poissons Ratio (y) = 0.33126 -0.02241
# Poissons Ratio (z) = 0.38829 -0.07353
#
# Static dielectric constant tensor:
#      x y z
#    x 1.797390 0.000000 0.000000 
#    y 0.000000 1.826220 0.000000 
#    z 0.000000 0.000000 1.778870 
# 
# From -- ./inp_files/5906.got.cif
#   From: 2010.05.17/outbox.cif.g08.bks.cpg/sg53_3_cif.got.tgz:5906.got - 2010.06.03 12:45:16.
