data_PCOD9419871
_publ_section_title
;
Structure prediction by ZEFSAII (Michael W. Deem and Ramdas Pophale) SiO2 
 PCOD9419871
Probable space group: P M N A
;
_chemical_formula_sum "Si O2"
_cell_formula_units_Z 48
_cell_length_a 8.451696
_cell_length_b 32.504292
_cell_length_c 9.217599
_cell_angle_alpha 90.000000
_cell_angle_beta 90.000000
_cell_angle_gamma 90.000000
_cell_volume 2532.225565
_symmetry_space_group_name_H-M "P M N A"
_symmetry_group_IT_number 53
_symmetry_cell_setting 'orthorhombic'
loop_
_space_group_symop_operation_xyz
x,y,z
1/2-x,-y,1/2+z
x,-y,-z
1/2-x,y,1/2-z
-x,-y,-z
1/2+x,y,1/2-z
-x,y,z
1/2+x,-y,1/2+z
loop_
_atom_site_type_symbol
_atom_site_label
_atom_site_fract_x
_atom_site_fract_y
_atom_site_fract_z
Si Si1 0.309995 0.700074 0.413825
Si Si2 0.808406 0.959887 0.915026
Si Si3 0.189974 0.541125 0.085514
Si Si4 0.808521 0.219043 0.084275
Si Si5 0.188485 0.620729 0.585822
Si Si6 0.809110 0.129269 0.083874
O O1 0.250000 0.696665 0.250000
O O2 0.500000 0.699730 0.413417
O O3 0.254674 0.742744 0.487486
O O4 0.250789 0.661761 0.508071
O O5 0.750000 0.962037 0.750000
O O6 0.757692 0.915106 0.977963
O O7 0.000000 0.960617 0.915196
O O8 0.750910 0.000000 0.000000
O O9 0.250000 0.540084 0.250000
O O10 0.000000 0.542566 0.086065
O O11 0.240526 0.500000 0.000000
O O12 0.253258 0.581171 0.003288
O O13 0.750000 0.223459 0.250000
O O14 0.757142 0.173899 0.025681
O O15 0.000000 0.219605 0.087458
O O16 0.250000 0.618651 0.750000
O O17 0.000000 0.621391 0.586925
O O18 0.750000 0.129093 0.250000
O O19 0.000000 0.129299 0.082811
#
# Coordination Sequence:
#
# PCOD9419871 Si02
#       6
#     8   8   8   8   8   8
#     4  11  23  39  57  80 111 146 183 223 273 327
#     4   9  17  29  46  68  95 128 165 207 255 308
#     4  11  24  42  65  93 125 160 197 237 282 330
#     4   9  18  32  53  77 100 130 170 217 264 314
#     4  12  25  42  64  89 118 151 190 234 279 328
#     4   8  14  27  46  68  94 125 164 208 255 307
#
# _framework density 18.955656000000001
#
# number of rings (size 3 to 8) (size 9 to 14) (size 15 to 20)
#    0.000    2.000    0.000    4.000    0.000    5.667 
#    0.000    0.833    0.000    0.000    0.000    0.000 
#    0.000    0.000    0.000    0.000    0.000    0.000 
#
# Total GULP energy -267853.339903 kJ/mol
# GULP energy per Si atom -5580.277915 kJ/mol
# Density = 1.891251 g / cm^3
# Si number density = 18.955656 Si / 1000 Ang^3
#
#
#
# Elastic Constant Matrix: (Units=GPa)
#
#
# Indices 1 2 3 4 5 6 
#
# 1 44.1319 42.6335 26.9756 0.0000 0.0000 0.0000
# 2 42.6335 234.8702 99.7549 0.0000 0.0000 0.0000
# 3 26.9756 99.7549 125.8874 0.0000 0.0000 0.0000
# 4 0.0000 0.0000 0.0000 35.4186 0.0000 0.0000
# 5 0.0000 0.0000 0.0000 0.0000 29.3080 0.0000
# 6 0.0000 0.0000 0.0000 0.0000 0.0000 1989.5537
#
#
#
# Elastic Compliance Matrix: (Units=1/GPa)
#
#
# Indices 1 2 3 4 5 6 
#
# 1 0.028208 -0.003848 -0.002995 0.000000 0.000000 0.000000
# 2 -0.003848 0.006943 -0.004677 0.000000 0.000000 0.000000
# 3 -0.002995 -0.004677 0.012291 0.000000 0.000000 0.000000
# 4 0.000000 0.000000 0.000000 0.028234 0.000000 0.000000
# 5 0.000000 0.000000 0.000000 0.000000 0.034120 0.000000
# 6 0.000000 0.000000 0.000000 0.000000 0.000000 0.000503
#
#
# Mechanical properties :
#
#
# Convention : Reuss Voigt Hill
#
# Bulk Modulus (GPa) = 40.98124 82.62417 61.80271
# Shear Modulus (GPa) = 35.34271 426.55777 230.95024
#
# Velocity S-wave (km/s) = 4.32266 15.01725 11.04996
# Velocity P-wave (km/s) = 6.82498 18.55729 13.98130
#
# Compressibility (1/GPa) = 0.02440141
#
# Stress axis : x y z
#
# Youngs Moduli (GPa) = 35.45152 144.04022 81.35810
#
# Poissons Ratio (x) = 0.55428 0.24368
# Poissons Ratio (y) = 0.13642 0.38049
# Poissons Ratio (z) = 0.10618 0.67364
#
# Static dielectric constant tensor:
#      x y z
#    x 1.639180 0.000000 0.000000 
#    y 0.000000 1.704820 0.000000 
#    z 0.000000 0.000000 1.578790 
# 
# From -- ./inp_files/6576.got.cif
#   From: 2010.05.17/outbox.cif.g08.bks.cpg/sg53_4_cif.got.tgz:6576.got - 2010.06.03 12:45:16.
