data_PCOD9419564
_publ_section_title
;
Structure prediction by ZEFSAII (Michael W. Deem and Ramdas Pophale) SiO2 
 PCOD9419564
Probable space group: P M N A
;
_chemical_formula_sum "Si O2"
_cell_formula_units_Z 20
_cell_length_a 28.543121
_cell_length_b 5.115816
_cell_length_c 5.133329
_cell_angle_alpha 90.000000
_cell_angle_beta 90.000000
_cell_angle_gamma 90.000000
_cell_volume 749.575657
_symmetry_space_group_name_H-M "P M N A"
_symmetry_group_IT_number 53
_symmetry_cell_setting 'orthorhombic'
loop_
_space_group_symop_operation_xyz
x,y,z
1/2-x,-y,1/2+z
x,-y,-z
1/2-x,y,1/2-z
-x,-y,-z
1/2+x,y,1/2-z
-x,y,z
1/2+x,-y,1/2+z
loop_
_atom_site_type_symbol
_atom_site_label
_atom_site_fract_x
_atom_site_fract_y
_atom_site_fract_z
Si Si1 0.124468 0.000000 0.000000
Si Si2 0.195703 0.316308 0.746512
Si Si3 0.445391 0.741179 0.180794
O O1 0.161750 0.068887 0.774563
O O2 0.086816 0.224360 0.932997
O O3 0.187239 0.500000 0.500000
O O4 0.250000 0.232474 0.750000
O O5 0.187952 0.500000 0.000000
O O6 0.500000 0.717495 0.253407
O O7 0.431848 0.500000 0.000000
O O8 0.440258 0.000000 0.000000
#
# Coordination Sequence:
#
# PCOD9419564 Si02
#       3
#     4   8   8
#     4  12  25  38  76 100 146 196 267 306 392 466
#     4  10  25  46  68 102 148 196 256 325 393 463
#     4  10  24  45  70 107 153 195 249 318 388 460
#
# _framework density 26.681763
#
# number of rings (size 3 to 8) (size 9 to 14) (size 15 to 20)
#    0.000    1.600    0.000    1.800   11.200    4.800 
#    0.000    6.000    0.000    0.000    0.000    0.000 
#    0.000    0.000    0.000    0.000    0.000    0.000 
#
# Total GULP energy -111880.432856 kJ/mol
# GULP energy per Si atom -5594.021643 kJ/mol
# Density = 2.662103 g / cm^3
# Si number density = 26.681763 Si / 1000 Ang^3
#
#
#
# Elastic Constant Matrix: (Units=GPa)
#
#
# Indices 1 2 3 4 5 6 
#
# 1 203.8002 63.3136 75.7171 0.0000 0.0000 0.0000
# 2 63.3136 178.6514 80.8039 0.0000 0.0000 0.0000
# 3 75.7171 80.8039 190.3045 0.0000 0.0000 0.0000
# 4 0.0000 0.0000 0.0000 47.5366 0.0000 0.0000
# 5 0.0000 0.0000 0.0000 0.0000 -115.4688 0.0000
# 6 0.0000 0.0000 0.0000 0.0000 0.0000 -24.6647
#
#
#
# Elastic Compliance Matrix: (Units=1/GPa)
#
#
# Indices 1 2 3 4 5 6 
#
# 1 0.005990 -0.001293 -0.001834 0.000000 0.000000 0.000000
# 2 -0.001293 0.007207 -0.002546 0.000000 0.000000 0.000000
# 3 -0.001834 -0.002546 0.007065 0.000000 0.000000 0.000000
# 4 0.000000 0.000000 0.000000 0.021036 0.000000 0.000000
# 5 0.000000 0.000000 0.000000 0.000000 -0.008660 0.000000
# 6 0.000000 0.000000 0.000000 0.000000 0.000000 -0.040544
#
#
# Mechanical properties :
#
#
# Convention : Reuss Voigt Hill
#
# Bulk Modulus (GPa) = 112.15179 112.49169 112.32174
# Shear Modulus (GPa) = 779.65231 5.00871 392.33051
#
# Velocity S-wave (km/s) = 17.11253 1.37160 12.13919
# Velocity P-wave (km/s) = 20.79846 6.69032 15.44889
#
# Compressibility (1/GPa) = 0.00891649
#
# Stress axis : x y z
#
# Youngs Moduli (GPa) = 166.94597 138.74981 141.53517
#
# Poissons Ratio (x) = 0.17944 0.25959
# Poissons Ratio (y) = 0.21590 0.36030
# Poissons Ratio (z) = 0.30620 0.35321
#
# Static dielectric constant tensor:
#      x y z
#    x 2.047230 0.000000 0.000000 
#    y 0.000000 2.142380 0.000000 
#    z 0.000000 0.000000 2.092520 
# 
# From -- ./inp_files/4727.got.cif
#   From: 2010.05.17/outbox.cif.g08.bks.cpg/sg53_3_cif.got.tgz:4727.got - 2010.06.03 12:45:16.
