data_PCOD9419341
_publ_section_title
;
Structure prediction by ZEFSAII (Michael W. Deem and Ramdas Pophale) SiO2 
 PCOD9419341
Probable space group: P M N A
;
_chemical_formula_sum "Si O2"
_cell_formula_units_Z 48
_cell_length_a 28.371918
_cell_length_b 9.408055
_cell_length_c 8.234990
_cell_angle_alpha 90.000000
_cell_angle_beta 90.000000
_cell_angle_gamma 90.000000
_cell_volume 2198.121124
_symmetry_space_group_name_H-M "P M N A"
_symmetry_group_IT_number 53
_symmetry_cell_setting 'orthorhombic'
loop_
_space_group_symop_operation_xyz
x,y,z
1/2-x,-y,1/2+z
x,-y,-z
1/2-x,y,1/2-z
-x,-y,-z
1/2+x,y,1/2-z
-x,y,z
1/2+x,-y,1/2+z
loop_
_atom_site_type_symbol
_atom_site_label
_atom_site_fract_x
_atom_site_fract_y
_atom_site_fract_z
Si Si1 0.381668 0.918852 0.171945
Si Si2 0.554510 0.281885 0.663199
Si Si3 0.114116 0.205932 0.150863
Si Si4 0.195309 0.626737 0.710923
Si Si5 0.697416 0.690078 0.173593
Si Si6 0.054932 0.426417 0.337218
O O1 0.426053 0.812416 0.187339
O O2 0.336113 0.822355 0.209377
O O3 0.386543 0.041761 0.305162
O O4 0.377795 0.000000 0.000000
O O5 0.500000 0.248025 0.627672
O O6 0.588257 0.243173 0.514995
O O7 0.557144 0.448405 0.704366
O O8 0.166191 0.269730 0.173020
O O9 0.084857 0.292504 0.286614
O O10 0.250000 0.626775 0.750000
O O11 0.194183 0.672670 0.522224
O O12 0.178566 0.463563 0.734570
O O13 0.750000 0.707697 0.250000
O O14 0.073189 0.500000 0.500000
O O15 0.000000 0.388636 0.361041
#
# Coordination Sequence:
#
# PCOD9419341 Si02
#       6
#     8   8   8   8   8   8
#     4  12  25  44  65  99 136 187 231 283 356 421
#     4  11  26  46  68  99 138 183 236 293 357 420
#     4  12  24  40  68  97 140 177 227 283 348 422
#     4  10  23  43  70 102 131 176 228 284 345 410
#     4  10  23  45  70  97 137 176 230 285 343 413
#     4  10  22  42  70 100 130 175 231 288 348 412
#
# _framework density 21.836832000000001
#
# number of rings (size 3 to 8) (size 9 to 14) (size 15 to 20)
#    0.000    1.167    1.667    3.500    4.667    4.333 
#    3.000    0.000    0.000    0.000    0.000    0.000 
#    0.000    0.000    0.000    0.000    0.000    0.000 
#
# Total GULP energy -268574.070183 kJ/mol
# GULP energy per Si atom -5595.293129 kJ/mol
# Density = 2.178713 g / cm^3
# Si number density = 21.836832 Si / 1000 Ang^3
#
#
#
# Elastic Constant Matrix: (Units=GPa)
#
#
# Indices 1 2 3 4 5 6 
#
# 1 102.8272 41.3725 25.9124 0.0000 0.0000 0.0000
# 2 41.3725 112.8482 18.4784 0.0000 0.0000 0.0000
# 3 25.9124 18.4784 73.3518 0.0000 0.0000 0.0000
# 4 0.0000 0.0000 0.0000 24.6916 0.0000 0.0000
# 5 0.0000 0.0000 0.0000 0.0000 33.1847 0.0000
# 6 0.0000 0.0000 0.0000 0.0000 0.0000 -29.1151
#
#
#
# Elastic Compliance Matrix: (Units=1/GPa)
#
#
# Indices 1 2 3 4 5 6 
#
# 1 0.012128 -0.003906 -0.003300 0.000000 0.000000 0.000000
# 2 -0.003906 0.010501 -0.001265 0.000000 0.000000 0.000000
# 3 -0.003300 -0.001265 0.015118 0.000000 0.000000 0.000000
# 4 0.000000 0.000000 0.000000 0.040500 0.000000 0.000000
# 5 0.000000 0.000000 0.000000 0.000000 0.030134 0.000000
# 6 0.000000 0.000000 0.000000 0.000000 0.000000 -0.034346
#
#
# Mechanical properties :
#
#
# Convention : Reuss Voigt Hill
#
# Bulk Modulus (GPa) = 48.07054 51.17266 49.62160
# Shear Modulus (GPa) = 51.06599 19.30317 35.18458
#
# Velocity S-wave (km/s) = 4.84108 2.97639 4.01839
# Velocity P-wave (km/s) = 7.30132 5.94112 6.65606
#
# Compressibility (1/GPa) = 0.02080276
#
# Stress axis : x y z
#
# Youngs Moduli (GPa) = 82.45124 95.23162 66.14783
#
# Poissons Ratio (x) = 0.37198 0.21832
# Poissons Ratio (y) = 0.32206 0.08371
# Poissons Ratio (z) = 0.27213 0.12051
#
# Static dielectric constant tensor:
#      x y z
#    x 1.783800 0.000000 0.000000 
#    y 0.000000 1.763210 0.000000 
#    z 0.000000 0.000000 1.850780 
# 
# From -- ./inp_files/13018.got.cif
#   From: 2010.05.17/outbox.cif.g08.bks.cpg/sg53_7_cif.got.tgz:13018.got - 2010.06.03 12:45:16.
