data_PCOD9419862
_publ_section_title
;
Structure prediction by ZEFSAII (Michael W. Deem and Ramdas Pophale) SiO2 
 PCOD9419862
Probable space group: P M N A
;
_chemical_formula_sum "Si O2"
_cell_formula_units_Z 40
_cell_length_a 9.871014
_cell_length_b 17.514777
_cell_length_c 11.018527
_cell_angle_alpha 90.000000
_cell_angle_beta 90.000000
_cell_angle_gamma 90.000000
_cell_volume 1904.977806
_symmetry_space_group_name_H-M "P M N A"
_symmetry_group_IT_number 53
_symmetry_cell_setting 'orthorhombic'
loop_
_space_group_symop_operation_xyz
x,y,z
1/2-x,-y,1/2+z
x,-y,-z
1/2-x,y,1/2-z
-x,-y,-z
1/2+x,y,1/2-z
-x,y,z
1/2+x,-y,1/2+z
loop_
_atom_site_type_symbol
_atom_site_label
_atom_site_fract_x
_atom_site_fract_y
_atom_site_fract_z
Si Si1 0.162745 0.248857 0.636308
Si Si2 0.847930 0.388999 0.891684
Si Si3 0.344684 0.016321 0.138237
Si Si4 0.356563 0.567528 0.664544
Si Si5 0.654171 0.200051 0.138664
O O1 0.250000 0.214598 0.750000
O O2 0.219464 0.335995 0.634446
O O3 0.196688 0.218448 0.500677
O O4 0.000000 0.241332 0.651923
O O5 0.830084 0.477389 0.856047
O O6 0.000000 0.363842 0.848802
O O7 0.857746 0.392711 0.036355
O O8 0.250000 0.989316 0.250000
O O9 0.500000 0.986148 0.148786
O O10 0.350909 0.107990 0.146827
O O11 0.296736 0.000000 0.000000
O O12 0.250000 0.603841 0.750000
O O13 0.500000 0.572271 0.726909
O O14 0.750000 0.224661 0.250000
O O15 0.500000 0.229404 0.154216
#
# Coordination Sequence:
#
# PCOD9419862 Si02
#       5
#     8   8   8   8   8
#     4  11  23  37  54  78 107 140 178 219 265 316
#     4   9  19  35  51  70  98 131 167 210 261 314
#     4   9  18  34  56  82 112 144 179 220 263 309
#     4   9  18  32  50  71  96 126 163 210 262 315
#     4   9  20  38  57  79 109 144 181 220 263 311
#
# _framework density 20.997617999999999
#
# number of rings (size 3 to 8) (size 9 to 14) (size 15 to 20)
#    0.000    2.600    0.000    2.400    0.000    6.800 
#    0.000    6.000    0.000    0.000    0.000    0.000 
#    0.000    0.000    0.000    0.000    0.000    0.000 
#
# Total GULP energy -222749.508289 kJ/mol
# GULP energy per Si atom -5568.737707 kJ/mol
# Density = 2.094983 g / cm^3
# Si number density = 20.997618 Si / 1000 Ang^3
#
#
#
# Elastic Constant Matrix: (Units=GPa)
#
#
# Indices 1 2 3 4 5 6 
#
# 1 114.0925 10.8312 97.0790 0.0000 0.0000 0.0000
# 2 10.8312 28.5791 4.1945 0.0000 0.0000 0.0000
# 3 97.0790 4.1945 182.6893 0.0000 0.0000 0.0000
# 4 0.0000 0.0000 0.0000 -31.3823 0.0000 0.0000
# 5 0.0000 0.0000 0.0000 0.0000 42.1526 0.0000
# 6 0.0000 0.0000 0.0000 0.0000 0.0000 6.6442
#
#
#
# Elastic Compliance Matrix: (Units=1/GPa)
#
#
# Indices 1 2 3 4 5 6 
#
# 1 0.016692 -0.005041 -0.008754 0.000000 0.000000 0.000000
# 2 -0.005041 0.036632 0.001838 0.000000 0.000000 0.000000
# 3 -0.008754 0.001838 0.010084 0.000000 0.000000 0.000000
# 4 0.000000 0.000000 0.000000 -0.031865 0.000000 0.000000
# 5 0.000000 0.000000 0.000000 0.000000 0.023723 0.000000
# 6 0.000000 0.000000 0.000000 0.000000 0.000000 0.150506
#
#
# Mechanical properties :
#
#
# Convention : Reuss Voigt Hill
#
# Bulk Modulus (GPa) = 25.32180 61.06337 43.19258
# Shear Modulus (GPa) = 20.58873 17.69998 19.14435
#
# Velocity S-wave (km/s) = 3.13473 2.90651 3.02278
# Velocity P-wave (km/s) = 5.01873 6.35673 5.72694
#
# Compressibility (1/GPa) = 0.03949167
#
# Stress axis : x y z
#
# Youngs Moduli (GPa) = 59.90776 27.29891 99.17143
#
# Poissons Ratio (x) = 0.13762 0.86818
# Poissons Ratio (y) = 0.30202 -0.18226
# Poissons Ratio (z) = 0.52445 -0.05017
#
# Static dielectric constant tensor:
#      x y z
#    x 1.799440 0.000000 0.000000 
#    y 0.000000 1.774590 0.000000 
#    z 0.000000 0.000000 1.762940 
# 
# From -- ./inp_files/13890.got.cif
#   From: 2010.05.17/outbox.cif.g08.bks.cpg/sg53_7_cif.got.tgz:13890.got - 2010.06.03 12:45:16.
