data_PCOD9419879
_publ_section_title
;
Structure prediction by ZEFSAII (Michael W. Deem and Ramdas Pophale) SiO2 
 PCOD9419879
Probable space group: P M N A
;
_chemical_formula_sum "Si O2"
_cell_formula_units_Z 48
_cell_length_a 8.840249
_cell_length_b 15.034684
_cell_length_c 18.943446
_cell_angle_alpha 90.000000
_cell_angle_beta 90.000000
_cell_angle_gamma 90.000000
_cell_volume 2517.780042
_symmetry_space_group_name_H-M "P M N A"
_symmetry_group_IT_number 53
_symmetry_cell_setting 'orthorhombic'
loop_
_space_group_symop_operation_xyz
x,y,z
1/2-x,-y,1/2+z
x,-y,-z
1/2-x,y,1/2-z
-x,-y,-z
1/2+x,y,1/2-z
-x,y,z
1/2+x,-y,1/2+z
loop_
_atom_site_type_symbol
_atom_site_label
_atom_site_fract_x
_atom_site_fract_y
_atom_site_fract_z
Si Si1 0.319423 0.628716 0.424205
Si Si2 0.179524 0.776219 0.324823
Si Si3 0.319947 0.475803 0.172735
Si Si4 0.678947 0.679866 0.929655
Si Si5 0.319858 0.129217 0.443890
Si Si6 0.180360 0.062917 0.895606
O O1 0.500000 0.628228 0.421826
O O2 0.255285 0.715646 0.384694
O O3 0.252651 0.545783 0.381439
O O4 0.263338 0.634166 0.504470
O O5 0.250000 0.749526 0.250000
O O6 0.225780 0.877372 0.342101
O O7 0.000000 0.764650 0.324667
O O8 0.250000 0.485964 0.250000
O O9 0.500000 0.491222 0.175774
O O10 0.292283 0.378173 0.140083
O O11 0.500000 0.677639 0.944188
O O12 0.733989 0.781191 0.924697
O O13 0.500000 0.144194 0.437249
O O14 0.292749 0.102002 0.525588
O O15 0.280548 0.041351 0.398958
O O16 0.000000 0.071388 0.881790
#
# Coordination Sequence:
#
# PCOD9419879 Si02
#       6
#     8   8   8   8   8   8
#     4  12  24  40  63  90 120 156 200 248 301 362
#     4  12  24  38  58  86 122 162 201 249 305 362
#     4  11  25  44  63  87 121 158 199 248 300 358
#     4  11  23  39  62  93 124 155 200 252 297 351
#     4   9  18  34  60  88 119 154 194 242 293 348
#     4   9  18  35  57  86 119 155 196 242 293 350
#
# _framework density 19.064413999999999
#
# number of rings (size 3 to 8) (size 9 to 14) (size 15 to 20)
#    0.000    1.333    1.667    6.000    0.000    5.333 
#    0.000    2.500    0.000    2.000    0.000    0.000 
#    0.000    0.000    0.000    0.000    0.000    0.000 
#
# Total GULP energy -268367.372803 kJ/mol
# GULP energy per Si atom -5590.986933 kJ/mol
# Density = 1.902102 g / cm^3
# Si number density = 19.064414 Si / 1000 Ang^3
#
#
#
# Elastic Constant Matrix: (Units=GPa)
#
#
# Indices 1 2 3 4 5 6 
#
# 1 87.0322 49.5104 18.7182 0.0000 0.0000 0.0000
# 2 49.5104 112.6874 16.5657 0.0000 0.0000 0.0000
# 3 18.7182 16.5657 34.4307 0.0000 0.0000 0.0000
# 4 0.0000 0.0000 0.0000 25.1986 0.0000 0.0000
# 5 0.0000 0.0000 0.0000 0.0000 36.8798 0.0000
# 6 0.0000 0.0000 0.0000 0.0000 0.0000 -9.0351
#
#
#
# Elastic Compliance Matrix: (Units=1/GPa)
#
#
# Indices 1 2 3 4 5 6 
#
# 1 0.016343 -0.006321 -0.005843 0.000000 0.000000 0.000000
# 2 -0.006321 0.011995 -0.002334 0.000000 0.000000 0.000000
# 3 -0.005843 -0.002334 0.033344 0.000000 0.000000 0.000000
# 4 0.000000 0.000000 0.000000 0.039685 0.000000 0.000000
# 5 0.000000 0.000000 0.000000 0.000000 0.027115 0.000000
# 6 0.000000 0.000000 0.000000 0.000000 0.000000 -0.110679
#
#
# Mechanical properties :
#
#
# Convention : Reuss Voigt Hill
#
# Bulk Modulus (GPa) = 30.59697 44.85987 37.72842
# Shear Modulus (GPa) = 86.66329 20.56573 53.61451
#
# Velocity S-wave (km/s) = 6.74958 3.28800 5.30885
# Velocity P-wave (km/s) = 8.76508 6.16412 7.57703
#
# Compressibility (1/GPa) = 0.03268297
#
# Stress axis : x y z
#
# Youngs Moduli (GPa) = 61.18904 83.37063 29.99066
#
# Poissons Ratio (x) = 0.52702 0.17524
# Poissons Ratio (y) = 0.38680 0.07001
# Poissons Ratio (z) = 0.35755 0.19462
#
# Static dielectric constant tensor:
#      x y z
#    x 1.633050 0.000000 0.000000 
#    y 0.000000 1.683490 0.000000 
#    z 0.000000 0.000000 1.582120 
# 
# From -- ./inp_files/26277.got.cif
#   From: 2010.05.17/outbox.cif.g08.bks.cpg/sg53_14_cif.got.tgz:26277.got - 2010.06.03 12:45:16.
