data_PCOD9419331
_publ_section_title
;
Structure prediction by ZEFSAII (Michael W. Deem and Ramdas Pophale) SiO2 
 PCOD9419331
Probable space group: P M N A
;
_chemical_formula_sum "Si O2"
_cell_formula_units_Z 40
_cell_length_a 25.103265
_cell_length_b 9.387652
_cell_length_c 7.272848
_cell_angle_alpha 90.000000
_cell_angle_beta 90.000000
_cell_angle_gamma 90.000000
_cell_volume 1713.924566
_symmetry_space_group_name_H-M "P M N A"
_symmetry_group_IT_number 53
_symmetry_cell_setting 'orthorhombic'
loop_
_space_group_symop_operation_xyz
x,y,z
1/2-x,-y,1/2+z
x,-y,-z
1/2-x,y,1/2-z
-x,-y,-z
1/2+x,y,1/2-z
-x,y,z
1/2+x,-y,1/2+z
loop_
_atom_site_type_symbol
_atom_site_label
_atom_site_fract_x
_atom_site_fract_y
_atom_site_fract_z
Si Si1 0.380051 0.301578 0.768744
Si Si2 0.690812 0.550973 0.703583
Si Si3 0.500000 0.316303 0.192203
Si Si4 0.904715 0.127400 0.376746
Si Si5 0.175454 0.140777 0.069583
Si Si6 0.500000 0.632470 0.247960
O O1 0.355328 0.459738 0.802122
O O2 0.347346 0.218165 0.612364
O O3 0.441860 0.307150 0.701856
O O4 0.377189 0.222238 0.964693
O O5 0.679602 0.500000 0.500000
O O6 0.750000 0.497559 0.750000
O O7 0.693506 0.722242 0.691440
O O8 0.551749 0.223171 0.223695
O O9 0.500000 0.465423 0.293046
O O10 0.500000 0.348421 0.973839
O O11 0.867223 0.075195 0.213048
O O12 0.928790 0.000000 0.500000
O O13 0.207718 0.000000 0.000000
#
# Coordination Sequence:
#
# PCOD9419331 Si02
#       6
#     8   8   4   8   8   4
#     4  10  22  42  66  97 129 166 220 268 325 387
#     4  10  24  44  69  98 126 163 219 279 322 388
#     4   9  19  33  55  93 124 167 225 259 307 387
#     4  11  21  37  63  88 131 176 209 263 324 378
#     4  11  23  42  62  94 132 167 214 266 320 393
#     4   9  18  37  63  92 129 167 207 276 324 379
#
# _framework density 23.338249999999999
#
# number of rings (size 3 to 8) (size 9 to 14) (size 15 to 20)
#    0.000    1.800    2.000    1.500    2.800    2.400 
#    0.000   11.500    0.000    0.000    0.000    0.000 
#    0.000    0.000    0.000    0.000    0.000    0.000 
#
# Total GULP energy -222791.042706 kJ/mol
# GULP energy per Si atom -5569.776068 kJ/mol
# Density = 2.328513 g / cm^3
# Si number density = 23.338250 Si / 1000 Ang^3
#
#
#
# Elastic Constant Matrix: (Units=GPa)
#
#
# Indices 1 2 3 4 5 6 
#
# 1 37.7340 13.9700 5.3699 0.0000 0.0000 0.0000
# 2 13.9700 134.8050 16.4423 0.0000 0.0000 0.0000
# 3 5.3699 16.4423 85.0259 0.0000 0.0000 0.0000
# 4 0.0000 0.0000 0.0000 43.0952 0.0000 0.0000
# 5 0.0000 0.0000 0.0000 0.0000 4.1951 0.0000
# 6 0.0000 0.0000 0.0000 0.0000 0.0000 9.0502
#
#
#
# Elastic Compliance Matrix: (Units=1/GPa)
#
#
# Indices 1 2 3 4 5 6 
#
# 1 0.027682 -0.002720 -0.001222 0.000000 0.000000 0.000000
# 2 -0.002720 0.007865 -0.001349 0.000000 0.000000 0.000000
# 3 -0.001222 -0.001349 0.012099 0.000000 0.000000 0.000000
# 4 0.000000 0.000000 0.000000 0.023204 0.000000 0.000000
# 5 0.000000 0.000000 0.000000 0.000000 0.238373 0.000000
# 6 0.000000 0.000000 0.000000 0.000000 0.000000 0.110494
#
#
# Mechanical properties :
#
#
# Convention : Reuss Voigt Hill
#
# Bulk Modulus (GPa) = 26.98057 36.56991 31.77524
# Shear Modulus (GPa) = 11.29549 26.05362 18.67455
#
# Velocity S-wave (km/s) = 2.20237 3.34480 2.83180
# Velocity P-wave (km/s) = 4.24888 5.53358 4.93323
#
# Compressibility (1/GPa) = 0.03706370
#
# Stress axis : x y z
#
# Youngs Moduli (GPa) = 36.12436 127.15345 82.65007
#
# Poissons Ratio (x) = 0.34581 0.10103
# Poissons Ratio (y) = 0.09825 0.11150
# Poissons Ratio (z) = 0.04416 0.17154
#
# Static dielectric constant tensor:
#      x y z
#    x 1.869030 0.000000 0.000000 
#    y 0.000000 2.025940 0.000000 
#    z 0.000000 0.000000 1.865750 
# 
# From -- ./inp_files/12359.got.cif
#   From: 2010.05.17/outbox.cif.g08.bks.cpg/sg53_7_cif.got.tgz:12359.got - 2010.06.03 12:45:16.
