data_PCOD9419947
_publ_section_title
;
Structure prediction by ZEFSAII (Michael W. Deem and Ramdas Pophale) SiO2 
 PCOD9419947
Probable space group: P M N A
;
_chemical_formula_sum "Si O2"
_cell_formula_units_Z 28
_cell_length_a 23.966025
_cell_length_b 4.722525
_cell_length_c 9.031556
_cell_angle_alpha 90.000000
_cell_angle_beta 90.000000
_cell_angle_gamma 90.000000
_cell_volume 1022.192883
_symmetry_space_group_name_H-M "P M N A"
_symmetry_group_IT_number 53
_symmetry_cell_setting 'orthorhombic'
loop_
_space_group_symop_operation_xyz
x,y,z
1/2-x,-y,1/2+z
x,-y,-z
1/2-x,y,1/2-z
-x,-y,-z
1/2+x,y,1/2-z
-x,y,z
1/2+x,-y,1/2+z
loop_
_atom_site_type_symbol
_atom_site_label
_atom_site_fract_x
_atom_site_fract_y
_atom_site_fract_z
Si Si1 0.750000 0.653299 0.750000
Si Si2 0.500000 0.715001 0.320690
Si Si3 0.096398 0.000000 0.000000
Si Si4 0.318690 0.000000 0.000000
Si Si5 0.398569 0.500000 0.000000
Si Si6 0.824595 0.500000 0.000000
Si Si7 0.000000 0.216398 0.334667
O O1 0.716335 0.849711 0.868237
O O2 0.786446 0.452545 0.857034
O O3 0.555963 0.841488 0.387073
O O4 0.500000 0.378503 0.325411
O O5 0.500000 0.878635 0.161571
O O6 0.137341 0.756972 0.945659
O O7 0.358527 0.252877 0.938848
O O8 0.441738 0.339510 0.107543
#
# Coordination Sequence:
#
# PCOD9419947 Si02
#       7
#     4   4   4   4   4   4   4
#     4  12  32  56  80 120 160 212 288 334 396 474
#     4  11  24  45  74 115 151 194 254 317 384 503
#     4  11  27  46  77 114 151 204 255 319 408 466
#     4  12  29  53  83 112 159 211 263 338 394 468
#     4  11  27  46  77 114 151 204 255 319 408 466
#     4  12  29  53  83 112 159 211 263 338 394 468
#     4  11  24  45  74 115 151 194 254 317 384 503
#
# _framework density 27.392088000000001
#
# number of rings (size 3 to 8) (size 9 to 14) (size 15 to 20)
#    0.000    0.571    0.000    5.143   12.000   12.571 
#    0.000    0.000    0.000    0.000    0.000    0.000 
#    0.000    0.000    0.000    0.000    0.000    0.000 
#
# Total GULP energy -156842.969672 kJ/mol
# GULP energy per Si atom -5601.534631 kJ/mol
# Density = 2.732974 g / cm^3
# Si number density = 27.392088 Si / 1000 Ang^3
#
#
#
# Elastic Constant Matrix: (Units=GPa)
#
#
# Indices 1 2 3 4 5 6 
#
# 1 132.7767 33.4926 56.9629 0.0000 0.0000 0.0000
# 2 33.4926 128.1519 12.9240 0.0000 0.0000 0.0000
# 3 56.9629 12.9240 102.6514 0.0000 0.0000 0.0000
# 4 0.0000 0.0000 0.0000 55.0159 0.0000 0.0000
# 5 0.0000 0.0000 0.0000 0.0000 15.0499 0.0000
# 6 0.0000 0.0000 0.0000 0.0000 0.0000 84.8166
#
#
#
# Elastic Compliance Matrix: (Units=1/GPa)
#
#
# Indices 1 2 3 4 5 6 
#
# 1 0.010450 -0.002174 -0.005525 0.000000 0.000000 0.000000
# 2 -0.002174 0.008356 0.000154 0.000000 0.000000 0.000000
# 3 -0.005525 0.000154 0.012788 0.000000 0.000000 0.000000
# 4 0.000000 0.000000 0.000000 0.018177 0.000000 0.000000
# 5 0.000000 0.000000 0.000000 0.000000 0.066446 0.000000
# 6 0.000000 0.000000 0.000000 0.000000 0.000000 0.011790
#
#
# Mechanical properties :
#
#
# Convention : Reuss Voigt Hill
#
# Bulk Modulus (GPa) = 60.58912 63.37101 61.98006
# Shear Modulus (GPa) = 33.64779 48.32318 40.98548
#
# Velocity S-wave (km/s) = 3.50862 4.20471 3.87234
# Velocity P-wave (km/s) = 6.21137 6.83797 6.53219
#
# Compressibility (1/GPa) = 0.01650461
#
# Stress axis : x y z
#
# Youngs Moduli (GPa) = 95.69155 119.67684 78.19609
#
# Poissons Ratio (x) = 0.26017 0.43206
# Poissons Ratio (y) = 0.20803 -0.01207
# Poissons Ratio (z) = 0.52873 -0.01847
#
# Static dielectric constant tensor:
#      x y z
#    x 2.112220 0.000000 0.000000 
#    y 0.000000 2.096470 0.000000 
#    z 0.000000 0.000000 2.333580 
# 
# From -- ./inp_files/17379.got.cif
#   From: 2010.05.17/outbox.cif.g08.bks.cpg/sg53_9_cif.got.tgz:17379.got - 2010.06.03 12:45:16.
