data_PCOD9419959
_publ_section_title
;
Structure prediction by ZEFSAII (Michael W. Deem and Ramdas Pophale) SiO2 
 PCOD9419959
Probable space group: P M N A
;
_chemical_formula_sum "Si O2"
_cell_formula_units_Z 36
_cell_length_a 11.097863
_cell_length_b 20.372625
_cell_length_c 6.562913
_cell_angle_alpha 90.000000
_cell_angle_beta 90.000000
_cell_angle_gamma 90.000000
_cell_volume 1483.826072
_symmetry_space_group_name_H-M "P M N A"
_symmetry_group_IT_number 53
_symmetry_cell_setting 'orthorhombic'
loop_
_space_group_symop_operation_xyz
x,y,z
1/2-x,-y,1/2+z
x,-y,-z
1/2-x,y,1/2-z
-x,-y,-z
1/2+x,y,1/2-z
-x,y,z
1/2+x,-y,1/2+z
loop_
_atom_site_type_symbol
_atom_site_label
_atom_site_fract_x
_atom_site_fract_y
_atom_site_fract_z
Si Si1 0.750000 0.168072 0.250000
Si Si2 0.870622 0.628427 0.635980
Si Si3 0.625592 0.520463 0.263807
Si Si4 0.864841 0.751904 0.391832
Si Si5 0.140213 0.926034 0.086372
O O1 0.835649 0.211686 0.395123
O O2 0.670820 0.123088 0.401213
O O3 0.750000 0.647567 0.750000
O O4 0.866782 0.548725 0.640746
O O5 0.868582 0.674298 0.439709
O O6 0.000000 0.643282 0.739834
O O7 0.620125 0.500000 0.500000
O O8 0.750000 0.557924 0.250000
O O9 0.500000 0.554411 0.218587
O O10 0.750000 0.765778 0.250000
O O11 0.000000 0.770195 0.318187
O O12 0.250000 0.918428 0.250000
O O13 0.000000 0.916768 0.159014
O O14 0.147265 0.000000 0.000000
#
# Coordination Sequence:
#
# PCOD9419959 Si02
#       5
#     4   8   8   8   8
#     4  12  24  44  72 102 136 180 226 290 344 414
#     4   9  18  37  62  89 124 167 213 266 328 393
#     4   9  18  34  59  88 119 162 212 263 322 388
#     4  11  25  43  68 101 137 180 227 281 344 414
#     4  11  25  45  70 101 136 182 234 284 339 404
#
# _framework density 24.261603000000001
#
# number of rings (size 3 to 8) (size 9 to 14) (size 15 to 20)
#    0.000    1.778    2.222    1.333    0.000    7.111 
#    0.000    4.444    0.000   24.000    0.000    0.000 
#    0.000    0.000    0.000    0.000    0.000    0.000 
#
# Total GULP energy -201001.754111 kJ/mol
# GULP energy per Si atom -5583.382059 kJ/mol
# Density = 2.420638 g / cm^3
# Si number density = 24.261603 Si / 1000 Ang^3
#
#
#
# Elastic Constant Matrix: (Units=GPa)
#
#
# Indices 1 2 3 4 5 6 
#
# 1 317.1607 44.7632 80.8664 0.0000 0.0000 0.0000
# 2 44.7632 146.6992 50.0418 0.0000 0.0000 0.0000
# 3 80.8664 50.0418 104.1990 0.0000 0.0000 0.0000
# 4 0.0000 0.0000 0.0000 45.9699 0.0000 0.0000
# 5 0.0000 0.0000 0.0000 0.0000 44.6258 0.0000
# 6 0.0000 0.0000 0.0000 0.0000 0.0000 -19.1178
#
#
#
# Elastic Compliance Matrix: (Units=1/GPa)
#
#
# Indices 1 2 3 4 5 6 
#
# 1 0.003935 -0.000190 -0.002963 0.000000 0.000000 0.000000
# 2 -0.000190 0.008161 -0.003772 0.000000 0.000000 0.000000
# 3 -0.002963 -0.003772 0.013708 0.000000 0.000000 0.000000
# 4 0.000000 0.000000 0.000000 0.021753 0.000000 0.000000
# 5 0.000000 0.000000 0.000000 0.000000 0.022409 0.000000
# 6 0.000000 0.000000 0.000000 0.000000 0.000000 -0.052307
#
#
# Mechanical properties :
#
#
# Convention : Reuss Voigt Hill
#
# Bulk Modulus (GPa) = 83.64859 102.15576 92.90218
# Shear Modulus (GPa) = 140.87052 40.45475 90.66263
#
# Velocity S-wave (km/s) = 7.62818 4.08786 6.11963
# Velocity P-wave (km/s) = 10.58953 8.02983 9.39724
#
# Compressibility (1/GPa) = 0.01195477
#
# Stress axis : x y z
#
# Youngs Moduli (GPa) = 254.11576 122.52843 72.95113
#
# Poissons Ratio (x) = 0.02330 0.21613
# Poissons Ratio (y) = 0.04832 0.27517
# Poissons Ratio (z) = 0.75287 0.46217
#
# Static dielectric constant tensor:
#      x y z
#    x 1.925970 0.000000 0.000000 
#    y 0.000000 1.898870 0.000000 
#    z 0.000000 0.000000 2.103830 
# 
# From -- ./inp_files/687.got.cif
#   From: 2010.05.17/outbox.cif.g08.bks.cpg/sg53_1_cif.got.tgz:687.got - 2010.06.03 12:45:16.
