data_PCOD9419089
_publ_section_title
;
Structure prediction by ZEFSAII (Michael W. Deem and Ramdas Pophale) SiO2 
 PCOD9419089
Probable space group: P M N A
;
_chemical_formula_sum "Si O2"
_cell_formula_units_Z 56
_cell_length_a 15.054464
_cell_length_b 18.440993
_cell_length_c 9.089991
_cell_angle_alpha 90.000000
_cell_angle_beta 90.000000
_cell_angle_gamma 90.000000
_cell_volume 2523.556622
_symmetry_space_group_name_H-M "P M N A"
_symmetry_group_IT_number 53
_symmetry_cell_setting 'orthorhombic'
loop_
_space_group_symop_operation_xyz
x,y,z
1/2-x,-y,1/2+z
x,-y,-z
1/2-x,y,1/2-z
-x,-y,-z
1/2+x,y,1/2-z
-x,y,z
1/2+x,-y,1/2+z
loop_
_atom_site_type_symbol
_atom_site_label
_atom_site_fract_x
_atom_site_fract_y
_atom_site_fract_z
Si Si1 0.602006 0.926438 0.905121
Si Si2 0.345946 0.588732 0.327613
Si Si3 0.347088 0.570842 0.677177
Si Si4 0.102799 0.270425 0.658117
Si Si5 0.759784 0.851503 0.390591
Si Si6 0.894015 0.154501 0.121015
Si Si7 0.600857 0.714868 0.825798
O O1 0.500000 0.901612 0.926594
O O2 0.616341 0.915545 0.729322
O O3 0.673426 0.876313 0.982622
O O4 0.608759 0.000000 0.000000
O O5 0.250000 0.589839 0.250000
O O6 0.338939 0.587128 0.503856
O O7 0.386635 0.509174 0.294086
O O8 0.392008 0.660394 0.265469
O O9 0.250000 0.570707 0.750000
O O10 0.396463 0.637450 0.749641
O O11 0.176107 0.209517 0.688674
O O12 0.132747 0.293536 0.492684
O O13 0.000000 0.245182 0.660721
O O14 0.750000 0.904807 0.250000
O O15 0.667390 0.844461 0.477751
O O16 0.861359 0.223774 0.218377
O O17 0.000000 0.161582 0.086247
O O18 0.500000 0.738812 0.842765
#
# Coordination Sequence:
#
# PCOD9419089 Si02
#       7
#     8   8   8   8   8   8   8
#     4  10  22  45  75 103 137 181 228 276 329 393
#     4  10  22  40  56  87 124 169 226 285 350 409
#     4  10  22  37  61  85 120 170 226 287 345 411
#     4  11  24  41  62  90 130 175 225 284 342 410
#     4  12  26  40  65 103 141 184 224 277 337 405
#     4  10  23  44  69 102 139 184 233 280 335 404
#     4  10  22  38  60  90 122 165 220 275 341 405
#
# _framework density 22.190902999999999
#
# number of rings (size 3 to 8) (size 9 to 14) (size 15 to 20)
#    0.000    1.571    1.429    2.143    6.000    5.143 
#    0.000    2.857    0.000    3.000    0.000    0.000 
#    0.000    0.000    0.000    0.000    0.000    0.000 
#
# Total GULP energy -312014.000726 kJ/mol
# GULP energy per Si atom -5571.678584 kJ/mol
# Density = 2.214040 g / cm^3
# Si number density = 22.190903 Si / 1000 Ang^3
#
#
#
# Elastic Constant Matrix: (Units=GPa)
#
#
# Indices 1 2 3 4 5 6 
#
# 1 109.8265 35.3773 52.4134 0.0000 0.0000 0.0000
# 2 35.3773 78.3671 24.4442 0.0000 0.0000 0.0000
# 3 52.4134 24.4442 135.5616 0.0000 0.0000 0.0000
# 4 0.0000 0.0000 0.0000 14.0702 0.0000 0.0000
# 5 0.0000 0.0000 0.0000 0.0000 27.9808 0.0000
# 6 0.0000 0.0000 0.0000 0.0000 0.0000 10.8659
#
#
#
# Elastic Compliance Matrix: (Units=1/GPa)
#
#
# Indices 1 2 3 4 5 6 
#
# 1 0.012427 -0.004356 -0.004019 0.000000 0.000000 0.000000
# 2 -0.004356 0.015048 -0.001029 0.000000 0.000000 0.000000
# 3 -0.004019 -0.001029 0.009116 0.000000 0.000000 0.000000
# 4 0.000000 0.000000 0.000000 0.071072 0.000000 0.000000
# 5 0.000000 0.000000 0.000000 0.000000 0.035739 0.000000
# 6 0.000000 0.000000 0.000000 0.000000 0.000000 0.092031
#
#
# Mechanical properties :
#
#
# Convention : Reuss Voigt Hill
#
# Bulk Modulus (GPa) = 56.23668 60.91388 58.57528
# Shear Modulus (GPa) = 19.21831 24.68474 21.95152
#
# Velocity S-wave (km/s) = 2.94606 3.33886 3.14859
# Velocity P-wave (km/s) = 6.08026 6.50949 6.29853
#
# Compressibility (1/GPa) = 0.01778199
#
# Stress axis : x y z
#
# Youngs Moduli (GPa) = 80.47315 66.45425 109.69438
#
# Poissons Ratio (x) = 0.28948 0.44087
# Poissons Ratio (y) = 0.35055 0.11290
# Poissons Ratio (z) = 0.32343 0.06839
#
# Static dielectric constant tensor:
#      x y z
#    x 2.452220 0.000000 0.000000 
#    y 0.000000 1.906590 0.000000 
#    z 0.000000 0.000000 2.150160 
# 
# From -- ./inp_files/8858.got.cif
#   From: 2010.05.17/outbox.cif.g08.bks.cpg/sg53_5_cif.got.tgz:8858.got - 2010.06.03 12:45:16.
