data_PCOD9419084
_publ_section_title
;
Structure prediction by ZEFSAII (Michael W. Deem and Ramdas Pophale) SiO2 
 PCOD9419084
Probable space group: P M N A
;
_chemical_formula_sum "Si O2"
_cell_formula_units_Z 56
_cell_length_a 27.127317
_cell_length_b 5.662944
_cell_length_c 16.988932
_cell_angle_alpha 90.000000
_cell_angle_beta 90.000000
_cell_angle_gamma 90.000000
_cell_volume 2609.847838
_symmetry_space_group_name_H-M "P M N A"
_symmetry_group_IT_number 53
_symmetry_cell_setting 'orthorhombic'
loop_
_space_group_symop_operation_xyz
x,y,z
1/2-x,-y,1/2+z
x,-y,-z
1/2-x,y,1/2-z
-x,-y,-z
1/2+x,y,1/2-z
-x,y,z
1/2+x,-y,1/2+z
loop_
_atom_site_type_symbol
_atom_site_label
_atom_site_fract_x
_atom_site_fract_y
_atom_site_fract_z
Si Si1 0.786482 0.247393 0.194036
Si Si2 0.056147 0.665081 0.072800
Si Si3 0.944571 0.634218 0.763948
Si Si4 0.825854 0.249527 0.540227
Si Si5 0.782431 0.253665 0.019713
Si Si6 0.615921 0.012722 0.665006
Si Si7 0.848767 0.606277 0.286740
O O1 0.750000 0.094349 0.250000
O O2 0.762123 0.276743 0.108977
O O3 0.803218 0.448017 0.256299
O O4 0.840557 0.175007 0.160450
O O5 0.057115 0.512639 0.153820
O O6 0.093683 0.875665 0.087388
O O7 0.000000 0.750155 0.061726
O O8 0.068552 0.500000 0.000000
O O9 0.899787 0.543000 0.710161
O O10 0.000000 0.615829 0.732399
O O11 0.929859 0.898942 0.788419
O O12 0.841956 0.500000 0.500000
O O13 0.766476 0.248783 0.534147
O O14 0.840113 0.266282 0.631201
O O15 0.842150 0.000000 0.500000
O O16 0.809654 0.500000 0.000000
O O17 0.806286 0.000000 0.000000
O O18 0.641726 0.209522 0.717595
#
# Coordination Sequence:
#
# PCOD9419084 Si02
#       7
#     8   8   8   8   8   8   8
#     4  11  24  40  61  84 123 171 218 273 326 394
#     4   9  18  36  60  88 125 166 211 264 330 401
#     4   9  19  38  63  91 123 160 208 265 334 402
#     4  10  22  40  69  92 125 164 219 273 324 393
#     4  10  23  41  59  88 121 166 218 270 329 385
#     4  10  22  37  58  90 120 164 217 267 323 391
#     4  10  23  40  64  92 125 162 218 268 327 396
#
# _framework density 21.457189
#
# number of rings (size 3 to 8) (size 9 to 14) (size 15 to 20)
#    0.000    2.143    0.000    2.143   10.000    1.714 
#    7.714    2.143    0.000    0.857    0.000    0.000 
#    0.000    0.000    0.000    0.000    0.000    0.000 
#
# Total GULP energy -312172.376264 kJ/mol
# GULP energy per Si atom -5574.506719 kJ/mol
# Density = 2.140835 g / cm^3
# Si number density = 21.457189 Si / 1000 Ang^3
#
#
#
# Elastic Constant Matrix: (Units=GPa)
#
#
# Indices 1 2 3 4 5 6 
#
# 1 103.0054 14.7912 40.1861 0.0000 0.0000 0.0000
# 2 14.7912 99.0129 35.3035 0.0000 0.0000 0.0000
# 3 40.1861 35.3035 100.5084 0.0000 0.0000 0.0000
# 4 0.0000 0.0000 0.0000 31.1732 0.0000 0.0000
# 5 0.0000 0.0000 0.0000 0.0000 20.8709 0.0000
# 6 0.0000 0.0000 0.0000 0.0000 0.0000 14.4179
#
#
#
# Elastic Compliance Matrix: (Units=1/GPa)
#
#
# Indices 1 2 3 4 5 6 
#
# 1 0.011503 -0.000090 -0.004568 0.000000 0.000000 0.000000
# 2 -0.000090 0.011546 -0.004020 0.000000 0.000000 0.000000
# 3 -0.004568 -0.004020 0.013188 0.000000 0.000000 0.000000
# 4 0.000000 0.000000 0.000000 0.032079 0.000000 0.000000
# 5 0.000000 0.000000 0.000000 0.000000 0.047914 0.000000
# 6 0.000000 0.000000 0.000000 0.000000 0.000000 0.069358
#
#
# Mechanical properties :
#
#
# Convention : Reuss Voigt Hill
#
# Bulk Modulus (GPa) = 52.95871 53.67648 53.31759
# Shear Modulus (GPa) = 23.89641 27.44213 25.66927
#
# Velocity S-wave (km/s) = 3.34080 3.58009 3.46251
# Velocity P-wave (km/s) = 6.29412 6.49302 6.39434
#
# Compressibility (1/GPa) = 0.01888263
#
# Stress axis : x y z
#
# Youngs Moduli (GPa) = 86.93258 86.60740 75.82843
#
# Poissons Ratio (x) = 0.00777 0.34637
# Poissons Ratio (y) = 0.00780 0.30481
# Poissons Ratio (z) = 0.39709 0.34814
#
# Static dielectric constant tensor:
#      x y z
#    x 1.812070 0.000000 0.000000 
#    y 0.000000 1.925750 0.000000 
#    z 0.000000 0.000000 1.783310 
# 
# From -- ./inp_files/25139.got.cif
#   From: 2010.05.17/outbox.cif.g08.bks.cpg/sg53_13_cif.got.tgz:25139.got - 2010.06.03 12:45:16.
