data_PCOD9419520
_publ_section_title
;
Structure prediction by ZEFSAII (Michael W. Deem and Ramdas Pophale) SiO2 
 PCOD9419520
Probable space group: P M N A
;
_chemical_formula_sum "Si O2"
_cell_formula_units_Z 28
_cell_length_a 21.575376
_cell_length_b 13.205398
_cell_length_c 5.167550
_cell_angle_alpha 90.000000
_cell_angle_beta 90.000000
_cell_angle_gamma 90.000000
_cell_volume 1472.294045
_symmetry_space_group_name_H-M "P M N A"
_symmetry_group_IT_number 53
_symmetry_cell_setting 'orthorhombic'
loop_
_space_group_symop_operation_xyz
x,y,z
1/2-x,-y,1/2+z
x,-y,-z
1/2-x,y,1/2-z
-x,-y,-z
1/2+x,y,1/2-z
-x,y,z
1/2+x,-y,1/2+z
loop_
_atom_site_type_symbol
_atom_site_label
_atom_site_fract_x
_atom_site_fract_y
_atom_site_fract_z
Si Si1 0.567878 0.929270 0.248413
Si Si2 0.825174 0.560874 0.243569
Si Si3 0.181795 0.794379 0.124896
Si Si4 0.750000 0.074652 0.250000
O O1 0.500000 0.877182 0.252703
O O2 0.627071 0.858404 0.251651
O O3 0.571240 0.000000 0.500000
O O4 0.569933 0.000000 0.000000
O O5 0.846163 0.500000 0.500000
O O6 0.750000 0.554637 0.250000
O O7 0.837206 0.678221 0.175609
O O8 0.849426 0.500000 0.000000
O O9 0.250000 0.802014 0.250000
O O10 0.195474 0.848051 0.844675
O O11 0.760835 0.000000 0.500000
#
# Coordination Sequence:
#
# PCOD9419520 Si02
#       4
#     8   8   8   4
#     4  10  24  41  58  83 122 167 202 237 297 373
#     4   9  20  35  54  80 115 150 191 244 303 357
#     4  11  25  36  63  90 120 159 201 255 306 349
#     4  12  26  36  52  94 130 156 194 252 306 360
#
# _framework density 19.017941
#
# number of rings (size 3 to 8) (size 9 to 14) (size 15 to 20)
#    0.000    1.714    1.429    0.857   18.000    0.000 
#    0.000    0.000    0.000    1.714    0.000    0.000 
#    0.000    0.000    0.000    0.000    0.000    0.000 
#
# Total GULP energy -155877.141764 kJ/mol
# GULP energy per Si atom -5567.040777 kJ/mol
# Density = 1.897466 g / cm^3
# Si number density = 19.017941 Si / 1000 Ang^3
#
#
#
# Elastic Constant Matrix: (Units=GPa)
#
#
# Indices 1 2 3 4 5 6 
#
# 1 112.8069 58.2359 28.4202 0.0000 0.0000 0.0000
# 2 58.2359 161.6853 78.0436 0.0000 0.0000 0.0000
# 3 28.4202 78.0436 160.7594 0.0000 0.0000 0.0000
# 4 0.0000 0.0000 0.0000 17.6293 0.0000 0.0000
# 5 0.0000 0.0000 0.0000 0.0000 18.0603 0.0000
# 6 0.0000 0.0000 0.0000 0.0000 0.0000 16.8803
#
#
#
# Elastic Compliance Matrix: (Units=1/GPa)
#
#
# Indices 1 2 3 4 5 6 
#
# 1 0.010890 -0.003909 -0.000027 0.000000 0.000000 0.000000
# 2 -0.003909 0.009481 -0.003912 0.000000 0.000000 0.000000
# 3 -0.000027 -0.003912 0.008124 0.000000 0.000000 0.000000
# 4 0.000000 0.000000 0.000000 0.056724 0.000000 0.000000
# 5 0.000000 0.000000 0.000000 0.000000 0.055370 0.000000
# 6 0.000000 0.000000 0.000000 0.000000 0.000000 0.059241
#
#
# Mechanical properties :
#
#
# Convention : Reuss Voigt Hill
#
# Bulk Modulus (GPa) = 78.13297 84.96123 81.54710
# Shear Modulus (GPa) = 22.74883 28.55077 25.64980
#
# Velocity S-wave (km/s) = 3.46233 3.87881 3.67647
# Velocity P-wave (km/s) = 7.56020 8.05180 7.80987
#
# Compressibility (1/GPa) = 0.01279869
#
# Stress axis : x y z
#
# Youngs Moduli (GPa) = 91.83066 105.47540 123.08761
#
# Poissons Ratio (x) = 0.41230 0.00338
# Poissons Ratio (y) = 0.35896 0.48147
# Poissons Ratio (z) = 0.00252 0.41258
#
# Static dielectric constant tensor:
#      x y z
#    x 1.651830 0.000000 0.000000 
#    y 0.000000 1.765280 0.000000 
#    z 0.000000 0.000000 1.688290 
# 
# From -- ./inp_files/2553.got.cif
#   From: 2010.05.17/outbox.cif.g08.bks.cpg/sg53_2_cif.got.tgz:2553.got - 2010.06.03 12:45:16.
