data_PCOD9419917
_publ_section_title
;
Structure prediction by ZEFSAII (Michael W. Deem and Ramdas Pophale) SiO2 
 PCOD9419917
Probable space group: P M N A
;
_chemical_formula_sum "Si O2"
_cell_formula_units_Z 40
_cell_length_a 10.137261
_cell_length_b 25.019446
_cell_length_c 8.762782
_cell_angle_alpha 90.000000
_cell_angle_beta 90.000000
_cell_angle_gamma 90.000000
_cell_volume 2222.492606
_symmetry_space_group_name_H-M "P M N A"
_symmetry_group_IT_number 53
_symmetry_cell_setting 'orthorhombic'
loop_
_space_group_symop_operation_xyz
x,y,z
1/2-x,-y,1/2+z
x,-y,-z
1/2-x,y,1/2-z
-x,-y,-z
1/2+x,y,1/2-z
-x,y,z
1/2+x,-y,1/2+z
loop_
_atom_site_type_symbol
_atom_site_label
_atom_site_fract_x
_atom_site_fract_y
_atom_site_fract_z
Si Si1 0.754520 0.621664 0.432894
Si Si2 0.347102 0.830238 0.106375
Si Si3 0.500000 0.558519 0.930175
Si Si4 0.658641 0.272764 0.100225
Si Si5 0.000000 0.561072 0.936851
Si Si6 0.346752 0.950185 0.108579
O O1 0.750000 0.618793 0.250000
O O2 0.783860 0.681776 0.488177
O O3 0.624743 0.594419 0.502503
O O4 0.873670 0.588206 0.503653
O O5 0.250000 0.823486 0.250000
O O6 0.500000 0.826207 0.158396
O O7 0.328823 0.890382 0.041657
O O8 0.326981 0.784408 0.981917
O O9 0.500000 0.558592 0.746840
O O10 0.500000 0.500000 0.000000
O O11 0.750000 0.274963 0.250000
O O12 0.500000 0.281815 0.128378
O O13 0.000000 0.500000 0.000000
O O14 0.250000 0.953469 0.250000
O O15 0.500000 0.953963 0.156208
O O16 0.320016 0.000000 0.000000
#
# Coordination Sequence:
#
# PCOD9419917 Si02
#       6
#     8   8   4   8   4   8
#     4  12  25  43  65  92 122 160 202 246 298 361
#     4   9  19  37  58  83 117 155 201 248 299 359
#     4  12  24  44  66  92 128 158 199 246 295 356
#     4  11  24  41  61  88 121 157 197 248 303 359
#     4  12  26  44  68  96 124 162 199 246 301 354
#     4   9  18  33  54  81 115 156 198 248 301 356
#
# _framework density 17.997810999999999
#
# number of rings (size 3 to 8) (size 9 to 14) (size 15 to 20)
#    0.000    1.400    1.000    4.800    1.400    2.000 
#    0.000    0.000    0.000    0.000    0.000    0.000 
#    0.000    0.000    0.000    0.000    0.000    0.000 
#
# Total GULP energy -223293.826849 kJ/mol
# GULP energy per Si atom -5582.345671 kJ/mol
# Density = 1.795685 g / cm^3
# Si number density = 17.997811 Si / 1000 Ang^3
#
#
#
# Elastic Constant Matrix: (Units=GPa)
#
#
# Indices 1 2 3 4 5 6 
#
# 1 125.3962 78.4893 76.0063 0.0000 0.0000 0.0000
# 2 78.4893 161.2739 84.0341 0.0000 0.0000 0.0000
# 3 76.0063 84.0341 162.8174 0.0000 0.0000 0.0000
# 4 0.0000 0.0000 0.0000 99.3150 0.0000 0.0000
# 5 0.0000 0.0000 0.0000 0.0000 30.7116 0.0000
# 6 0.0000 0.0000 0.0000 0.0000 0.0000 34.0689
#
#
#
# Elastic Compliance Matrix: (Units=1/GPa)
#
#
# Indices 1 2 3 4 5 6 
#
# 1 0.013014 -0.004334 -0.003838 0.000000 0.000000 0.000000
# 2 -0.004334 0.009925 -0.003099 0.000000 0.000000 0.000000
# 3 -0.003838 -0.003099 0.009533 0.000000 0.000000 0.000000
# 4 0.000000 0.000000 0.000000 0.010069 0.000000 0.000000
# 5 0.000000 0.000000 0.000000 0.000000 0.032561 0.000000
# 6 0.000000 0.000000 0.000000 0.000000 0.000000 0.029352
#
#
# Mechanical properties :
#
#
# Convention : Reuss Voigt Hill
#
# Bulk Modulus (GPa) = 100.71390 102.94968 101.83179
# Shear Modulus (GPa) = 38.37105 46.88295 42.62700
#
# Velocity S-wave (km/s) = 4.62235 5.10938 4.87196
# Velocity P-wave (km/s) = 9.19612 9.59860 9.39952
#
# Compressibility (1/GPa) = 0.00992912
#
# Stress axis : x y z
#
# Youngs Moduli (GPa) = 76.84139 100.75903 104.89438
#
# Poissons Ratio (x) = 0.43664 0.40263
# Poissons Ratio (y) = 0.33299 0.32511
# Poissons Ratio (z) = 0.29495 0.31229
#
# Static dielectric constant tensor:
#      x y z
#    x 1.577020 0.000000 0.000000 
#    y 0.000000 1.654640 0.000000 
#    z 0.000000 0.000000 1.572050 
# 
# From -- ./inp_files/6471.got.cif
#   From: 2010.05.17/outbox.cif.g08.bks.cpg/sg53_4_cif.got.tgz:6471.got - 2010.06.03 12:45:16.
