data_PCOD9419956
_publ_section_title
;
Structure prediction by ZEFSAII (Michael W. Deem and Ramdas Pophale) SiO2 
 PCOD9419956
Probable space group: P M N A
;
_chemical_formula_sum "Si O2"
_cell_formula_units_Z 20
_cell_length_a 15.724585
_cell_length_b 7.129466
_cell_length_c 7.747670
_cell_angle_alpha 90.000000
_cell_angle_beta 90.000000
_cell_angle_gamma 90.000000
_cell_volume 868.574968
_symmetry_space_group_name_H-M "P M N A"
_symmetry_group_IT_number 53
_symmetry_cell_setting 'orthorhombic'
loop_
_space_group_symop_operation_xyz
x,y,z
1/2-x,-y,1/2+z
x,-y,-z
1/2-x,y,1/2-z
-x,-y,-z
1/2+x,y,1/2-z
-x,y,z
1/2+x,-y,1/2+z
loop_
_atom_site_type_symbol
_atom_site_label
_atom_site_fract_x
_atom_site_fract_y
_atom_site_fract_z
Si Si1 0.664981 0.122521 0.165692
Si Si2 0.000000 0.207026 0.114419
Si Si3 0.500000 0.368022 0.746928
Si Si4 0.141055 0.500000 0.500000
O O1 0.750000 0.040356 0.250000
O O2 0.586159 0.132005 0.297545
O O3 0.686956 0.335750 0.104043
O O4 0.641219 0.000000 0.000000
O O5 0.000000 0.425536 0.165485
O O6 0.000000 0.215791 0.905777
O O7 0.581305 0.378411 0.871357
#
# Coordination Sequence:
#
# PCOD9419956 Si02
#       4
#     8   4   4   4
#     4  11  25  42  62  92 126 164 214 262 313 384
#     4   9  19  39  65  91 126 165 201 258 322 371
#     4   8  16  35  66  98 120 159 214 247 308 399
#     4   9  20  40  64  91 130 164 200 263 316 367
#
# _framework density 23.026219999999999
#
# number of rings (size 3 to 8) (size 9 to 14) (size 15 to 20)
#    0.000    2.400    0.000    1.800    0.000   11.200 
#    0.000    3.000    0.000    0.000    0.000    0.000 
#    0.000    0.000    0.000    0.000    0.000    0.000 
#
# Total GULP energy -111678.302186 kJ/mol
# GULP energy per Si atom -5583.915109 kJ/mol
# Density = 2.297381 g / cm^3
# Si number density = 23.026220 Si / 1000 Ang^3
#
#
#
# Elastic Constant Matrix: (Units=GPa)
#
#
# Indices 1 2 3 4 5 6 
#
# 1 99.5542 24.1719 67.9986 0.0000 0.0000 0.0000
# 2 24.1719 98.8285 43.6298 0.0000 0.0000 0.0000
# 3 67.9986 43.6298 170.8952 0.0000 0.0000 0.0000
# 4 0.0000 0.0000 0.0000 65.7086 0.0000 0.0000
# 5 0.0000 0.0000 0.0000 0.0000 6.8847 0.0000
# 6 0.0000 0.0000 0.0000 0.0000 0.0000 0.0816
#
#
#
# Elastic Compliance Matrix: (Units=1/GPa)
#
#
# Indices 1 2 3 4 5 6 
#
# 1 0.013895 -0.001079 -0.005253 0.000000 0.000000 0.000000
# 2 -0.001079 0.011488 -0.002503 0.000000 0.000000 0.000000
# 3 -0.005253 -0.002503 0.008581 0.000000 0.000000 0.000000
# 4 0.000000 0.000000 0.000000 0.015219 0.000000 0.000000
# 5 0.000000 0.000000 0.000000 0.000000 0.145250 0.000000
# 6 0.000000 0.000000 0.000000 0.000000 0.000000 12.262299
#
#
# Mechanical properties :
#
#
# Convention : Reuss Voigt Hill
#
# Bulk Modulus (GPa) = 61.38091 71.20870 66.29480
# Shear Modulus (GPa) = 0.40065 30.10013 15.25039
#
# Velocity S-wave (km/s) = 0.41758 3.61946 2.57632
# Velocity P-wave (km/s) = 5.19108 6.96129 6.14031
#
# Compressibility (1/GPa) = 0.01629171
#
# Stress axis : x y z
#
# Youngs Moduli (GPa) = 71.96868 87.04970 116.53830
#
# Poissons Ratio (x) = 0.09396 0.61220
# Poissons Ratio (y) = 0.07768 0.29174
# Poissons Ratio (z) = 0.37806 0.21792
#
# Static dielectric constant tensor:
#      x y z
#    x 1.761200 0.000000 0.000000 
#    y 0.000000 1.875560 0.000000 
#    z 0.000000 0.000000 1.970820 
# 
# From -- ./inp_files/7650.got.cif
#   From: 2010.05.17/outbox.cif.g08.bks.cpg/sg53_4_cif.got.tgz:7650.got - 2010.06.03 12:45:16.
