data_PCOD9419671
_publ_section_title
;
Structure prediction by ZEFSAII (Michael W. Deem and Ramdas Pophale) SiO2 
 PCOD9419671
Probable space group: P M N A
;
_chemical_formula_sum "Si O2"
_cell_formula_units_Z 32
_cell_length_a 11.095350
_cell_length_b 11.395506
_cell_length_c 13.023259
_cell_angle_alpha 90.000000
_cell_angle_beta 90.000000
_cell_angle_gamma 90.000000
_cell_volume 1646.623459
_symmetry_space_group_name_H-M "P M N A"
_symmetry_group_IT_number 53
_symmetry_cell_setting 'orthorhombic'
loop_
_space_group_symop_operation_xyz
x,y,z
1/2-x,-y,1/2+z
x,-y,-z
1/2-x,y,1/2-z
-x,-y,-z
1/2+x,y,1/2-z
-x,y,z
1/2+x,-y,1/2+z
loop_
_atom_site_type_symbol
_atom_site_label
_atom_site_fract_x
_atom_site_fract_y
_atom_site_fract_z
Si Si1 0.500000 0.472112 0.120539
Si Si2 0.699830 0.274007 0.137470
Si Si3 0.500000 0.868620 0.960944
Si Si4 0.000000 0.740119 0.324407
Si Si5 0.139981 0.367744 0.958652
Si Si6 0.750000 0.714728 0.250000
O O1 0.615348 0.390493 0.141887
O O2 0.500000 0.596754 0.178958
O O3 0.500000 0.500000 0.000000
O O4 0.750000 0.256266 0.250000
O O5 0.616088 0.166348 0.104314
O O6 0.799100 0.292655 0.049080
O O7 0.500000 0.780817 0.058262
O O8 0.500000 0.000000 0.000000
O O9 0.125488 0.781501 0.274964
O O10 0.216559 0.355467 0.854006
O O11 0.000000 0.336020 0.939833
O O12 0.142912 0.500000 0.000000
#
# Coordination Sequence:
#
# PCOD9419671 Si02
#       6
#     4   8   4   4   8   4
#     4  11  20  38  63  92 132 182 211 255 335 426
#     4  11  24  40  66  99 136 174 219 280 346 415
#     4  11  25  50  69  88 125 187 248 288 336 404
#     4  12  23  39  65  96 132 173 227 269 343 413
#     4  11  24  36  58  97 140 176 208 259 333 423
#     4  12  22  40  60  90 130 174 220 268 328 404
#
# _framework density 19.433709
#
# number of rings (size 3 to 8) (size 9 to 14) (size 15 to 20)
#    0.000    0.750    6.250    2.250   10.500    0.000 
#    2.250    0.000    0.000    0.750    0.000    0.000 
#    0.000    0.000    0.000    0.000    0.000    0.000 
#
# Total GULP energy -178829.672034 kJ/mol
# GULP energy per Si atom -5588.427251 kJ/mol
# Density = 1.938948 g / cm^3
# Si number density = 19.433709 Si / 1000 Ang^3
#
#
#
# Elastic Constant Matrix: (Units=GPa)
#
#
# Indices 1 2 3 4 5 6 
#
# 1 162.9336 32.9116 74.4654 0.0000 0.0000 0.0000
# 2 32.9116 79.1398 31.5032 0.0000 0.0000 0.0000
# 3 74.4654 31.5032 165.6288 0.0000 0.0000 0.0000
# 4 0.0000 0.0000 0.0000 8.8634 0.0000 0.0000
# 5 0.0000 0.0000 0.0000 0.0000 50.5266 0.0000
# 6 0.0000 0.0000 0.0000 0.0000 0.0000 8.4638
#
#
#
# Elastic Compliance Matrix: (Units=1/GPa)
#
#
# Indices 1 2 3 4 5 6 
#
# 1 0.008023 -0.002056 -0.003216 0.000000 0.000000 0.000000
# 2 -0.002056 0.014198 -0.001776 0.000000 0.000000 0.000000
# 3 -0.003216 -0.001776 0.007821 0.000000 0.000000 0.000000
# 4 0.000000 0.000000 0.000000 0.112823 0.000000 0.000000
# 5 0.000000 0.000000 0.000000 0.000000 0.019792 0.000000
# 6 0.000000 0.000000 0.000000 0.000000 0.000000 0.118151
#
#
# Mechanical properties :
#
#
# Convention : Reuss Voigt Hill
#
# Bulk Modulus (GPa) = 62.71309 76.16253 69.43781
# Shear Modulus (GPa) = 16.65453 31.49222 24.07338
#
# Velocity S-wave (km/s) = 2.93062 4.02990 3.52340
# Velocity P-wave (km/s) = 6.61753 7.80574 7.23606
#
# Compressibility (1/GPa) = 0.01594564
#
# Stress axis : x y z
#
# Youngs Moduli (GPa) = 124.64941 70.43264 127.85783
#
# Poissons Ratio (x) = 0.14482 0.41116
# Poissons Ratio (y) = 0.25630 0.22708
# Poissons Ratio (z) = 0.40084 0.12509
#
# Static dielectric constant tensor:
#      x y z
#    x 1.734190 0.000000 0.000000 
#    y 0.000000 1.646110 0.000000 
#    z 0.000000 0.000000 1.677060 
# 
# From -- ./inp_files/14632.got.cif
#   From: 2010.05.17/outbox.cif.g08.bks.cpg/sg53_8_cif.got.tgz:14632.got - 2010.06.03 12:45:16.
