data_PCOD9419531
_publ_section_title
;
Structure prediction by ZEFSAII (Michael W. Deem and Ramdas Pophale) SiO2 
 PCOD9419531
Probable space group: P M N A
;
_chemical_formula_sum "Si O2"
_cell_formula_units_Z 28
_cell_length_a 21.886581
_cell_length_b 4.891523
_cell_length_c 11.735646
_cell_angle_alpha 90.000000
_cell_angle_beta 90.000000
_cell_angle_gamma 90.000000
_cell_volume 1256.403173
_symmetry_space_group_name_H-M "P M N A"
_symmetry_group_IT_number 53
_symmetry_cell_setting 'orthorhombic'
loop_
_space_group_symop_operation_xyz
x,y,z
1/2-x,-y,1/2+z
x,-y,-z
1/2-x,y,1/2-z
-x,-y,-z
1/2+x,y,1/2-z
-x,y,z
1/2+x,-y,1/2+z
loop_
_atom_site_type_symbol
_atom_site_label
_atom_site_fract_x
_atom_site_fract_y
_atom_site_fract_z
Si Si1 0.427963 0.339565 0.223914
Si Si2 0.250000 0.030719 0.750000
Si Si3 0.865839 0.167846 0.617350
Si Si4 0.159346 0.258019 0.078007
O O1 0.500000 0.376518 0.227651
O O2 0.409289 0.032263 0.190794
O O3 0.395280 0.381102 0.345559
O O4 0.397949 0.539948 0.130016
O O5 0.300067 0.194417 0.822215
O O6 0.288877 0.848099 0.663291
O O7 0.858376 0.000000 0.500000
O O8 0.183877 0.500000 0.000000
O O9 0.140545 0.000000 0.000000
#
# Coordination Sequence:
#
# PCOD9419531 Si02
#       4
#     8   4   8   8
#     4  11  25  43  63  93 128 164 213 261 307 375
#     4  10  24  42  64  94 128 158 208 260 310 378
#     4  11  24  41  66  94 125 167 207 258 319 372
#     4  11  24  41  65  94 126 167 209 259 320 377
#
# _framework density 22.285841000000001
#
# number of rings (size 3 to 8) (size 9 to 14) (size 15 to 20)
#    0.000    1.143    0.000    6.000    0.000   19.429 
#    0.000    0.000    0.000    0.000    0.000    0.000 
#    0.000    0.000    0.000    0.000    0.000    0.000 
#
# Total GULP energy -156635.024521 kJ/mol
# GULP energy per Si atom -5594.108019 kJ/mol
# Density = 2.223512 g / cm^3
# Si number density = 22.285841 Si / 1000 Ang^3
#
#
#
# Elastic Constant Matrix: (Units=GPa)
#
#
# Indices 1 2 3 4 5 6 
#
# 1 178.9797 18.9097 45.9135 0.0000 0.0000 0.0000
# 2 18.9097 91.5855 12.1669 0.0000 0.0000 0.0000
# 3 45.9135 12.1669 108.8594 0.0000 0.0000 0.0000
# 4 0.0000 0.0000 0.0000 53.5001 0.0000 0.0000
# 5 0.0000 0.0000 0.0000 0.0000 9.9739 0.0000
# 6 0.0000 0.0000 0.0000 0.0000 0.0000 3.8808
#
#
#
# Elastic Compliance Matrix: (Units=1/GPa)
#
#
# Indices 1 2 3 4 5 6 
#
# 1 0.006349 -0.000969 -0.002569 0.000000 0.000000 0.000000
# 2 -0.000969 0.011231 -0.000846 0.000000 0.000000 0.000000
# 3 -0.002569 -0.000846 0.010364 0.000000 0.000000 0.000000
# 4 0.000000 0.000000 0.000000 0.018692 0.000000 0.000000
# 5 0.000000 0.000000 0.000000 0.000000 0.100262 0.000000
# 6 0.000000 0.000000 0.000000 0.000000 0.000000 0.257677
#
#
# Mechanical properties :
#
#
# Convention : Reuss Voigt Hill
#
# Bulk Modulus (GPa) = 52.15372 59.26719 55.71046
# Shear Modulus (GPa) = 11.91222 33.63326 22.77274
#
# Velocity S-wave (km/s) = 2.31448 3.88903 3.20010
# Velocity P-wave (km/s) = 5.53131 6.84236 6.22146
#
# Compressibility (1/GPa) = 0.01917409
#
# Stress axis : x y z
#
# Youngs Moduli (GPa) = 157.51074 89.03627 96.48375
#
# Poissons Ratio (x) = 0.08632 0.24790
# Poissons Ratio (y) = 0.15271 0.08166
# Poissons Ratio (z) = 0.40470 0.07536
#
# Static dielectric constant tensor:
#      x y z
#    x 1.765430 0.000000 0.000000 
#    y 0.000000 1.793190 0.000000 
#    z 0.000000 0.000000 1.915670 
# 
# From -- ./inp_files/17301.got.cif
#   From: 2010.05.17/outbox.cif.g08.bks.cpg/sg53_9_cif.got.tgz:17301.got - 2010.06.03 12:45:16.
