data_PCOD9419606
_publ_section_title
;
Structure prediction by ZEFSAII (Michael W. Deem and Ramdas Pophale) SiO2 
 PCOD9419606
Probable space group: P M N A
;
_chemical_formula_sum "Si O2"
_cell_formula_units_Z 48
_cell_length_a 15.197502
_cell_length_b 10.372769
_cell_length_c 16.733971
_cell_angle_alpha 90.000000
_cell_angle_beta 90.000000
_cell_angle_gamma 90.000000
_cell_volume 2637.946161
_symmetry_space_group_name_H-M "P M N A"
_symmetry_group_IT_number 53
_symmetry_cell_setting 'orthorhombic'
loop_
_space_group_symop_operation_xyz
x,y,z
1/2-x,-y,1/2+z
x,-y,-z
1/2-x,y,1/2-z
-x,-y,-z
1/2+x,y,1/2-z
-x,y,z
1/2+x,-y,1/2+z
loop_
_atom_site_type_symbol
_atom_site_label
_atom_site_fract_x
_atom_site_fract_y
_atom_site_fract_z
Si Si1 0.596796 0.719481 0.117094
Si Si2 0.596912 0.968516 0.884302
Si Si3 0.784513 0.878913 0.944795
Si Si4 0.847416 0.726879 0.210945
Si Si5 0.348225 0.019479 0.286634
Si Si6 0.780689 0.629053 0.049948
O O1 0.500000 0.691437 0.083657
O O2 0.597022 0.686803 0.211865
O O3 0.678601 0.648371 0.076712
O O4 0.611491 0.875607 0.111285
O O5 0.500000 0.937874 0.917413
O O6 0.680329 0.898510 0.923521
O O7 0.596938 0.937624 0.789822
O O8 0.839549 0.890997 0.863271
O O9 0.799951 0.749651 0.992820
O O10 0.807617 0.000000 0.000000
O O11 0.750000 0.732484 0.250000
O O12 0.838173 0.643039 0.131110
O O13 0.873098 0.873726 0.188857
O O14 0.250000 0.010784 0.250000
O O15 0.793204 0.500000 0.000000
#
# Coordination Sequence:
#
# PCOD9419606 Si02
#       6
#     8   8   8   8   8   8
#     4   9  17  31  51  71  93 125 160 192 231 284
#     4   9  17  29  49  74  96 122 158 195 232 283
#     4  11  17  29  49  71  94 123 150 193 243 280
#     4   8  14  29  48  66  89 124 161 193 222 276
#     4   8  14  27  47  68  91 121 161 192 228 277
#     4  11  21  31  46  73 102 123 156 198 236 273
#
# _framework density 18.195975000000001
#
# number of rings (size 3 to 8) (size 9 to 14) (size 15 to 20)
#    0.000    2.667    3.333    2.000    0.000    1.333 
#    0.000    7.500    0.000    2.000    0.000    0.000 
#    0.000    0.000    0.000    0.000    0.000    0.000 
#
# Total GULP energy -267370.543015 kJ/mol
# GULP energy per Si atom -5570.219646 kJ/mol
# Density = 1.815456 g / cm^3
# Si number density = 18.195975 Si / 1000 Ang^3
#
#
#
# Elastic Constant Matrix: (Units=GPa)
#
#
# Indices 1 2 3 4 5 6 
#
# 1 18.6103 -9.7062 -4.4035 0.0000 0.0000 0.0000
# 2 -9.7062 80.0686 44.1516 0.0000 0.0000 0.0000
# 3 -4.4035 44.1516 114.1167 0.0000 0.0000 0.0000
# 4 0.0000 0.0000 0.0000 28.4215 0.0000 0.0000
# 5 0.0000 0.0000 0.0000 0.0000 13.0251 0.0000
# 6 0.0000 0.0000 0.0000 0.0000 0.0000 3.9869
#
#
#
# Elastic Compliance Matrix: (Units=1/GPa)
#
#
# Indices 1 2 3 4 5 6 
#
# 1 0.057393 0.007292 -0.000607 0.000000 0.000000 0.000000
# 2 0.007292 0.016803 -0.006220 0.000000 0.000000 0.000000
# 3 -0.000607 -0.006220 0.011146 0.000000 0.000000 0.000000
# 4 0.000000 0.000000 0.000000 0.035185 0.000000 0.000000
# 5 0.000000 0.000000 0.000000 0.000000 0.076775 0.000000
# 6 0.000000 0.000000 0.000000 0.000000 0.000000 0.250822
#
#
# Mechanical properties :
#
#
# Convention : Reuss Voigt Hill
#
# Bulk Modulus (GPa) = 11.59106 30.31993 20.95549
# Shear Modulus (GPa) = 10.50532 21.27028 15.88780
#
# Velocity S-wave (km/s) = 2.40540 3.42271 2.95812
# Velocity P-wave (km/s) = 3.75481 5.68499 4.81755
#
# Compressibility (1/GPa) = 0.08627338
#
# Stress axis : x y z
#
# Youngs Moduli (GPa) = 17.42368 59.51361 89.71896
#
# Poissons Ratio (x) = -0.43397 0.05442
# Poissons Ratio (y) = -0.12705 0.55802
# Poissons Ratio (z) = 0.01057 0.37015
#
# Static dielectric constant tensor:
#      x y z
#    x 1.673610 0.000000 0.000000 
#    y 0.000000 1.587610 0.000000 
#    z 0.000000 0.000000 1.672460 
# 
# From -- ./inp_files/28890.got.cif
#   From: 2010.05.17/outbox.cif.g08.bks.cpg/sg53_15_cif.got.tgz:28890.got - 2010.06.03 12:45:16.
