data_PCOD9419855
_publ_section_title
;
Structure prediction by ZEFSAII (Michael W. Deem and Ramdas Pophale) SiO2 
 PCOD9419855
Probable space group: P M N A
;
_chemical_formula_sum "Si O2"
_cell_formula_units_Z 26
_cell_length_a 7.438367
_cell_length_b 10.252343
_cell_length_c 13.800118
_cell_angle_alpha 90.000000
_cell_angle_beta 90.000000
_cell_angle_gamma 90.000000
_cell_volume 1052.406519
_symmetry_space_group_name_H-M "P M N A"
_symmetry_group_IT_number 53
_symmetry_cell_setting 'orthorhombic'
loop_
_space_group_symop_operation_xyz
x,y,z
1/2-x,-y,1/2+z
x,-y,-z
1/2-x,y,1/2-z
-x,-y,-z
1/2+x,y,1/2-z
-x,y,z
1/2+x,-y,1/2+z
loop_
_atom_site_type_symbol
_atom_site_label
_atom_site_fract_x
_atom_site_fract_y
_atom_site_fract_z
Si Si1 0.714638 0.091010 0.358432
Si Si2 0.288939 0.529513 0.361022
Si Si3 0.281442 0.185756 0.567732
Si Si4 0.000000 0.500000 0.500000
O O1 0.750000 0.140956 0.250000
O O2 0.500000 0.089690 0.367697
O O3 0.777966 0.161640 0.456803
O O4 0.776983 0.940477 0.370668
O O5 0.250000 0.503634 0.250000
O O6 0.500000 0.513564 0.381728
O O7 0.224564 0.678053 0.385203
O O8 0.159129 0.446836 0.427262
O O9 0.500000 0.189275 0.568711
#
# Coordination Sequence:
#
# PCOD9419855 Si02
#       4
#     8   8   8   2
#     4   9  16  31  51  81 124 160 196 240 301 360
#     4  11  22  43  70  95 126 164 214 267 326 383
#     4   8  17  33  57  83 118 163 200 248 300 373
#     4  12  26  44  68  98 124 158 218 278 328 388
#
# _framework density 24.705283999999999
#
# number of rings (size 3 to 8) (size 9 to 14) (size 15 to 20)
#    0.000    2.462    1.538    3.231    0.000    0.000 
#    5.538    3.077    6.769    0.000    0.000    0.000 
#    0.000    0.000    0.000    0.000    0.000    0.000 
#
# Total GULP energy -144829.784156 kJ/mol
# GULP energy per Si atom -5570.376314 kJ/mol
# Density = 2.464905 g / cm^3
# Si number density = 24.705284 Si / 1000 Ang^3
#
#
#
# Elastic Constant Matrix: (Units=GPa)
#
#
# Indices 1 2 3 4 5 6 
#
# 1 146.3424 9.5569 23.4106 0.0000 0.0000 0.0000
# 2 9.5569 59.7872 -10.7234 0.0000 0.0000 0.0000
# 3 23.4106 -10.7234 177.1241 0.0000 0.0000 0.0000
# 4 0.0000 0.0000 0.0000 25.5921 0.0000 0.0000
# 5 0.0000 0.0000 0.0000 0.0000 33.2487 0.0000
# 6 0.0000 0.0000 0.0000 0.0000 0.0000 -30.1371
#
#
#
# Elastic Compliance Matrix: (Units=1/GPa)
#
#
# Indices 1 2 3 4 5 6 
#
# 1 0.007082 -0.001314 -0.001016 0.000000 0.000000 0.000000
# 2 -0.001314 0.017153 0.001212 0.000000 0.000000 0.000000
# 3 -0.001016 0.001212 0.005853 0.000000 0.000000 0.000000
# 4 0.000000 0.000000 0.000000 0.039075 0.000000 0.000000
# 5 0.000000 0.000000 0.000000 0.000000 0.030076 0.000000
# 6 0.000000 0.000000 0.000000 0.000000 0.000000 -0.033182
#
#
# Mechanical properties :
#
#
# Convention : Reuss Voigt Hill
#
# Bulk Modulus (GPa) = 35.90220 47.52689 41.71454
# Shear Modulus (GPa) = 64.45207 29.80805 47.13006
#
# Velocity S-wave (km/s) = 5.11322 3.47730 4.37245
# Velocity P-wave (km/s) = 7.03020 5.94992 6.51250
#
# Compressibility (1/GPa) = 0.02785345
#
# Stress axis : x y z
#
# Youngs Moduli (GPa) = 141.21170 58.29729 170.84170
#
# Poissons Ratio (x) = 0.07661 0.17350
# Poissons Ratio (y) = 0.18557 -0.20709
# Poissons Ratio (z) = 0.14341 -0.07067
#
# Static dielectric constant tensor:
#      x y z
#    x 1.917500 0.000000 0.000000 
#    y 0.000000 2.082650 0.000000 
#    z 0.000000 0.000000 1.983570 
# 
# From -- ./inp_files/13585.got.cif
#   From: 2010.05.17/outbox.cif.g08.bks.cpg/sg53_7_cif.got.tgz:13585.got - 2010.06.03 12:45:16.
