data_PCOD9419109
_publ_section_title
;
Structure prediction by ZEFSAII (Michael W. Deem and Ramdas Pophale) SiO2 
 PCOD9419109
Probable space group: P M N A
;
_chemical_formula_sum "Si O2"
_cell_formula_units_Z 28
_cell_length_a 9.586265
_cell_length_b 6.422775
_cell_length_c 22.546875
_cell_angle_alpha 90.000000
_cell_angle_beta 90.000000
_cell_angle_gamma 90.000000
_cell_volume 1388.220635
_symmetry_space_group_name_H-M "P M N A"
_symmetry_group_IT_number 53
_symmetry_cell_setting 'orthorhombic'
loop_
_space_group_symop_operation_xyz
x,y,z
1/2-x,-y,1/2+z
x,-y,-z
1/2-x,y,1/2-z
-x,-y,-z
1/2+x,y,1/2-z
-x,y,z
1/2+x,-y,1/2+z
loop_
_atom_site_type_symbol
_atom_site_label
_atom_site_fract_x
_atom_site_fract_y
_atom_site_fract_z
Si Si1 0.662747 0.509346 0.808958
Si Si2 0.254344 0.500000 0.500000
Si Si3 0.841791 0.225983 0.893259
Si Si4 0.653348 0.158023 0.086445
O O1 0.750000 0.554090 0.750000
O O2 0.500000 0.461587 0.796876
O O3 0.740688 0.322613 0.843413
O O4 0.665544 0.705197 0.853803
O O5 0.339069 0.386358 0.551783
O O6 0.166651 0.321338 0.467186
O O7 0.000000 0.199998 0.872079
O O8 0.774595 0.010793 0.914857
O O9 0.500000 0.057333 0.084632
#
# Coordination Sequence:
#
# PCOD9419109 Si02
#       4
#     8   4   8   8
#     4  10  22  41  63  86 115 151 193 241 290 344
#     4  10  22  38  60  86 118 156 198 242 288 340
#     4  11  23  38  59  87 120 156 194 239 290 345
#     4  10  22  39  60  87 118 154 196 241 292 347
#
# _framework density 20.169705
#
# number of rings (size 3 to 8) (size 9 to 14) (size 15 to 20)
#    0.000    1.714    0.000    3.429    0.000   13.714 
#    0.000    2.857    0.000    0.000    0.000    0.000 
#    0.000    0.000    0.000    0.000    0.000    0.000 
#
# Total GULP energy -156443.447905 kJ/mol
# GULP energy per Si atom -5587.265997 kJ/mol
# Density = 2.012380 g / cm^3
# Si number density = 20.169705 Si / 1000 Ang^3
#
#
#
# Elastic Constant Matrix: (Units=GPa)
#
#
# Indices 1 2 3 4 5 6 
#
# 1 180.9247 41.8303 35.0299 0.0000 0.0000 0.0000
# 2 41.8303 61.1927 -3.1019 0.0000 0.0000 0.0000
# 3 35.0299 -3.1019 85.3267 0.0000 0.0000 0.0000
# 4 0.0000 0.0000 0.0000 13.6514 0.0000 0.0000
# 5 0.0000 0.0000 0.0000 0.0000 -3.9957 0.0000
# 6 0.0000 0.0000 0.0000 0.0000 0.0000 13.4230
#
#
#
# Elastic Compliance Matrix: (Units=1/GPa)
#
#
# Indices 1 2 3 4 5 6 
#
# 1 0.007346 -0.005184 -0.003204 0.000000 0.000000 0.000000
# 2 -0.005184 0.020030 0.002856 0.000000 0.000000 0.000000
# 3 -0.003204 0.002856 0.013139 0.000000 0.000000 0.000000
# 4 0.000000 0.000000 0.000000 0.073253 0.000000 0.000000
# 5 0.000000 0.000000 0.000000 0.000000 -0.250272 0.000000
# 6 0.000000 0.000000 0.000000 0.000000 0.000000 0.074499
#
#
# Mechanical properties :
#
#
# Convention : Reuss Voigt Hill
#
# Bulk Modulus (GPa) = 33.95411 52.77341 43.36376
# Shear Modulus (GPa) = -121.58458 21.52813 -50.02823
#
# Velocity S-wave (km/s) = -7.77249 3.27058 -4.98573
# Velocity P-wave (km/s) = 7.97986 6.36268 3.40547
#
# Compressibility (1/GPa) = 0.02945152
#
# Stress axis : x y z
#
# Youngs Moduli (GPa) = 136.12553 49.92415 76.10919
#
# Poissons Ratio (x) = 0.25881 0.24388
# Poissons Ratio (y) = 0.70569 -0.21740
# Poissons Ratio (z) = 0.43619 -0.14261
#
# Static dielectric constant tensor:
#      x y z
#    x 1.697430 0.000000 0.000000 
#    y 0.000000 1.698880 0.000000 
#    z 0.000000 0.000000 1.709550 
# 
# From -- ./inp_files/35883.got.cif
#   From: 2010.05.17/outbox.cif.g08.bks.cpg/sg53_18_cif.got.tgz:35883.got - 2010.06.03 12:45:16.
