data_PCOD9419756
_publ_section_title
;
Structure prediction by ZEFSAII (Michael W. Deem and Ramdas Pophale) SiO2 
 PCOD9419756
Probable space group: P M N A
;
_chemical_formula_sum "Si O2"
_cell_formula_units_Z 56
_cell_length_a 20.724288
_cell_length_b 13.814998
_cell_length_c 9.527565
_cell_angle_alpha 90.000000
_cell_angle_beta 90.000000
_cell_angle_gamma 90.000000
_cell_volume 2727.798999
_symmetry_space_group_name_H-M "P M N A"
_symmetry_group_IT_number 53
_symmetry_cell_setting 'orthorhombic'
loop_
_space_group_symop_operation_xyz
x,y,z
1/2-x,-y,1/2+z
x,-y,-z
1/2-x,y,1/2-z
-x,-y,-z
1/2+x,y,1/2-z
-x,y,z
1/2+x,-y,1/2+z
loop_
_atom_site_type_symbol
_atom_site_label
_atom_site_fract_x
_atom_site_fract_y
_atom_site_fract_z
Si Si1 0.215516 0.594702 0.903845
Si Si2 0.071047 0.017574 0.665641
Si Si3 0.715183 0.885918 0.485212
Si Si4 0.865603 0.831632 0.766001
Si Si5 0.682683 0.252426 0.984356
Si Si6 0.385758 0.218687 0.719374
Si Si7 0.071997 0.319372 0.054624
O O1 0.250000 0.583931 0.750000
O O2 0.259363 0.674368 0.983980
O O3 0.138804 0.624370 0.902407
O O4 0.219783 0.500000 0.000000
O O5 0.077215 0.129033 0.709328
O O6 0.000000 0.984670 0.710342
O O7 0.076192 0.000000 0.500000
O O8 0.119869 0.942909 0.734504
O O9 0.696653 0.837225 0.634021
O O10 0.786636 0.852452 0.447896
O O11 0.668497 0.836745 0.372451
O O12 0.708836 0.000000 0.500000
O O13 0.856049 0.768982 0.626215
O O14 0.920682 0.779672 0.856416
O O15 0.642814 0.280649 0.847654
O O16 0.421438 0.286637 0.607654
O O17 0.000000 0.361988 0.078431
#
# Coordination Sequence:
#
# PCOD9419756 Si02
#       7
#     8   8   8   8   8   8   8
#     4  12  27  48  79 107 131 169 218 279 347 419
#     4  11  22  36  53  87 132 185 239 277 324 386
#     4  11  22  32  56  91 129 170 220 277 334 382
#     4  11  21  39  61  89 130 179 226 275 323 389
#     4  12  23  41  63  95 133 167 227 274 333 400
#     4  11  23  37  61  93 132 179 229 280 324 388
#     4  11  25  46  69  98 136 179 223 275 339 405
#
# _framework density 20.529371999999999
#
# number of rings (size 3 to 8) (size 9 to 14) (size 15 to 20)
#    0.000    0.714    7.143    1.714    4.000    1.429 
#    0.000    2.143    0.000    0.429    0.000    0.000 
#    0.000    0.000    0.000    0.000    0.000    0.000 
#
# Total GULP energy -312430.330023 kJ/mol
# GULP energy per Si atom -5579.113036 kJ/mol
# Density = 2.048265 g / cm^3
# Si number density = 20.529372 Si / 1000 Ang^3
#
#
#
# Elastic Constant Matrix: (Units=GPa)
#
#
# Indices 1 2 3 4 5 6 
#
# 1 99.1726 28.7780 51.2859 0.0000 0.0000 0.0000
# 2 28.7780 73.0628 25.6395 0.0000 0.0000 0.0000
# 3 51.2859 25.6395 107.3756 0.0000 0.0000 0.0000
# 4 0.0000 0.0000 0.0000 28.4383 0.0000 0.0000
# 5 0.0000 0.0000 0.0000 0.0000 18.3636 0.0000
# 6 0.0000 0.0000 0.0000 0.0000 0.0000 12.7401
#
#
#
# Elastic Compliance Matrix: (Units=1/GPa)
#
#
# Indices 1 2 3 4 5 6 
#
# 1 0.014165 -0.003498 -0.005931 0.000000 0.000000 0.000000
# 2 -0.003498 0.015803 -0.002102 0.000000 0.000000 0.000000
# 3 -0.005931 -0.002102 0.012648 0.000000 0.000000 0.000000
# 4 0.000000 0.000000 0.000000 0.035164 0.000000 0.000000
# 5 0.000000 0.000000 0.000000 0.000000 0.054455 0.000000
# 6 0.000000 0.000000 0.000000 0.000000 0.000000 0.078492
#
#
# Mechanical properties :
#
#
# Convention : Reuss Voigt Hill
#
# Bulk Modulus (GPa) = 51.14270 54.55753 52.85012
# Shear Modulus (GPa) = 20.80664 23.50224 22.15444
#
# Velocity S-wave (km/s) = 3.18701 3.38718 3.28862
# Velocity P-wave (km/s) = 6.20555 6.47536 6.34189
#
# Compressibility (1/GPa) = 0.01955313
#
# Stress axis : x y z
#
# Youngs Moduli (GPa) = 70.59415 63.28072 79.06548
#
# Poissons Ratio (x) = 0.22138 0.46890
# Poissons Ratio (y) = 0.24696 0.16623
# Poissons Ratio (z) = 0.41866 0.13305
#
# Static dielectric constant tensor:
#      x y z
#    x 1.766750 0.000000 0.000000 
#    y 0.000000 1.730610 0.000000 
#    z 0.000000 0.000000 1.764920 
# 
# From -- ./inp_files/11079.got.cif
#   From: 2010.05.17/outbox.cif.g08.bks.cpg/sg53_6_cif.got.tgz:11079.got - 2010.06.03 12:45:16.
