data_PCOD9419411
_publ_section_title
;
Structure prediction by ZEFSAII (Michael W. Deem and Ramdas Pophale) SiO2 
 PCOD9419411
Probable space group: P M N A
;
_chemical_formula_sum "Si O2"
_cell_formula_units_Z 34
_cell_length_a 7.352136
_cell_length_b 24.135707
_cell_length_c 8.591410
_cell_angle_alpha 90.000000
_cell_angle_beta 90.000000
_cell_angle_gamma 90.000000
_cell_volume 1524.537116
_symmetry_space_group_name_H-M "P M N A"
_symmetry_group_IT_number 53
_symmetry_cell_setting 'orthorhombic'
loop_
_space_group_symop_operation_xyz
x,y,z
1/2-x,-y,1/2+z
x,-y,-z
1/2-x,y,1/2-z
-x,-y,-z
1/2+x,y,1/2-z
-x,y,z
1/2+x,-y,1/2+z
loop_
_atom_site_type_symbol
_atom_site_label
_atom_site_fract_x
_atom_site_fract_y
_atom_site_fract_z
Si Si1 0.716881 0.557574 0.565944
Si Si2 0.715917 0.090940 0.433118
Si Si3 0.717396 0.322280 0.435109
Si Si4 0.000000 0.000000 0.500000
Si Si5 0.783974 0.207320 0.931656
O O1 0.791172 0.500000 0.500000
O O2 0.750000 0.557082 0.750000
O O3 0.500000 0.557484 0.537263
O O4 0.787181 0.617522 0.508885
O O5 0.750000 0.080249 0.250000
O O6 0.500000 0.084920 0.465419
O O7 0.776630 0.153504 0.473173
O O8 0.840228 0.047507 0.522553
O O9 0.750000 0.318190 0.250000
O O10 0.500000 0.323477 0.458701
O O11 0.790598 0.266847 0.514964
O O12 0.750000 0.198545 0.750000
O O13 0.000000 0.209785 0.957482
#
# Coordination Sequence:
#
# PCOD9419411 Si02
#       5
#     8   8   8   2   8
#     4   9  18  32  51  77 112 150 193 241 292 349
#     4  11  24  46  69  97 127 167 211 251 307 370
#     4   9  18  35  56  81 110 151 197 241 292 354
#     4  12  26  44  72 100 128 164 208 258 296 374
#     4  10  23  39  59  88 120 153 195 250 302 354
#
# _framework density 22.301849000000001
#
# number of rings (size 3 to 8) (size 9 to 14) (size 15 to 20)
#    0.000    2.118    1.176    1.059    1.647    3.294 
#    4.235    0.000    0.000    0.000    0.000    0.000 
#    0.000    0.000    0.000    0.000    0.000    0.000 
#
# Total GULP energy -189311.384162 kJ/mol
# GULP energy per Si atom -5567.981887 kJ/mol
# Density = 2.225109 g / cm^3
# Si number density = 22.301849 Si / 1000 Ang^3
#
#
#
# Elastic Constant Matrix: (Units=GPa)
#
#
# Indices 1 2 3 4 5 6 
#
# 1 127.5100 58.4499 -0.4902 0.0000 0.0000 0.0000
# 2 58.4499 187.7322 2.2139 0.0000 0.0000 0.0000
# 3 -0.4902 2.2139 11.1951 0.0000 0.0000 0.0000
# 4 0.0000 0.0000 0.0000 -18.6466 0.0000 0.0000
# 5 0.0000 0.0000 0.0000 0.0000 17.3480 0.0000
# 6 0.0000 0.0000 0.0000 0.0000 0.0000 74.8287
#
#
#
# Elastic Compliance Matrix: (Units=1/GPa)
#
#
# Indices 1 2 3 4 5 6 
#
# 1 0.009159 -0.002863 0.000967 0.000000 0.000000 0.000000
# 2 -0.002863 0.006234 -0.001358 0.000000 0.000000 0.000000
# 3 0.000967 -0.001358 0.089636 0.000000 0.000000 0.000000
# 4 0.000000 0.000000 0.000000 -0.053629 0.000000 0.000000
# 5 0.000000 0.000000 0.000000 0.000000 0.057644 0.000000
# 6 0.000000 0.000000 0.000000 0.000000 0.000000 0.013364
#
#
# Mechanical properties :
#
#
# Convention : Reuss Voigt Hill
#
# Bulk Modulus (GPa) = 10.15013 49.64270 29.89642
# Shear Modulus (GPa) = 30.91094 32.45693 31.68394
#
# Velocity S-wave (km/s) = 3.72698 3.81904 3.77329
# Velocity P-wave (km/s) = 4.80433 6.46177 5.69369
#
# Compressibility (1/GPa) = 0.09852088
#
# Stress axis : x y z
#
# Youngs Moduli (GPa) = 109.18719 160.40781 11.15623
#
# Poissons Ratio (x) = 0.45923 -0.01079
# Poissons Ratio (y) = 0.31259 0.01515
# Poissons Ratio (z) = -0.10560 0.21786
#
# Static dielectric constant tensor:
#      x y z
#    x 1.815080 0.000000 0.000000 
#    y 0.000000 1.868980 0.000000 
#    z 0.000000 0.000000 1.773280 
# 
# From -- ./inp_files/6142.got.cif
#   From: 2010.05.17/outbox.cif.g08.bks.cpg/sg53_4_cif.got.tgz:6142.got - 2010.06.03 12:45:16.
