data_PCOD9419229
_publ_section_title
;
Structure prediction by ZEFSAII (Michael W. Deem and Ramdas Pophale) SiO2 
 PCOD9419229
Probable space group: P M N A
;
_chemical_formula_sum "Si O2"
_cell_formula_units_Z 32
_cell_length_a 20.687127
_cell_length_b 16.553194
_cell_length_c 5.018034
_cell_angle_alpha 90.000000
_cell_angle_beta 90.000000
_cell_angle_gamma 90.000000
_cell_volume 1718.365660
_symmetry_space_group_name_H-M "P M N A"
_symmetry_group_IT_number 53
_symmetry_cell_setting 'orthorhombic'
loop_
_space_group_symop_operation_xyz
x,y,z
1/2-x,-y,1/2+z
x,-y,-z
1/2-x,y,1/2-z
-x,-y,-z
1/2+x,y,1/2-z
-x,y,z
1/2+x,-y,1/2+z
loop_
_atom_site_type_symbol
_atom_site_label
_atom_site_fract_x
_atom_site_fract_y
_atom_site_fract_z
Si Si1 0.687552 0.310191 0.938254
Si Si2 0.207246 0.000000 0.500000
Si Si3 0.866949 0.156925 0.315875
Si Si4 0.750000 0.445440 0.250000
Si Si5 0.926831 0.771640 0.202852
O O1 0.750000 0.310402 0.750000
O O2 0.621693 0.302965 0.766037
O O3 0.683748 0.227869 0.108688
O O4 0.695004 0.386355 0.131886
O O5 0.164879 0.928418 0.625257
O O6 0.250000 0.968726 0.250000
O O7 0.923408 0.175691 0.527843
O O8 0.893669 0.174482 0.024777
O O9 0.728762 0.500000 0.500000
O O10 0.000000 0.749302 0.136227
#
# Coordination Sequence:
#
# PCOD9419229 Si02
#       5
#     8   4   8   4   8
#     4  10  22  40  63  95 122 166 202 264 313 379
#     4  12  24  38  59  94 131 168 218 278 324 376
#     4  10  23  37  62  89 123 165 219 260 319 368
#     4  12  24  38  64 102 132 156 202 268 332 384
#     4  10  22  40  64  88 124 173 218 255 319 387
#
# _framework density 18.622347999999999
#
# number of rings (size 3 to 8) (size 9 to 14) (size 15 to 20)
#    1.500    0.000    1.250    4.500    5.250    0.000 
#    0.000    3.750    0.000    1.500    0.000    0.000 
#    0.000    0.000    0.000    0.000    0.000    0.000 
#
# Total GULP energy -178227.792990 kJ/mol
# GULP energy per Si atom -5569.618531 kJ/mol
# Density = 1.857996 g / cm^3
# Si number density = 18.622348 Si / 1000 Ang^3
#
#
#
# Elastic Constant Matrix: (Units=GPa)
#
#
# Indices 1 2 3 4 5 6 
#
# 1 120.7373 50.5436 39.6778 0.0000 0.0000 0.0000
# 2 50.5436 113.6766 37.8767 0.0000 0.0000 0.0000
# 3 39.6778 37.8767 103.1725 0.0000 0.0000 0.0000
# 4 0.0000 0.0000 0.0000 25.6029 0.0000 0.0000
# 5 0.0000 0.0000 0.0000 0.0000 13.5598 0.0000
# 6 0.0000 0.0000 0.0000 0.0000 0.0000 -10.4943
#
#
#
# Elastic Compliance Matrix: (Units=1/GPa)
#
#
# Indices 1 2 3 4 5 6 
#
# 1 0.010810 -0.003898 -0.002726 0.000000 0.000000 0.000000
# 2 -0.003898 0.011429 -0.002697 0.000000 0.000000 0.000000
# 3 -0.002726 -0.002697 0.011731 0.000000 0.000000 0.000000
# 4 0.000000 0.000000 0.000000 0.039058 0.000000 0.000000
# 5 0.000000 0.000000 0.000000 0.000000 0.073747 0.000000
# 6 0.000000 0.000000 0.000000 0.000000 0.000000 -0.095290
#
#
# Mechanical properties :
#
#
# Convention : Reuss Voigt Hill
#
# Bulk Modulus (GPa) = 65.24075 65.97585 65.60830
# Shear Modulus (GPa) = 66.45715 19.69957 43.07836
#
# Velocity S-wave (km/s) = 5.98032 3.25598 4.81486
# Velocity P-wave (km/s) = 9.09919 7.04560 8.13744
#
# Compressibility (1/GPa) = 0.01532784
#
# Stress axis : x y z
#
# Youngs Moduli (GPa) = 92.50499 87.50006 85.24481
#
# Poissons Ratio (x) = 0.34109 0.23240
# Poissons Ratio (y) = 0.36060 0.22987
# Poissons Ratio (z) = 0.25220 0.23595
#
# Static dielectric constant tensor:
#      x y z
#    x 1.642100 0.000000 0.000000 
#    y 0.000000 1.641430 0.000000 
#    z 0.000000 0.000000 1.689930 
# 
# From -- ./inp_files/2847.got.cif
#   From: 2010.05.17/outbox.cif.g08.bks.cpg/sg53_2_cif.got.tgz:2847.got - 2010.06.03 12:45:16.
