data_PCOD9419473
_publ_section_title
;
Structure prediction by ZEFSAII (Michael W. Deem and Ramdas Pophale) SiO2 
 PCOD9419473
Probable space group: P M N A
;
_chemical_formula_sum "Si O2"
_cell_formula_units_Z 56
_cell_length_a 14.618654
_cell_length_b 15.006438
_cell_length_c 12.172666
_cell_angle_alpha 90.000000
_cell_angle_beta 90.000000
_cell_angle_gamma 90.000000
_cell_volume 2670.365517
_symmetry_space_group_name_H-M "P M N A"
_symmetry_group_IT_number 53
_symmetry_cell_setting 'orthorhombic'
loop_
_space_group_symop_operation_xyz
x,y,z
1/2-x,-y,1/2+z
x,-y,-z
1/2-x,y,1/2-z
-x,-y,-z
1/2+x,y,1/2-z
-x,y,z
1/2+x,-y,1/2+z
loop_
_atom_site_type_symbol
_atom_site_label
_atom_site_fract_x
_atom_site_fract_y
_atom_site_fract_z
Si Si1 0.105974 0.328349 0.145645
Si Si2 0.607262 0.788316 0.198879
Si Si3 0.892966 0.612633 0.440962
Si Si4 0.748693 0.514570 0.627945
Si Si5 0.605215 0.186209 0.544152
Si Si6 0.707149 0.897899 0.018765
Si Si7 0.891538 0.749286 0.619601
O O1 0.183041 0.402546 0.156478
O O2 0.118068 0.265034 0.251490
O O3 0.000000 0.361967 0.149728
O O4 0.117043 0.271284 0.035099
O O5 0.500000 0.808298 0.177234
O O6 0.625926 0.691896 0.146293
O O7 0.619939 0.787815 0.328967
O O8 0.668088 0.859754 0.133847
O O9 0.850576 0.521496 0.399266
O O10 0.858041 0.660545 0.553799
O O11 0.000000 0.601425 0.451543
O O12 0.710661 0.500000 0.500000
O O13 0.750000 0.468147 0.750000
O O14 0.500000 0.155299 0.531050
O O15 0.683958 0.116564 0.514922
O O16 0.661729 0.833085 0.928317
O O17 0.682799 0.000000 0.000000
O O18 0.000000 0.759116 0.595029
#
# Coordination Sequence:
#
# PCOD9419473 Si02
#       7
#     8   8   8   8   8   8   8
#     4  10  24  46  66  89 129 183 227 269 334 406
#     4   9  20  41  69  96 129 172 217 271 333 398
#     4   9  20  40  66  95 127 170 221 274 335 392
#     4  12  28  40  64  99 132 174 229 292 341 401
#     4  10  23  43  66  89 130 179 216 259 325 406
#     4  11  23  39  70 107 133 163 218 282 334 398
#     4   9  20  43  72  96 132 179 222 275 342 409
#
# _framework density 20.970911999999998
#
# number of rings (size 3 to 8) (size 9 to 14) (size 15 to 20)
#    0.000    2.000    0.000    2.571    8.000    2.571 
#    5.143    0.000    0.000    0.000    0.000    0.000 
#    0.000    0.000    0.000    0.000    0.000    0.000 
#
# Total GULP energy -311746.673338 kJ/mol
# GULP energy per Si atom -5566.904881 kJ/mol
# Density = 2.092318 g / cm^3
# Si number density = 20.970912 Si / 1000 Ang^3
#
#
#
# Elastic Constant Matrix: (Units=GPa)
#
#
# Indices 1 2 3 4 5 6 
#
# 1 111.6426 61.9536 44.1698 0.0000 0.0000 0.0000
# 2 61.9536 111.8239 10.7097 0.0000 0.0000 0.0000
# 3 44.1698 10.7097 93.0981 0.0000 0.0000 0.0000
# 4 0.0000 0.0000 0.0000 -0.2759 0.0000 0.0000
# 5 0.0000 0.0000 0.0000 0.0000 25.5145 0.0000
# 6 0.0000 0.0000 0.0000 0.0000 0.0000 23.4441
#
#
#
# Elastic Compliance Matrix: (Units=1/GPa)
#
#
# Indices 1 2 3 4 5 6 
#
# 1 0.016276 -0.008370 -0.006759 0.000000 0.000000 0.000000
# 2 -0.008370 0.013347 0.002436 0.000000 0.000000 0.000000
# 3 -0.006759 0.002436 0.013668 0.000000 0.000000 0.000000
# 4 0.000000 0.000000 0.000000 -3.624396 0.000000 0.000000
# 5 0.000000 0.000000 0.000000 0.000000 0.039193 0.000000
# 6 0.000000 0.000000 0.000000 0.000000 0.000000 0.042655
#
#
# Mechanical properties :
#
#
# Convention : Reuss Voigt Hill
#
# Bulk Modulus (GPa) = 55.85438 61.13673 58.49556
# Shear Modulus (GPa) = -1.44179 23.05198 10.80509
#
# Velocity S-wave (km/s) = -0.83007 3.31907 2.27236
# Velocity P-wave (km/s) = 5.07675 6.62606 5.90246
#
# Compressibility (1/GPa) = 0.01790370
#
# Stress axis : x y z
#
# Youngs Moduli (GPa) = 61.43957 74.92538 73.16340
#
# Poissons Ratio (x) = 0.62713 0.49453
# Poissons Ratio (y) = 0.51425 -0.17821
# Poissons Ratio (z) = 0.41529 -0.18250
#
# Static dielectric constant tensor:
#      x y z
#    x 1.777840 0.000000 0.000000 
#    y 0.000000 1.819330 0.000000 
#    z 0.000000 0.000000 1.913490 
# 
# From -- ./inp_files/16071.got.cif
#   From: 2010.05.17/outbox.cif.g08.bks.cpg/sg53_9_cif.got.tgz:16071.got - 2010.06.03 12:45:16.
