data_PCOD9419807
_publ_section_title
;
Structure prediction by ZEFSAII (Michael W. Deem and Ramdas Pophale) SiO2 
 PCOD9419807
Probable space group: P M N A
;
_chemical_formula_sum "Si O2"
_cell_formula_units_Z 40
_cell_length_a 10.169201
_cell_length_b 23.095297
_cell_length_c 10.246605
_cell_angle_alpha 90.000000
_cell_angle_beta 90.000000
_cell_angle_gamma 90.000000
_cell_volume 2406.525001
_symmetry_space_group_name_H-M "P M N A"
_symmetry_group_IT_number 53
_symmetry_cell_setting 'orthorhombic'
loop_
_space_group_symop_operation_xyz
x,y,z
1/2-x,-y,1/2+z
x,-y,-z
1/2-x,y,1/2-z
-x,-y,-z
1/2+x,y,1/2-z
-x,y,z
1/2+x,-y,1/2+z
loop_
_atom_site_type_symbol
_atom_site_label
_atom_site_fract_x
_atom_site_fract_y
_atom_site_fract_z
Si Si1 0.750000 0.140743 0.750000
Si Si2 0.500000 0.068020 0.347151
Si Si3 0.846282 0.673778 0.628947
Si Si4 0.343321 0.210564 0.998252
Si Si5 0.000000 0.067910 0.838647
Si Si6 0.250000 0.139432 0.250000
Si Si7 0.345031 0.538482 0.873205
O O1 0.777163 0.181234 0.625835
O O2 0.626540 0.099854 0.719439
O O3 0.500000 0.073215 0.504180
O O4 0.371910 0.099699 0.291756
O O5 0.500000 0.000444 0.309772
O O6 0.750000 0.684904 0.750000
O O7 0.817751 0.721051 0.517933
O O8 0.829872 0.606588 0.591936
O O9 0.000000 0.681994 0.667097
O O10 0.500000 0.202267 0.987983
O O11 0.292440 0.178917 0.128340
O O12 0.250000 0.526496 0.750000
O O13 0.500000 0.529346 0.839555
O O14 0.314424 0.500000 0.000000
#
# Coordination Sequence:
#
# PCOD9419807 Si02
#       7
#     4   4   8   8   4   4   8
#     4  12  23  42  58  80 111 150 176 226 284 334
#     4  11  24  39  59  87 109 141 184 229 271 330
#     4   9  18  34  56  83 111 144 188 231 271 320
#     4  11  22  37  59  83 113 143 182 230 277 329
#     4  11  24  41  59  81 115 143 180 225 280 331
#     4  12  21  38  60  86 107 140 184 228 272 328
#     4   9  18  34  56  81 114 152 188 229 275 321
#
# _framework density 16.621478
#
# number of rings (size 3 to 8) (size 9 to 14) (size 15 to 20)
#    0.000    1.600    5.000    0.600    0.000    0.400 
#    3.600    1.000    0.000    0.000    0.000    0.000 
#    0.000    0.000    0.000    0.000    0.000    0.000 
#
# Total GULP energy -223189.776690 kJ/mol
# GULP energy per Si atom -5579.744417 kJ/mol
# Density = 1.658365 g / cm^3
# Si number density = 16.621478 Si / 1000 Ang^3
#
#
#
# Elastic Constant Matrix: (Units=GPa)
#
#
# Indices 1 2 3 4 5 6 
#
# 1 96.1266 57.8534 37.2703 0.0000 0.0000 0.0000
# 2 57.8534 110.9877 62.3160 0.0000 0.0000 0.0000
# 3 37.2703 62.3160 95.5526 0.0000 0.0000 0.0000
# 4 0.0000 0.0000 0.0000 -14.7885 0.0000 0.0000
# 5 0.0000 0.0000 0.0000 0.0000 26.3317 0.0000
# 6 0.0000 0.0000 0.0000 0.0000 0.0000 14.3554
#
#
#
# Elastic Compliance Matrix: (Units=1/GPa)
#
#
# Indices 1 2 3 4 5 6 
#
# 1 0.015246 -0.007270 -0.001205 0.000000 0.000000 0.000000
# 2 -0.007270 0.017682 -0.008696 0.000000 0.000000 0.000000
# 3 -0.001205 -0.008696 0.016607 0.000000 0.000000 0.000000
# 4 0.000000 0.000000 0.000000 -0.067620 0.000000 0.000000
# 5 0.000000 0.000000 0.000000 0.000000 0.037977 0.000000
# 6 0.000000 0.000000 0.000000 0.000000 0.000000 0.069660
#
#
# Mechanical properties :
#
#
# Convention : Reuss Voigt Hill
#
# Bulk Modulus (GPa) = 65.82475 68.61626 67.22050
# Shear Modulus (GPa) = 38.77216 14.86155 26.81685
#
# Velocity S-wave (km/s) = 4.83500 2.99342 4.02105
# Velocity P-wave (km/s) = 8.41771 7.30197 7.87961
#
# Compressibility (1/GPa) = 0.01519185
#
# Stress axis : x y z
#
# Youngs Moduli (GPa) = 65.59156 56.55397 60.21673
#
# Poissons Ratio (x) = 0.41117 0.07257
# Poissons Ratio (y) = 0.47688 0.52364
# Poissons Ratio (z) = 0.07905 0.49179
#
# Static dielectric constant tensor:
#      x y z
#    x 1.548620 0.000000 0.000000 
#    y 0.000000 1.557190 0.000000 
#    z 0.000000 0.000000 1.522220 
# 
# From -- ./inp_files/7480.got.cif
#   From: 2010.05.17/outbox.cif.g08.bks.cpg/sg53_4_cif.got.tgz:7480.got - 2010.06.03 12:45:16.
