data_PCOD9419742
_publ_section_title
;
Structure prediction by ZEFSAII (Michael W. Deem and Ramdas Pophale) SiO2 
 PCOD9419742
Probable space group: P M N A
;
_chemical_formula_sum "Si O2"
_cell_formula_units_Z 56
_cell_length_a 14.892562
_cell_length_b 12.025500
_cell_length_c 15.038390
_cell_angle_alpha 90.000000
_cell_angle_beta 90.000000
_cell_angle_gamma 90.000000
_cell_volume 2693.232849
_symmetry_space_group_name_H-M "P M N A"
_symmetry_group_IT_number 53
_symmetry_cell_setting 'orthorhombic'
loop_
_space_group_symop_operation_xyz
x,y,z
1/2-x,-y,1/2+z
x,-y,-z
1/2-x,y,1/2-z
-x,-y,-z
1/2+x,y,1/2-z
-x,y,z
1/2+x,-y,1/2+z
loop_
_atom_site_type_symbol
_atom_site_label
_atom_site_fract_x
_atom_site_fract_y
_atom_site_fract_z
Si Si1 0.204021 0.079799 0.075526
Si Si2 0.603101 0.455695 0.341245
Si Si3 0.603068 0.068282 0.705746
Si Si4 0.896594 0.319141 0.336121
Si Si5 0.270334 0.325271 0.464763
Si Si6 0.317049 0.689664 0.332345
Si Si7 0.098785 0.069839 0.372049
O O1 0.183768 0.208542 0.064502
O O2 0.312002 0.074750 0.070814
O O3 0.168214 0.023825 0.164142
O O4 0.165033 0.000000 0.000000
O O5 0.500000 0.427472 0.360562
O O6 0.629397 0.389577 0.250928
O O7 0.667116 0.418014 0.420893
O O8 0.614374 0.587116 0.327764
O O9 0.500000 0.053124 0.675898
O O10 0.637513 0.189793 0.679511
O O11 0.603922 0.038701 0.810163
O O12 0.826266 0.336126 0.416344
O O13 0.896173 0.186327 0.317006
O O14 0.000000 0.348503 0.359193
O O15 0.268684 0.320292 0.571482
O O16 0.250000 0.676313 0.250000
O O17 0.000000 0.072913 0.415295
#
# Coordination Sequence:
#
# PCOD9419742 Si02
#       7
#     8   8   8   8   8   8   8
#     4  11  21  37  58  89 121 156 199 250 304 361
#     4  11  24  42  66  94 123 158 205 260 318 370
#     4  11  23  39  58  86 124 166 206 249 307 370
#     4   9  19  40  68  97 122 151 203 265 316 366
#     4  11  23  40  65  94 122 165 207 257 310 362
#     4  12  25  42  62  86 126 171 211 254 306 374
#     4   9  19  36  62  88 117 154 197 252 307 362
#
# _framework density 20.792854999999999
#
# number of rings (size 3 to 8) (size 9 to 14) (size 15 to 20)
#    0.000    1.429    1.429    4.286    0.000    6.286 
#    0.000    1.429    0.000    3.429    0.000    0.000 
#    0.000    0.000    0.000    0.000    0.000    0.000 
#
# Total GULP energy -312558.450360 kJ/mol
# GULP energy per Si atom -5581.400899 kJ/mol
# Density = 2.074553 g / cm^3
# Si number density = 20.792855 Si / 1000 Ang^3
#
#
#
# Elastic Constant Matrix: (Units=GPa)
#
#
# Indices 1 2 3 4 5 6 
#
# 1 72.0559 17.6374 23.3855 0.0000 0.0000 0.0000
# 2 17.6374 105.9911 37.4112 0.0000 0.0000 0.0000
# 3 23.3855 37.4112 79.0511 0.0000 0.0000 0.0000
# 4 0.0000 0.0000 0.0000 22.7919 0.0000 0.0000
# 5 0.0000 0.0000 0.0000 0.0000 3.8881 0.0000
# 6 0.0000 0.0000 0.0000 0.0000 0.0000 21.3093
#
#
#
# Elastic Compliance Matrix: (Units=1/GPa)
#
#
# Indices 1 2 3 4 5 6 
#
# 1 0.015468 -0.001151 -0.004031 0.000000 0.000000 0.000000
# 2 -0.001151 0.011412 -0.005060 0.000000 0.000000 0.000000
# 3 -0.004031 -0.005060 0.016237 0.000000 0.000000 0.000000
# 4 0.000000 0.000000 0.000000 0.043875 0.000000 0.000000
# 5 0.000000 0.000000 0.000000 0.000000 0.257192 0.000000
# 6 0.000000 0.000000 0.000000 0.000000 0.000000 0.046928
#
#
# Mechanical properties :
#
#
# Convention : Reuss Voigt Hill
#
# Bulk Modulus (GPa) = 44.18396 45.99626 45.09011
# Shear Modulus (GPa) = 11.92910 21.50879 16.71895
#
# Velocity S-wave (km/s) = 2.39783 3.21975 2.83869
# Velocity P-wave (km/s) = 5.38162 5.99930 5.69883
#
# Compressibility (1/GPa) = 0.02263265
#
# Stress axis : x y z
#
# Youngs Moduli (GPa) = 64.64893 87.62343 61.58602
#
# Poissons Ratio (x) = 0.10086 0.24826
# Poissons Ratio (y) = 0.07442 0.31165
# Poissons Ratio (z) = 0.26061 0.44342
#
# Static dielectric constant tensor:
#      x y z
#    x 1.746280 0.000000 0.000000 
#    y 0.000000 1.749380 0.000000 
#    z 0.000000 0.000000 1.757420 
# 
# From -- ./inp_files/22782.got.cif
#   From: 2010.05.17/outbox.cif.g08.bks.cpg/sg53_12_cif.got.tgz:22782.got - 2010.06.03 12:45:16.
