data_PCOD9419129
_publ_section_title
;
Structure prediction by ZEFSAII (Michael W. Deem and Ramdas Pophale) SiO2 
 PCOD9419129
Probable space group: P M N A
;
_chemical_formula_sum "Si O2"
_cell_formula_units_Z 60
_cell_length_a 29.685187
_cell_length_b 12.323165
_cell_length_c 7.750308
_cell_angle_alpha 90.000000
_cell_angle_beta 90.000000
_cell_angle_gamma 90.000000
_cell_volume 2835.182466
_symmetry_space_group_name_H-M "P M N A"
_symmetry_group_IT_number 53
_symmetry_cell_setting 'orthorhombic'
loop_
_space_group_symop_operation_xyz
x,y,z
1/2-x,-y,1/2+z
x,-y,-z
1/2-x,y,1/2-z
-x,-y,-z
1/2+x,y,1/2-z
-x,y,z
1/2+x,-y,1/2+z
loop_
_atom_site_type_symbol
_atom_site_label
_atom_site_fract_x
_atom_site_fract_y
_atom_site_fract_z
Si Si1 0.655501 0.526922 0.199964
Si Si2 0.866265 0.767644 0.376010
Si Si3 0.770152 0.737755 0.932626
Si Si4 0.365916 0.705764 0.728534
Si Si5 0.551374 0.907755 0.240750
Si Si6 0.714615 0.086723 0.865140
Si Si7 0.227758 0.500000 0.000000
Si Si8 0.551315 0.144855 0.349987
O O1 0.635048 0.647394 0.206653
O O2 0.626417 0.423669 0.261458
O O3 0.697980 0.518699 0.327151
O O4 0.665539 0.500000 0.000000
O O5 0.854449 0.748478 0.578110
O O6 0.913235 0.829687 0.351675
O O7 0.827780 0.845458 0.297371
O O8 0.750000 0.766801 0.750000
O O9 0.823887 0.728805 0.899790
O O10 0.749619 0.824293 0.061098
O O11 0.751002 0.618123 0.977058
O O12 0.411054 0.766118 0.677841
O O13 0.500000 0.893622 0.178166
O O14 0.551702 0.881492 0.445758
O O15 0.562622 0.036056 0.240655
O O16 0.750000 0.019888 0.750000
O O17 0.695850 0.000000 0.000000
O O18 0.500000 0.176334 0.305569
#
# Coordination Sequence:
#
# PCOD9419129 Si02
#       8
#     8   8   8   8   8   8   4   8
#     4   9  21  40  60  95 127 159 211 266 309 382
#     4  11  23  40  64  87 126 166 203 254 322 366
#     4  11  23  43  60  92 128 162 214 263 302 380
#     4  10  22  39  64  88 125 162 203 263 310 363
#     4   9  21  39  62  93 124 158 206 258 306 378
#     4  12  28  43  61  88 128 168 212 258 314 378
#     4  10  22  38  68  88 115 174 217 256 320 362
#     4   9  20  40  63  91 123 159 207 255 312 377
#
# _framework density 21.162658
#
# number of rings (size 3 to 8) (size 9 to 14) (size 15 to 20)
#    0.000    1.867    1.333    2.000    7.467    3.200 
#    0.000    2.000    0.000    4.000    0.000    0.000 
#    0.000    0.000    0.000    0.000    0.000    0.000 
#
# Total GULP energy -335092.191530 kJ/mol
# GULP energy per Si atom -5584.869859 kJ/mol
# Density = 2.111449 g / cm^3
# Si number density = 21.162658 Si / 1000 Ang^3
#
#
#
# Elastic Constant Matrix: (Units=GPa)
#
#
# Indices 1 2 3 4 5 6 
#
# 1 122.8965 87.9238 11.6043 0.0000 0.0000 0.0000
# 2 87.9238 154.0560 18.2009 0.0000 0.0000 0.0000
# 3 11.6043 18.2009 41.0801 0.0000 0.0000 0.0000
# 4 0.0000 0.0000 0.0000 26.9192 0.0000 0.0000
# 5 0.0000 0.0000 0.0000 0.0000 26.9564 0.0000
# 6 0.0000 0.0000 0.0000 0.0000 0.0000 33.3913
#
#
#
# Elastic Compliance Matrix: (Units=1/GPa)
#
#
# Indices 1 2 3 4 5 6 
#
# 1 0.013759 -0.007802 -0.000430 0.000000 0.000000 0.000000
# 2 -0.007802 0.011274 -0.002791 0.000000 0.000000 0.000000
# 3 -0.000430 -0.002791 0.025701 0.000000 0.000000 0.000000
# 4 0.000000 0.000000 0.000000 0.037148 0.000000 0.000000
# 5 0.000000 0.000000 0.000000 0.000000 0.037097 0.000000
# 6 0.000000 0.000000 0.000000 0.000000 0.000000 0.029948
#
#
# Mechanical properties :
#
#
# Convention : Reuss Voigt Hill
#
# Bulk Modulus (GPa) = 34.85808 61.49894 48.17851
# Shear Modulus (GPa) = 26.80458 30.80696 28.80577
#
# Velocity S-wave (km/s) = 3.56279 3.81953 3.69339
# Velocity P-wave (km/s) = 5.78203 6.96957 6.40339
#
# Compressibility (1/GPa) = 0.02868775
#
# Stress axis : x y z
#
# Youngs Moduli (GPa) = 72.67809 88.70211 38.90944
#
# Poissons Ratio (x) = 0.69205 0.01673
# Poissons Ratio (y) = 0.56703 0.10860
# Poissons Ratio (z) = 0.03125 0.24757
#
# Static dielectric constant tensor:
#      x y z
#    x 1.757640 0.000000 0.000000 
#    y 0.000000 1.753140 0.000000 
#    z 0.000000 0.000000 1.922390 
# 
# From -- ./inp_files/13215.got.cif
#   From: 2010.05.17/outbox.cif.g08.bks.cpg/sg53_7_cif.got.tgz:13215.got - 2010.06.03 12:45:16.
