data_PCOD9419521
_publ_section_title
;
Structure prediction by ZEFSAII (Michael W. Deem and Ramdas Pophale) SiO2 
 PCOD9419521
Probable space group: P M N A
;
_chemical_formula_sum "Si O2"
_cell_formula_units_Z 64
_cell_length_a 28.001077
_cell_length_b 9.186315
_cell_length_c 12.693933
_cell_angle_alpha 90.000000
_cell_angle_beta 90.000000
_cell_angle_gamma 90.000000
_cell_volume 3265.218669
_symmetry_space_group_name_H-M "P M N A"
_symmetry_group_IT_number 53
_symmetry_cell_setting 'orthorhombic'
loop_
_space_group_symop_operation_xyz
x,y,z
1/2-x,-y,1/2+z
x,-y,-z
1/2-x,y,1/2-z
-x,-y,-z
1/2+x,y,1/2-z
-x,y,z
1/2+x,-y,1/2+z
loop_
_atom_site_type_symbol
_atom_site_label
_atom_site_fract_x
_atom_site_fract_y
_atom_site_fract_z
Si Si1 0.819999 0.161333 0.443940
Si Si2 0.136142 0.605279 0.908109
Si Si3 0.945116 0.944111 0.378755
Si Si4 0.286567 0.829409 0.505965
Si Si5 0.902682 0.210287 0.281594
Si Si6 0.295976 0.361067 0.692315
Si Si7 0.947703 0.528204 0.623371
Si Si8 0.631706 0.694553 0.133657
O O1 0.763349 0.182818 0.430603
O O2 0.851812 0.179155 0.339228
O O3 0.840440 0.283735 0.524012
O O4 0.825964 0.000000 0.500000
O O5 0.169547 0.733976 0.952885
O O6 0.103651 0.692219 0.823422
O O7 0.172930 0.491058 0.855766
O O8 0.113437 0.500000 0.000000
O O9 0.910043 0.810694 0.368733
O O10 0.000000 0.904056 0.366149
O O11 0.939295 0.000000 0.500000
O O12 0.928862 0.055768 0.287449
O O13 0.277783 0.756142 0.392224
O O14 0.298318 0.000000 0.500000
O O15 0.937361 0.304189 0.356390
O O16 0.250000 0.424546 0.750000
O O17 0.330155 0.282046 0.775373
O O18 0.950402 0.500000 0.500000
O O19 0.898322 0.450921 0.656242
O O20 0.000000 0.486640 0.669045
#
# Coordination Sequence:
#
# PCOD9419521 Si02
#       8
#     8   8   8   8   8   8   8   8
#     4  11  21  36  55  92 132 155 200 249 305 370
#     4  10  25  44  59  86 121 164 215 257 304 359
#     4  11  22  38  61  92 130 162 199 254 315 381
#     4  10  24  41  60  87 118 162 210 258 299 355
#     4  12  21  37  62  88 120 166 202 250 315 364
#     4  11  23  39  59  88 124 166 201 251 304 366
#     4  11  22  35  56  90 125 154 196 241 300 374
#     4  12  20  37  57  88 126 166 195 243 302 369
#
# _framework density 19.600525000000001
#
# number of rings (size 3 to 8) (size 9 to 14) (size 15 to 20)
#    0.000    1.000    6.250    0.750    3.500    2.000 
#    2.250    0.000    0.000    1.500    0.000    3.500 
#    0.000    0.000    0.000    0.000    0.000    0.000 
#
# Total GULP energy -356723.815451 kJ/mol
# GULP energy per Si atom -5573.809616 kJ/mol
# Density = 1.955591 g / cm^3
# Si number density = 19.600525 Si / 1000 Ang^3
#
#
#
# Elastic Constant Matrix: (Units=GPa)
#
#
# Indices 1 2 3 4 5 6 
#
# 1 70.4517 -0.3003 9.8340 0.0000 0.0000 0.0000
# 2 -0.3003 56.0931 4.6923 0.0000 0.0000 0.0000
# 3 9.8340 4.6923 46.2282 0.0000 0.0000 0.0000
# 4 0.0000 0.0000 0.0000 25.7602 0.0000 0.0000
# 5 0.0000 0.0000 0.0000 0.0000 -2.9250 0.0000
# 6 0.0000 0.0000 0.0000 0.0000 0.0000 -60.6597
#
#
#
# Elastic Compliance Matrix: (Units=1/GPa)
#
#
# Indices 1 2 3 4 5 6 
#
# 1 0.014635 0.000342 -0.003148 0.000000 0.000000 0.000000
# 2 0.000342 0.017988 -0.001899 0.000000 0.000000 0.000000
# 3 -0.003148 -0.001899 0.022494 0.000000 0.000000 0.000000
# 4 0.000000 0.000000 0.000000 0.038820 0.000000 0.000000
# 5 0.000000 0.000000 0.000000 0.000000 -0.341885 0.000000
# 6 0.000000 0.000000 0.000000 0.000000 0.000000 -0.016485
#
#
# Mechanical properties :
#
#
# Convention : Reuss Voigt Hill
#
# Bulk Modulus (GPa) = 21.87813 22.35832 22.11823
# Shear Modulus (GPa) = -20.85178 3.00491 -8.92344
#
# Velocity S-wave (km/s) = -3.26519 1.23952 -2.13601
# Velocity P-wave (km/s) = 1.74042 3.67155 2.28596
#
# Compressibility (1/GPa) = 0.04570774
#
# Stress axis : x y z
#
# Youngs Moduli (GPa) = 68.32943 55.59211 44.45598
#
# Poissons Ratio (x) = -0.01900 0.13994
# Poissons Ratio (y) = -0.02335 0.08440
# Poissons Ratio (z) = 0.21510 0.10554
#
# Static dielectric constant tensor:
#      x y z
#    x 1.683960 0.000000 0.000000 
#    y 0.000000 1.044910 0.000000 
#    z 0.000000 0.000000 1.755950 
# 
# From -- ./inp_files/19014.got.cif
#   From: 2010.05.17/outbox.cif.g08.bks.cpg/sg53_10_cif.got.tgz:19014.got - 2010.06.03 12:45:16.
