data_PCOD9419885
_publ_section_title
;
Structure prediction by ZEFSAII (Michael W. Deem and Ramdas Pophale) SiO2 
 PCOD9419885
Probable space group: P M N A
;
_chemical_formula_sum "Si O2"
_cell_formula_units_Z 32
_cell_length_a 13.642062
_cell_length_b 6.420039
_cell_length_c 16.868316
_cell_angle_alpha 90.000000
_cell_angle_beta 90.000000
_cell_angle_gamma 90.000000
_cell_volume 1477.370468
_symmetry_space_group_name_H-M "P M N A"
_symmetry_group_IT_number 53
_symmetry_cell_setting 'orthorhombic'
loop_
_space_group_symop_operation_xyz
x,y,z
1/2-x,-y,1/2+z
x,-y,-z
1/2-x,y,1/2-z
-x,-y,-z
1/2+x,y,1/2-z
-x,y,z
1/2+x,-y,1/2+z
loop_
_atom_site_type_symbol
_atom_site_label
_atom_site_fract_x
_atom_site_fract_y
_atom_site_fract_z
Si Si1 0.887316 0.330152 0.209749
Si Si2 0.750000 0.974279 0.250000
Si Si3 0.112588 0.668728 0.597182
Si Si4 0.743032 0.325159 0.619226
Si Si5 0.262893 0.000000 0.000000
O O1 0.885665 0.340497 0.305979
O O2 0.832377 0.517985 0.163615
O O3 0.000000 0.317129 0.184442
O O4 0.824966 0.118557 0.201430
O O5 0.705606 0.817842 0.185888
O O6 0.173236 0.461837 0.579479
O O7 0.000000 0.668942 0.572299
O O8 0.168643 0.864664 0.559226
O O9 0.703347 0.168617 0.551992
#
# Coordination Sequence:
#
# PCOD9419885 Si02
#       5
#     8   4   8   8   4
#     4  11  23  42  68 100 135 177 229 276 328 403
#     4  12  20  42  68  96 128 180 228 270 328 394
#     4  11  23  40  66 102 141 178 218 272 339 409
#     4  12  23  43  66  97 137 178 227 278 330 395
#     4  12  25  40  67 100 142 180 215 278 347 398
#
# _framework density 21.660105000000001
#
# number of rings (size 3 to 8) (size 9 to 14) (size 15 to 20)
#    0.000    0.500    7.500    1.125    0.000    5.000 
#    0.000    0.625    0.000    7.500    0.000    0.000 
#    0.000    0.000    0.000    0.000    0.000    0.000 
#
# Total GULP energy -178471.959511 kJ/mol
# GULP energy per Si atom -5577.248735 kJ/mol
# Density = 2.161081 g / cm^3
# Si number density = 21.660105 Si / 1000 Ang^3
#
#
#
# Elastic Constant Matrix: (Units=GPa)
#
#
# Indices 1 2 3 4 5 6 
#
# 1 114.9012 66.0742 34.9838 0.0000 0.0000 0.0000
# 2 66.0742 162.2896 67.5249 0.0000 0.0000 0.0000
# 3 34.9838 67.5249 107.4424 0.0000 0.0000 0.0000
# 4 0.0000 0.0000 0.0000 75.0009 0.0000 0.0000
# 5 0.0000 0.0000 0.0000 0.0000 10.0549 0.0000
# 6 0.0000 0.0000 0.0000 0.0000 0.0000 -23.3714
#
#
#
# Elastic Compliance Matrix: (Units=1/GPa)
#
#
# Indices 1 2 3 4 5 6 
#
# 1 0.011456 -0.004214 -0.001082 0.000000 0.000000 0.000000
# 2 -0.004214 0.009894 -0.004846 0.000000 0.000000 0.000000
# 3 -0.001082 -0.004846 0.012705 0.000000 0.000000 0.000000
# 4 0.000000 0.000000 0.000000 0.013333 0.000000 0.000000
# 5 0.000000 0.000000 0.000000 0.000000 0.099454 0.000000
# 6 0.000000 0.000000 0.000000 0.000000 0.000000 -0.042787
#
#
# Mechanical properties :
#
#
# Convention : Reuss Voigt Hill
#
# Bulk Modulus (GPa) = 72.61405 80.19988 76.40696
# Shear Modulus (GPa) = 38.78133 26.74023 32.76078
#
# Velocity S-wave (km/s) = 4.23596 3.51741 3.89330
# Velocity P-wave (km/s) = 7.58430 7.32142 7.45402
#
# Compressibility (1/GPa) = 0.01377144
#
# Stress axis : x y z
#
# Youngs Moduli (GPa) = 87.29260 101.07382 78.70906
#
# Poissons Ratio (x) = 0.42593 0.08514
# Poissons Ratio (y) = 0.36785 0.38141
# Poissons Ratio (z) = 0.09442 0.48979
#
# Static dielectric constant tensor:
#      x y z
#    x 1.742380 0.000000 0.000000 
#    y 0.000000 1.833800 0.000000 
#    z 0.000000 0.000000 1.903340 
# 
# From -- ./inp_files/27909.got.cif
#   From: 2010.05.17/outbox.cif.g08.bks.cpg/sg53_14_cif.got.tgz:27909.got - 2010.06.03 12:45:16.
