data_PCOD9419356
_publ_section_title
;
Structure prediction by ZEFSAII (Michael W. Deem and Ramdas Pophale) SiO2 
 PCOD9419356
Probable space group: P M N A
;
_chemical_formula_sum "Si O2"
_cell_formula_units_Z 40
_cell_length_a 20.726887
_cell_length_b 10.421040
_cell_length_c 9.031133
_cell_angle_alpha 90.000000
_cell_angle_beta 90.000000
_cell_angle_gamma 90.000000
_cell_volume 1950.686061
_symmetry_space_group_name_H-M "P M N A"
_symmetry_group_IT_number 53
_symmetry_cell_setting 'orthorhombic'
loop_
_space_group_symop_operation_xyz
x,y,z
1/2-x,-y,1/2+z
x,-y,-z
1/2-x,y,1/2-z
-x,-y,-z
1/2+x,y,1/2-z
-x,y,z
1/2+x,-y,1/2+z
loop_
_atom_site_type_symbol
_atom_site_label
_atom_site_fract_x
_atom_site_fract_y
_atom_site_fract_z
Si Si1 0.389994 0.134938 0.928819
Si Si2 0.423510 0.023611 0.326631
Si Si3 0.928794 0.406732 0.634389
Si Si4 0.320174 0.213694 0.202399
Si Si5 0.184687 0.504994 0.177894
O O1 0.387710 0.092368 0.759046
O O2 0.431187 0.263421 0.929819
O O3 0.329529 0.178584 0.028942
O O4 0.414031 0.000000 0.000000
O O5 0.500000 0.030716 0.286002
O O6 0.420752 0.000000 0.500000
O O7 0.381474 0.146662 0.280066
O O8 0.909413 0.500000 0.500000
O O9 0.876716 0.417326 0.763472
O O10 0.000000 0.445583 0.685430
O O11 0.250000 0.163339 0.250000
O O12 0.321700 0.362314 0.250319
O O13 0.250000 0.560214 0.250000
O O14 0.188966 0.500000 0.000000
#
# Coordination Sequence:
#
# PCOD9419356 Si02
#       5
#     8   8   8   8   8
#     4  10  22  43  68  94 136 177 222 274 339 409
#     4  10  23  41  64  96 135 178 225 276 340 407
#     4  11  23  41  68 103 134 172 231 281 332 410
#     4  10  23  42  64  96 132 171 231 280 335 411
#     4  11  25  44  68  95 134 180 227 283 351 420
#
# _framework density 20.505604999999999
#
# number of rings (size 3 to 8) (size 9 to 14) (size 15 to 20)
#    0.000    1.600    2.000    1.200    5.600   10.800 
#    0.000    4.000    0.000    0.000    0.000    0.000 
#    0.000    0.000    0.000    0.000    0.000    0.000 
#
# Total GULP energy -222860.307333 kJ/mol
# GULP energy per Si atom -5571.507683 kJ/mol
# Density = 2.045893 g / cm^3
# Si number density = 20.505605 Si / 1000 Ang^3
#
#
#
# Elastic Constant Matrix: (Units=GPa)
#
#
# Indices 1 2 3 4 5 6 
#
# 1 123.3276 1.5971 74.6413 0.0000 0.0000 0.0000
# 2 1.5971 92.3051 22.6164 0.0000 0.0000 0.0000
# 3 74.6413 22.6164 134.7945 0.0000 0.0000 0.0000
# 4 0.0000 0.0000 0.0000 21.4255 0.0000 0.0000
# 5 0.0000 0.0000 0.0000 0.0000 79.9680 0.0000
# 6 0.0000 0.0000 0.0000 0.0000 0.0000 -47.5020
#
#
#
# Elastic Compliance Matrix: (Units=1/GPa)
#
#
# Indices 1 2 3 4 5 6 
#
# 1 0.012400 0.001531 -0.007123 0.000000 0.000000 0.000000
# 2 0.001531 0.011487 -0.002775 0.000000 0.000000 0.000000
# 3 -0.007123 -0.002775 0.011829 0.000000 0.000000 0.000000
# 4 0.000000 0.000000 0.000000 0.046673 0.000000 0.000000
# 5 0.000000 0.000000 0.000000 0.000000 0.012505 0.000000
# 6 0.000000 0.000000 0.000000 0.000000 0.000000 -0.021052
#
#
# Mechanical properties :
#
#
# Convention : Reuss Voigt Hill
#
# Bulk Modulus (GPa) = 52.68482 60.90410 56.79446
# Shear Modulus (GPa) = 51.59760 27.54978 39.57369
#
# Velocity S-wave (km/s) = 5.02168 3.66939 4.39782
# Velocity P-wave (km/s) = 7.70531 6.90784 7.31744
#
# Compressibility (1/GPa) = 0.01898080
#
# Stress axis : x y z
#
# Youngs Moduli (GPa) = 80.64678 87.05438 84.54050
#
# Poissons Ratio (x) = -0.13326 0.60219
# Poissons Ratio (y) = -0.12345 0.23460
# Poissons Ratio (z) = 0.57445 0.24157
#
# Static dielectric constant tensor:
#      x y z
#    x 1.741830 0.000000 0.000000 
#    y 0.000000 1.763860 0.000000 
#    z 0.000000 0.000000 1.774700 
# 
# From -- ./inp_files/10746.got.cif
#   From: 2010.05.17/outbox.cif.g08.bks.cpg/sg53_6_cif.got.tgz:10746.got - 2010.06.03 12:45:16.
