data_PCOD9419275
_publ_section_title
;
Structure prediction by ZEFSAII (Michael W. Deem and Ramdas Pophale) SiO2 
 PCOD9419275
Probable space group: P M N A
;
_chemical_formula_sum "Si O2"
_cell_formula_units_Z 40
_cell_length_a 25.416821
_cell_length_b 9.381657
_cell_length_c 7.904729
_cell_angle_alpha 90.000000
_cell_angle_beta 90.000000
_cell_angle_gamma 90.000000
_cell_volume 1884.897623
_symmetry_space_group_name_H-M "P M N A"
_symmetry_group_IT_number 53
_symmetry_cell_setting 'orthorhombic'
loop_
_space_group_symop_operation_xyz
x,y,z
1/2-x,-y,1/2+z
x,-y,-z
1/2-x,y,1/2-z
-x,-y,-z
1/2+x,y,1/2-z
-x,y,z
1/2+x,-y,1/2+z
loop_
_atom_site_type_symbol
_atom_site_label
_atom_site_fract_x
_atom_site_fract_y
_atom_site_fract_z
Si Si1 0.317146 0.840665 0.555471
Si Si2 0.654335 0.413065 0.657806
Si Si3 0.619361 0.138600 0.095235
Si Si4 0.058397 0.420105 0.321567
Si Si5 0.217986 0.260792 0.591859
O O1 0.351500 0.746092 0.421260
O O2 0.349503 0.864940 0.726625
O O3 0.261659 0.754130 0.553732
O O4 0.304260 0.000000 0.500000
O O5 0.677104 0.500000 0.500000
O O6 0.602012 0.495883 0.712489
O O7 0.694043 0.401926 0.817037
O O8 0.577299 0.261730 0.131214
O O9 0.665538 0.185254 0.967337
O O10 0.596633 0.000000 0.000000
O O11 0.056619 0.500000 0.500000
O O12 0.000000 0.420712 0.244703
O O13 0.250000 0.192901 0.750000
#
# Coordination Sequence:
#
# PCOD9419275 Si02
#       5
#     8   8   8   8   8
#     4  11  24  43  67 100 141 182 222 273 341 409
#     4  11  22  45  68 103 134 181 231 286 343 409
#     4  12  23  42  71  98 138 181 230 283 335 414
#     4  11  25  47  73  97 133 180 228 291 360 405
#     4  10  22  41  63  94 136 176 224 261 333 406
#
# _framework density 21.221312000000001
#
# number of rings (size 3 to 8) (size 9 to 14) (size 15 to 20)
#    0.000    1.000    4.000    3.600    0.000    2.400 
#   21.600    0.000    0.000    1.200    0.000    0.000 
#    0.000    0.000    0.000    0.000    0.000    0.000 
#
# Total GULP energy -222735.377954 kJ/mol
# GULP energy per Si atom -5568.384449 kJ/mol
# Density = 2.117301 g / cm^3
# Si number density = 21.221312 Si / 1000 Ang^3
#
#
#
# Elastic Constant Matrix: (Units=GPa)
#
#
# Indices 1 2 3 4 5 6 
#
# 1 105.4663 85.1994 30.3195 0.0000 0.0000 0.0000
# 2 85.1994 124.6730 42.6267 0.0000 0.0000 0.0000
# 3 30.3195 42.6267 92.6555 0.0000 0.0000 0.0000
# 4 0.0000 0.0000 0.0000 36.9621 0.0000 0.0000
# 5 0.0000 0.0000 0.0000 0.0000 23.7227 0.0000
# 6 0.0000 0.0000 0.0000 0.0000 0.0000 -18.7497
#
#
#
# Elastic Compliance Matrix: (Units=1/GPa)
#
#
# Indices 1 2 3 4 5 6 
#
# 1 0.021175 -0.014361 -0.000322 0.000000 0.000000 0.000000
# 2 -0.014361 0.019257 -0.004160 0.000000 0.000000 0.000000
# 3 -0.000322 -0.004160 0.012812 0.000000 0.000000 0.000000
# 4 0.000000 0.000000 0.000000 0.027055 0.000000 0.000000
# 5 0.000000 0.000000 0.000000 0.000000 0.042154 0.000000
# 6 0.000000 0.000000 0.000000 0.000000 0.000000 -0.053334
#
#
# Mechanical properties :
#
#
# Convention : Reuss Voigt Hill
#
# Bulk Modulus (GPa) = 64.27522 71.00953 67.64238
# Shear Modulus (GPa) = 44.64606 19.36364 32.00485
#
# Velocity S-wave (km/s) = 4.59173 3.02398 3.88770
# Velocity P-wave (km/s) = 7.64629 6.76215 7.21777
#
# Compressibility (1/GPa) = 0.01555810
#
# Stress axis : x y z
#
# Youngs Moduli (GPa) = 47.22440 51.92850 78.05118
#
# Poissons Ratio (x) = 0.74573 0.02517
# Poissons Ratio (y) = 0.67818 0.32471
# Poissons Ratio (z) = 0.01523 0.21603
#
# Static dielectric constant tensor:
#      x y z
#    x 1.777870 0.000000 0.000000 
#    y 0.000000 2.009950 0.000000 
#    z 0.000000 0.000000 1.871480 
# 
# From -- ./inp_files/11559.got.cif
#   From: 2010.05.17/outbox.cif.g08.bks.cpg/sg53_6_cif.got.tgz:11559.got - 2010.06.03 12:45:16.
