data_PCOD9419291
_publ_section_title
;
Structure prediction by ZEFSAII (Michael W. Deem and Ramdas Pophale) SiO2 
 PCOD9419291
Probable space group: P M N A
;
_chemical_formula_sum "Si O2"
_cell_formula_units_Z 32
_cell_length_a 10.145572
_cell_length_b 19.560291
_cell_length_c 8.604498
_cell_angle_alpha 90.000000
_cell_angle_beta 90.000000
_cell_angle_gamma 90.000000
_cell_volume 1707.565559
_symmetry_space_group_name_H-M "P M N A"
_symmetry_group_IT_number 53
_symmetry_cell_setting 'orthorhombic'
loop_
_space_group_symop_operation_xyz
x,y,z
1/2-x,-y,1/2+z
x,-y,-z
1/2-x,y,1/2-z
-x,-y,-z
1/2+x,y,1/2-z
-x,y,z
1/2+x,-y,1/2+z
loop_
_atom_site_type_symbol
_atom_site_label
_atom_site_fract_x
_atom_site_fract_y
_atom_site_fract_z
Si Si1 0.000000 0.075659 0.065710
Si Si2 0.157021 0.297009 0.099711
Si Si3 0.254215 0.158646 0.563977
Si Si4 0.500000 0.078572 0.061345
Si Si5 0.847454 0.433829 0.894658
O O1 0.000000 0.076492 0.251995
O O2 0.873902 0.113586 0.998318
O O3 0.000000 0.000000 0.000000
O O4 0.250000 0.304346 0.250000
O O5 0.000000 0.284484 0.134853
O O6 0.217431 0.233845 0.003290
O O7 0.164012 0.365884 0.998652
O O8 0.250000 0.160561 0.750000
O O9 0.124799 0.121351 0.499305
O O10 0.500000 0.000000 0.000000
O O11 0.750000 0.430725 0.750000
O O12 0.000000 0.439268 0.842174
O O13 0.818573 0.500000 0.000000
#
# Coordination Sequence:
#
# PCOD9419291 Si02
#       5
#     4   8   8   4   8
#     4  12  24  44  66  92 129 164 213 266 322 392
#     4  11  24  42  65  96 131 171 217 268 325 390
#     4  12  25  43  65  94 129 168 213 270 324 390
#     4  12  26  44  68  96 125 170 215 264 332 390
#     4  10  22  41  65  96 135 174 221 272 325 387
#
# _framework density 18.740127999999999
#
# number of rings (size 3 to 8) (size 9 to 14) (size 15 to 20)
#    0.000    0.750    1.250    6.750    1.750    1.500 
#    0.000    0.000    0.000    0.000    0.000    0.000 
#    0.000    0.000    0.000    0.000    0.000    0.000 
#
# Total GULP energy -178969.844090 kJ/mol
# GULP energy per Si atom -5592.807628 kJ/mol
# Density = 1.869748 g / cm^3
# Si number density = 18.740128 Si / 1000 Ang^3
#
#
#
# Elastic Constant Matrix: (Units=GPa)
#
#
# Indices 1 2 3 4 5 6 
#
# 1 186.1619 86.6898 114.0652 0.0000 0.0000 0.0000
# 2 86.6898 171.7100 72.1665 0.0000 0.0000 0.0000
# 3 114.0652 72.1665 192.6385 0.0000 0.0000 0.0000
# 4 0.0000 0.0000 0.0000 29.5277 0.0000 0.0000
# 5 0.0000 0.0000 0.0000 0.0000 42.0453 0.0000
# 6 0.0000 0.0000 0.0000 0.0000 0.0000 35.0773
#
#
#
# Elastic Compliance Matrix: (Units=1/GPa)
#
#
# Indices 1 2 3 4 5 6 
#
# 1 0.009500 -0.002886 -0.004544 0.000000 0.000000 0.000000
# 2 -0.002886 0.007789 -0.001209 0.000000 0.000000 0.000000
# 3 -0.004544 -0.001209 0.008334 0.000000 0.000000 0.000000
# 4 0.000000 0.000000 0.000000 0.033867 0.000000 0.000000
# 5 0.000000 0.000000 0.000000 0.000000 0.023784 0.000000
# 6 0.000000 0.000000 0.000000 0.000000 0.000000 0.028508
#
#
# Mechanical properties :
#
#
# Convention : Reuss Voigt Hill
#
# Bulk Modulus (GPa) = 119.82848 121.81705 120.82276
# Shear Modulus (GPa) = 37.92421 39.83598 38.88010
#
# Velocity S-wave (km/s) = 4.50342 4.61554 4.55983
# Velocity P-wave (km/s) = 9.54579 9.67206 9.60913
#
# Compressibility (1/GPa) = 0.00834526
#
# Stress axis : x y z
#
# Youngs Moduli (GPa) = 105.26502 128.38483 119.98539
#
# Poissons Ratio (x) = 0.37058 0.54518
# Poissons Ratio (y) = 0.30384 0.14504
# Poissons Ratio (z) = 0.47829 0.15519
#
# Static dielectric constant tensor:
#      x y z
#    x 1.621130 0.000000 0.000000 
#    y 0.000000 1.658810 0.000000 
#    z 0.000000 0.000000 1.608260 
# 
# From -- ./inp_files/6130.got.cif
#   From: 2010.05.17/outbox.cif.g08.bks.cpg/sg53_4_cif.got.tgz:6130.got - 2010.06.03 12:45:16.
