data_PCOD9419406
_publ_section_title
;
Structure prediction by ZEFSAII (Michael W. Deem and Ramdas Pophale) SiO2 
 PCOD9419406
Probable space group: P M N A
;
_chemical_formula_sum "Si O2"
_cell_formula_units_Z 40
_cell_length_a 27.573462
_cell_length_b 7.540939
_cell_length_c 8.886573
_cell_angle_alpha 90.000000
_cell_angle_beta 90.000000
_cell_angle_gamma 90.000000
_cell_volume 1847.783302
_symmetry_space_group_name_H-M "P M N A"
_symmetry_group_IT_number 53
_symmetry_cell_setting 'orthorhombic'
loop_
_space_group_symop_operation_xyz
x,y,z
1/2-x,-y,1/2+z
x,-y,-z
1/2-x,y,1/2-z
-x,-y,-z
1/2+x,y,1/2-z
-x,y,z
1/2+x,-y,1/2+z
loop_
_atom_site_type_symbol
_atom_site_label
_atom_site_fract_x
_atom_site_fract_y
_atom_site_fract_z
Si Si1 0.446055 0.762796 0.896078
Si Si2 0.901267 0.901812 0.307054
Si Si3 0.093321 0.475243 0.823252
Si Si4 0.799966 0.952819 0.177632
Si Si5 0.297549 0.529625 0.325580
O O1 0.500000 0.754446 0.962547
O O2 0.437492 0.591291 0.793398
O O3 0.440000 0.940837 0.797472
O O4 0.407786 0.805890 0.029646
O O5 0.909819 0.735480 0.199573
O O6 0.849605 0.992603 0.267241
O O7 0.148842 0.534774 0.785199
O O8 0.083707 0.500000 0.000000
O O9 0.750000 0.024538 0.250000
O O10 0.797947 0.740386 0.197171
O O11 0.803415 0.000000 0.000000
O O12 0.291824 0.500000 0.500000
O O13 0.250000 0.450677 0.250000
#
# Coordination Sequence:
#
# PCOD9419406 Si02
#       5
#     8   8   8   8   8
#     4  11  25  44  69  94 124 175 228 278 334 393
#     4  10  23  42  66  94 132 169 219 269 324 393
#     4  10  23  41  65  96 132 168 213 275 339 394
#     4  10  23  38  61  96 131 170 213 259 322 395
#     4   9  20  37  56  88 124 162 208 248 310 390
#
# _framework density 21.647559999999999
#
# number of rings (size 3 to 8) (size 9 to 14) (size 15 to 20)
#    0.000    2.000    0.000    1.800   11.200    8.400 
#    0.000    1.000    0.000    0.000    0.000    0.000 
#    0.000    0.000    0.000    0.000    0.000    0.000 
#
# Total GULP energy -223015.824920 kJ/mol
# GULP energy per Si atom -5575.395623 kJ/mol
# Density = 2.159829 g / cm^3
# Si number density = 21.647560 Si / 1000 Ang^3
#
#
#
# Elastic Constant Matrix: (Units=GPa)
#
#
# Indices 1 2 3 4 5 6 
#
# 1 98.7072 -0.8339 59.2054 0.0000 0.0000 0.0000
# 2 -0.8339 50.3003 6.9271 0.0000 0.0000 0.0000
# 3 59.2054 6.9271 64.3765 0.0000 0.0000 0.0000
# 4 0.0000 0.0000 0.0000 54.0020 0.0000 0.0000
# 5 0.0000 0.0000 0.0000 0.0000 24.1122 0.0000
# 6 0.0000 0.0000 0.0000 0.0000 0.0000 8.3717
#
#
#
# Elastic Compliance Matrix: (Units=1/GPa)
#
#
# Indices 1 2 3 4 5 6 
#
# 1 0.023143 0.003365 -0.021646 0.000000 0.000000 0.000000
# 2 0.003365 0.020669 -0.005318 0.000000 0.000000 0.000000
# 3 -0.021646 -0.005318 0.036013 0.000000 0.000000 0.000000
# 4 0.000000 0.000000 0.000000 0.018518 0.000000 0.000000
# 5 0.000000 0.000000 0.000000 0.000000 0.041473 0.000000
# 6 0.000000 0.000000 0.000000 0.000000 0.000000 0.119450
#
#
# Mechanical properties :
#
#
# Convention : Reuss Voigt Hill
#
# Bulk Modulus (GPa) = 30.65099 38.22014 34.43556
# Shear Modulus (GPa) = 15.75597 27.16953 21.46275
#
# Velocity S-wave (km/s) = 2.70078 3.54656 3.15217
# Velocity P-wave (km/s) = 4.89034 5.87067 5.40279
#
# Compressibility (1/GPa) = 0.03262538
#
# Stress axis : x y z
#
# Youngs Moduli (GPa) = 43.21003 48.38207 27.76769
#
# Poissons Ratio (x) = -0.16279 0.60106
# Poissons Ratio (y) = -0.14539 0.14768
# Poissons Ratio (z) = 0.93532 0.25732
#
# Static dielectric constant tensor:
#      x y z
#    x 1.737270 0.000000 0.000000 
#    y 0.000000 1.781020 0.000000 
#    z 0.000000 0.000000 1.820360 
# 
# From -- ./inp_files/12271.got.cif
#   From: 2010.05.17/outbox.cif.g08.bks.cpg/sg53_7_cif.got.tgz:12271.got - 2010.06.03 12:45:16.
