data_PCOD9419446
_publ_section_title
;
Structure prediction by ZEFSAII (Michael W. Deem and Ramdas Pophale) SiO2 
 PCOD9419446
Probable space group: P M N A
;
_chemical_formula_sum "Si O2"
_cell_formula_units_Z 56
_cell_length_a 15.191287
_cell_length_b 8.799934
_cell_length_c 21.588745
_cell_angle_alpha 90.000000
_cell_angle_beta 90.000000
_cell_angle_gamma 90.000000
_cell_volume 2886.033582
_symmetry_space_group_name_H-M "P M N A"
_symmetry_group_IT_number 53
_symmetry_cell_setting 'orthorhombic'
loop_
_space_group_symop_operation_xyz
x,y,z
1/2-x,-y,1/2+z
x,-y,-z
1/2-x,y,1/2-z
-x,-y,-z
1/2+x,y,1/2-z
-x,y,z
1/2+x,-y,1/2+z
loop_
_atom_site_type_symbol
_atom_site_label
_atom_site_fract_x
_atom_site_fract_y
_atom_site_fract_z
Si Si1 0.257782 0.432897 0.819940
Si Si2 0.396227 0.238394 0.623303
Si Si3 0.240748 0.254639 0.122124
Si Si4 0.094963 0.171998 0.681108
Si Si5 0.399460 0.949074 0.929880
Si Si6 0.102082 0.320468 0.015205
Si Si7 0.163369 0.982150 0.786246
O O1 0.250000 0.487992 0.750000
O O2 0.166160 0.363371 0.845080
O O3 0.277072 0.579166 0.861161
O O4 0.329764 0.298972 0.816976
O O5 0.500000 0.268537 0.632891
O O6 0.380516 0.236446 0.549828
O O7 0.367721 0.083396 0.656236
O O8 0.322348 0.155594 0.097480
O O9 0.167942 0.271310 0.068620
O O10 0.193118 0.175744 0.181966
O O11 0.098390 0.031351 0.730622
O O12 0.000000 0.247092 0.690820
O O13 0.100326 0.095680 0.614203
O O14 0.500000 0.884862 0.927591
O O15 0.381331 0.000000 0.000000
O O16 0.000000 0.294864 0.033136
O O17 0.111698 0.500000 0.000000
O O18 0.250000 0.037473 0.750000
#
# Coordination Sequence:
#
# PCOD9419446 Si02
#       7
#     8   8   8   8   8   8   8
#     4  12  24  40  63  96 130 166 216 261 317 386
#     4  11  22  41  67  93 127 171 217 265 319 391
#     4  12  26  39  69  95 136 171 210 272 331 380
#     4  11  23  44  69  89 126 175 218 267 320 383
#     4  10  24  44  66  94 128 168 218 272 324 379
#     4  10  23  42  63  95 133 170 217 266 328 394
#     4  12  22  41  63  97 128 164 216 264 317 393
#
# _framework density 19.403794000000001
#
# number of rings (size 3 to 8) (size 9 to 14) (size 15 to 20)
#    0.000    0.857    5.714    0.857    4.000    1.714 
#    0.000    1.429    0.000    3.000    0.000    0.000 
#    0.000    0.000    0.000    0.000    0.000    0.000 
#
# Total GULP energy -312192.772098 kJ/mol
# GULP energy per Si atom -5574.870930 kJ/mol
# Density = 1.935963 g / cm^3
# Si number density = 19.403794 Si / 1000 Ang^3
#
#
#
# Elastic Constant Matrix: (Units=GPa)
#
#
# Indices 1 2 3 4 5 6 
#
# 1 113.9599 31.6546 46.5606 0.0000 0.0000 0.0000
# 2 31.6546 60.8612 32.2603 0.0000 0.0000 0.0000
# 3 46.5606 32.2603 118.0878 0.0000 0.0000 0.0000
# 4 0.0000 0.0000 0.0000 28.1567 0.0000 0.0000
# 5 0.0000 0.0000 0.0000 0.0000 30.2566 0.0000
# 6 0.0000 0.0000 0.0000 0.0000 0.0000 11.2753
#
#
#
# Elastic Compliance Matrix: (Units=1/GPa)
#
#
# Indices 1 2 3 4 5 6 
#
# 1 0.011272 -0.004101 -0.003324 0.000000 0.000000 0.000000
# 2 -0.004101 0.020705 -0.004039 0.000000 0.000000 0.000000
# 3 -0.003324 -0.004039 0.010883 0.000000 0.000000 0.000000
# 4 0.000000 0.000000 0.000000 0.035515 0.000000 0.000000
# 5 0.000000 0.000000 0.000000 0.000000 0.033051 0.000000
# 6 0.000000 0.000000 0.000000 0.000000 0.000000 0.088689
#
#
# Mechanical properties :
#
#
# Convention : Reuss Voigt Hill
#
# Bulk Modulus (GPa) = 50.17382 57.09554 53.63468
# Shear Modulus (GPa) = 21.76870 26.09996 23.93433
#
# Velocity S-wave (km/s) = 3.35308 3.67153 3.51591
# Velocity P-wave (km/s) = 6.39568 6.88929 6.64707
#
# Compressibility (1/GPa) = 0.01993071
#
# Stress axis : x y z
#
# Youngs Moduli (GPa) = 88.71323 48.29782 91.89042
#
# Poissons Ratio (x) = 0.19806 0.30547
# Poissons Ratio (y) = 0.36379 0.37119
# Poissons Ratio (z) = 0.29490 0.19510
#
# Static dielectric constant tensor:
#      x y z
#    x 1.768930 0.000000 0.000000 
#    y 0.000000 1.711950 0.000000 
#    z 0.000000 0.000000 1.695130 
# 
# From -- ./inp_files/32495.got.cif
#   From: 2010.05.17/outbox.cif.g08.bks.cpg/sg53_17_cif.got.tgz:32495.got - 2010.06.03 12:45:16.
