data_PCOD9419940
_publ_section_title
;
Structure prediction by ZEFSAII (Michael W. Deem and Ramdas Pophale) SiO2 
 PCOD9419940
Probable space group: P M N A
;
_chemical_formula_sum "Si O2"
_cell_formula_units_Z 20
_cell_length_a 29.355233
_cell_length_b 5.570699
_cell_length_c 4.939790
_cell_angle_alpha 90.000000
_cell_angle_beta 90.000000
_cell_angle_gamma 90.000000
_cell_volume 807.799744
_symmetry_space_group_name_H-M "P M N A"
_symmetry_group_IT_number 53
_symmetry_cell_setting 'orthorhombic'
loop_
_space_group_symop_operation_xyz
x,y,z
1/2-x,-y,1/2+z
x,-y,-z
1/2-x,y,1/2-z
-x,-y,-z
1/2+x,y,1/2-z
-x,y,z
1/2+x,-y,1/2+z
loop_
_atom_site_type_symbol
_atom_site_label
_atom_site_fract_x
_atom_site_fract_y
_atom_site_fract_z
Si Si1 0.549104 0.748480 0.327574
Si Si2 0.852745 0.160625 0.738868
Si Si3 0.779190 0.500000 0.000000
O O1 0.550748 0.500000 0.500000
O O2 0.500000 0.745443 0.178867
O O3 0.596577 0.746847 0.164001
O O4 0.548145 0.000000 0.500000
O O5 0.834888 0.000000 0.500000
O O6 0.813960 0.339488 0.828726
O O7 0.860391 0.000000 0.000000
O O8 0.750000 0.387674 0.250000
#
# Coordination Sequence:
#
# PCOD9419940 Si02
#       3
#     8   8   4
#     4   9  18  37  66 104 149 193 241 298 365 448
#     4  11  24  44  70 102 143 189 243 305 378 453
#     4  12  26  46  71 102 139 186 252 322 388 458
#
# _framework density 24.758610999999998
#
# number of rings (size 3 to 8) (size 9 to 14) (size 15 to 20)
#    0.000    1.600    2.000    2.400    0.000    4.000 
#    0.000    0.000    0.000   12.000    0.000    0.000 
#    0.000    0.000    0.000    0.000    0.000    0.400 
#
# Total GULP energy -111597.922574 kJ/mol
# GULP energy per Si atom -5579.896129 kJ/mol
# Density = 2.470226 g / cm^3
# Si number density = 24.758611 Si / 1000 Ang^3
#
#
#
# Elastic Constant Matrix: (Units=GPa)
#
#
# Indices 1 2 3 4 5 6 
#
# 1 201.9199 53.9065 52.2848 0.0000 0.0000 0.0000
# 2 53.9065 139.5459 50.2359 0.0000 0.0000 0.0000
# 3 52.2848 50.2359 118.0708 0.0000 0.0000 0.0000
# 4 0.0000 0.0000 0.0000 61.8262 0.0000 0.0000
# 5 0.0000 0.0000 0.0000 0.0000 -383.2096 0.0000
# 6 0.0000 0.0000 0.0000 0.0000 0.0000 36.2802
#
#
#
# Elastic Compliance Matrix: (Units=1/GPa)
#
#
# Indices 1 2 3 4 5 6 
#
# 1 0.005873 -0.001573 -0.001931 0.000000 0.000000 0.000000
# 2 -0.001573 0.008884 -0.003083 0.000000 0.000000 0.000000
# 3 -0.001931 -0.003083 0.010636 0.000000 0.000000 0.000000
# 4 0.000000 0.000000 0.000000 0.016174 0.000000 0.000000
# 5 0.000000 0.000000 0.000000 0.000000 -0.002610 0.000000
# 6 0.000000 0.000000 0.000000 0.000000 0.000000 0.027563
#
#
# Mechanical properties :
#
#
# Convention : Reuss Voigt Hill
#
# Bulk Modulus (GPa) = 81.84883 85.82122 83.83502
# Shear Modulus (GPa) = 59.68834 -36.81337 11.43748
#
# Velocity S-wave (km/s) = 4.91533 -3.86021 2.15166
# Velocity P-wave (km/s) = 8.08359 3.85619 6.33303
#
# Compressibility (1/GPa) = 0.01221765
#
# Stress axis : x y z
#
# Youngs Moduli (GPa) = 170.28419 112.56462 94.01680
#
# Poissons Ratio (x) = 0.17711 0.18155
# Poissons Ratio (y) = 0.26792 0.28986
# Poissons Ratio (z) = 0.32883 0.34705
#
# Static dielectric constant tensor:
#      x y z
#    x 2.091630 0.000000 0.000000 
#    y 0.000000 1.850980 0.000000 
#    z 0.000000 0.000000 1.681000 
# 
# From -- ./inp_files/3936.got.cif
#   From: 2010.05.17/outbox.cif.g08.bks.cpg/sg53_2_cif.got.tgz:3936.got - 2010.06.03 12:45:16.
