data_PCOD9419325
_publ_section_title
;
Structure prediction by ZEFSAII (Michael W. Deem and Ramdas Pophale) SiO2 
 PCOD9419325
Probable space group: P M N A
;
_chemical_formula_sum "Si O2"
_cell_formula_units_Z 36
_cell_length_a 20.412245
_cell_length_b 9.386849
_cell_length_c 9.470308
_cell_angle_alpha 90.000000
_cell_angle_beta 90.000000
_cell_angle_gamma 90.000000
_cell_volume 1814.574100
_symmetry_space_group_name_H-M "P M N A"
_symmetry_group_IT_number 53
_symmetry_cell_setting 'orthorhombic'
loop_
_space_group_symop_operation_xyz
x,y,z
1/2-x,-y,1/2+z
x,-y,-z
1/2-x,y,1/2-z
-x,-y,-z
1/2+x,y,1/2-z
-x,y,z
1/2+x,-y,1/2+z
loop_
_atom_site_type_symbol
_atom_site_label
_atom_site_fract_x
_atom_site_fract_y
_atom_site_fract_z
Si Si1 0.691813 0.035325 0.848975
Si Si2 0.572575 0.668852 0.517822
Si Si3 0.112610 0.500000 0.500000
Si Si4 0.826962 0.286295 0.269954
Si Si5 0.573324 0.244476 0.806165
O O1 0.750000 0.090020 0.750000
O O2 0.631592 0.143422 0.858477
O O3 0.666304 0.881725 0.799724
O O4 0.722511 0.000000 0.000000
O O5 0.568634 0.500000 0.500000
O O6 0.500000 0.719596 0.566757
O O7 0.629229 0.692262 0.631000
O O8 0.584254 0.731017 0.361319
O O9 0.150598 0.608884 0.604157
O O10 0.075992 0.393306 0.607917
O O11 0.750000 0.313609 0.250000
O O12 0.500000 0.184301 0.825206
#
# Coordination Sequence:
#
# PCOD9419325 Si02
#       5
#     8   8   4   8   8
#     4  11  26  47  67  95 135 177 218 271 331 391
#     4  10  22  42  65  95 134 172 210 267 330 389
#     4  12  23  42  66 100 137 168 218 282 329 390
#     4  11  26  42  67  98 130 175 223 268 333 390
#     4  11  25  43  70  99 130 177 222 271 332 392
#
# _framework density 19.839365999999998
#
# number of rings (size 3 to 8) (size 9 to 14) (size 15 to 20)
#    0.000    1.111    4.444    0.333    7.778    3.111 
#    0.000    2.222    0.000    0.000    0.000    0.000 
#    0.000    0.000    0.000    0.000    0.000    0.000 
#
# Total GULP energy -200839.763082 kJ/mol
# GULP energy per Si atom -5578.882308 kJ/mol
# Density = 1.979421 g / cm^3
# Si number density = 19.839366 Si / 1000 Ang^3
#
#
#
# Elastic Constant Matrix: (Units=GPa)
#
#
# Indices 1 2 3 4 5 6 
#
# 1 138.1743 41.8915 73.2325 0.0000 0.0000 0.0000
# 2 41.8915 58.3893 8.7960 0.0000 0.0000 0.0000
# 3 73.2325 8.7960 114.2731 0.0000 0.0000 0.0000
# 4 0.0000 0.0000 0.0000 31.4304 0.0000 0.0000
# 5 0.0000 0.0000 0.0000 0.0000 16.0204 0.0000
# 6 0.0000 0.0000 0.0000 0.0000 0.0000 26.6169
#
#
#
# Elastic Compliance Matrix: (Units=1/GPa)
#
#
# Indices 1 2 3 4 5 6 
#
# 1 0.014605 -0.009175 -0.008654 0.000000 0.000000 0.000000
# 2 -0.009175 0.023091 0.004102 0.000000 0.000000 0.000000
# 3 -0.008654 0.004102 0.013981 0.000000 0.000000 0.000000
# 4 0.000000 0.000000 0.000000 0.031816 0.000000 0.000000
# 5 0.000000 0.000000 0.000000 0.000000 0.062420 0.000000
# 6 0.000000 0.000000 0.000000 0.000000 0.000000 0.037570
#
#
# Mechanical properties :
#
#
# Convention : Reuss Voigt Hill
#
# Bulk Modulus (GPa) = 41.27993 62.07519 51.67756
# Shear Modulus (GPa) = 22.82984 27.27466 25.05225
#
# Velocity S-wave (km/s) = 3.39593 3.71182 3.55738
# Velocity P-wave (km/s) = 6.01903 7.05173 6.55575
#
# Compressibility (1/GPa) = 0.02422485
#
# Stress axis : x y z
#
# Youngs Moduli (GPa) = 68.46808 43.30684 71.52600
#
# Poissons Ratio (x) = 0.39734 0.61896
# Poissons Ratio (y) = 0.62819 -0.29343
# Poissons Ratio (z) = 0.59250 -0.17766
#
# Static dielectric constant tensor:
#      x y z
#    x 1.687920 0.000000 0.000000 
#    y 0.000000 1.685260 0.000000 
#    z 0.000000 0.000000 2.106870 
# 
# From -- ./inp_files/10582.got.cif
#   From: 2010.05.17/outbox.cif.g08.bks.cpg/sg53_6_cif.got.tgz:10582.got - 2010.06.03 12:45:16.
