data_PCOD9419185
_publ_section_title
;
Structure prediction by ZEFSAII (Michael W. Deem and Ramdas Pophale) SiO2 
 PCOD9419185
Probable space group: P M N A
;
_chemical_formula_sum "Si O2"
_cell_formula_units_Z 48
_cell_length_a 15.086715
_cell_length_b 29.230176
_cell_length_c 5.360571
_cell_angle_alpha 90.000000
_cell_angle_beta 90.000000
_cell_angle_gamma 90.000000
_cell_volume 2363.943918
_symmetry_space_group_name_H-M "P M N A"
_symmetry_group_IT_number 53
_symmetry_cell_setting 'orthorhombic'
loop_
_space_group_symop_operation_xyz
x,y,z
1/2-x,-y,1/2+z
x,-y,-z
1/2-x,y,1/2-z
-x,-y,-z
1/2+x,y,1/2-z
-x,y,z
1/2+x,-y,1/2+z
loop_
_atom_site_type_symbol
_atom_site_label
_atom_site_fract_x
_atom_site_fract_y
_atom_site_fract_z
Si Si1 0.500000 0.242363 0.678200
Si Si2 0.250000 0.393394 0.750000
Si Si3 0.853531 0.165452 0.767384
Si Si4 0.850905 0.368572 0.153903
Si Si5 0.250000 0.030040 0.250000
Si Si6 0.103881 0.107701 0.267415
Si Si7 0.901453 0.554319 0.531206
Si Si8 0.000000 0.699377 0.675794
O O1 0.585139 0.209840 0.711757
O O2 0.500000 0.264076 0.402257
O O3 0.500000 0.278667 0.903359
O O4 0.328149 0.362417 0.634199
O O5 0.187517 0.427204 0.594357
O O6 0.750000 0.176819 0.750000
O O7 0.878772 0.137423 0.517171
O O8 0.870603 0.135631 0.017003
O O9 0.750000 0.365107 0.250000
O O10 0.889989 0.419579 0.202175
O O11 0.914992 0.332737 0.277654
O O12 0.165247 0.063132 0.276426
O O13 0.258077 0.000000 0.500000
O O14 0.000000 0.096686 0.255732
O O15 0.900261 0.500000 0.500000
O O16 0.000000 0.568934 0.438731
#
# Coordination Sequence:
#
# PCOD9419185 Si02
#       8
#     4   4   8   8   4   8   8   4
#     4  12  28  44  74 110 134 170 230 314 342 434
#     4  10  24  38  68  90 131 173 222 274 330 400
#     4  12  23  45  74 105 137 179 240 292 373 417
#     4  10  24  43  66  93 130 183 222 265 344 434
#     4  12  26  42  66 108 155 193 250 286 350 418
#     4  12  23  43  75 101 143 196 238 297 353 416
#     4  10  22  39  64  98 130 169 226 280 335 395
#     4  12  28  46  73  97 145 175 224 284 364 416
#
# _framework density 20.305050000000001
#
# number of rings (size 3 to 8) (size 9 to 14) (size 15 to 20)
#    0.000    0.833    4.167    2.000    9.333    2.000 
#    0.000    1.667    0.000    0.000    0.000    0.000 
#    0.000    0.000    0.000    0.000    0.000    0.000 
#
# Total GULP energy -267586.504298 kJ/mol
# GULP energy per Si atom -5574.718840 kJ/mol
# Density = 2.025883 g / cm^3
# Si number density = 20.305050 Si / 1000 Ang^3
#
#
#
# Elastic Constant Matrix: (Units=GPa)
#
#
# Indices 1 2 3 4 5 6 
#
# 1 166.0262 28.4594 6.2973 0.0000 0.0000 0.0000
# 2 28.4594 65.6775 13.1332 0.0000 0.0000 0.0000
# 3 6.2973 13.1332 81.1553 0.0000 0.0000 0.0000
# 4 0.0000 0.0000 0.0000 34.2222 0.0000 0.0000
# 5 0.0000 0.0000 0.0000 0.0000 28.6376 0.0000
# 6 0.0000 0.0000 0.0000 0.0000 0.0000 454.2175
#
#
#
# Elastic Compliance Matrix: (Units=1/GPa)
#
#
# Indices 1 2 3 4 5 6 
#
# 1 0.006507 -0.002809 -0.000050 0.000000 0.000000 0.000000
# 2 -0.002809 0.016948 -0.002525 0.000000 0.000000 0.000000
# 3 -0.000050 -0.002525 0.012735 0.000000 0.000000 0.000000
# 4 0.000000 0.000000 0.000000 0.029221 0.000000 0.000000
# 5 0.000000 0.000000 0.000000 0.000000 0.034919 0.000000
# 6 0.000000 0.000000 0.000000 0.000000 0.000000 0.002202
#
#
# Mechanical properties :
#
#
# Convention : Reuss Voigt Hill
#
# Bulk Modulus (GPa) = 39.33817 45.40431 42.37124
# Shear Modulus (GPa) = 41.06004 121.08008 81.07006
#
# Velocity S-wave (km/s) = 4.50172 7.73046 6.32556
# Velocity P-wave (km/s) = 6.81442 10.10394 8.61760
#
# Compressibility (1/GPa) = 0.02542060
#
# Stress axis : x y z
#
# Youngs Moduli (GPa) = 153.68948 59.00356 78.52674
#
# Poissons Ratio (x) = 0.16577 0.00395
# Poissons Ratio (y) = 0.43178 0.19825
# Poissons Ratio (z) = 0.00772 0.14897
#
# Static dielectric constant tensor:
#      x y z
#    x 1.687740 0.000000 0.000000 
#    y 0.000000 1.701700 0.000000 
#    z 0.000000 0.000000 2.267410 
# 
# From -- ./inp_files/1464.got.cif
#   From: 2010.05.17/outbox.cif.g08.bks.cpg/sg53_1_cif.got.tgz:1464.got - 2010.06.03 12:45:16.
