data_PCOD9419873
_publ_section_title
;
Structure prediction by ZEFSAII (Michael W. Deem and Ramdas Pophale) SiO2 
 PCOD9419873
Probable space group: P M N A
;
_chemical_formula_sum "Si O2"
_cell_formula_units_Z 40
_cell_length_a 8.567551
_cell_length_b 26.556070
_cell_length_c 9.267472
_cell_angle_alpha 90.000000
_cell_angle_beta 90.000000
_cell_angle_gamma 90.000000
_cell_volume 2108.539716
_symmetry_space_group_name_H-M "P M N A"
_symmetry_group_IT_number 53
_symmetry_cell_setting 'orthorhombic'
loop_
_space_group_symop_operation_xyz
x,y,z
1/2-x,-y,1/2+z
x,-y,-z
1/2-x,y,1/2-z
-x,-y,-z
1/2+x,y,1/2-z
-x,y,z
1/2+x,-y,1/2+z
loop_
_atom_site_type_symbol
_atom_site_label
_atom_site_fract_x
_atom_site_fract_y
_atom_site_fract_z
Si Si1 0.811436 0.951722 0.911756
Si Si2 0.187366 0.449302 0.912799
Si Si3 0.811641 0.839958 0.912863
Si Si4 0.812175 0.741873 0.087897
Si Si5 0.313612 0.646442 0.912592
O O1 0.750000 0.955753 0.750000
O O2 0.763585 0.895921 0.964998
O O3 0.000000 0.952835 0.911173
O O4 0.754768 0.000000 0.000000
O O5 0.250000 0.451654 0.750000
O O6 0.000000 0.444876 0.909626
O O7 0.228584 0.500000 0.000000
O O8 0.256951 0.401563 0.996138
O O9 0.750000 0.832888 0.750000
O O10 0.000000 0.838976 0.906615
O O11 0.760859 0.794668 0.015843
O O12 0.750000 0.737212 0.250000
O O13 0.000000 0.740213 0.089747
O O14 0.750045 0.696333 0.990519
O O15 0.250000 0.643326 0.750000
O O16 0.500000 0.647761 0.909361
#
# Coordination Sequence:
#
# PCOD9419873 Si02
#       5
#     8   8   8   8   8
#     4   9  18  33  52  76 107 141 180 226 276 332
#     4  11  24  42  65  93 125 160 198 240 287 338
#     4   9  19  35  55  78 106 143 184 228 278 334
#     4  11  23  39  58  83 115 149 189 235 286 340
#     4  12  25  42  64  89 119 154 194 238 287 341
#
# _framework density 18.970475
#
# number of rings (size 3 to 8) (size 9 to 14) (size 15 to 20)
#    0.000    1.600    0.000    4.800    0.000    7.600 
#    0.000    0.000    0.000    0.000    0.000    0.000 
#    0.000    0.000    0.000    0.000    0.000    0.000 
#
# Total GULP energy -223545.460472 kJ/mol
# GULP energy per Si atom -5588.636512 kJ/mol
# Density = 1.892730 g / cm^3
# Si number density = 18.970475 Si / 1000 Ang^3
#
#
#
# Elastic Constant Matrix: (Units=GPa)
#
#
# Indices 1 2 3 4 5 6 
#
# 1 61.6507 60.4717 46.3253 0.0000 0.0000 0.0000
# 2 60.4717 204.0137 114.1288 0.0000 0.0000 0.0000
# 3 46.3253 114.1288 161.0810 0.0000 0.0000 0.0000
# 4 0.0000 0.0000 0.0000 36.2972 0.0000 0.0000
# 5 0.0000 0.0000 0.0000 0.0000 36.3028 0.0000
# 6 0.0000 0.0000 0.0000 0.0000 0.0000 -61.7555
#
#
#
# Elastic Compliance Matrix: (Units=1/GPa)
#
#
# Indices 1 2 3 4 5 6 
#
# 1 0.023742 -0.005330 -0.003051 0.000000 0.000000 0.000000
# 2 -0.005330 0.009317 -0.005068 0.000000 0.000000 0.000000
# 3 -0.003051 -0.005068 0.010676 0.000000 0.000000 0.000000
# 4 0.000000 0.000000 0.000000 0.027550 0.000000 0.000000
# 5 0.000000 0.000000 0.000000 0.000000 0.027546 0.000000
# 6 0.000000 0.000000 0.000000 0.000000 0.000000 -0.016193
#
#
# Mechanical properties :
#
#
# Convention : Reuss Voigt Hill
#
# Bulk Modulus (GPa) = 59.39875 96.51079 77.95477
# Shear Modulus (GPa) = 43.42180 15.89021 29.65601
#
# Velocity S-wave (km/s) = 4.78945 2.89732 3.95811
# Velocity P-wave (km/s) = 7.87174 7.88526 7.87850
#
# Compressibility (1/GPa) = 0.01683537
#
# Stress axis : x y z
#
# Youngs Moduli (GPa) = 42.12033 107.33264 93.66398
#
# Poissons Ratio (x) = 0.57212 0.28579
# Poissons Ratio (y) = 0.22452 0.47471
# Poissons Ratio (z) = 0.12852 0.54398
#
# Static dielectric constant tensor:
#      x y z
#    x 1.638690 0.000000 0.000000 
#    y 0.000000 1.669350 0.000000 
#    z 0.000000 0.000000 1.606510 
# 
# From -- ./inp_files/6254.got.cif
#   From: 2010.05.17/outbox.cif.g08.bks.cpg/sg53_4_cif.got.tgz:6254.got - 2010.06.03 12:45:16.
