data_PCOD9419502
_publ_section_title
;
Structure prediction by ZEFSAII (Michael W. Deem and Ramdas Pophale) SiO2 
 PCOD9419502
Probable space group: P M N A
;
_chemical_formula_sum "Si O2"
_cell_formula_units_Z 40
_cell_length_a 14.899151
_cell_length_b 8.072547
_cell_length_c 13.538932
_cell_angle_alpha 90.000000
_cell_angle_beta 90.000000
_cell_angle_gamma 90.000000
_cell_volume 1628.382817
_symmetry_space_group_name_H-M "P M N A"
_symmetry_group_IT_number 53
_symmetry_cell_setting 'orthorhombic'
loop_
_space_group_symop_operation_xyz
x,y,z
1/2-x,-y,1/2+z
x,-y,-z
1/2-x,y,1/2-z
-x,-y,-z
1/2+x,y,1/2-z
-x,y,z
1/2+x,-y,1/2+z
loop_
_atom_site_type_symbol
_atom_site_label
_atom_site_fract_x
_atom_site_fract_y
_atom_site_fract_z
Si Si1 0.671553 0.819338 0.949255
Si Si2 0.250000 0.057546 0.250000
Si Si3 0.902751 0.158271 0.850315
Si Si4 0.641821 0.520737 0.736694
Si Si5 0.860354 0.320854 0.037838
Si Si6 0.000000 0.366000 0.399983
O O1 0.754925 0.707709 0.983078
O O2 0.578530 0.728196 0.964791
O O3 0.692247 0.848819 0.832974
O O4 0.672900 0.000000 0.000000
O O5 0.179073 0.950727 0.187425
O O6 0.886343 0.341972 0.806523
O O7 0.000000 0.094720 0.817164
O O8 0.903013 0.183394 0.968543
O O9 0.750000 0.514851 0.750000
O O10 0.622895 0.663781 0.654192
O O11 0.579867 0.552656 0.830709
O O12 0.889053 0.500000 0.000000
#
# Coordination Sequence:
#
# PCOD9419502 Si02
#       6
#     8   4   8   8   8   4
#     4  12  25  47  67 103 142 194 229 289 350 419
#     4  12  26  46  72  98 152 186 232 290 354 422
#     4  11  24  43  72 105 137 183 234 290 353 416
#     4  11  21  41  72 103 139 177 236 296 350 404
#     4  10  23  44  72 100 140 180 229 298 352 404
#     4  12  25  42  70 105 137 186 242 280 348 429
#
# _framework density 24.564247999999999
#
# number of rings (size 3 to 8) (size 9 to 14) (size 15 to 20)
#    0.000    0.800    6.000    1.500    2.800    1.200 
#    0.000    1.500    0.000    0.000    0.000    0.000 
#    0.000    0.000    0.000    0.000    0.000    0.000 
#
# Total GULP energy -222847.847271 kJ/mol
# GULP energy per Si atom -5571.196182 kJ/mol
# Density = 2.450834 g / cm^3
# Si number density = 24.564248 Si / 1000 Ang^3
#
#
#
# Elastic Constant Matrix: (Units=GPa)
#
#
# Indices 1 2 3 4 5 6 
#
# 1 192.7541 7.0606 8.9730 0.0000 0.0000 0.0000
# 2 7.0606 57.2690 12.4032 0.0000 0.0000 0.0000
# 3 8.9730 12.4032 66.0644 0.0000 0.0000 0.0000
# 4 0.0000 0.0000 0.0000 28.4593 0.0000 0.0000
# 5 0.0000 0.0000 0.0000 0.0000 33.1143 0.0000
# 6 0.0000 0.0000 0.0000 0.0000 0.0000 32.7780
#
#
#
# Elastic Compliance Matrix: (Units=1/GPa)
#
#
# Indices 1 2 3 4 5 6 
#
# 1 0.005235 -0.000512 -0.000615 0.000000 0.000000 0.000000
# 2 -0.000512 0.018252 -0.003357 0.000000 0.000000 0.000000
# 3 -0.000615 -0.003357 0.015851 0.000000 0.000000 0.000000
# 4 0.000000 0.000000 0.000000 0.035138 0.000000 0.000000
# 5 0.000000 0.000000 0.000000 0.000000 0.030198 0.000000
# 6 0.000000 0.000000 0.000000 0.000000 0.000000 0.030508
#
#
# Mechanical properties :
#
#
# Convention : Reuss Voigt Hill
#
# Bulk Modulus (GPa) = 32.92826 41.44014 37.18420
# Shear Modulus (GPa) = 32.40995 38.04704 35.22849
#
# Velocity S-wave (km/s) = 3.63629 3.93985 3.79111
# Velocity P-wave (km/s) = 5.57352 6.13215 5.85950
#
# Compressibility (1/GPa) = 0.03036905
#
# Stress axis : x y z
#
# Youngs Moduli (GPa) = 191.00933 54.78952 63.08942
#
# Poissons Ratio (x) = 0.02807 0.03879
# Poissons Ratio (y) = 0.09785 0.21179
# Poissons Ratio (z) = 0.11745 0.18393
#
# Static dielectric constant tensor:
#      x y z
#    x 1.893670 0.000000 0.000000 
#    y 0.000000 1.960690 0.000000 
#    z 0.000000 0.000000 2.021520 
# 
# From -- ./inp_files/22492.got.cif
#   From: 2010.05.17/outbox.cif.g08.bks.cpg/sg53_12_cif.got.tgz:22492.got - 2010.06.03 12:45:16.
