data_PCOD9419460
_publ_section_title
;
Structure prediction by ZEFSAII (Michael W. Deem and Ramdas Pophale) SiO2 
 PCOD9419460
Probable space group: P M N A
;
_chemical_formula_sum "Si O2"
_cell_formula_units_Z 20
_cell_length_a 9.842857
_cell_length_b 7.703979
_cell_length_c 12.267735
_cell_angle_alpha 90.000000
_cell_angle_beta 90.000000
_cell_angle_gamma 90.000000
_cell_volume 930.252085
_symmetry_space_group_name_H-M "P M N A"
_symmetry_group_IT_number 53
_symmetry_cell_setting 'orthorhombic'
loop_
_space_group_symop_operation_xyz
x,y,z
1/2-x,-y,1/2+z
x,-y,-z
1/2-x,y,1/2-z
-x,-y,-z
1/2+x,y,1/2-z
-x,y,z
1/2+x,-y,1/2+z
loop_
_atom_site_type_symbol
_atom_site_label
_atom_site_fract_x
_atom_site_fract_y
_atom_site_fract_z
Si Si1 0.151775 0.202757 0.971381
Si Si2 0.250000 0.654759 0.250000
Si Si3 0.347037 0.686069 0.843399
O O1 0.265974 0.292651 0.044871
O O2 0.000000 0.268505 0.999269
O O3 0.180235 0.235990 0.844612
O O4 0.156538 0.000000 0.000000
O O5 0.150766 0.516224 0.308882
O O6 0.250000 0.769324 0.750000
O O7 0.500000 0.755260 0.846310
#
# Coordination Sequence:
#
# PCOD9419460 Si02
#       3
#     8   4   8
#     4  11  25  44  67  98 135 174 215 268 328 387
#     4  10  24  40  68  96 130 174 220 272 314 390
#     4  10  23  42  67  96 128 170 219 269 323 384
#
# _framework density 21.499548999999998
#
# number of rings (size 3 to 8) (size 9 to 14) (size 15 to 20)
#    1.200    0.400    0.000    3.600    2.800    7.200 
#    0.000    0.000    0.000    0.000    0.000    0.000 
#    0.000    0.000    0.000    0.000    0.000    0.000 
#
# Total GULP energy -111590.983162 kJ/mol
# GULP energy per Si atom -5579.549158 kJ/mol
# Density = 2.145062 g / cm^3
# Si number density = 21.499549 Si / 1000 Ang^3
#
#
#
# Elastic Constant Matrix: (Units=GPa)
#
#
# Indices 1 2 3 4 5 6 
#
# 1 206.9941 29.0021 78.6034 0.0000 0.0000 0.0000
# 2 29.0021 62.2885 42.6682 0.0000 0.0000 0.0000
# 3 78.6034 42.6682 147.7563 0.0000 0.0000 0.0000
# 4 0.0000 0.0000 0.0000 36.2191 0.0000 0.0000
# 5 0.0000 0.0000 0.0000 0.0000 22.2366 0.0000
# 6 0.0000 0.0000 0.0000 0.0000 0.0000 7.1240
#
#
#
# Elastic Compliance Matrix: (Units=1/GPa)
#
#
# Indices 1 2 3 4 5 6 
#
# 1 0.006083 -0.000767 -0.003015 0.000000 0.000000 0.000000
# 2 -0.000767 0.020110 -0.005399 0.000000 0.000000 0.000000
# 3 -0.003015 -0.005399 0.009931 0.000000 0.000000 0.000000
# 4 0.000000 0.000000 0.000000 0.027610 0.000000 0.000000
# 5 0.000000 0.000000 0.000000 0.000000 0.044971 0.000000
# 6 0.000000 0.000000 0.000000 0.000000 0.000000 0.140371
#
#
# Mechanical properties :
#
#
# Convention : Reuss Voigt Hill
#
# Bulk Modulus (GPa) = 56.29995 79.73182 68.01588
# Shear Modulus (GPa) = 18.29103 30.90030 24.59567
#
# Velocity S-wave (km/s) = 2.91995 3.79523 3.38599
# Velocity P-wave (km/s) = 6.13283 7.50805 6.85501
#
# Compressibility (1/GPa) = 0.01776201
#
# Stress axis : x y z
#
# Youngs Moduli (GPa) = 164.38354 49.72642 100.69786
#
# Poissons Ratio (x) = 0.03816 0.30356
# Poissons Ratio (y) = 0.12615 0.54367
# Poissons Ratio (z) = 0.49555 0.26847
#
# Static dielectric constant tensor:
#      x y z
#    x 1.790880 0.000000 0.000000 
#    y 0.000000 1.795140 0.000000 
#    z 0.000000 0.000000 1.784270 
# 
# From -- ./inp_files/13513.got.cif
#   From: 2010.05.17/outbox.cif.g08.bks.cpg/sg53_7_cif.got.tgz:13513.got - 2010.06.03 12:45:16.
