data_PCOD9419203
_publ_section_title
;
Structure prediction by ZEFSAII (Michael W. Deem and Ramdas Pophale) SiO2 
 PCOD9419203
Probable space group: P M N A
;
_chemical_formula_sum "Si O2"
_cell_formula_units_Z 58
_cell_length_a 19.792548
_cell_length_b 18.119946
_cell_length_c 8.565670
_cell_angle_alpha 90.000000
_cell_angle_beta 90.000000
_cell_angle_gamma 90.000000
_cell_volume 3071.991040
_symmetry_space_group_name_H-M "P M N A"
_symmetry_group_IT_number 53
_symmetry_cell_setting 'orthorhombic'
loop_
_space_group_symop_operation_xyz
x,y,z
1/2-x,-y,1/2+z
x,-y,-z
1/2-x,y,1/2-z
-x,-y,-z
1/2+x,y,1/2-z
-x,y,z
1/2+x,-y,1/2+z
loop_
_atom_site_type_symbol
_atom_site_label
_atom_site_fract_x
_atom_site_fract_y
_atom_site_fract_z
Si Si1 0.640504 0.500000 0.171241
Si Si2 0.677050 0.343328 0.686252
Si Si3 0.077328 0.214677 0.190716
Si Si4 0.077328 0.214677 0.809284
Si Si5 0.675876 0.915416 0.688515
Si Si6 0.677050 0.656672 0.686252
Si Si7 0.175876 0.084584 0.811485
Si Si8 0.500000 0.500000 0.000000
O O1 0.661091 0.574260 0.257900
O O2 0.661091 0.425740 0.257900
O O3 0.560703 0.500000 0.133158
O O4 0.675162 0.500000 0.000000
O O5 0.750000 0.320185 0.750000
O O6 0.619058 0.286778 0.740962
O O7 0.678983 0.340988 0.500000
O O8 0.119136 0.142378 0.239864
O O9 0.119058 0.286778 0.240962
O O10 0.000000 0.215062 0.244558
O O11 0.076165 0.214663 0.000000
O O12 0.119136 0.142379 0.760136
O O13 0.000000 0.215062 0.755442
O O14 0.750000 0.894510 0.750000
O O15 0.677874 0.914161 0.500000
O O16 0.662214 0.000000 0.737820
O O17 0.750000 0.679815 0.750000
O O18 0.250000 0.105490 0.750000
#
# Coordination Sequence:
#
# PCOD9419203 Si02
#       8
#     8   8   8   8   8   8   8   2
#     4  10  22  40  60  82 110 141 178 220 272 324
#     4  11  22  37  58  83 110 145 185 229 273 322
#     4   9  19  33  51  78 110 140 177 224 270 319
#     4   9  19  33  51  78 110 140 177 224 270 319
#     4   9  17  31  53  78 105 138 176 218 265 316
#     4  11  22  37  58  83 110 145 185 229 273 322
#     4   9  17  31  53  78 105 138 176 218 265 316
#     4   8  24  40  62  84 112 144 166 236 272 328
#
# _framework density 18.880264
#
# number of rings (size 3 to 8) (size 9 to 14) (size 15 to 20)
#    0.414    1.931    0.000    2.483    1.931    0.552 
#    0.000    4.828    0.000    4.138    0.000    3.862 
#    0.000    0.000    0.000    0.000    0.000    0.000 
#
# Total GULP energy -323091.588341 kJ/mol
# GULP energy per Si atom -5570.544627 kJ/mol
# Density = 1.883729 g / cm^3
# Si number density = 18.880264 Si / 1000 Ang^3
#
#
#
# Elastic Constant Matrix: (Units=GPa)
#
#
# Indices 1 2 3 4 5 6 
#
# 1 189.3245 108.4336 26.5589 0.0000 0.0000 0.0000
# 2 108.4336 144.2916 21.7310 0.0000 0.0000 0.0000
# 3 26.5589 21.7310 28.8898 0.0000 0.0000 0.0000
# 4 0.0000 0.0000 0.0000 7.6401 0.0000 0.0000
# 5 0.0000 0.0000 0.0000 0.0000 23.4744 0.0000
# 6 0.0000 0.0000 0.0000 0.0000 0.0000 9.3459
#
#
#
# Elastic Compliance Matrix: (Units=1/GPa)
#
#
# Indices 1 2 3 4 5 6 
#
# 1 0.009638 -0.006663 -0.003848 0.000000 0.000000 0.000000
# 2 -0.006663 0.012423 -0.003219 0.000000 0.000000 0.000000
# 3 -0.003848 -0.003219 0.040573 0.000000 0.000000 0.000000
# 4 0.000000 0.000000 0.000000 0.130888 0.000000 0.000000
# 5 0.000000 0.000000 0.000000 0.000000 0.042600 0.000000
# 6 0.000000 0.000000 0.000000 0.000000 0.000000 0.106999
#
#
# Mechanical properties :
#
#
# Convention : Reuss Voigt Hill
#
# Bulk Modulus (GPa) = 28.43057 75.10589 51.76823
# Shear Modulus (GPa) = 13.07854 21.81090 17.44472
#
# Velocity S-wave (km/s) = 2.63479 3.40254 3.04298
# Velocity P-wave (km/s) = 4.93429 7.43659 6.31071
#
# Compressibility (1/GPa) = 0.03517340
#
# Stress axis : x y z
#
# Youngs Moduli (GPa) = 103.75382 80.49817 24.64683
#
# Poissons Ratio (x) = 0.53639 0.09485
# Poissons Ratio (y) = 0.69136 0.07933
# Poissons Ratio (z) = 0.39928 0.25909
#
# Static dielectric constant tensor:
#      x y z
#    x 1.635220 0.000000 0.000000 
#    y 0.000000 1.654660 0.000000 
#    z 0.000000 0.000000 1.667900 
# 
# From -- ./inp_files/10160.got.cif
#   From: 2010.05.17/outbox.cif.g08.bks.cpg/sg53_6_cif.got.tgz:10160.got - 2010.06.03 12:45:16.
