data_PCOD9419497
_publ_section_title
;
Structure prediction by ZEFSAII (Michael W. Deem and Ramdas Pophale) SiO2 
 PCOD9419497
Probable space group: P M N A
;
_chemical_formula_sum "Si O2"
_cell_formula_units_Z 40
_cell_length_a 9.652892
_cell_length_b 22.851910
_cell_length_c 9.628093
_cell_angle_alpha 90.000000
_cell_angle_beta 90.000000
_cell_angle_gamma 90.000000
_cell_volume 2123.832336
_symmetry_space_group_name_H-M "P M N A"
_symmetry_group_IT_number 53
_symmetry_cell_setting 'orthorhombic'
loop_
_space_group_symop_operation_xyz
x,y,z
1/2-x,-y,1/2+z
x,-y,-z
1/2-x,y,1/2-z
-x,-y,-z
1/2+x,y,1/2-z
-x,y,z
1/2+x,-y,1/2+z
loop_
_atom_site_type_symbol
_atom_site_label
_atom_site_fract_x
_atom_site_fract_y
_atom_site_fract_z
Si Si1 0.835468 0.447632 0.106019
Si Si2 0.000000 0.054438 0.835968
Si Si3 0.750000 0.135169 0.750000
Si Si4 0.250000 0.840330 0.750000
Si Si5 0.666076 0.657906 0.390291
Si Si6 0.838153 0.228635 0.521144
Si Si7 0.500000 0.076159 0.338046
O O1 0.750000 0.447782 0.250000
O O2 0.000000 0.453824 0.137766
O O3 0.796602 0.500000 0.000000
O O4 0.816910 0.389140 0.013846
O O5 0.870051 0.091848 0.791648
O O6 0.000000 0.988993 0.772650
O O7 0.000000 0.059334 0.001578
O O8 0.804387 0.177276 0.629206
O O9 0.193549 0.798644 0.628704
O O10 0.130408 0.883689 0.802324
O O11 0.750000 0.640434 0.250000
O O12 0.500000 0.664067 0.362899
O O13 0.736454 0.718056 0.441161
O O14 0.000000 0.245925 0.531922
#
# Coordination Sequence:
#
# PCOD9419497 Si02
#       7
#     8   4   4   4   8   8   4
#     4  10  23  44  69 101 140 182 226 273 327 383
#     4  11  24  41  67  91 127 157 212 265 328 389
#     4  12  23  42  64  94 119 168 210 266 320 396
#     4  12  25  44  64  90 127 164 212 264 332 396
#     4  11  25  42  67 100 133 173 224 275 324 388
#     4  12  26  42  65  92 130 171 215 268 326 392
#     4  11  24  43  63  95 123 165 204 269 328 393
#
# _framework density 18.833879
#
# number of rings (size 3 to 8) (size 9 to 14) (size 15 to 20)
#    0.000    0.800    5.000    1.800    4.200    2.000 
#    0.000    1.000    0.000    0.000    0.000    0.000 
#    0.000    0.000    0.000    0.000    0.000    0.000 
#
# Total GULP energy -223381.549007 kJ/mol
# GULP energy per Si atom -5584.538725 kJ/mol
# Density = 1.879101 g / cm^3
# Si number density = 18.833879 Si / 1000 Ang^3
#
#
#
# Elastic Constant Matrix: (Units=GPa)
#
#
# Indices 1 2 3 4 5 6 
#
# 1 163.7741 59.0919 66.0834 0.0000 0.0000 0.0000
# 2 59.0919 99.3132 43.4313 0.0000 0.0000 0.0000
# 3 66.0834 43.4313 127.1651 0.0000 0.0000 0.0000
# 4 0.0000 0.0000 0.0000 34.7707 0.0000 0.0000
# 5 0.0000 0.0000 0.0000 0.0000 32.1742 0.0000
# 6 0.0000 0.0000 0.0000 0.0000 0.0000 55.1938
#
#
#
# Elastic Compliance Matrix: (Units=1/GPa)
#
#
# Indices 1 2 3 4 5 6 
#
# 1 0.008799 -0.003804 -0.003274 0.000000 0.000000 0.000000
# 2 -0.003804 0.013482 -0.002628 0.000000 0.000000 0.000000
# 3 -0.003274 -0.002628 0.010462 0.000000 0.000000 0.000000
# 4 0.000000 0.000000 0.000000 0.028760 0.000000 0.000000
# 5 0.000000 0.000000 0.000000 0.000000 0.031081 0.000000
# 6 0.000000 0.000000 0.000000 0.000000 0.000000 0.018118
#
#
# Mechanical properties :
#
#
# Convention : Reuss Voigt Hill
#
# Bulk Modulus (GPa) = 75.00192 80.82951 77.91571
# Shear Modulus (GPa) = 37.15899 39.20414 38.18156
#
# Velocity S-wave (km/s) = 4.44665 4.56738 4.50742
# Velocity P-wave (km/s) = 8.14082 8.41575 8.27943
#
# Compressibility (1/GPa) = 0.01333299
#
# Stress axis : x y z
#
# Youngs Moduli (GPa) = 113.64367 74.17445 95.58090
#
# Poissons Ratio (x) = 0.28217 0.31289
# Poissons Ratio (y) = 0.43232 0.25115
# Poissons Ratio (z) = 0.37201 0.19490
#
# Static dielectric constant tensor:
#      x y z
#    x 1.629940 0.000000 0.000000 
#    y 0.000000 1.651540 0.000000 
#    z 0.000000 0.000000 1.655380 
# 
# From -- ./inp_files/6389.got.cif
#   From: 2010.05.17/outbox.cif.g08.bks.cpg/sg53_4_cif.got.tgz:6389.got - 2010.06.03 12:45:16.
