data_PCOD9419925
_publ_section_title
;
Structure prediction by ZEFSAII (Michael W. Deem and Ramdas Pophale) SiO2 
 PCOD9419925
Probable space group: P M N A
;
_chemical_formula_sum "Si O2"
_cell_formula_units_Z 28
_cell_length_a 14.396061
_cell_length_b 16.095662
_cell_length_c 5.522104
_cell_angle_alpha 90.000000
_cell_angle_beta 90.000000
_cell_angle_gamma 90.000000
_cell_volume 1279.549535
_symmetry_space_group_name_H-M "P M N A"
_symmetry_group_IT_number 53
_symmetry_cell_setting 'orthorhombic'
loop_
_space_group_symop_operation_xyz
x,y,z
1/2-x,-y,1/2+z
x,-y,-z
1/2-x,y,1/2-z
-x,-y,-z
1/2+x,y,1/2-z
-x,y,z
1/2+x,-y,1/2+z
loop_
_atom_site_type_symbol
_atom_site_label
_atom_site_fract_x
_atom_site_fract_y
_atom_site_fract_z
Si Si1 0.104350 0.824491 0.435558
Si Si2 0.250000 0.550609 0.250000
Si Si3 0.308663 0.000000 0.000000
Si Si4 0.750000 0.273412 0.250000
Si Si5 0.605110 0.671409 0.396310
O O1 0.189944 0.785059 0.577902
O O2 0.103842 0.767092 0.195860
O O3 0.000000 0.813592 0.542080
O O4 0.128607 0.921143 0.423589
O O5 0.261652 0.500000 0.500000
O O6 0.160001 0.610600 0.283568
O O7 0.250000 0.018073 0.250000
O O8 0.671886 0.328176 0.375571
O O9 0.500000 0.645031 0.437238
#
# Coordination Sequence:
#
# PCOD9419925 Si02
#       5
#     8   4   4   4   8
#     4  11  24  42  69 103 140 189 240 294 356 427
#     4  12  27  48  73 106 148 188 234 305 364 429
#     4  12  25  44  69 104 148 192 235 298 357 414
#     4  12  19  44  69 100 138 186 238 297 346 431
#     4  11  25  45  73 104 139 189 239 293 363 436
#
# _framework density 21.8827
#
# number of rings (size 3 to 8) (size 9 to 14) (size 15 to 20)
#    0.000    0.571    4.286    3.857    0.000    1.143 
#    0.000    1.429    0.000    0.000    0.000    0.000 
#    0.000    0.000    0.000    0.000    0.000    0.000 
#
# Total GULP energy -156210.639457 kJ/mol
# GULP energy per Si atom -5578.951409 kJ/mol
# Density = 2.183289 g / cm^3
# Si number density = 21.882700 Si / 1000 Ang^3
#
#
#
# Elastic Constant Matrix: (Units=GPa)
#
#
# Indices 1 2 3 4 5 6 
#
# 1 209.7908 38.3942 42.1786 0.0000 0.0000 0.0000
# 2 38.3942 123.9773 26.6417 0.0000 0.0000 0.0000
# 3 42.1786 26.6417 76.7954 0.0000 0.0000 0.0000
# 4 0.0000 0.0000 0.0000 -124.5066 0.0000 0.0000
# 5 0.0000 0.0000 0.0000 0.0000 19.6113 0.0000
# 6 0.0000 0.0000 0.0000 0.0000 0.0000 -17.8414
#
#
#
# Elastic Compliance Matrix: (Units=1/GPa)
#
#
# Indices 1 2 3 4 5 6 
#
# 1 0.005503 -0.001140 -0.002627 0.000000 0.000000 0.000000
# 2 -0.001140 0.008952 -0.002480 0.000000 0.000000 0.000000
# 3 -0.002627 -0.002480 0.015325 0.000000 0.000000 0.000000
# 4 0.000000 0.000000 0.000000 -0.008032 0.000000 0.000000
# 5 0.000000 0.000000 0.000000 0.000000 0.050991 0.000000
# 6 0.000000 0.000000 0.000000 0.000000 0.000000 -0.056049
#
#
# Mechanical properties :
#
#
# Convention : Reuss Voigt Hill
#
# Bulk Modulus (GPa) = 57.84732 69.44361 63.64546
# Shear Modulus (GPa) = 143.08007 -4.32408 69.37800
#
# Velocity S-wave (km/s) = 8.09487 -1.40724 5.63678
# Velocity P-wave (km/s) = 10.67061 5.40027 8.45650
#
# Compressibility (1/GPa) = 0.01728689
#
# Stress axis : x y z
#
# Youngs Moduli (GPa) = 181.70384 111.70937 65.25371
#
# Poissons Ratio (x) = 0.12732 0.17144
# Poissons Ratio (y) = 0.20710 0.16180
# Poissons Ratio (z) = 0.47739 0.27699
#
# Static dielectric constant tensor:
#      x y z
#    x 1.781940 0.000000 0.000000 
#    y 0.000000 1.876910 0.000000 
#    z 0.000000 0.000000 1.894970 
# 
# From -- ./inp_files/1166.got.cif
#   From: 2010.05.17/outbox.cif.g08.bks.cpg/sg53_1_cif.got.tgz:1166.got - 2010.06.03 12:45:16.
