data_PCOD9419101
_publ_section_title
;
Structure prediction by ZEFSAII (Michael W. Deem and Ramdas Pophale) SiO2 
 PCOD9419101
Probable space group: P M N A
;
_chemical_formula_sum "Si O2"
_cell_formula_units_Z 48
_cell_length_a 16.747136
_cell_length_b 15.880521
_cell_length_c 9.105572
_cell_angle_alpha 90.000000
_cell_angle_beta 90.000000
_cell_angle_gamma 90.000000
_cell_volume 2421.656420
_symmetry_space_group_name_H-M "P M N A"
_symmetry_group_IT_number 53
_symmetry_cell_setting 'orthorhombic'
loop_
_space_group_symop_operation_xyz
x,y,z
1/2-x,-y,1/2+z
x,-y,-z
1/2-x,y,1/2-z
-x,-y,-z
1/2+x,y,1/2-z
-x,y,z
1/2+x,-y,1/2+z
loop_
_atom_site_type_symbol
_atom_site_label
_atom_site_fract_x
_atom_site_fract_y
_atom_site_fract_z
Si Si1 0.094843 0.848283 0.872704
Si Si2 0.665901 0.326241 0.324505
Si Si3 0.336389 0.648916 0.325059
Si Si4 0.905511 0.511071 0.667877
Si Si5 0.405191 0.001194 0.162171
Si Si6 0.340990 0.163374 0.693363
O O1 0.109034 0.755009 0.809012
O O2 0.122709 0.922124 0.764064
O O3 0.000000 0.859529 0.906376
O O4 0.147078 0.851487 0.020293
O O5 0.750000 0.303730 0.250000
O O6 0.671983 0.347890 0.498269
O O7 0.634329 0.408331 0.241914
O O8 0.250000 0.640266 0.250000
O O9 0.387072 0.571476 0.264386
O O10 0.369551 0.740860 0.278920
O O11 0.876062 0.500000 0.500000
O O12 0.000000 0.524605 0.662636
O O13 0.500000 0.014868 0.150297
O O14 0.389438 0.910474 0.230489
O O15 0.368953 0.000000 0.000000
O O16 0.250000 0.158638 0.750000
#
# Coordination Sequence:
#
# PCOD9419101 Si02
#       6
#     8   8   8   8   8   8
#     4  10  22  41  64  89 122 165 209 253 305 368
#     4  11  23  39  63  90 121 158 199 252 307 361
#     4  10  22  40  60  85 117 154 197 244 301 359
#     4  11  24  40  60  87 119 157 200 247 301 364
#     4  10  22  38  58  86 121 161 201 246 302 363
#     4  10  22  38  60  89 118 155 203 256 309 361
#
# _framework density 19.821142999999999
#
# number of rings (size 3 to 8) (size 9 to 14) (size 15 to 20)
#    0.000    1.667    0.000    3.500    0.000   13.333 
#    0.000    3.333    0.000    0.000    0.000    0.000 
#    0.000    0.000    0.000    0.000    0.000    0.000 
#
# Total GULP energy -268060.096618 kJ/mol
# GULP energy per Si atom -5584.585346 kJ/mol
# Density = 1.977603 g / cm^3
# Si number density = 19.821143 Si / 1000 Ang^3
#
#
#
# Elastic Constant Matrix: (Units=GPa)
#
#
# Indices 1 2 3 4 5 6 
#
# 1 35.1483 10.4416 25.4766 0.0000 0.0000 0.0000
# 2 10.4416 103.6054 60.6092 0.0000 0.0000 0.0000
# 3 25.4766 60.6092 109.9079 0.0000 0.0000 0.0000
# 4 0.0000 0.0000 0.0000 60.5382 0.0000 0.0000
# 5 0.0000 0.0000 0.0000 0.0000 29.0769 0.0000
# 6 0.0000 0.0000 0.0000 0.0000 0.0000 37.9302
#
#
#
# Elastic Compliance Matrix: (Units=1/GPa)
#
#
# Indices 1 2 3 4 5 6 
#
# 1 0.034415 0.001769 -0.008953 0.000000 0.000000 0.000000
# 2 0.001769 0.014340 -0.008318 0.000000 0.000000 0.000000
# 3 -0.008953 -0.008318 0.015761 0.000000 0.000000 0.000000
# 4 0.000000 0.000000 0.000000 0.016519 0.000000 0.000000
# 5 0.000000 0.000000 0.000000 0.000000 0.034392 0.000000
# 6 0.000000 0.000000 0.000000 0.000000 0.000000 0.026364
#
#
# Mechanical properties :
#
#
# Convention : Reuss Voigt Hill
#
# Bulk Modulus (GPa) = 29.84020 49.07960 39.45990
# Shear Modulus (GPa) = 27.17941 35.65132 31.41537
#
# Velocity S-wave (km/s) = 3.70703 4.24565 3.98545
# Velocity P-wave (km/s) = 5.78016 6.98921 6.41324
#
# Compressibility (1/GPa) = 0.03351185
#
# Stress axis : x y z
#
# Youngs Moduli (GPa) = 29.05738 69.73709 63.44933
#
# Poissons Ratio (x) = -0.12336 0.56805
# Poissons Ratio (y) = -0.05140 0.52775
# Poissons Ratio (z) = 0.26015 0.58005
#
# Static dielectric constant tensor:
#      x y z
#    x 1.684270 0.000000 0.000000 
#    y 0.000000 1.685210 0.000000 
#    z 0.000000 0.000000 1.686220 
# 
# From -- ./inp_files/9963.got.cif
#   From: 2010.05.17/outbox.cif.g08.bks.cpg/sg53_5_cif.got.tgz:9963.got - 2010.06.03 12:45:16.
