data_PCOD9419238
_publ_section_title
;
Structure prediction by ZEFSAII (Michael W. Deem and Ramdas Pophale) SiO2 
 PCOD9419238
Probable space group: P M N A
;
_chemical_formula_sum "Si O2"
_cell_formula_units_Z 32
_cell_length_a 33.523651
_cell_length_b 5.399076
_cell_length_c 8.501538
_cell_angle_alpha 90.000000
_cell_angle_beta 90.000000
_cell_angle_gamma 90.000000
_cell_volume 1538.750659
_symmetry_space_group_name_H-M "P M N A"
_symmetry_group_IT_number 53
_symmetry_cell_setting 'orthorhombic'
loop_
_space_group_symop_operation_xyz
x,y,z
1/2-x,-y,1/2+z
x,-y,-z
1/2-x,y,1/2-z
-x,-y,-z
1/2+x,y,1/2-z
-x,y,z
1/2+x,-y,1/2+z
loop_
_atom_site_type_symbol
_atom_site_label
_atom_site_fract_x
_atom_site_fract_y
_atom_site_fract_z
Si Si1 0.750000 0.348853 0.250000
Si Si2 0.828432 0.622661 0.173846
Si Si3 0.914937 0.563949 0.317248
Si Si4 0.047524 0.938193 0.817828
Si Si5 0.283452 0.000000 0.500000
O O1 0.790667 0.502043 0.259579
O O2 0.743958 0.193648 0.409395
O O3 0.869196 0.600407 0.265463
O O4 0.812864 0.895651 0.133335
O O5 0.833161 0.500000 0.000000
O O6 0.918024 0.500000 0.500000
O O7 0.932725 0.324126 0.227163
O O8 0.936925 0.822879 0.278194
O O9 0.000000 0.915238 0.797053
O O10 0.056103 0.000000 0.000000
#
# Coordination Sequence:
#
# PCOD9419238 Si02
#       5
#     4   8   8   8   4
#     4  10  22  40  64  94 130 174 226 280 336 400
#     4  10  23  41  63  94 130 183 232 277 334 412
#     4  12  27  43  70 108 143 181 229 293 349 405
#     4  11  25  48  75 102 137 185 233 280 347 427
#     4  10  22  40  66  92 127 184 219 290 334 404
#
# _framework density 20.796091000000001
#
# number of rings (size 3 to 8) (size 9 to 14) (size 15 to 20)
#    0.000    1.250    0.000    4.500    8.750   10.000 
#    0.000    0.000    0.000    0.000    0.000    0.000 
#    0.000    0.000    0.000    0.000    0.000    0.000 
#
# Total GULP energy -178882.956366 kJ/mol
# GULP energy per Si atom -5590.092386 kJ/mol
# Density = 2.074876 g / cm^3
# Si number density = 20.796091 Si / 1000 Ang^3
#
#
#
# Elastic Constant Matrix: (Units=GPa)
#
#
# Indices 1 2 3 4 5 6 
#
# 1 100.0224 46.9537 49.8395 0.0000 0.0000 0.0000
# 2 46.9537 110.6343 20.7285 0.0000 0.0000 0.0000
# 3 49.8395 20.7285 65.8315 0.0000 0.0000 0.0000
# 4 0.0000 0.0000 0.0000 24.1296 0.0000 0.0000
# 5 0.0000 0.0000 0.0000 0.0000 30.1543 0.0000
# 6 0.0000 0.0000 0.0000 0.0000 0.0000 -5.3233
#
#
#
# Elastic Compliance Matrix: (Units=1/GPa)
#
#
# Indices 1 2 3 4 5 6 
#
# 1 0.018902 -0.005676 -0.012523 0.000000 0.000000 0.000000
# 2 -0.005676 0.011310 0.000736 0.000000 0.000000 0.000000
# 3 -0.012523 0.000736 0.024440 0.000000 0.000000 0.000000
# 4 0.000000 0.000000 0.000000 0.041443 0.000000 0.000000
# 5 0.000000 0.000000 0.000000 0.000000 0.033163 0.000000
# 6 0.000000 0.000000 0.000000 0.000000 0.000000 -0.187855
#
#
# Mechanical properties :
#
#
# Convention : Reuss Voigt Hill
#
# Bulk Modulus (GPa) = 50.69644 56.83685 53.76664
# Shear Modulus (GPa) = -292.47224 20.38990 -136.04117
#
# Velocity S-wave (km/s) = -11.87196 3.13464 -8.09683
# Velocity P-wave (km/s) = 12.78647 6.36327 7.84228
#
# Compressibility (1/GPa) = 0.01972525
#
# Stress axis : x y z
#
# Youngs Moduli (GPa) = 52.90338 88.41917 40.91699
#
# Poissons Ratio (x) = 0.50186 0.51242
# Poissons Ratio (y) = 0.30027 -0.03011
# Poissons Ratio (z) = 0.66253 -0.06507
#
# Static dielectric constant tensor:
#      x y z
#    x 1.692350 0.000000 0.000000 
#    y 0.000000 1.820320 0.000000 
#    z 0.000000 0.000000 1.709440 
# 
# From -- ./inp_files/12703.got.cif
#   From: 2010.05.17/outbox.cif.g08.bks.cpg/sg53_7_cif.got.tgz:12703.got - 2010.06.03 12:45:16.
