data_PCOD9419583
_publ_section_title
;
Structure prediction by ZEFSAII (Michael W. Deem and Ramdas Pophale) SiO2 
 PCOD9419583
Probable space group: P M N A
;
_chemical_formula_sum "Si O2"
_cell_formula_units_Z 48
_cell_length_a 28.723878
_cell_length_b 8.855682
_cell_length_c 10.034387
_cell_angle_alpha 90.000000
_cell_angle_beta 90.000000
_cell_angle_gamma 90.000000
_cell_volume 2552.442299
_symmetry_space_group_name_H-M "P M N A"
_symmetry_group_IT_number 53
_symmetry_cell_setting 'orthorhombic'
loop_
_space_group_symop_operation_xyz
x,y,z
1/2-x,-y,1/2+z
x,-y,-z
1/2-x,y,1/2-z
-x,-y,-z
1/2+x,y,1/2-z
-x,y,z
1/2+x,-y,1/2+z
loop_
_atom_site_type_symbol
_atom_site_label
_atom_site_fract_x
_atom_site_fract_y
_atom_site_fract_z
Si Si1 0.849936 0.820858 0.499103
Si Si2 0.500000 0.322344 0.670090
Si Si3 0.257557 0.349914 0.089826
Si Si4 0.899679 0.816433 0.225765
Si Si5 0.000000 0.319449 0.149726
Si Si6 0.343750 0.319180 0.478449
Si Si7 0.905346 0.822589 0.753382
O O1 0.803924 0.742128 0.555981
O O2 0.868416 0.773868 0.354134
O O3 0.891876 0.793964 0.601486
O O4 0.840857 0.000000 0.500000
O O5 0.547971 0.251548 0.726485
O O6 0.500000 0.503322 0.684794
O O7 0.500000 0.298208 0.510038
O O8 0.250000 0.375917 0.250000
O O9 0.210178 0.273272 0.035371
O O10 0.261648 0.500000 0.000000
O O11 0.902812 0.998149 0.220795
O O12 0.872200 0.756649 0.097470
O O13 0.044927 0.240066 0.208487
O O14 0.345701 0.500000 0.500000
O O15 0.368807 0.267243 0.344207
#
# Coordination Sequence:
#
# PCOD9419583 Si02
#       7
#     8   4   8   8   4   8   8
#     4  10  25  45  64  93 131 168 210 263 317 376
#     4  11  23  40  61  98 127 163 212 258 319 376
#     4  11  25  43  66  95 130 168 213 261 316 376
#     4  11  24  40  66  93 127 165 212 260 314 380
#     4  11  23  38  65  92 131 163 208 268 309 380
#     4  11  23  39  62  93 126 163 212 259 312 373
#     4  11  22  42  64  93 124 168 209 260 320 369
#
# _framework density 18.805519
#
# number of rings (size 3 to 8) (size 9 to 14) (size 15 to 20)
#    0.000    1.167    3.333    2.000    4.667    4.000 
#    0.000    3.333    0.000    0.000    0.000    0.000 
#    0.000    0.000    0.000    0.000    0.000    0.000 
#
# Total GULP energy -268063.692771 kJ/mol
# GULP energy per Si atom -5584.660266 kJ/mol
# Density = 1.876272 g / cm^3
# Si number density = 18.805519 Si / 1000 Ang^3
#
#
#
# Elastic Constant Matrix: (Units=GPa)
#
#
# Indices 1 2 3 4 5 6 
#
# 1 130.2180 33.7111 20.6736 0.0000 0.0000 0.0000
# 2 33.7111 45.4391 21.1701 0.0000 0.0000 0.0000
# 3 20.6736 21.1701 76.8934 0.0000 0.0000 0.0000
# 4 0.0000 0.0000 0.0000 19.2516 0.0000 0.0000
# 5 0.0000 0.0000 0.0000 0.0000 -0.9593 0.0000
# 6 0.0000 0.0000 0.0000 0.0000 0.0000 25.8117
#
#
#
# Elastic Compliance Matrix: (Units=1/GPa)
#
#
# Indices 1 2 3 4 5 6 
#
# 1 0.009538 -0.006747 -0.000707 0.000000 0.000000 0.000000
# 2 -0.006747 0.030018 -0.006451 0.000000 0.000000 0.000000
# 3 -0.000707 -0.006451 0.014971 0.000000 0.000000 0.000000
# 4 0.000000 0.000000 0.000000 0.051944 0.000000 0.000000
# 5 0.000000 0.000000 0.000000 0.000000 -1.042437 0.000000
# 6 0.000000 0.000000 0.000000 0.000000 0.000000 0.038742
#
#
# Mechanical properties :
#
#
# Convention : Reuss Voigt Hill
#
# Bulk Modulus (GPa) = 37.42702 44.85113 41.13907
# Shear Modulus (GPa) = -5.81052 20.62052 7.40500
#
# Velocity S-wave (km/s) = -1.75969 3.31496 1.98651
# Velocity P-wave (km/s) = 3.97702 6.20916 5.21394
#
# Compressibility (1/GPa) = 0.02671867
#
# Stress axis : x y z
#
# Youngs Moduli (GPa) = 104.83970 33.31280 66.79571
#
# Poissons Ratio (x) = 0.22477 0.04722
# Poissons Ratio (y) = 0.70737 0.43087
# Poissons Ratio (z) = 0.07411 0.21489
#
# Static dielectric constant tensor:
#      x y z
#    x 1.746920 0.000000 0.000000 
#    y 0.000000 1.639480 0.000000 
#    z 0.000000 0.000000 1.632960 
# 
# From -- ./inp_files/13070.got.cif
#   From: 2010.05.17/outbox.cif.g08.bks.cpg/sg53_7_cif.got.tgz:13070.got - 2010.06.03 12:45:16.
