data_PCOD9419038
_publ_section_title
;
Structure prediction by ZEFSAII (Michael W. Deem and Ramdas Pophale) SiO2 
 PCOD9419038
Probable space group: P M N A
;
_chemical_formula_sum "Si O2"
_cell_formula_units_Z 36
_cell_length_a 25.018114
_cell_length_b 4.920756
_cell_length_c 10.748942
_cell_angle_alpha 90.000000
_cell_angle_beta 90.000000
_cell_angle_gamma 90.000000
_cell_volume 1323.281123
_symmetry_space_group_name_H-M "P M N A"
_symmetry_group_IT_number 53
_symmetry_cell_setting 'orthorhombic'
loop_
_space_group_symop_operation_xyz
x,y,z
1/2-x,-y,1/2+z
x,-y,-z
1/2-x,y,1/2-z
-x,-y,-z
1/2+x,y,1/2-z
-x,y,z
1/2+x,-y,1/2+z
loop_
_atom_site_type_symbol
_atom_site_label
_atom_site_fract_x
_atom_site_fract_y
_atom_site_fract_z
Si Si1 0.500000 0.768148 0.611302
Si Si2 0.112324 0.864106 0.323622
Si Si3 0.379736 0.630926 0.664543
Si Si4 0.236000 0.823464 0.881129
Si Si5 0.679559 0.500000 0.000000
Si Si6 0.000000 0.405227 0.640824
O O1 0.436333 0.684862 0.596927
O O2 0.500000 0.648343 0.757464
O O3 0.500000 0.000000 0.500000
O O4 0.127365 0.681751 0.203144
O O5 0.143345 0.734601 0.439187
O O6 0.050880 0.783829 0.338341
O O7 0.117838 0.177685 0.288819
O O8 0.324653 0.727195 0.604744
O O9 0.250000 0.962265 0.750000
O O10 0.279677 0.585937 0.890795
O O11 0.248651 0.000000 0.000000
O O12 0.000000 0.500000 0.500000
#
# Coordination Sequence:
#
# PCOD9419038 Si02
#       6
#     4   8   8   8   4   4
#     4  10  23  48  72 109 147 197 249 321 386 476
#     4  11  24  46  74 111 150 195 251 322 384 467
#     4  11  25  48  74 108 150 197 254 313 392 461
#     4  12  27  47  73 107 148 204 254 319 381 467
#     4  12  26  43  74 103 154 194 258 310 388 446
#     4  10  21  44  76 114 150 200 260 325 407 478
#
# _framework density 27.205103999999999
#
# number of rings (size 3 to 8) (size 9 to 14) (size 15 to 20)
#    0.000    0.889    3.333    2.667    3.111    0.889 
#    0.000   10.000    0.000    0.000    0.000    0.000 
#    0.000    0.000    0.000    0.000    0.000    0.000 
#
# Total GULP energy -201117.410753 kJ/mol
# GULP energy per Si atom -5586.594743 kJ/mol
# Density = 2.714318 g / cm^3
# Si number density = 27.205104 Si / 1000 Ang^3
#
#
#
# Elastic Constant Matrix: (Units=GPa)
#
#
# Indices 1 2 3 4 5 6 
#
# 1 232.1813 36.2300 48.9162 0.0000 0.0000 0.0000
# 2 36.2300 81.6478 49.4226 0.0000 0.0000 0.0000
# 3 48.9162 49.4226 155.9146 0.0000 0.0000 0.0000
# 4 0.0000 0.0000 0.0000 49.7759 0.0000 0.0000
# 5 0.0000 0.0000 0.0000 0.0000 34.5563 0.0000
# 6 0.0000 0.0000 0.0000 0.0000 0.0000 468.8843
#
#
#
# Elastic Compliance Matrix: (Units=1/GPa)
#
#
# Indices 1 2 3 4 5 6 
#
# 1 0.004755 -0.001493 -0.001018 0.000000 0.000000 0.000000
# 2 -0.001493 0.015625 -0.004484 0.000000 0.000000 0.000000
# 3 -0.001018 -0.004484 0.008155 0.000000 0.000000 0.000000
# 4 0.000000 0.000000 0.000000 0.020090 0.000000 0.000000
# 5 0.000000 0.000000 0.000000 0.000000 0.028938 0.000000
# 6 0.000000 0.000000 0.000000 0.000000 0.000000 0.002133
#
#
# Mechanical properties :
#
#
# Convention : Reuss Voigt Hill
#
# Bulk Modulus (GPa) = 68.76582 82.09791 75.43187
# Shear Modulus (GPa) = 50.74369 132.98829 91.86599
#
# Velocity S-wave (km/s) = 4.32351 6.99926 5.81732
# Velocity P-wave (km/s) = 7.08910 9.77561 8.53867
#
# Compressibility (1/GPa) = 0.01454211
#
# Stress axis : x y z
#
# Youngs Moduli (GPa) = 210.32516 64.00078 122.62854
#
# Poissons Ratio (x) = 0.09558 0.12487
# Poissons Ratio (y) = 0.31409 0.54990
# Poissons Ratio (z) = 0.21417 0.28700
#
# Static dielectric constant tensor:
#      x y z
#    x 2.082280 0.000000 0.000000 
#    y 0.000000 2.150970 0.000000 
#    z 0.000000 0.000000 2.138770 
# 
# From -- ./inp_files/18117.got.cif
#   From: 2010.05.17/outbox.cif.g08.bks.cpg/sg53_10_cif.got.tgz:18117.got - 2010.06.03 12:45:16.
