data_PCOD9419514
_publ_section_title
;
Structure prediction by ZEFSAII (Michael W. Deem and Ramdas Pophale) SiO2 
 PCOD9419514
Probable space group: P M N A
;
_chemical_formula_sum "Si O2"
_cell_formula_units_Z 16
_cell_length_a 13.526552
_cell_length_b 6.940932
_cell_length_c 6.632560
_cell_angle_alpha 90.000000
_cell_angle_beta 90.000000
_cell_angle_gamma 90.000000
_cell_volume 622.710349
_symmetry_space_group_name_H-M "P M N A"
_symmetry_group_IT_number 53
_symmetry_cell_setting 'orthorhombic'
loop_
_space_group_symop_operation_xyz
x,y,z
1/2-x,-y,1/2+z
x,-y,-z
1/2-x,y,1/2-z
-x,-y,-z
1/2+x,y,1/2-z
-x,y,z
1/2+x,-y,1/2+z
loop_
_atom_site_type_symbol
_atom_site_label
_atom_site_fract_x
_atom_site_fract_y
_atom_site_fract_z
Si Si1 0.000000 0.782790 0.359786
Si Si2 0.326936 0.192397 0.598317
Si Si3 0.000000 0.340799 0.194545
O O1 0.906190 0.878372 0.260477
O O2 0.000000 0.562567 0.270107
O O3 0.000000 0.770329 0.595942
O O4 0.250000 0.301254 0.750000
O O5 0.398371 0.294520 0.430828
O O6 0.281616 0.000000 0.500000
#
# Coordination Sequence:
#
# PCOD9419514 Si02
#       3
#     4   8   4
#     4  10  23  48  71  93 132 178 223 279 326 398
#     4  11  25  41  66 101 135 174 223 270 331 394
#     4  10  23  48  70  96 130 178 226 272 336 387
#
# _framework density 25.694127999999999
#
# number of rings (size 3 to 8) (size 9 to 14) (size 15 to 20)
#    0.000    1.500    0.000    6.000    7.000    2.000 
#   18.000    2.500    0.000    0.000    0.000    0.000 
#    0.000    0.000    0.000    0.000    0.000    0.000 
#
# Total GULP energy -89141.505622 kJ/mol
# GULP energy per Si atom -5571.344101 kJ/mol
# Density = 2.563565 g / cm^3
# Si number density = 25.694128 Si / 1000 Ang^3
#
#
#
# Elastic Constant Matrix: (Units=GPa)
#
#
# Indices 1 2 3 4 5 6 
#
# 1 122.3320 7.2073 61.3213 0.0000 0.0000 0.0000
# 2 7.2073 103.6708 46.8601 0.0000 0.0000 0.0000
# 3 61.3213 46.8601 220.3948 0.0000 0.0000 0.0000
# 4 0.0000 0.0000 0.0000 58.4163 0.0000 0.0000
# 5 0.0000 0.0000 0.0000 0.0000 57.4280 0.0000
# 6 0.0000 0.0000 0.0000 0.0000 0.0000 20.4920
#
#
#
# Elastic Compliance Matrix: (Units=1/GPa)
#
#
# Indices 1 2 3 4 5 6 
#
# 1 0.009532 0.000593 -0.002778 0.000000 0.000000 0.000000
# 2 0.000593 0.010708 -0.002442 0.000000 0.000000 0.000000
# 3 -0.002778 -0.002442 0.005830 0.000000 0.000000 0.000000
# 4 0.000000 0.000000 0.000000 0.017118 0.000000 0.000000
# 5 0.000000 0.000000 0.000000 0.000000 0.017413 0.000000
# 6 0.000000 0.000000 0.000000 0.000000 0.000000 0.048800
#
#
# Mechanical properties :
#
#
# Convention : Reuss Voigt Hill
#
# Bulk Modulus (GPa) = 59.46680 75.24169 67.35424
# Shear Modulus (GPa) = 40.23798 49.33452 44.78625
#
# Velocity S-wave (km/s) = 3.96161 4.38661 4.17952
# Velocity P-wave (km/s) = 6.64230 7.41645 7.04002
#
# Compressibility (1/GPa) = 0.01681611
#
# Stress axis : x y z
#
# Youngs Moduli (GPa) = 104.90750 93.38452 171.54099
#
# Poissons Ratio (x) = -0.05539 0.47659
# Poissons Ratio (y) = -0.06222 0.41888
# Poissons Ratio (z) = 0.29146 0.22803
#
# Static dielectric constant tensor:
#      x y z
#    x 2.190670 0.000000 0.000000 
#    y 0.000000 2.151700 0.000000 
#    z 0.000000 0.000000 2.062540 
# 
# From -- ./inp_files/6996.got.cif
#   From: 2010.05.17/outbox.cif.g08.bks.cpg/sg53_4_cif.got.tgz:6996.got - 2010.06.03 12:45:16.
