data_PCOD9419042
_publ_section_title
;
Structure prediction by ZEFSAII (Michael W. Deem and Ramdas Pophale) SiO2 
 PCOD9419042
Probable space group: P M N A
;
_chemical_formula_sum "Si O2"
_cell_formula_units_Z 32
_cell_length_a 14.801110
_cell_length_b 5.064165
_cell_length_c 16.599613
_cell_angle_alpha 90.000000
_cell_angle_beta 90.000000
_cell_angle_gamma 90.000000
_cell_volume 1244.228362
_symmetry_space_group_name_H-M "P M N A"
_symmetry_group_IT_number 53
_symmetry_cell_setting 'orthorhombic'
loop_
_space_group_symop_operation_xyz
x,y,z
1/2-x,-y,1/2+z
x,-y,-z
1/2-x,y,1/2-z
-x,-y,-z
1/2+x,y,1/2-z
-x,y,z
1/2+x,-y,1/2+z
loop_
_atom_site_type_symbol
_atom_site_label
_atom_site_fract_x
_atom_site_fract_y
_atom_site_fract_z
Si Si1 0.801487 0.762796 0.911574
Si Si2 0.000000 0.177558 0.580611
Si Si3 0.683354 0.752821 0.314445
Si Si4 0.648808 0.500000 0.000000
Si Si5 0.500000 0.717177 0.575065
Si Si6 0.500000 0.007658 0.257606
O O1 0.824391 0.466789 0.882265
O O2 0.716937 0.723201 0.968808
O O3 0.902162 0.849472 0.936353
O O4 0.772721 0.977575 0.846357
O O5 0.913850 0.372665 0.569366
O O6 0.000000 0.991975 0.659717
O O7 0.000000 0.000000 0.500000
O O8 0.750000 0.628814 0.250000
O O9 0.588039 0.838619 0.279640
O O10 0.500000 0.500000 0.500000
O O11 0.500000 0.742518 0.678195
#
# Coordination Sequence:
#
# PCOD9419042 Si02
#       6
#     8   4   8   4   4   4
#     4  11  24  43  72 108 147 194 249 321 391 476
#     4  11  27  49  74 104 150 211 265 323 393 474
#     4  11  24  43  69 106 145 196 251 315 395 464
#     4  11  26  45  72 108 146 201 264 329 386 486
#     4  10  21  47  73 116 151 200 253 327 421 476
#     4  10  24  46  71 107 154 203 259 331 395 491
#
# _framework density 25.718751999999999
#
# number of rings (size 3 to 8) (size 9 to 14) (size 15 to 20)
#    0.000    1.250    1.250    3.000    7.000    0.000 
#   13.500    2.500    0.000    0.000    0.000    0.000 
#    0.000    0.000    0.000    0.000    0.000    0.000 
#
# Total GULP energy -178480.569781 kJ/mol
# GULP energy per Si atom -5577.517806 kJ/mol
# Density = 2.566022 g / cm^3
# Si number density = 25.718752 Si / 1000 Ang^3
#
#
#
# Elastic Constant Matrix: (Units=GPa)
#
#
# Indices 1 2 3 4 5 6 
#
# 1 144.9916 -1.7658 42.2887 0.0000 0.0000 0.0000
# 2 -1.7658 80.2642 52.4013 0.0000 0.0000 0.0000
# 3 42.2887 52.4013 164.3931 0.0000 0.0000 0.0000
# 4 0.0000 0.0000 0.0000 47.1368 0.0000 0.0000
# 5 0.0000 0.0000 0.0000 0.0000 21.6683 0.0000
# 6 0.0000 0.0000 0.0000 0.0000 0.0000 -76.0966
#
#
#
# Elastic Compliance Matrix: (Units=1/GPa)
#
#
# Indices 1 2 3 4 5 6 
#
# 1 0.007665 0.001839 -0.002558 0.000000 0.000000 0.000000
# 2 0.001839 0.016174 -0.005629 0.000000 0.000000 0.000000
# 3 -0.002558 -0.005629 0.008535 0.000000 0.000000 0.000000
# 4 0.000000 0.000000 0.000000 0.021215 0.000000 0.000000
# 5 0.000000 0.000000 0.000000 0.000000 0.046150 0.000000
# 6 0.000000 0.000000 0.000000 0.000000 0.000000 -0.013141
#
#
# Mechanical properties :
#
#
# Convention : Reuss Voigt Hill
#
# Bulk Modulus (GPa) = 50.81616 63.94416 57.38016
# Shear Modulus (GPa) = 47.23501 18.32334 32.77917
#
# Velocity S-wave (km/s) = 4.29020 2.67207 3.57392
# Velocity P-wave (km/s) = 6.65901 5.86829 6.27611
#
# Compressibility (1/GPa) = 0.01967878
#
# Stress axis : x y z
#
# Youngs Moduli (GPa) = 130.45638 61.82789 117.16308
#
# Poissons Ratio (x) = -0.11368 0.29969
# Poissons Ratio (y) = -0.23986 0.65945
# Poissons Ratio (z) = 0.33370 0.34800
#
# Static dielectric constant tensor:
#      x y z
#    x 1.963550 0.000000 0.000000 
#    y 0.000000 2.072230 0.000000 
#    z 0.000000 0.000000 2.280320 
# 
# From -- ./inp_files/27926.got.cif
#   From: 2010.05.17/outbox.cif.g08.bks.cpg/sg53_14_cif.got.tgz:27926.got - 2010.06.03 12:45:16.
