data_PCOD9419739
_publ_section_title
;
Structure prediction by ZEFSAII (Michael W. Deem and Ramdas Pophale) SiO2 
 PCOD9419739
Probable space group: P M N A
;
_chemical_formula_sum "Si O2"
_cell_formula_units_Z 48
_cell_length_a 14.353834
_cell_length_b 11.420269
_cell_length_c 13.485961
_cell_angle_alpha 90.000000
_cell_angle_beta 90.000000
_cell_angle_gamma 90.000000
_cell_volume 2210.681376
_symmetry_space_group_name_H-M "P M N A"
_symmetry_group_IT_number 53
_symmetry_cell_setting 'orthorhombic'
loop_
_space_group_symop_operation_xyz
x,y,z
1/2-x,-y,1/2+z
x,-y,-z
1/2-x,y,1/2-z
-x,-y,-z
1/2+x,y,1/2-z
-x,y,z
1/2+x,-y,1/2+z
loop_
_atom_site_type_symbol
_atom_site_label
_atom_site_fract_x
_atom_site_fract_y
_atom_site_fract_z
Si Si1 0.898531 0.368094 0.537907
Si Si2 0.281355 0.734277 0.883401
Si Si3 0.892870 0.372722 0.203070
Si Si4 0.393676 0.105339 0.696491
Si Si5 0.794238 0.997142 0.384631
Si Si6 0.139838 0.634128 0.233810
O O1 0.882862 0.500000 0.500000
O O2 0.818678 0.287721 0.493143
O O3 0.900124 0.368022 0.655338
O O4 0.000000 0.329056 0.500042
O O5 0.175010 0.695392 0.871328
O O6 0.344178 0.654561 0.809540
O O7 0.295915 0.867374 0.852580
O O8 0.886750 0.511678 0.183763
O O9 0.000000 0.335822 0.202962
O O10 0.500000 0.064507 0.680512
O O11 0.311486 0.049514 0.630269
O O12 0.360140 0.075055 0.809519
O O13 0.390204 0.245517 0.683579
O O14 0.821001 0.000000 0.500000
O O15 0.250000 0.636114 0.250000
#
# Coordination Sequence:
#
# PCOD9419739 Si02
#       6
#     8   8   8   8   8   8
#     4  11  21  36  61  96 129 158 204 255 314 386
#     4  11  23  37  62  93 122 168 203 258 319 362
#     4  11  21  38  62  94 128 161 204 252 316 388
#     4  11  24  43  67  93 127 172 221 270 321 385
#     4  11  25  44  65  92 128 171 221 274 321 378
#     4  12  21  39  66  92 128 167 201 260 322 381
#
# _framework density 21.712761
#
# number of rings (size 3 to 8) (size 9 to 14) (size 15 to 20)
#    0.000    0.833    5.000    5.000    0.000    4.000 
#    0.000    0.000    0.000    1.500    0.000    0.000 
#    0.000    0.000    0.000    0.000    0.000    0.000 
#
# Total GULP energy -268373.290668 kJ/mol
# GULP energy per Si atom -5591.110222 kJ/mol
# Density = 2.166334 g / cm^3
# Si number density = 21.712761 Si / 1000 Ang^3
#
#
#
# Elastic Constant Matrix: (Units=GPa)
#
#
# Indices 1 2 3 4 5 6 
#
# 1 138.8743 11.0222 -19.3605 0.0000 0.0000 0.0000
# 2 11.0222 103.2538 -4.8488 0.0000 0.0000 0.0000
# 3 -19.3605 -4.8488 23.7681 0.0000 0.0000 0.0000
# 4 0.0000 0.0000 0.0000 18.2769 0.0000 0.0000
# 5 0.0000 0.0000 0.0000 0.0000 23.6004 0.0000
# 6 0.0000 0.0000 0.0000 0.0000 0.0000 24.8329
#
#
#
# Elastic Compliance Matrix: (Units=1/GPa)
#
#
# Indices 1 2 3 4 5 6 
#
# 1 0.008156 -0.000564 0.006528 0.000000 0.000000 0.000000
# 2 -0.000564 0.009818 0.001543 0.000000 0.000000 0.000000
# 3 0.006528 0.001543 0.047706 0.000000 0.000000 0.000000
# 4 0.000000 0.000000 0.000000 0.054714 0.000000 0.000000
# 5 0.000000 0.000000 0.000000 0.000000 0.042372 0.000000
# 6 0.000000 0.000000 0.000000 0.000000 0.000000 0.040269
#
#
# Mechanical properties :
#
#
# Convention : Reuss Voigt Hill
#
# Bulk Modulus (GPa) = 12.39253 26.61355 19.50304
# Shear Modulus (GPa) = 23.26481 31.94760 27.60621
#
# Velocity S-wave (km/s) = 3.27690 3.84001 3.56958
# Velocity P-wave (km/s) = 4.47630 5.65196 5.09813
#
# Compressibility (1/GPa) = 0.08069379
#
# Stress axis : x y z
#
# Youngs Moduli (GPa) = 122.61495 101.85831 20.96191
#
# Poissons Ratio (x) = 0.05745 -0.13684
# Poissons Ratio (y) = 0.06916 -0.03235
# Poissons Ratio (z) = -0.80045 -0.15721
#
# Static dielectric constant tensor:
#      x y z
#    x 1.668240 0.000000 0.000000 
#    y 0.000000 1.797950 0.000000 
#    z 0.000000 0.000000 1.828560 
# 
# From -- ./inp_files/22698.got.cif
#   From: 2010.05.17/outbox.cif.g08.bks.cpg/sg53_12_cif.got.tgz:22698.got - 2010.06.03 12:45:16.
