data_PCOD9419591
_publ_section_title
;
Structure prediction by ZEFSAII (Michael W. Deem and Ramdas Pophale) SiO2 
 PCOD9419591
Probable space group: P M N A
;
_chemical_formula_sum "Si O2"
_cell_formula_units_Z 20
_cell_length_a 28.709509
_cell_length_b 5.178561
_cell_length_c 5.356248
_cell_angle_alpha 90.000000
_cell_angle_beta 90.000000
_cell_angle_gamma 90.000000
_cell_volume 796.334513
_symmetry_space_group_name_H-M "P M N A"
_symmetry_group_IT_number 53
_symmetry_cell_setting 'orthorhombic'
loop_
_space_group_symop_operation_xyz
x,y,z
1/2-x,-y,1/2+z
x,-y,-z
1/2-x,y,1/2-z
-x,-y,-z
1/2+x,y,1/2-z
-x,y,z
1/2+x,-y,1/2+z
loop_
_atom_site_type_symbol
_atom_site_label
_atom_site_fract_x
_atom_site_fract_y
_atom_site_fract_z
Si Si1 0.603111 0.757766 0.834703
Si Si2 0.250000 0.673661 0.250000
Si Si3 0.672806 0.000000 0.500000
Si Si4 0.000000 0.668732 0.752559
O O1 0.549679 0.808033 0.750180
O O2 0.639151 0.779218 0.610149
O O3 0.605114 0.500000 0.000000
O O4 0.616311 0.000000 0.000000
O O5 0.243653 0.500000 0.500000
O O6 0.293558 0.860492 0.302752
O O7 0.000000 0.500000 0.500000
O O8 0.000000 0.500000 0.000000
#
# Coordination Sequence:
#
# PCOD9419591 Si02
#       4
#     8   4   4   4
#     4  11  29  51  84 123 168 218 277 339 414 500
#     4  12  32  56  84 116 170 216 282 358 434 502
#     4  12  32  51  84 124 162 223 286 350 432 500
#     4  10  25  51  79 123 172 220 268 337 409 496
#
# _framework density 25.115075000000001
#
# number of rings (size 3 to 8) (size 9 to 14) (size 15 to 20)
#    0.000    0.800    0.000    1.800   25.200    0.800 
#    0.000    0.000    0.000    0.000    0.000    0.000 
#    0.000    0.000    0.000    0.000    0.000    0.000 
#
# Total GULP energy -112143.545257 kJ/mol
# GULP energy per Si atom -5607.177263 kJ/mol
# Density = 2.505791 g / cm^3
# Si number density = 25.115075 Si / 1000 Ang^3
#
#
#
# Elastic Constant Matrix: (Units=GPa)
#
#
# Indices 1 2 3 4 5 6 
#
# 1 243.4941 56.5677 70.9027 0.0000 0.0000 0.0000
# 2 56.5677 135.2284 54.0074 0.0000 0.0000 0.0000
# 3 70.9027 54.0074 144.8868 0.0000 0.0000 0.0000
# 4 0.0000 0.0000 0.0000 54.3911 0.0000 0.0000
# 5 0.0000 0.0000 0.0000 0.0000 102.0395 0.0000
# 6 0.0000 0.0000 0.0000 0.0000 0.0000 59.5899
#
#
#
# Elastic Compliance Matrix: (Units=1/GPa)
#
#
# Indices 1 2 3 4 5 6 
#
# 1 0.004977 -0.001303 -0.001950 0.000000 0.000000 0.000000
# 2 -0.001303 0.009030 -0.002728 0.000000 0.000000 0.000000
# 3 -0.001950 -0.002728 0.008873 0.000000 0.000000 0.000000
# 4 0.000000 0.000000 0.000000 0.018385 0.000000 0.000000
# 5 0.000000 0.000000 0.000000 0.000000 0.009800 0.000000
# 6 0.000000 0.000000 0.000000 0.000000 0.000000 0.016781
#
#
# Mechanical properties :
#
#
# Convention : Reuss Voigt Hill
#
# Bulk Modulus (GPa) = 91.59637 98.50720 95.05179
# Shear Modulus (GPa) = 59.91691 66.01288 62.96490
#
# Velocity S-wave (km/s) = 4.88966 5.13237 5.01248
# Velocity P-wave (km/s) = 8.27213 8.62723 8.45155
#
# Compressibility (1/GPa) = 0.01091746
#
# Stress axis : x y z
#
# Youngs Moduli (GPa) = 200.90498 110.74654 112.70049
#
# Poissons Ratio (x) = 0.14434 0.21976
# Poissons Ratio (y) = 0.26185 0.30745
# Poissons Ratio (z) = 0.39176 0.30212
#
# Static dielectric constant tensor:
#      x y z
#    x 2.013650 0.000000 0.000000 
#    y 0.000000 1.916670 0.000000 
#    z 0.000000 0.000000 1.921490 
# 
# From -- ./inp_files/3985.got.cif
#   From: 2010.05.17/outbox.cif.g08.bks.cpg/sg53_2_cif.got.tgz:3985.got - 2010.06.03 12:45:16.
