data_PCOD9419299
_publ_section_title
;
Structure prediction by ZEFSAII (Michael W. Deem and Ramdas Pophale) SiO2 
 PCOD9419299
Probable space group: P M N A
;
_chemical_formula_sum "Si O2"
_cell_formula_units_Z 40
_cell_length_a 14.092240
_cell_length_b 12.015141
_cell_length_c 9.937591
_cell_angle_alpha 90.000000
_cell_angle_beta 90.000000
_cell_angle_gamma 90.000000
_cell_volume 1682.635399
_symmetry_space_group_name_H-M "P M N A"
_symmetry_group_IT_number 53
_symmetry_cell_setting 'orthorhombic'
loop_
_space_group_symop_operation_xyz
x,y,z
1/2-x,-y,1/2+z
x,-y,-z
1/2-x,y,1/2-z
-x,-y,-z
1/2+x,y,1/2-z
-x,y,z
1/2+x,-y,1/2+z
loop_
_atom_site_type_symbol
_atom_site_label
_atom_site_fract_x
_atom_site_fract_y
_atom_site_fract_z
Si Si1 0.394717 0.346099 0.506004
Si Si2 0.111222 0.907443 0.094527
Si Si3 0.360167 0.452402 0.222613
Si Si4 0.113950 0.896053 0.401551
Si Si5 0.824710 0.350347 0.555374
O O1 0.500000 0.373742 0.566831
O O2 0.385841 0.213302 0.525234
O O3 0.402321 0.396223 0.355150
O O4 0.288224 0.382358 0.553964
O O5 0.144468 0.914235 0.247455
O O6 0.000000 0.934637 0.108306
O O7 0.156575 0.000000 0.000000
O O8 0.250000 0.435581 0.250000
O O9 0.372118 0.582052 0.179330
O O10 0.375733 0.389570 0.081541
O O11 0.164528 0.781125 0.439428
O O12 0.000000 0.875264 0.404483
O O13 0.130779 0.000000 0.500000
#
# Coordination Sequence:
#
# PCOD9419299 Si02
#       5
#     8   8   8   8   8
#     4  10  22  41  68 100 135 181 237 295 359 424
#     4   9  20  39  63  97 139 178 228 288 349 423
#     4   9  21  41  63  93 133 179 225 289 349 415
#     4  10  23  41  65  99 141 188 234 290 356 426
#     4  10  22  41  66  96 139 181 233 289 351 424
#
# _framework density 23.772233
#
# number of rings (size 3 to 8) (size 9 to 14) (size 15 to 20)
#    0.000    2.400    0.000    0.000    5.600    2.400 
#    0.000   10.000    0.000    1.200    0.000    0.000 
#    0.000    0.000    0.000    0.000    0.000    0.000 
#
# Total GULP energy -223095.133704 kJ/mol
# GULP energy per Si atom -5577.378343 kJ/mol
# Density = 2.371813 g / cm^3
# Si number density = 23.772233 Si / 1000 Ang^3
#
#
#
# Elastic Constant Matrix: (Units=GPa)
#
#
# Indices 1 2 3 4 5 6 
#
# 1 157.1902 24.7034 38.5847 0.0000 0.0000 0.0000
# 2 24.7034 178.1937 106.2512 0.0000 0.0000 0.0000
# 3 38.5847 106.2512 164.6056 0.0000 0.0000 0.0000
# 4 0.0000 0.0000 0.0000 37.8150 0.0000 0.0000
# 5 0.0000 0.0000 0.0000 0.0000 21.2572 0.0000
# 6 0.0000 0.0000 0.0000 0.0000 0.0000 21.8513
#
#
#
# Elastic Compliance Matrix: (Units=1/GPa)
#
#
# Indices 1 2 3 4 5 6 
#
# 1 0.006750 0.000012 -0.001590 0.000000 0.000000 0.000000
# 2 0.000012 0.009123 -0.005892 0.000000 0.000000 0.000000
# 3 -0.001590 -0.005892 0.010251 0.000000 0.000000 0.000000
# 4 0.000000 0.000000 0.000000 0.026445 0.000000 0.000000
# 5 0.000000 0.000000 0.000000 0.000000 0.047043 0.000000
# 6 0.000000 0.000000 0.000000 0.000000 0.000000 0.045764
#
#
# Mechanical properties :
#
#
# Convention : Reuss Voigt Hill
#
# Bulk Modulus (GPa) = 89.40572 93.22980 91.31776
# Shear Modulus (GPa) = 30.47966 38.21470 34.34718
#
# Velocity S-wave (km/s) = 3.58460 4.01376 3.80523
# Velocity P-wave (km/s) = 7.40429 7.79637 7.60286
#
# Compressibility (1/GPa) = 0.01118497
#
# Stress axis : x y z
#
# Youngs Moduli (GPa) = 148.14530 109.60937 97.55061
#
# Poissons Ratio (x) = -0.00137 0.15514
# Poissons Ratio (y) = -0.00185 0.57476
# Poissons Ratio (z) = 0.23560 0.64581
#
# Static dielectric constant tensor:
#      x y z
#    x 1.961740 0.000000 0.000000 
#    y 0.000000 1.863940 0.000000 
#    z 0.000000 0.000000 1.990390 
# 
# From -- ./inp_files/15740.got.cif
#   From: 2010.05.17/outbox.cif.g08.bks.cpg/sg53_8_cif.got.tgz:15740.got - 2010.06.03 12:45:16.
