data_PCOD9419996
_publ_section_title
;
Structure prediction by ZEFSAII (Michael W. Deem and Ramdas Pophale) SiO2 
 PCOD9419996
Probable space group: P M N A
;
_chemical_formula_sum "Si O2"
_cell_formula_units_Z 40
_cell_length_a 8.860104
_cell_length_b 14.134218
_cell_length_c 18.539643
_cell_angle_alpha 90.000000
_cell_angle_beta 90.000000
_cell_angle_gamma 90.000000
_cell_volume 2321.731385
_symmetry_space_group_name_H-M "P M N A"
_symmetry_group_IT_number 53
_symmetry_cell_setting 'orthorhombic'
loop_
_space_group_symop_operation_xyz
x,y,z
1/2-x,-y,1/2+z
x,-y,-z
1/2-x,y,1/2-z
-x,-y,-z
1/2+x,y,1/2-z
-x,y,z
1/2+x,-y,1/2+z
loop_
_atom_site_type_symbol
_atom_site_label
_atom_site_fract_x
_atom_site_fract_y
_atom_site_fract_z
Si Si1 0.315953 0.602294 0.973812
Si Si2 0.820657 0.081142 0.829498
Si Si3 0.318350 0.796242 0.049517
Si Si4 0.819049 0.695344 0.673127
Si Si5 0.680734 0.104780 0.100739
O O1 0.500000 0.601490 0.973328
O O2 0.273807 0.690588 0.024767
O O3 0.263583 0.500000 0.000000
O O4 0.267755 0.628728 0.892704
O O5 0.750000 0.084121 0.750000
O O6 0.761390 0.166317 0.879411
O O7 0.000000 0.082372 0.824192
O O8 0.766062 0.985639 0.869457
O O9 0.500000 0.798304 0.058852
O O10 0.284046 0.865240 0.981513
O O11 0.750000 0.672766 0.750000
O O12 0.783681 0.802931 0.648997
O O13 0.000000 0.689115 0.677332
O O14 0.500000 0.087857 0.104452
#
# Coordination Sequence:
#
# PCOD9419996 Si02
#       5
#     8   8   8   8   8
#     4   8  15  31  55  77  97 128 168 203 241 295
#     4  12  24  35  49  71 101 136 172 207 246 292
#     4   9  18  34  55  76 100 131 166 205 247 294
#     4   9  17  29  48  75 102 128 159 199 247 293
#     4   9  18  33  52  74 101 132 165 200 244 298
#
# _framework density 17.228522000000002
#
# number of rings (size 3 to 8) (size 9 to 14) (size 15 to 20)
#    0.000    2.600    0.000    5.400    0.000    5.600 
#    0.000    4.000    0.000    4.800    0.000    0.000 
#    0.000    0.000    0.000    0.000    0.000    0.000 
#
# Total GULP energy -223158.671546 kJ/mol
# GULP energy per Si atom -5578.966789 kJ/mol
# Density = 1.718931 g / cm^3
# Si number density = 17.228522 Si / 1000 Ang^3
#
#
#
# Elastic Constant Matrix: (Units=GPa)
#
#
# Indices 1 2 3 4 5 6 
#
# 1 40.0391 45.2687 50.0424 0.0000 0.0000 0.0000
# 2 45.2687 117.9849 84.9914 0.0000 0.0000 0.0000
# 3 50.0424 84.9914 113.7082 0.0000 0.0000 0.0000
# 4 0.0000 0.0000 0.0000 14.2086 0.0000 0.0000
# 5 0.0000 0.0000 0.0000 0.0000 30.6157 0.0000
# 6 0.0000 0.0000 0.0000 0.0000 0.0000 10.1634
#
#
#
# Elastic Compliance Matrix: (Units=1/GPa)
#
#
# Indices 1 2 3 4 5 6 
#
# 1 0.059242 -0.008555 -0.019677 0.000000 0.000000 0.000000
# 2 -0.008555 0.019598 -0.010884 0.000000 0.000000 0.000000
# 3 -0.019677 -0.010884 0.025589 0.000000 0.000000 0.000000
# 4 0.000000 0.000000 0.000000 0.070380 0.000000 0.000000
# 5 0.000000 0.000000 0.000000 0.000000 0.032663 0.000000
# 6 0.000000 0.000000 0.000000 0.000000 0.000000 0.098392
#
#
# Mechanical properties :
#
#
# Convention : Reuss Voigt Hill
#
# Bulk Modulus (GPa) = 38.17246 70.25967 54.21606
# Shear Modulus (GPa) = 12.72819 17.09288 14.91053
#
# Velocity S-wave (km/s) = 2.72101 3.15322 2.94506
# Velocity P-wave (km/s) = 5.66361 7.35708 6.56518
#
# Compressibility (1/GPa) = 0.02619690
#
# Stress axis : x y z
#
# Youngs Moduli (GPa) = 16.87997 51.02482 39.07870
#
# Poissons Ratio (x) = 0.43653 0.76897
# Poissons Ratio (y) = 0.14441 0.42532
# Poissons Ratio (z) = 0.33215 0.55534
#
# Static dielectric constant tensor:
#      x y z
#    x 1.576170 0.000000 0.000000 
#    y 0.000000 1.580860 0.000000 
#    z 0.000000 0.000000 1.574520 
# 
# From -- ./inp_files/19827.got.cif
#   From: 2010.05.17/outbox.cif.g08.bks.cpg/sg53_10_cif.got.tgz:19827.got - 2010.06.03 12:45:16.
