data_PCOD9419762
_publ_section_title
;
Structure prediction by ZEFSAII (Michael W. Deem and Ramdas Pophale) SiO2 
 PCOD9419762
Probable space group: P M N A
;
_chemical_formula_sum "Si O2"
_cell_formula_units_Z 42
_cell_length_a 21.320574
_cell_length_b 5.017922
_cell_length_c 21.021796
_cell_angle_alpha 90.000000
_cell_angle_beta 90.000000
_cell_angle_gamma 90.000000
_cell_volume 2249.016368
_symmetry_space_group_name_H-M "P M N A"
_symmetry_group_IT_number 53
_symmetry_cell_setting 'orthorhombic'
loop_
_space_group_symop_operation_xyz
x,y,z
1/2-x,-y,1/2+z
x,-y,-z
1/2-x,y,1/2-z
-x,-y,-z
1/2+x,y,1/2-z
-x,y,z
1/2+x,-y,1/2+z
loop_
_atom_site_type_symbol
_atom_site_label
_atom_site_fract_x
_atom_site_fract_y
_atom_site_fract_z
Si Si1 0.094421 0.668349 0.438357
Si Si2 0.743253 0.628862 0.065944
Si Si3 0.764348 0.890930 0.853634
Si Si4 0.571417 0.485466 0.203550
Si Si5 0.352350 0.986561 0.237514
Si Si6 0.000000 0.000000 0.500000
O O1 0.071376 0.500000 0.500000
O O2 0.169069 0.690603 0.442385
O O3 0.077922 0.534404 0.371947
O O4 0.055403 0.936536 0.446832
O O5 0.753703 0.405669 0.120209
O O6 0.773375 0.904092 0.088409
O O7 0.765449 0.500000 0.000000
O O8 0.701473 0.981664 0.816161
O O9 0.819925 0.926947 0.803207
O O10 0.500000 0.537255 0.222606
O O11 0.592565 0.189010 0.220044
O O12 0.620043 0.690452 0.236055
#
# Coordination Sequence:
#
# PCOD9419762 Si02
#       6
#     8   8   8   8   8   2
#     4  11  25  35  51  75 114 160 207 242 281 314
#     4  11  23  37  60  85 116 147 194 248 292 339
#     4  11  21  40  61  82 115 151 196 245 298 355
#     4  12  24  39  57  83 117 154 206 246 281 345
#     4  11  23  39  59  83 112 157 198 238 303 346
#     4  12  26  36  52  70 116 176 210 248 266 318
#
# _framework density 18.67483
#
# number of rings (size 3 to 8) (size 9 to 14) (size 15 to 20)
#    0.000    0.762    4.762    2.571    8.000    3.048 
#    0.000    0.000    0.000    0.000    0.000    0.000 
#    0.000   53.333    0.000    0.000    0.000    0.000 
#
# Total GULP energy -234335.982449 kJ/mol
# GULP energy per Si atom -5579.428154 kJ/mol
# Density = 1.863232 g / cm^3
# Si number density = 18.674830 Si / 1000 Ang^3
#
#
#
# Elastic Constant Matrix: (Units=GPa)
#
#
# Indices 1 2 3 4 5 6 
#
# 1 50.0574 -1.3587 26.7062 0.0000 0.0000 0.0000
# 2 -1.3587 59.6198 5.5771 0.0000 0.0000 0.0000
# 3 26.7062 5.5771 63.7405 0.0000 0.0000 0.0000
# 4 0.0000 0.0000 0.0000 29.4658 0.0000 0.0000
# 5 0.0000 0.0000 0.0000 0.0000 14.8468 0.0000
# 6 0.0000 0.0000 0.0000 0.0000 0.0000 -0.7458
#
#
#
# Elastic Compliance Matrix: (Units=1/GPa)
#
#
# Indices 1 2 3 4 5 6 
#
# 1 0.025882 0.001617 -0.010986 0.000000 0.000000 0.000000
# 2 0.001617 0.017012 -0.002166 0.000000 0.000000 0.000000
# 3 -0.010986 -0.002166 0.020481 0.000000 0.000000 0.000000
# 4 0.000000 0.000000 0.000000 0.033938 0.000000 0.000000
# 5 0.000000 0.000000 0.000000 0.000000 0.067355 0.000000
# 6 0.000000 0.000000 0.000000 0.000000 0.000000 -1.340846
#
#
# Mechanical properties :
#
#
# Convention : Reuss Voigt Hill
#
# Bulk Modulus (GPa) = 24.80987 26.14078 25.47532
# Shear Modulus (GPa) = -4.38722 18.21289 6.91284
#
# Velocity S-wave (km/s) = -1.53439 3.12631 1.92606
# Velocity P-wave (km/s) = 3.18981 5.20192 4.31479
#
# Compressibility (1/GPa) = 0.04030654
#
# Stress axis : x y z
#
# Youngs Moduli (GPa) = 38.63704 58.78047 48.82588
#
# Poissons Ratio (x) = -0.09508 0.53638
# Poissons Ratio (y) = -0.06249 0.10577
# Poissons Ratio (z) = 0.42445 0.12733
#
# Static dielectric constant tensor:
#      x y z
#    x 1.641050 0.000000 0.000000 
#    y 0.000000 1.742130 0.000000 
#    z 0.000000 0.000000 1.666000 
# 
# From -- ./inp_files/29484.got.cif
#   From: 2010.05.17/outbox.cif.g08.bks.cpg/sg53_15_cif.got.tgz:29484.got - 2010.06.03 12:45:16.
