data_PCOD9419749
_publ_section_title
;
Structure prediction by ZEFSAII (Michael W. Deem and Ramdas Pophale) SiO2 
 PCOD9419749
Probable space group: P M N A
;
_chemical_formula_sum "Si O2"
_cell_formula_units_Z 56
_cell_length_a 14.552649
_cell_length_b 13.520105
_cell_length_c 14.854239
_cell_angle_alpha 90.000000
_cell_angle_beta 90.000000
_cell_angle_gamma 90.000000
_cell_volume 2922.621174
_symmetry_space_group_name_H-M "P M N A"
_symmetry_group_IT_number 53
_symmetry_cell_setting 'orthorhombic'
loop_
_space_group_symop_operation_xyz
x,y,z
1/2-x,-y,1/2+z
x,-y,-z
1/2-x,y,1/2-z
-x,-y,-z
1/2+x,y,1/2-z
-x,y,z
1/2+x,-y,1/2+z
loop_
_atom_site_type_symbol
_atom_site_label
_atom_site_fract_x
_atom_site_fract_y
_atom_site_fract_z
Si Si1 0.639220 0.754588 0.750000
Si Si2 0.250000 0.516850 0.353496
Si Si3 0.605605 0.014057 0.250000
Si Si4 0.104287 0.369962 0.072597
Si Si5 0.750000 0.717792 0.438522
Si Si6 0.895713 0.369962 0.427403
Si Si7 0.750000 0.050520 0.900296
O O1 0.750000 0.755880 0.750000
O O2 0.606869 0.867069 0.750000
O O3 0.606532 0.696749 0.662212
O O4 0.606532 0.696749 0.837788
O O5 0.250000 0.485647 0.250000
O O6 0.337963 0.467896 0.401740
O O7 0.250000 0.634452 0.361663
O O8 0.162037 0.467896 0.401740
O O9 0.500000 0.979031 0.250000
O O10 0.662495 0.980426 0.338694
O O11 0.662495 0.980426 0.161306
O O12 0.000000 0.389893 0.046357
O O13 0.161580 0.309290 0.999014
O O14 0.838420 0.690710 0.499014
O O15 0.750000 0.831188 0.411255
O O16 0.000000 0.389893 0.453643
O O17 0.750000 0.000000 0.000000
#
# Coordination Sequence:
#
# PCOD9419749 Si02
#       7
#     8   8   8   8   8   8   8
#     4  12  18  37  65  93 121 157 203 261 318 362
#     4  11  23  39  59  86 126 164 202 244 308 377
#     4  11  25  42  65  96 128 167 218 272 324 383
#     4  11  21  38  63  93 123 156 205 257 307 367
#     4  11  25  39  62  89 123 170 206 254 308 370
#     4  11  21  38  63  93 123 156 205 257 307 367
#     4  11  24  44  69  92 131 173 218 270 326 379
#
# _framework density 19.160882000000001
#
# number of rings (size 3 to 8) (size 9 to 14) (size 15 to 20)
#    0.000    0.857    5.714    4.714    2.000    4.000 
#    0.000    0.000    0.000    0.000    0.000    0.000 
#    0.000    0.000    0.000    0.000    0.000    0.000 
#
# Total GULP energy -313016.207328 kJ/mol
# GULP energy per Si atom -5589.575131 kJ/mol
# Density = 1.911727 g / cm^3
# Si number density = 19.160882 Si / 1000 Ang^3
#
#
#
# Elastic Constant Matrix: (Units=GPa)
#
#
# Indices 1 2 3 4 5 6 
#
# 1 189.1384 34.0514 49.1696 0.0000 0.0000 0.0000
# 2 34.0514 162.3471 46.1451 0.0000 0.0000 0.0000
# 3 49.1696 46.1451 117.2406 0.0000 0.0000 0.0000
# 4 0.0000 0.0000 0.0000 33.1538 0.0000 0.0000
# 5 0.0000 0.0000 0.0000 0.0000 10.2202 0.0000
# 6 0.0000 0.0000 0.0000 0.0000 0.0000 4.8089
#
#
#
# Elastic Compliance Matrix: (Units=1/GPa)
#
#
# Indices 1 2 3 4 5 6 
#
# 1 0.005987 -0.000610 -0.002271 0.000000 0.000000 0.000000
# 2 -0.000610 0.006998 -0.002498 0.000000 0.000000 0.000000
# 3 -0.002271 -0.002498 0.010465 0.000000 0.000000 0.000000
# 4 0.000000 0.000000 0.000000 0.030162 0.000000 0.000000
# 5 0.000000 0.000000 0.000000 0.000000 0.097846 0.000000
# 6 0.000000 0.000000 0.000000 0.000000 0.000000 0.207946
#
#
# Mechanical properties :
#
#
# Convention : Reuss Voigt Hill
#
# Bulk Modulus (GPa) = 78.79393 80.82869 79.81131
# Shear Modulus (GPa) = 13.35493 32.26058 22.80776
#
# Velocity S-wave (km/s) = 2.64292 4.10770 3.45386
# Velocity P-wave (km/s) = 7.10809 8.04820 7.59271
#
# Compressibility (1/GPa) = 0.01269133
#
# Stress axis : x y z
#
# Youngs Moduli (GPa) = 167.01873 142.90264 95.55538
#
# Poissons Ratio (x) = 0.08722 0.21699
# Poissons Ratio (y) = 0.10194 0.23873
# Poissons Ratio (z) = 0.37927 0.35701
#
# Static dielectric constant tensor:
#      x y z
#    x 1.676840 0.000000 0.000000 
#    y 0.000000 1.649540 0.000000 
#    z 0.000000 0.000000 1.668280 
# 
# From -- ./inp_files/22944.got.cif
#   From: 2010.05.17/outbox.cif.g08.bks.cpg/sg53_12_cif.got.tgz:22944.got - 2010.06.03 12:45:16.
