data_PCOD9419191
_publ_section_title
;
Structure prediction by ZEFSAII (Michael W. Deem and Ramdas Pophale) SiO2 
 PCOD9419191
Probable space group: P M N A
;
_chemical_formula_sum "Si O2"
_cell_formula_units_Z 48
_cell_length_a 15.954637
_cell_length_b 15.814548
_cell_length_c 8.942057
_cell_angle_alpha 90.000000
_cell_angle_beta 90.000000
_cell_angle_gamma 90.000000
_cell_volume 2256.218444
_symmetry_space_group_name_H-M "P M N A"
_symmetry_group_IT_number 53
_symmetry_cell_setting 'orthorhombic'
loop_
_space_group_symop_operation_xyz
x,y,z
1/2-x,-y,1/2+z
x,-y,-z
1/2-x,y,1/2-z
-x,-y,-z
1/2+x,y,1/2-z
-x,y,z
1/2+x,-y,1/2+z
loop_
_atom_site_type_symbol
_atom_site_label
_atom_site_fract_x
_atom_site_fract_y
_atom_site_fract_z
Si Si1 0.900099 0.416011 0.404974
Si Si2 0.094758 0.135535 0.124675
Si Si3 0.288888 0.691600 0.114237
Si Si4 0.666949 0.989202 0.174032
Si Si5 0.330607 0.305170 0.338257
Si Si6 0.903864 0.169498 0.780356
O O1 0.877272 0.500000 0.500000
O O2 0.862668 0.344442 0.512418
O O3 0.859656 0.391690 0.243225
O O4 0.000000 0.414673 0.389416
O O5 0.100382 0.232813 0.177008
O O6 0.000000 0.104086 0.127400
O O7 0.146167 0.073770 0.232307
O O8 0.120313 0.142045 0.950292
O O9 0.250000 0.637406 0.250000
O O10 0.335844 0.769629 0.199633
O O11 0.208175 0.693802 0.003730
O O12 0.750000 0.952768 0.250000
O O13 0.596463 0.918495 0.192129
O O14 0.682491 0.000000 0.000000
O O15 0.250000 0.271927 0.250000
O O16 0.000000 0.204630 0.785555
#
# Coordination Sequence:
#
# PCOD9419191 Si02
#       6
#     8   8   8   8   8   8
#     4  10  23  44  68  98 138 180 224 275 335 403
#     4  11  23  41  64  92 132 179 228 282 347 411
#     4  11  22  40  69 100 135 173 226 277 340 409
#     4  12  27  41  63  92 129 179 236 296 347 403
#     4  10  22  39  67  97 130 175 223 278 332 404
#     4  11  24  42  63  92 135 180 227 281 346 409
#
# _framework density 21.274535
#
# number of rings (size 3 to 8) (size 9 to 14) (size 15 to 20)
#    0.000    1.167    1.667    4.000    7.000    4.667 
#    0.000    0.000    0.000    2.000    0.000    0.000 
#    0.000    2.000    0.000    0.000    0.000    0.000 
#
# Total GULP energy -267203.115074 kJ/mol
# GULP energy per Si atom -5566.731564 kJ/mol
# Density = 2.122611 g / cm^3
# Si number density = 21.274535 Si / 1000 Ang^3
#
#
#
# Elastic Constant Matrix: (Units=GPa)
#
#
# Indices 1 2 3 4 5 6 
#
# 1 90.2654 31.0058 48.3289 0.0000 0.0000 0.0000
# 2 31.0058 70.0363 41.4679 0.0000 0.0000 0.0000
# 3 48.3289 41.4679 149.8885 0.0000 0.0000 0.0000
# 4 0.0000 0.0000 0.0000 33.8671 0.0000 0.0000
# 5 0.0000 0.0000 0.0000 0.0000 23.6194 0.0000
# 6 0.0000 0.0000 0.0000 0.0000 0.0000 22.3450
#
#
#
# Elastic Compliance Matrix: (Units=1/GPa)
#
#
# Indices 1 2 3 4 5 6 
#
# 1 0.014415 -0.004341 -0.003447 0.000000 0.000000 0.000000
# 2 -0.004341 0.018382 -0.003686 0.000000 0.000000 0.000000
# 3 -0.003447 -0.003686 0.008803 0.000000 0.000000 0.000000
# 4 0.000000 0.000000 0.000000 0.029527 0.000000 0.000000
# 5 0.000000 0.000000 0.000000 0.000000 0.042338 0.000000
# 6 0.000000 0.000000 0.000000 0.000000 0.000000 0.044753
#
#
# Mechanical properties :
#
#
# Convention : Reuss Voigt Hill
#
# Bulk Modulus (GPa) = 53.61141 61.31059 57.46100
# Shear Modulus (GPa) = 26.68327 28.59216 27.63771
#
# Velocity S-wave (km/s) = 3.54536 3.66999 3.60821
# Velocity P-wave (km/s) = 6.48182 6.84396 6.66535
#
# Compressibility (1/GPa) = 0.01865275
#
# Stress axis : x y z
#
# Youngs Moduli (GPa) = 69.37217 54.39959 113.60003
#
# Poissons Ratio (x) = 0.23614 0.39157
# Poissons Ratio (y) = 0.30113 0.41874
# Poissons Ratio (z) = 0.23912 0.20052
#
# Static dielectric constant tensor:
#      x y z
#    x 1.787970 0.000000 0.000000 
#    y 0.000000 1.795360 0.000000 
#    z 0.000000 0.000000 1.882770 
# 
# From -- ./inp_files/9935.got.cif
#   From: 2010.05.17/outbox.cif.g08.bks.cpg/sg53_5_cif.got.tgz:9935.got - 2010.06.03 12:45:16.
