data_PCOD9419412
_publ_section_title
;
Structure prediction by ZEFSAII (Michael W. Deem and Ramdas Pophale) SiO2 
 PCOD9419412
Probable space group: P M N A
;
_chemical_formula_sum "Si O2"
_cell_formula_units_Z 64
_cell_length_a 15.486302
_cell_length_b 22.141017
_cell_length_c 10.125088
_cell_angle_alpha 90.000000
_cell_angle_beta 90.000000
_cell_angle_gamma 90.000000
_cell_volume 3471.715242
_symmetry_space_group_name_H-M "P M N A"
_symmetry_group_IT_number 53
_symmetry_cell_setting 'orthorhombic'
loop_
_space_group_symop_operation_xyz
x,y,z
1/2-x,-y,1/2+z
x,-y,-z
1/2-x,y,1/2-z
-x,-y,-z
1/2+x,y,1/2-z
-x,y,z
1/2+x,-y,1/2+z
loop_
_atom_site_type_symbol
_atom_site_label
_atom_site_fract_x
_atom_site_fract_y
_atom_site_fract_z
Si Si1 0.250000 0.847421 0.094502
Si Si2 0.902500 0.357424 0.033832
Si Si3 0.899031 0.056180 0.904515
Si Si4 0.597500 0.642576 0.966170
Si Si5 0.854399 0.406476 0.750000
Si Si6 0.399031 0.056180 0.904516
Si Si7 0.750000 0.734643 0.599347
Si Si8 0.854135 0.546686 0.749999
O O1 0.250000 0.830874 0.250000
O O2 0.166005 0.889007 0.069389
O O3 0.333995 0.889007 0.069389
O O4 0.250000 0.789098 0.003368
O O5 0.832915 0.307942 0.076600
O O6 0.886576 0.416900 0.122602
O O7 0.000000 0.336312 0.055329
O O8 0.887836 0.374849 0.881888
O O9 0.887738 0.038928 0.750000
O O10 0.000000 0.072749 0.922953
O O11 0.879909 0.000000 0.000000
O O12 0.500000 0.663688 0.944671
O O13 0.667084 0.692058 0.923400
O O14 0.613425 0.583100 0.877402
O O15 0.612164 0.625153 0.118115
O O16 0.750000 0.403880 0.750000
O O17 0.880331 0.476945 0.749999
O O18 0.500000 0.072749 0.922953
O O19 0.379909 0.000000 0.000000
O O20 0.750000 0.756613 0.750000
O O21 0.750000 0.549113 0.750000
#
# Coordination Sequence:
#
# PCOD9419412 Si02
#       8
#     8   8   8   8   8   8   8   8
#     4  10  23  39  61  85 121 163 204 249 291 345
#     4  12  24  41  63  87 118 155 198 249 306 366
#     4   9  18  35  60  93 128 158 193 239 293 347
#     4  12  24  41  63  87 118 155 198 249 306 366
#     4  11  23  39  65  92 121 149 190 245 308 380
#     4   9  18  35  60  93 128 158 193 239 293 347
#     4  12  26  45  60  84 118 161 211 256 301 353
#     4  11  21  41  65  90 121 155 186 243 314 372
#
# _framework density 18.434692999999999
#
# number of rings (size 3 to 8) (size 9 to 14) (size 15 to 20)
#    0.000    1.250    3.750    1.875    1.750    7.000 
#    0.000    0.000    0.000    0.000    0.000    0.000 
#    0.000    0.000    0.000    0.000    0.000    0.000 
#
# Total GULP energy -357786.757823 kJ/mol
# GULP energy per Si atom -5590.418091 kJ/mol
# Density = 1.839273 g / cm^3
# Si number density = 18.434693 Si / 1000 Ang^3
#
#
#
# Elastic Constant Matrix: (Units=GPa)
#
#
# Indices 1 2 3 4 5 6 
#
# 1 122.5446 50.2609 28.2344 0.0000 0.0000 0.0000
# 2 50.2609 86.4498 37.6849 0.0000 0.0000 0.0000
# 3 28.2344 37.6849 93.5071 0.0000 0.0000 0.0000
# 4 0.0000 0.0000 0.0000 38.2140 0.0000 0.0000
# 5 0.0000 0.0000 0.0000 0.0000 89.7099 0.0000
# 6 0.0000 0.0000 0.0000 0.0000 0.0000 -27.7703
#
#
#
# Elastic Compliance Matrix: (Units=1/GPa)
#
#
# Indices 1 2 3 4 5 6 
#
# 1 0.010775 -0.005879 -0.000884 0.000000 0.000000 0.000000
# 2 -0.005879 0.017241 -0.005173 0.000000 0.000000 0.000000
# 3 -0.000884 -0.005173 0.013046 0.000000 0.000000 0.000000
# 4 0.000000 0.000000 0.000000 0.026168 0.000000 0.000000
# 5 0.000000 0.000000 0.000000 0.000000 0.011147 0.000000
# 6 0.000000 0.000000 0.000000 0.000000 0.000000 -0.036010
#
#
# Mechanical properties :
#
#
# Convention : Reuss Voigt Hill
#
# Bulk Modulus (GPa) = 58.17601 59.42912 58.80256
# Shear Modulus (GPa) = 69.47299 32.45213 50.96256
#
# Velocity S-wave (km/s) = 6.14555 4.20024 5.26355
# Velocity P-wave (km/s) = 9.05447 7.47197 8.30102
#
# Compressibility (1/GPa) = 0.01718922
#
# Stress axis : x y z
#
# Youngs Moduli (GPa) = 92.80450 58.00287 76.65091
#
# Poissons Ratio (x) = 0.34101 0.06777
# Poissons Ratio (y) = 0.54562 0.39651
# Poissons Ratio (z) = 0.08206 0.30005
#
# Static dielectric constant tensor:
#      x y z
#    x 1.647630 0.000000 0.000000 
#    y 0.000000 1.583430 0.000000 
#    z 0.000000 0.000000 1.623280 
# 
# From -- ./inp_files/8913.got.cif
#   From: 2010.05.17/outbox.cif.g08.bks.cpg/sg53_5_cif.got.tgz:8913.got - 2010.06.03 12:45:16.
