data_PCOD9419700
_publ_section_title
;
Structure prediction by ZEFSAII (Michael W. Deem and Ramdas Pophale) SiO2 
 PCOD9419700
Probable space group: P M N A
;
_chemical_formula_sum "Si O2"
_cell_formula_units_Z 58
_cell_length_a 20.165006
_cell_length_b 11.554378
_cell_length_c 14.512178
_cell_angle_alpha 90.000000
_cell_angle_beta 90.000000
_cell_angle_gamma 90.000000
_cell_volume 3381.251877
_symmetry_space_group_name_H-M "P M N A"
_symmetry_group_IT_number 53
_symmetry_cell_setting 'orthorhombic'
loop_
_space_group_symop_operation_xyz
x,y,z
1/2-x,-y,1/2+z
x,-y,-z
1/2-x,y,1/2-z
-x,-y,-z
1/2+x,y,1/2-z
-x,y,z
1/2+x,-y,1/2+z
loop_
_atom_site_type_symbol
_atom_site_label
_atom_site_fract_x
_atom_site_fract_y
_atom_site_fract_z
Si Si1 0.922770 0.753807 0.840496
Si Si2 0.111270 0.873655 0.368876
Si Si3 0.715493 0.859537 0.987706
Si Si4 0.133437 0.863158 0.016579
Si Si5 0.080386 0.500388 0.106563
Si Si6 0.577605 0.255355 0.688471
Si Si7 0.000000 0.000000 0.500000
Si Si8 0.324201 0.896800 0.789464
O O1 0.902193 0.619448 0.843685
O O2 0.873174 0.827710 0.777550
O O3 0.000000 0.765333 0.811799
O O4 0.914812 0.799717 0.944930
O O5 0.168132 0.816518 0.431690
O O6 0.085190 0.783296 0.293785
O O7 0.143808 0.979221 0.311564
O O8 0.057831 0.932453 0.437448
O O9 0.685047 0.834625 0.888049
O O10 0.791580 0.823425 0.995212
O O11 0.715945 0.000000 0.000000
O O12 0.115432 0.831385 0.120321
O O13 0.129089 0.000000 0.000000
O O14 0.100672 0.615443 0.161330
O O15 0.000000 0.500487 0.102823
O O16 0.103786 0.500000 0.000000
O O17 0.500000 0.247796 0.664897
O O18 0.250000 0.910530 0.750000
#
# Coordination Sequence:
#
# PCOD9419700 Si02
#       8
#     8   8   8   8   8   8   2   8
#     4  11  22  34  58  85 112 149 190 242 291 342
#     4  11  23  36  58  86 115 151 197 229 292 348
#     4   9  20  37  52  75 111 162 185 214 277 357
#     4  11  21  33  53  84 121 145 180 230 295 354
#     4   9  18  37  56  77 113 155 192 230 294 349
#     4  11  22  34  58  85 114 149 191 242 285 343
#     4  12  20  40  56  84 122 152 188 244 282 354
#     4  11  21  36  57  83 115 154 189 229 288 362
#
# _framework density 17.153409
#
# number of rings (size 3 to 8) (size 9 to 14) (size 15 to 20)
#    0.000    1.517    5.517    1.241    4.828    2.207 
#    0.000    0.000    3.034    0.828    0.000    3.862 
#    0.000    0.000    0.000    0.000    0.000    0.000 
#
# Total GULP energy -322945.479298 kJ/mol
# GULP energy per Si atom -5568.025505 kJ/mol
# Density = 1.711437 g / cm^3
# Si number density = 17.153409 Si / 1000 Ang^3
#
#
#
# Elastic Constant Matrix: (Units=GPa)
#
#
# Indices 1 2 3 4 5 6 
#
# 1 75.6297 23.0347 19.7764 0.0000 0.0000 0.0000
# 2 23.0347 67.3508 28.0724 0.0000 0.0000 0.0000
# 3 19.7764 28.0724 86.5442 0.0000 0.0000 0.0000
# 4 0.0000 0.0000 0.0000 22.1418 0.0000 0.0000
# 5 0.0000 0.0000 0.0000 0.0000 32.3859 0.0000
# 6 0.0000 0.0000 0.0000 0.0000 0.0000 34.5196
#
#
#
# Elastic Compliance Matrix: (Units=1/GPa)
#
#
# Indices 1 2 3 4 5 6 
#
# 1 0.015067 -0.004299 -0.002049 0.000000 0.000000 0.000000
# 2 -0.004299 0.018396 -0.004985 0.000000 0.000000 0.000000
# 3 -0.002049 -0.004985 0.013640 0.000000 0.000000 0.000000
# 4 0.000000 0.000000 0.000000 0.045163 0.000000 0.000000
# 5 0.000000 0.000000 0.000000 0.000000 0.030878 0.000000
# 6 0.000000 0.000000 0.000000 0.000000 0.000000 0.028969
#
#
# Mechanical properties :
#
#
# Convention : Reuss Voigt Hill
#
# Bulk Modulus (GPa) = 40.91994 41.25465 41.08729
# Shear Modulus (GPa) = 27.33377 28.38553 27.85965
#
# Velocity S-wave (km/s) = 3.99618 4.07234 4.03444
# Velocity P-wave (km/s) = 6.72307 6.79813 6.76071
#
# Compressibility (1/GPa) = 0.02443796
#
# Stress axis : x y z
#
# Youngs Moduli (GPa) = 66.36821 54.36062 73.31514
#
# Poissons Ratio (x) = 0.23372 0.15019
# Poissons Ratio (y) = 0.28534 0.36544
# Poissons Ratio (z) = 0.13596 0.27096
#
# Static dielectric constant tensor:
#      x y z
#    x 1.590760 0.000000 0.000000 
#    y 0.000000 1.582480 0.000000 
#    z 0.000000 0.000000 1.602600 
# 
# From -- ./inp_files/23862.got.cif
#   From: 2010.05.17/outbox.cif.g08.bks.cpg/sg53_12_cif.got.tgz:23862.got - 2010.06.03 12:45:16.
