data_PCOD9419985
_publ_section_title
;
Structure prediction by ZEFSAII (Michael W. Deem and Ramdas Pophale) SiO2 
 PCOD9419985
Probable space group: P M N A
;
_chemical_formula_sum "Si O2"
_cell_formula_units_Z 40
_cell_length_a 10.319122
_cell_length_b 15.873212
_cell_length_c 13.924414
_cell_angle_alpha 90.000000
_cell_angle_beta 90.000000
_cell_angle_gamma 90.000000
_cell_volume 2280.785750
_symmetry_space_group_name_H-M "P M N A"
_symmetry_group_IT_number 53
_symmetry_cell_setting 'orthorhombic'
loop_
_space_group_symop_operation_xyz
x,y,z
1/2-x,-y,1/2+z
x,-y,-z
1/2-x,y,1/2-z
-x,-y,-z
1/2+x,y,1/2-z
-x,y,z
1/2+x,-y,1/2+z
loop_
_atom_site_type_symbol
_atom_site_label
_atom_site_fract_x
_atom_site_fract_y
_atom_site_fract_z
Si Si1 0.740902 0.320358 0.049987
Si Si2 0.846731 0.135473 0.470845
Si Si3 0.000000 0.591965 0.450448
Si Si4 0.000000 0.597969 0.031745
Si Si5 0.250000 0.412824 0.250000
Si Si6 0.500000 0.531162 0.264489
Si Si7 0.153850 0.027092 0.660510
O O1 0.732768 0.219796 0.047156
O O2 0.723231 0.355936 0.157258
O O3 0.625769 0.358388 0.985759
O O4 0.874330 0.356514 0.009433
O O5 0.822723 0.062662 0.392246
O O6 0.000000 0.156156 0.465264
O O7 0.823603 0.095702 0.576201
O O8 0.000000 0.500000 0.500000
O O9 0.000000 0.577604 0.337154
O O10 0.000000 0.594673 0.146717
O O11 0.000000 0.500000 0.000000
O O12 0.373507 0.471997 0.269761
O O13 0.250000 0.037723 0.750000
O O14 0.000000 0.030798 0.686499
#
# Coordination Sequence:
#
# PCOD9419985 Si02
#       7
#     8   8   4   4   4   4   8
#     4  12  23  40  61  89 122 156 204 257 299 356
#     4   9  20  41  63  88 123 158 198 244 295 358
#     4  12  22  40  64  85 110 159 216 248 282 371
#     4  12  24  44  56  83 134 161 188 258 328 345
#     4  12  22  36  62  86 112 152 208 256 294 356
#     4  12  24  40  60  82 110 164 208 238 314 352
#     4   9  19  41  67  90 121 159 194 238 300 367
#
# _framework density 17.537814999999998
#
# number of rings (size 3 to 8) (size 9 to 14) (size 15 to 20)
#    0.000    1.200    5.000    3.000    1.400    0.000 
#    7.200    1.000    0.000    0.000    0.000    0.000 
#    0.000    0.000    0.000    0.000    0.000    0.000 
#
# Total GULP energy -223482.767955 kJ/mol
# GULP energy per Si atom -5587.069199 kJ/mol
# Density = 1.749790 g / cm^3
# Si number density = 17.537815 Si / 1000 Ang^3
#
#
#
# Elastic Constant Matrix: (Units=GPa)
#
#
# Indices 1 2 3 4 5 6 
#
# 1 82.9820 18.4424 2.9705 0.0000 0.0000 0.0000
# 2 18.4424 71.1703 2.0467 0.0000 0.0000 0.0000
# 3 2.9705 2.0467 96.1033 0.0000 0.0000 0.0000
# 4 0.0000 0.0000 0.0000 7.8707 0.0000 0.0000
# 5 0.0000 0.0000 0.0000 0.0000 40.9986 0.0000
# 6 0.0000 0.0000 0.0000 0.0000 0.0000 25.4207
#
#
#
# Elastic Compliance Matrix: (Units=1/GPa)
#
#
# Indices 1 2 3 4 5 6 
#
# 1 0.012797 -0.003307 -0.000325 0.000000 0.000000 0.000000
# 2 -0.003307 0.014914 -0.000215 0.000000 0.000000 0.000000
# 3 -0.000325 -0.000215 0.010420 0.000000 0.000000 0.000000
# 4 0.000000 0.000000 0.000000 0.127054 0.000000 0.000000
# 5 0.000000 0.000000 0.000000 0.000000 0.024391 0.000000
# 6 0.000000 0.000000 0.000000 0.000000 0.000000 0.039338
#
#
# Mechanical properties :
#
#
# Convention : Reuss Voigt Hill
#
# Bulk Modulus (GPa) = 32.85515 33.01941 32.93728
# Shear Modulus (GPa) = 20.26308 29.97774 25.12041
#
# Velocity S-wave (km/s) = 3.40280 4.13888 3.78875
# Velocity P-wave (km/s) = 5.84921 6.45824 6.16125
#
# Compressibility (1/GPa) = 0.03043663
#
# Stress axis : x y z
#
# Youngs Moduli (GPa) = 78.14098 67.05156 95.96832
#
# Poissons Ratio (x) = 0.22173 0.03120
# Poissons Ratio (y) = 0.25840 0.02067
# Poissons Ratio (z) = 0.02541 0.01444
#
# Static dielectric constant tensor:
#      x y z
#    x 1.590530 0.000000 0.000000 
#    y 0.000000 1.579680 0.000000 
#    z 0.000000 0.000000 1.588460 
# 
# From -- ./inp_files/19958.got.cif
#   From: 2010.05.17/outbox.cif.g08.bks.cpg/sg53_10_cif.got.tgz:19958.got - 2010.06.03 12:45:16.
