data_PCOD9419666
_publ_section_title
;
Structure prediction by ZEFSAII (Michael W. Deem and Ramdas Pophale) SiO2 
 PCOD9419666
Probable space group: P M N A
;
_chemical_formula_sum "Si O2"
_cell_formula_units_Z 48
_cell_length_a 16.732545
_cell_length_b 18.284831
_cell_length_c 7.754300
_cell_angle_alpha 90.000000
_cell_angle_beta 90.000000
_cell_angle_gamma 90.000000
_cell_volume 2372.441713
_symmetry_space_group_name_H-M "P M N A"
_symmetry_group_IT_number 53
_symmetry_cell_setting 'orthorhombic'
loop_
_space_group_symop_operation_xyz
x,y,z
1/2-x,-y,1/2+z
x,-y,-z
1/2-x,y,1/2-z
-x,-y,-z
1/2+x,y,1/2-z
-x,y,z
1/2+x,-y,1/2+z
loop_
_atom_site_type_symbol
_atom_site_label
_atom_site_fract_x
_atom_site_fract_y
_atom_site_fract_z
Si Si1 0.344820 0.342198 0.706738
Si Si2 0.343295 0.183566 0.802500
Si Si3 0.155176 0.500000 0.792417
Si Si4 0.905357 0.917805 0.000000
Si Si5 0.655180 0.657802 0.706738
Si Si6 0.843295 0.183565 0.302501
O O1 0.250000 0.344209 0.750000
O O2 0.376547 0.266360 0.782610
O O3 0.377403 0.421222 0.767785
O O4 0.353240 0.337631 0.500000
O O5 0.250000 0.188031 0.750000
O O6 0.380761 0.127871 0.667944
O O7 0.350852 0.839744 0.000000
O O8 0.250000 0.500000 0.750000
O O9 0.122597 0.578778 0.732216
O O10 0.147868 0.500000 0.000000
O O11 0.000000 0.923436 0.000002
O O12 0.880762 0.872129 0.832055
O O13 0.870553 0.000000 0.000000
O O14 0.750000 0.655791 0.750000
O O15 0.623454 0.733640 0.782609
O O16 0.750000 0.188030 0.250000
#
# Coordination Sequence:
#
# PCOD9419666 Si02
#       6
#     8   8   8   8   8   8
#     4   9  14  24  42  71 112 150 189 234 284 331
#     4  11  20  37  62  91 119 155 197 243 290 346
#     4   8  14  20  34  64 106 151 184 225 281 332
#     4  11  26  46  64  87 120 152 188 243 305 364
#     4   9  14  24  42  71 112 150 189 234 284 331
#     4  11  20  37  62  91 119 155 197 243 290 346
#
# _framework density 20.232320999999999
#
# number of rings (size 3 to 8) (size 9 to 14) (size 15 to 20)
#    0.000    2.167    3.333    3.000    0.000    3.333 
#    0.000    1.667    0.000    0.000    0.000    2.333 
#    0.000    2.667    0.000    0.000    0.000    0.000 
#
# Total GULP energy -267561.562261 kJ/mol
# GULP energy per Si atom -5574.199214 kJ/mol
# Density = 2.018627 g / cm^3
# Si number density = 20.232321 Si / 1000 Ang^3
#
#
#
# Elastic Constant Matrix: (Units=GPa)
#
#
# Indices 1 2 3 4 5 6 
#
# 1 14.1208 28.1016 12.4315 0.0000 0.0000 0.0000
# 2 28.1016 212.0352 77.9309 0.0000 0.0000 0.0000
# 3 12.4315 77.9309 151.5475 0.0000 0.0000 0.0000
# 4 0.0000 0.0000 0.0000 19.1804 0.0000 0.0000
# 5 0.0000 0.0000 0.0000 0.0000 8.5577 0.0000
# 6 0.0000 0.0000 0.0000 0.0000 0.0000 635.2927
#
#
#
# Elastic Compliance Matrix: (Units=1/GPa)
#
#
# Indices 1 2 3 4 5 6 
#
# 1 0.096521 -0.012185 -0.001652 0.000000 0.000000 0.000000
# 2 -0.012185 0.007354 -0.002782 0.000000 0.000000 0.000000
# 3 -0.001652 -0.002782 0.008165 0.000000 0.000000 0.000000
# 4 0.000000 0.000000 0.000000 0.052136 0.000000 0.000000
# 5 0.000000 0.000000 0.000000 0.000000 0.116853 0.000000
# 6 0.000000 0.000000 0.000000 0.000000 0.000000 0.001574
#
#
# Mechanical properties :
#
#
# Convention : Reuss Voigt Hill
#
# Bulk Modulus (GPa) = 12.69009 68.29237 40.49123
# Shear Modulus (GPa) = 14.61530 149.88881 82.25205
#
# Velocity S-wave (km/s) = 2.69062 8.61653 6.38295
# Velocity P-wave (km/s) = 3.99229 11.52477 8.62434
#
# Compressibility (1/GPa) = 0.07880166
#
# Stress axis : x y z
#
# Youngs Moduli (GPa) = 10.36047 135.98813 122.47950
#
# Poissons Ratio (x) = 1.65703 0.20229
# Poissons Ratio (y) = 0.12624 0.34073
# Poissons Ratio (z) = 0.01711 0.37831
#
# Static dielectric constant tensor:
#      x y z
#    x 1.700660 0.000000 0.000000 
#    y 0.000000 1.801360 0.000000 
#    z 0.000000 0.000000 1.694920 
# 
# From -- ./inp_files/17006.got.cif
#   From: 2010.05.17/outbox.cif.g08.bks.cpg/sg53_9_cif.got.tgz:17006.got - 2010.06.03 12:45:16.
