data_PCOD9419703
_publ_section_title
;
Structure prediction by ZEFSAII (Michael W. Deem and Ramdas Pophale) SiO2 
 PCOD9419703
Probable space group: P M N A
;
_chemical_formula_sum "Si O2"
_cell_formula_units_Z 64
_cell_length_a 8.581435
_cell_length_b 21.727160
_cell_length_c 20.363155
_cell_angle_alpha 90.000000
_cell_angle_beta 90.000000
_cell_angle_gamma 90.000000
_cell_volume 3796.714552
_symmetry_space_group_name_H-M "P M N A"
_symmetry_group_IT_number 53
_symmetry_cell_setting 'orthorhombic'
loop_
_space_group_symop_operation_xyz
x,y,z
1/2-x,-y,1/2+z
x,-y,-z
1/2-x,y,1/2-z
-x,-y,-z
1/2+x,y,1/2-z
-x,y,z
1/2+x,-y,1/2+z
loop_
_atom_site_type_symbol
_atom_site_label
_atom_site_fract_x
_atom_site_fract_y
_atom_site_fract_z
Si Si1 0.186684 0.484192 0.820881
Si Si2 0.813466 0.376617 0.321389
Si Si3 0.687322 0.560567 0.042943
Si Si4 0.186772 0.055785 0.043700
Si Si5 0.824997 0.193966 0.316317
Si Si6 0.173944 0.046359 0.316315
Si Si7 0.683555 0.193014 0.456030
Si Si8 0.311584 0.326328 0.457663
O O1 0.250000 0.461999 0.750000
O O2 0.254673 0.553097 0.830048
O O3 0.242737 0.446221 0.884174
O O4 0.000000 0.487181 0.818743
O O5 0.750000 0.356912 0.250000
O O6 0.750965 0.339190 0.383991
O O7 0.000000 0.375925 0.320894
O O8 0.500000 0.562743 0.046904
O O9 0.729905 0.500000 0.000000
O O10 0.749985 0.619828 0.004410
O O11 0.224632 0.039437 0.118746
O O12 0.249326 0.124881 0.027819
O O13 0.000000 0.058538 0.035929
O O14 0.248908 0.000000 0.000000
O O15 0.750000 0.218717 0.250000
O O16 0.839429 0.120232 0.307811
O O17 0.713672 0.200804 0.378310
O O18 0.000000 0.218292 0.328101
O O19 0.250000 0.021355 0.250000
O O20 0.000000 0.021907 0.326189
O O21 0.500000 0.190350 0.469655
O O22 0.741788 0.258554 0.482783
O O23 0.500000 0.327435 0.455676
#
# Coordination Sequence:
#
# PCOD9419703 Si02
#       8
#     8   8   8   8   8   8   8   8
#     4  11  21  35  56  79 105 134 169 211 256 301
#     4  11  21  34  50  71 100 136 175 212 250 293
#     4  11  22  36  55  78 104 134 171 212 253 298
#     4   9  17  31  51  73  98 130 165 203 249 299
#     4   9  16  26  42  62  87 123 162 198 236 278
#     4   9  16  26  42  66  95 125 159 198 238 283
#     4   9  19  33  47  67  96 127 164 205 246 297
#     4  11  22  35  51  72  99 134 172 212 257 302
#
# _framework density 16.856679
#
# number of rings (size 3 to 8) (size 9 to 14) (size 15 to 20)
#    0.000    2.000    1.250    4.500    0.000    5.250 
#    0.000    0.000    0.000    0.000    0.000    0.875 
#    0.000    4.000    0.000    0.000    0.000    0.000 
#
# Total GULP energy -356801.936496 kJ/mol
# GULP energy per Si atom -5575.030258 kJ/mol
# Density = 1.681831 g / cm^3
# Si number density = 16.856679 Si / 1000 Ang^3
#
#
#
# Elastic Constant Matrix: (Units=GPa)
#
#
# Indices 1 2 3 4 5 6 
#
# 1 61.5038 22.1845 23.8199 0.0000 0.0000 0.0000
# 2 22.1845 116.0697 62.7352 0.0000 0.0000 0.0000
# 3 23.8199 62.7352 92.6109 0.0000 0.0000 0.0000
# 4 0.0000 0.0000 0.0000 -1.2665 0.0000 0.0000
# 5 0.0000 0.0000 0.0000 0.0000 24.7259 0.0000
# 6 0.0000 0.0000 0.0000 0.0000 0.0000 8.3312
#
#
#
# Elastic Compliance Matrix: (Units=1/GPa)
#
#
# Indices 1 2 3 4 5 6 
#
# 1 0.018222 -0.001498 -0.003672 0.000000 0.000000 0.000000
# 2 -0.001498 0.013715 -0.008905 0.000000 0.000000 0.000000
# 3 -0.003672 -0.008905 0.017775 0.000000 0.000000 0.000000
# 4 0.000000 0.000000 0.000000 -0.789564 0.000000 0.000000
# 5 0.000000 0.000000 0.000000 0.000000 0.040443 0.000000
# 6 0.000000 0.000000 0.000000 0.000000 0.000000 0.120031
#
#
# Mechanical properties :
#
#
# Convention : Reuss Voigt Hill
#
# Bulk Modulus (GPa) = 46.38026 54.18485 50.28256
# Shear Modulus (GPa) = -9.19050 17.12109 3.96529
#
# Velocity S-wave (km/s) = -2.33752 3.19044 1.53540
# Velocity P-wave (km/s) = 4.50432 6.76654 5.74783
#
# Compressibility (1/GPa) = 0.02156090
#
# Stress axis : x y z
#
# Youngs Moduli (GPa) = 54.87994 72.91176 56.25910
#
# Poissons Ratio (x) = 0.10923 0.20658
# Poissons Ratio (y) = 0.08221 0.50101
# Poissons Ratio (z) = 0.20151 0.64931
#
# Static dielectric constant tensor:
#      x y z
#    x 1.584990 0.000000 0.000000 
#    y 0.000000 1.607950 0.000000 
#    z 0.000000 0.000000 1.543200 
# 
# From -- ./inp_files/31170.got.cif
#   From: 2010.05.17/outbox.cif.g08.bks.cpg/sg53_16_cif.got.tgz:31170.got - 2010.06.03 12:45:16.
