data_PCOD9419575
_publ_section_title
;
Structure prediction by ZEFSAII (Michael W. Deem and Ramdas Pophale) SiO2 
 PCOD9419575
Probable space group: P M N A
;
_chemical_formula_sum "Si O2"
_cell_formula_units_Z 38
_cell_length_a 17.483579
_cell_length_b 4.976267
_cell_length_c 19.452412
_cell_angle_alpha 90.000000
_cell_angle_beta 90.000000
_cell_angle_gamma 90.000000
_cell_volume 1692.417369
_symmetry_space_group_name_H-M "P M N A"
_symmetry_group_IT_number 53
_symmetry_cell_setting 'orthorhombic'
loop_
_space_group_symop_operation_xyz
x,y,z
1/2-x,-y,1/2+z
x,-y,-z
1/2-x,y,1/2-z
-x,-y,-z
1/2+x,y,1/2-z
-x,y,z
1/2+x,-y,1/2+z
loop_
_atom_site_type_symbol
_atom_site_label
_atom_site_fract_x
_atom_site_fract_y
_atom_site_fract_z
Si Si1 0.500000 0.874606 0.746279
Si Si2 0.500000 0.000000 0.500000
Si Si3 0.127534 0.612292 0.930315
Si Si4 0.767759 0.660366 0.671651
Si Si5 0.000000 0.646019 0.155300
Si Si6 0.500000 0.748186 0.049880
Si Si7 0.129679 0.132453 0.656916
O O1 0.500000 0.051448 0.678851
O O2 0.426013 0.984631 0.787380
O O3 0.500000 0.564465 0.720439
O O4 0.432086 0.166687 0.457471
O O5 0.190678 0.661498 0.872581
O O6 0.072136 0.400631 0.892847
O O7 0.165310 0.500000 0.000000
O O8 0.750000 0.747522 0.750000
O O9 0.814327 0.378182 0.677740
O O10 0.819177 0.883011 0.634309
O O11 0.426679 0.755402 0.099197
O O12 0.500000 0.500000 0.000000
O O13 0.500000 0.000000 0.000000
#
# Coordination Sequence:
#
# PCOD9419575 Si02
#       7
#     4   2   8   8   4   4   8
#     4  11  22  43  71 100 136 179 233 295 348 422
#     4  10  24  48  68  98 136 184 242 276 354 428
#     4  11  27  44  69 100 145 184 239 294 358 431
#     4  12  26  46  70 105 145 188 237 300 364 431
#     4  11  24  41  71  98 131 185 232 286 353 423
#     4  11  24  45  70  98 137 183 239 297 351 431
#     4  11  25  44  68 102 137 181 238 289 362 428
#
# _framework density 22.45309
#
# number of rings (size 3 to 8) (size 9 to 14) (size 15 to 20)
#    0.000    0.842    0.000    6.947    8.842    5.895 
#    0.000    0.000    0.000    0.000    0.000    0.000 
#    0.000    0.000    0.000    0.000    0.000    0.000 
#
# Total GULP energy -211894.165238 kJ/mol
# GULP energy per Si atom -5576.162243 kJ/mol
# Density = 2.240199 g / cm^3
# Si number density = 22.453090 Si / 1000 Ang^3
#
#
#
# Elastic Constant Matrix: (Units=GPa)
#
#
# Indices 1 2 3 4 5 6 
#
# 1 129.0851 14.1668 46.9384 0.0000 0.0000 0.0000
# 2 14.1668 83.8483 4.4873 0.0000 0.0000 0.0000
# 3 46.9384 4.4873 127.8663 0.0000 0.0000 0.0000
# 4 0.0000 0.0000 0.0000 43.2560 0.0000 0.0000
# 5 0.0000 0.0000 0.0000 0.0000 16.9046 0.0000
# 6 0.0000 0.0000 0.0000 0.0000 0.0000 -25.1850
#
#
#
# Elastic Compliance Matrix: (Units=1/GPa)
#
#
# Indices 1 2 3 4 5 6 
#
# 1 0.009092 -0.001360 -0.003290 0.000000 0.000000 0.000000
# 2 -0.001360 0.012152 0.000073 0.000000 0.000000 0.000000
# 3 -0.003290 0.000073 0.009026 0.000000 0.000000 0.000000
# 4 0.000000 0.000000 0.000000 0.023118 0.000000 0.000000
# 5 0.000000 0.000000 0.000000 0.000000 0.059156 0.000000
# 6 0.000000 0.000000 0.000000 0.000000 0.000000 -0.039706
#
#
# Mechanical properties :
#
#
# Convention : Reuss Voigt Hill
#
# Bulk Modulus (GPa) = 47.35783 52.44272 49.90027
# Shear Modulus (GPa) = 56.15993 25.34225 40.75109
#
# Velocity S-wave (km/s) = 5.00664 3.36322 4.26484
# Velocity P-wave (km/s) = 7.38645 6.20395 6.82087
#
# Compressibility (1/GPa) = 0.02111583
#
# Stress axis : x y z
#
# Youngs Moduli (GPa) = 109.98167 82.28951 110.79305
#
# Poissons Ratio (x) = 0.11193 0.36451
# Poissons Ratio (y) = 0.14959 -0.00807
# Poissons Ratio (z) = 0.36184 -0.00599
#
# Static dielectric constant tensor:
#      x y z
#    x 0.059780 0.000000 0.000000 
#    y 0.000000 1.876820 0.000000 
#    z 0.000000 0.000000 1.895040 
# 
# From -- ./inp_files/28815.got.cif
#   From: 2010.05.17/outbox.cif.g08.bks.cpg/sg53_15_cif.got.tgz:28815.got - 2010.06.03 12:45:16.
