data_PCOD9419711
_publ_section_title
;
Structure prediction by ZEFSAII (Michael W. Deem and Ramdas Pophale) SiO2 
 PCOD9419711
Probable space group: P M N A
;
_chemical_formula_sum "Si O2"
_cell_formula_units_Z 56
_cell_length_a 17.564675
_cell_length_b 12.038627
_cell_length_c 14.592760
_cell_angle_alpha 90.000000
_cell_angle_beta 90.000000
_cell_angle_gamma 90.000000
_cell_volume 3085.705801
_symmetry_space_group_name_H-M "P M N A"
_symmetry_group_IT_number 53
_symmetry_cell_setting 'orthorhombic'
loop_
_space_group_symop_operation_xyz
x,y,z
1/2-x,-y,1/2+z
x,-y,-z
1/2-x,y,1/2-z
-x,-y,-z
1/2+x,y,1/2-z
-x,y,z
1/2+x,-y,1/2+z
loop_
_atom_site_type_symbol
_atom_site_label
_atom_site_fract_x
_atom_site_fract_y
_atom_site_fract_z
Si Si1 0.913493 0.746604 0.313064
Si Si2 0.086268 0.403085 0.872006
Si Si3 0.592312 0.531992 0.101831
Si Si4 0.090540 0.830139 0.834788
Si Si5 0.838687 0.402883 0.227080
Si Si6 0.662729 0.946108 0.278656
Si Si7 0.591273 0.823224 0.452599
O O1 0.915252 0.674320 0.219169
O O2 0.878367 0.657203 0.381391
O O3 0.870674 0.859077 0.294188
O O4 0.000000 0.772210 0.339007
O O5 0.141191 0.505051 0.850669
O O6 0.105590 0.310004 0.946752
O O7 0.000000 0.445131 0.886989
O O8 0.500000 0.535443 0.108746
O O9 0.620744 0.449906 0.180971
O O10 0.613876 0.500000 0.000000
O O11 0.129668 0.716060 0.803509
O O12 0.000000 0.818874 0.823793
O O13 0.121904 0.935366 0.779666
O O14 0.104820 0.855699 0.942604
O O15 0.750000 0.398099 0.250000
O O16 0.750000 0.959668 0.250000
O O17 0.641512 0.888115 0.377188
O O18 0.500000 0.840202 0.431305
#
# Coordination Sequence:
#
# PCOD9419711 Si02
#       7
#     8   8   8   8   8   8   8
#     4   8  15  30  53  79 103 137 187 231 266 319
#     4   8  15  31  54  78 107 141 182 225 272 333
#     4   9  18  36  61  83 106 149 202 238 270 332
#     4  11  22  38  60  81 111 156 199 237 283 341
#     4  11  22  36  51  83 122 152 181 232 300 356
#     4  11  21  34  54  82 116 148 183 232 288 346
#     4   9  19  36  60  87 108 143 196 241 277 336
#
# _framework density 18.148197
#
# number of rings (size 3 to 8) (size 9 to 14) (size 15 to 20)
#    0.000    2.429    0.000    5.143    0.000    6.857 
#    5.143    2.143    0.000    0.000    0.000    4.000 
#    0.000    0.000    0.000    0.000    0.000    0.000 
#
# Total GULP energy -312143.614091 kJ/mol
# GULP energy per Si atom -5573.993109 kJ/mol
# Density = 1.810689 g / cm^3
# Si number density = 18.148197 Si / 1000 Ang^3
#
#
#
# Elastic Constant Matrix: (Units=GPa)
#
#
# Indices 1 2 3 4 5 6 
#
# 1 78.9624 46.1118 14.8763 0.0000 0.0000 0.0000
# 2 46.1118 118.8629 22.8605 0.0000 0.0000 0.0000
# 3 14.8763 22.8605 51.0358 0.0000 0.0000 0.0000
# 4 0.0000 0.0000 0.0000 27.3540 0.0000 0.0000
# 5 0.0000 0.0000 0.0000 0.0000 9.1428 0.0000
# 6 0.0000 0.0000 0.0000 0.0000 0.0000 206.2751
#
#
#
# Elastic Compliance Matrix: (Units=1/GPa)
#
#
# Indices 1 2 3 4 5 6 
#
# 1 0.016584 -0.006023 -0.002136 0.000000 0.000000 0.000000
# 2 -0.006023 0.011393 -0.003348 0.000000 0.000000 0.000000
# 3 -0.002136 -0.003348 0.021716 0.000000 0.000000 0.000000
# 4 0.000000 0.000000 0.000000 0.036558 0.000000 0.000000
# 5 0.000000 0.000000 0.000000 0.000000 0.109376 0.000000
# 6 0.000000 0.000000 0.000000 0.000000 0.000000 0.004848
#
#
# Mechanical properties :
#
#
# Convention : Reuss Voigt Hill
#
# Bulk Modulus (GPa) = 37.48134 46.28425 41.88279
# Shear Modulus (GPa) = 21.51629 59.55521 40.53575
#
# Velocity S-wave (km/s) = 3.44697 5.73474 4.73122
# Velocity P-wave (km/s) = 6.04483 8.33118 7.27834
#
# Compressibility (1/GPa) = 0.02667994
#
# Stress axis : x y z
#
# Youngs Moduli (GPa) = 60.29987 87.77022 46.04819
#
# Poissons Ratio (x) = 0.52861 0.09837
# Poissons Ratio (y) = 0.36317 0.15416
# Poissons Ratio (z) = 0.12881 0.29385
#
# Static dielectric constant tensor:
#      x y z
#    x 1.616030 0.000000 0.000000 
#    y 0.000000 1.637390 0.000000 
#    z 0.000000 0.000000 1.646980 
# 
# From -- ./inp_files/22851.got.cif
#   From: 2010.05.17/outbox.cif.g08.bks.cpg/sg53_12_cif.got.tgz:22851.got - 2010.06.03 12:45:16.
