data_PCOD9419090
_publ_section_title
;
Structure prediction by ZEFSAII (Michael W. Deem and Ramdas Pophale) SiO2 
 PCOD9419090
Probable space group: P M N A
;
_chemical_formula_sum "Si O2"
_cell_formula_units_Z 56
_cell_length_a 20.240480
_cell_length_b 15.814115
_cell_length_c 9.098956
_cell_angle_alpha 90.000000
_cell_angle_beta 90.000000
_cell_angle_gamma 90.000000
_cell_volume 2912.441864
_symmetry_space_group_name_H-M "P M N A"
_symmetry_group_IT_number 53
_symmetry_cell_setting 'orthorhombic'
loop_
_space_group_symop_operation_xyz
x,y,z
1/2-x,-y,1/2+z
x,-y,-z
1/2-x,y,1/2-z
-x,-y,-z
1/2+x,y,1/2-z
-x,y,z
1/2+x,-y,1/2+z
loop_
_atom_site_type_symbol
_atom_site_label
_atom_site_fract_x
_atom_site_fract_y
_atom_site_fract_z
Si Si1 0.801033 0.070803 0.123123
Si Si2 0.073244 0.583809 0.300547
Si Si3 0.924117 0.815793 0.807450
Si Si4 0.121987 0.295354 0.456725
Si Si5 0.745151 0.788011 0.088507
Si Si6 0.633275 0.327781 0.521800
Si Si7 0.325513 0.563173 0.748997
O O1 0.750000 0.042783 0.250000
O O2 0.869898 0.109468 0.183205
O O3 0.765022 0.148062 0.039500
O O4 0.813159 0.000000 0.000000
O O5 0.078804 0.644101 0.441547
O O6 0.127184 0.510232 0.305883
O O7 0.000000 0.547013 0.290169
O O8 0.090209 0.638107 0.155812
O O9 0.916092 0.767023 0.652420
O O10 0.903817 0.746073 0.930802
O O11 0.000000 0.842614 0.827746
O O12 0.171912 0.244422 0.559528
O O13 0.166946 0.355460 0.353752
O O14 0.750000 0.827099 0.250000
O O15 0.798126 0.711797 0.080278
O O16 0.650854 0.403451 0.409778
O O17 0.250000 0.534594 0.750000
#
# Coordination Sequence:
#
# PCOD9419090 Si02
#       7
#     8   8   8   8   8   8   8
#     4  11  23  41  68 102 133 159 194 246 301 362
#     4  12  26  39  54  83 123 162 208 264 324 371
#     4  10  22  41  66  92 125 169 205 242 301 370
#     4  11  22  39  63  85 119 158 214 261 304 364
#     4  11  20  38  65  96 116 155 209 260 303 360
#     4  10  22  37  62  84 118 159 215 264 307 363
#     4  11  24  37  58  84 115 160 214 267 320 368
#
# _framework density 19.227851999999999
#
# number of rings (size 3 to 8) (size 9 to 14) (size 15 to 20)
#    0.000    1.143    4.286    2.143    2.000    6.000 
#    0.000    0.000    0.000    0.429    0.000    0.000 
#    0.000    0.000    0.000    0.000    0.000    0.000 
#
# Total GULP energy -313005.231214 kJ/mol
# GULP energy per Si atom -5589.379129 kJ/mol
# Density = 1.918409 g / cm^3
# Si number density = 19.227852 Si / 1000 Ang^3
#
#
#
# Elastic Constant Matrix: (Units=GPa)
#
#
# Indices 1 2 3 4 5 6 
#
# 1 138.3129 36.4634 23.4446 0.0000 0.0000 0.0000
# 2 36.4634 68.4260 17.4150 0.0000 0.0000 0.0000
# 3 23.4446 17.4150 92.3948 0.0000 0.0000 0.0000
# 4 0.0000 0.0000 0.0000 27.6835 0.0000 0.0000
# 5 0.0000 0.0000 0.0000 0.0000 17.0701 0.0000
# 6 0.0000 0.0000 0.0000 0.0000 0.0000 3.1874
#
#
#
# Elastic Compliance Matrix: (Units=1/GPa)
#
#
# Indices 1 2 3 4 5 6 
#
# 1 0.008576 -0.004219 -0.001381 0.000000 0.000000 0.000000
# 2 -0.004219 0.017426 -0.002214 0.000000 0.000000 0.000000
# 3 -0.001381 -0.002214 0.011591 0.000000 0.000000 0.000000
# 4 0.000000 0.000000 0.000000 0.036123 0.000000 0.000000
# 5 0.000000 0.000000 0.000000 0.000000 0.058582 0.000000
# 6 0.000000 0.000000 0.000000 0.000000 0.000000 0.313738
#
#
# Mechanical properties :
#
#
# Convention : Reuss Voigt Hill
#
# Bulk Modulus (GPa) = 45.52596 50.41998 47.97297
# Shear Modulus (GPa) = 10.66132 24.37555 17.51844
#
# Velocity S-wave (km/s) = 2.35728 3.56437 3.02171
# Velocity P-wave (km/s) = 5.58010 6.57411 6.09739
#
# Compressibility (1/GPa) = 0.02196549
#
# Stress axis : x y z
#
# Youngs Moduli (GPa) = 116.60112 57.38579 86.27486
#
# Poissons Ratio (x) = 0.24209 0.11915
# Poissons Ratio (y) = 0.49191 0.19102
# Poissons Ratio (z) = 0.16103 0.12706
#
# Static dielectric constant tensor:
#      x y z
#    x 1.641350 0.000000 0.000000 
#    y 0.000000 1.652170 0.000000 
#    z 0.000000 0.000000 1.690940 
# 
# From -- ./inp_files/11064.got.cif
#   From: 2010.05.17/outbox.cif.g08.bks.cpg/sg53_6_cif.got.tgz:11064.got - 2010.06.03 12:45:16.
