data_PCOD9419534
_publ_section_title
;
Structure prediction by ZEFSAII (Michael W. Deem and Ramdas Pophale) SiO2 
 PCOD9419534
Probable space group: P M N A
;
_chemical_formula_sum "Si O2"
_cell_formula_units_Z 64
_cell_length_a 17.945084
_cell_length_b 11.295524
_cell_length_c 14.976192
_cell_angle_alpha 90.000000
_cell_angle_beta 90.000000
_cell_angle_gamma 90.000000
_cell_volume 3035.661044
_symmetry_space_group_name_H-M "P M N A"
_symmetry_group_IT_number 53
_symmetry_cell_setting 'orthorhombic'
loop_
_space_group_symop_operation_xyz
x,y,z
1/2-x,-y,1/2+z
x,-y,-z
1/2-x,y,1/2-z
-x,-y,-z
1/2+x,y,1/2-z
-x,y,z
1/2+x,-y,1/2+z
loop_
_atom_site_type_symbol
_atom_site_label
_atom_site_fract_x
_atom_site_fract_y
_atom_site_fract_z
Si Si1 0.165591 0.990873 0.730620
Si Si2 0.311272 0.450556 0.902088
Si Si3 0.087663 0.167602 0.418649
Si Si4 0.414537 0.658769 0.451333
Si Si5 0.656190 0.567565 0.627738
Si Si6 0.800941 0.172725 0.583949
Si Si7 0.134063 0.081907 0.919579
Si Si8 0.413911 0.397790 0.196063
O O1 0.250000 0.945791 0.750000
O O2 0.174330 0.114445 0.677117
O O3 0.128638 0.013866 0.825965
O O4 0.119830 0.909753 0.662773
O O5 0.241256 0.527283 0.868468
O O6 0.291772 0.313158 0.905673
O O7 0.380235 0.479555 0.838885
O O8 0.327942 0.500000 0.000000
O O9 0.138796 0.150279 0.505852
O O10 0.094554 0.301790 0.382342
O O11 0.000000 0.143061 0.435279
O O12 0.500000 0.640340 0.478374
O O13 0.390374 0.554768 0.383888
O O14 0.362051 0.639722 0.537967
O O15 0.404599 0.790521 0.415478
O O16 0.630720 0.636045 0.715100
O O17 0.721494 0.112845 0.563121
O O18 0.106436 0.000000 0.000000
O O19 0.500000 0.406238 0.218950
#
# Coordination Sequence:
#
# PCOD9419534 Si02
#       8
#     8   8   8   8   8   8   8   8
#     4  10  24  42  67  95 129 179 228 282 336 395
#     4  12  22  41  69  98 130 173 221 270 333 408
#     4  11  25  45  69 101 139 179 228 280 338 408
#     4  11  23  40  65  92 130 172 219 278 337 393
#     4  11  22  43  66  96 130 173 224 271 327 405
#     4  11  22  44  69  95 133 172 224 281 335 398
#     4  11  24  42  66  95 132 175 227 281 338 400
#     4  11  26  41  64 101 139 175 214 275 344 400
#
# _framework density 21.082722
#
# number of rings (size 3 to 8) (size 9 to 14) (size 15 to 20)
#    0.000    1.000    3.750    3.750    3.500    4.500 
#    0.000    0.000    0.000    0.000    0.000    0.000 
#    0.000    0.000    0.000    0.000    0.000    0.000 
#
# Total GULP energy -357909.536273 kJ/mol
# GULP energy per Si atom -5592.336504 kJ/mol
# Density = 2.103474 g / cm^3
# Si number density = 21.082722 Si / 1000 Ang^3
#
#
#
# Elastic Constant Matrix: (Units=GPa)
#
#
# Indices 1 2 3 4 5 6 
#
# 1 66.7109 3.3601 39.7041 0.0000 0.0000 0.0000
# 2 3.3601 25.6468 -5.2222 0.0000 0.0000 0.0000
# 3 39.7041 -5.2222 85.8398 0.0000 0.0000 0.0000
# 4 0.0000 0.0000 0.0000 23.1570 0.0000 0.0000
# 5 0.0000 0.0000 0.0000 0.0000 22.7039 0.0000
# 6 0.0000 0.0000 0.0000 0.0000 0.0000 18.2061
#
#
#
# Elastic Compliance Matrix: (Units=1/GPa)
#
#
# Indices 1 2 3 4 5 6 
#
# 1 0.021263 -0.004848 -0.010130 0.000000 0.000000 0.000000
# 2 -0.004848 0.040586 0.004712 0.000000 0.000000 0.000000
# 3 -0.010130 0.004712 0.016622 0.000000 0.000000 0.000000
# 4 0.000000 0.000000 0.000000 0.043184 0.000000 0.000000
# 5 0.000000 0.000000 0.000000 0.000000 0.044045 0.000000
# 6 0.000000 0.000000 0.000000 0.000000 0.000000 0.054927
#
#
# Mechanical properties :
#
#
# Convention : Reuss Voigt Hill
#
# Bulk Modulus (GPa) = 17.26006 28.20907 22.73456
# Shear Modulus (GPa) = 19.19588 22.17041 20.68315
#
# Velocity S-wave (km/s) = 3.02073 3.24634 3.13557
# Velocity P-wave (km/s) = 4.51342 5.24031 4.89039
#
# Compressibility (1/GPa) = 0.05793722
#
# Stress axis : x y z
#
# Youngs Moduli (GPa) = 47.02936 24.63916 60.16213
#
# Poissons Ratio (x) = 0.11946 0.60944
# Poissons Ratio (y) = 0.22802 -0.28347
# Poissons Ratio (z) = 0.47641 -0.11609
#
# Static dielectric constant tensor:
#      x y z
#    x 1.746080 0.000000 0.000000 
#    y 0.000000 1.752210 0.000000 
#    z 0.000000 0.000000 1.740010 
# 
# From -- ./inp_files/23888.got.cif
#   From: 2010.05.17/outbox.cif.g08.bks.cpg/sg53_12_cif.got.tgz:23888.got - 2010.06.03 12:45:16.
