data_PCOD9419315
_publ_section_title
;
Structure prediction by ZEFSAII (Michael W. Deem and Ramdas Pophale) SiO2 
 PCOD9419315
Probable space group: P M N A
;
_chemical_formula_sum "Si O2"
_cell_formula_units_Z 56
_cell_length_a 14.306668
_cell_length_b 8.583319
_cell_length_c 21.884344
_cell_angle_alpha 90.000000
_cell_angle_beta 90.000000
_cell_angle_gamma 90.000000
_cell_volume 2687.368890
_symmetry_space_group_name_H-M "P M N A"
_symmetry_group_IT_number 53
_symmetry_cell_setting 'orthorhombic'
loop_
_space_group_symop_operation_xyz
x,y,z
1/2-x,-y,1/2+z
x,-y,-z
1/2-x,y,1/2-z
-x,-y,-z
1/2+x,y,1/2-z
-x,y,z
1/2+x,-y,1/2+z
loop_
_atom_site_type_symbol
_atom_site_label
_atom_site_fract_x
_atom_site_fract_y
_atom_site_fract_z
Si Si1 0.388448 0.028270 0.807960
Si Si2 0.391602 0.857599 0.324877
Si Si3 0.109700 0.780133 0.867763
Si Si4 0.613006 0.687760 0.760329
Si Si5 0.253281 0.672114 0.528889
Si Si6 0.388587 0.470281 0.118461
Si Si7 0.221296 0.216582 0.598677
O O1 0.500000 0.032979 0.819146
O O2 0.370589 0.134520 0.747762
O O3 0.330240 0.077498 0.866505
O O4 0.361216 0.855157 0.788034
O O5 0.500000 0.809488 0.332172
O O6 0.317696 0.760087 0.363871
O O7 0.383861 0.037036 0.349113
O O8 0.146299 0.682710 0.809038
O O9 0.166991 0.733226 0.926583
O O10 0.000000 0.748102 0.876899
O O11 0.500000 0.688885 0.755790
O O12 0.637685 0.564020 0.811289
O O13 0.274553 0.500000 0.500000
O O14 0.161892 0.645562 0.571023
O O15 0.241194 0.791019 0.472974
O O16 0.500000 0.459955 0.112444
O O17 0.349291 0.639455 0.104226
#
# Coordination Sequence:
#
# PCOD9419315 Si02
#       7
#     8   8   8   8   8   8   8
#     4   9  18  36  62  92 121 150 196 254 309 359
#     4   9  20  39  62  89 121 157 200 253 308 361
#     4   9  19  40  66  89 121 161 203 257 310 357
#     4   8  17  37  65  92 115 151 202 254 308 362
#     4  10  24  40  55  88 123 168 211 243 294 371
#     4  10  22  42  62  86 122 163 206 254 311 364
#     4  11  22  37  59  88 124 164 202 245 300 364
#
# _framework density 20.838225999999999
#
# number of rings (size 3 to 8) (size 9 to 14) (size 15 to 20)
#    0.000    2.571    0.000    2.571    2.000    5.143 
#   10.286    3.571    0.000    2.571    0.000    0.000 
#    0.000    0.000    0.000    0.000    0.000    0.000 
#
# Total GULP energy -312727.985214 kJ/mol
# GULP energy per Si atom -5584.428307 kJ/mol
# Density = 2.079080 g / cm^3
# Si number density = 20.838226 Si / 1000 Ang^3
#
#
#
# Elastic Constant Matrix: (Units=GPa)
#
#
# Indices 1 2 3 4 5 6 
#
# 1 128.8228 11.1078 52.7300 0.0000 0.0000 0.0000
# 2 11.1078 6.4896 29.1672 0.0000 0.0000 0.0000
# 3 52.7300 29.1672 164.7196 0.0000 0.0000 0.0000
# 4 0.0000 0.0000 0.0000 35.7972 0.0000 0.0000
# 5 0.0000 0.0000 0.0000 0.0000 59.1771 0.0000
# 6 0.0000 0.0000 0.0000 0.0000 0.0000 18.3326
#
#
#
# Elastic Compliance Matrix: (Units=1/GPa)
#
#
# Indices 1 2 3 4 5 6 
#
# 1 0.009126 -0.012197 -0.000762 0.000000 0.000000 0.000000
# 2 -0.012197 0.771084 -0.132633 0.000000 0.000000 0.000000
# 3 -0.000762 -0.132633 0.029800 0.000000 0.000000 0.000000
# 4 0.000000 0.000000 0.000000 0.027935 0.000000 0.000000
# 5 0.000000 0.000000 0.000000 0.000000 0.016898 0.000000
# 6 0.000000 0.000000 0.000000 0.000000 0.000000 0.054548
#
#
# Mechanical properties :
#
#
# Convention : Reuss Voigt Hill
#
# Bulk Modulus (GPa) = 1.92743 54.00468 27.96605
# Shear Modulus (GPa) = 3.64029 36.46318 20.05173
#
# Velocity S-wave (km/s) = 1.32315 4.18763 3.10539
# Velocity P-wave (km/s) = 1.80589 7.02524 5.12910
#
# Compressibility (1/GPa) = 0.51882667
#
# Stress axis : x y z
#
# Youngs Moduli (GPa) = 109.57615 1.29688 33.55675
#
# Poissons Ratio (x) = 0.01582 0.02556
# Poissons Ratio (y) = 1.33655 4.45072
# Poissons Ratio (z) = 0.08345 0.17201
#
# Static dielectric constant tensor:
#      x y z
#    x 1.746590 0.000000 0.000000 
#    y 0.000000 1.779350 0.000000 
#    z 0.000000 0.000000 1.750410 
# 
# From -- ./inp_files/32453.got.cif
#   From: 2010.05.17/outbox.cif.g08.bks.cpg/sg53_17_cif.got.tgz:32453.got - 2010.06.03 12:45:16.
