data_PCOD9419731
_publ_section_title
;
Structure prediction by ZEFSAII (Michael W. Deem and Ramdas Pophale) SiO2 
 PCOD9419731
Probable space group: P M N A
;
_chemical_formula_sum "Si O2"
_cell_formula_units_Z 40
_cell_length_a 14.331085
_cell_length_b 23.397119
_cell_length_c 5.051811
_cell_angle_alpha 90.000000
_cell_angle_beta 90.000000
_cell_angle_gamma 90.000000
_cell_volume 1693.903050
_symmetry_space_group_name_H-M "P M N A"
_symmetry_group_IT_number 53
_symmetry_cell_setting 'orthorhombic'
loop_
_space_group_symop_operation_xyz
x,y,z
1/2-x,-y,1/2+z
x,-y,-z
1/2-x,y,1/2-z
-x,-y,-z
1/2+x,y,1/2-z
-x,y,z
1/2+x,-y,1/2+z
loop_
_atom_site_type_symbol
_atom_site_label
_atom_site_fract_x
_atom_site_fract_y
_atom_site_fract_z
Si Si1 0.147587 0.182409 0.369532
Si Si2 0.319031 0.061971 0.000937
Si Si3 0.114277 0.371699 0.107904
Si Si4 0.604285 0.253811 0.625081
Si Si5 0.885960 0.438811 0.606418
O O1 0.250000 0.176345 0.250000
O O2 0.119568 0.118786 0.461634
O O3 0.149289 0.223269 0.623816
O O4 0.096515 0.211033 0.122981
O O5 0.250000 0.070364 0.750000
O O6 0.250000 0.057155 0.250000
O O7 0.368151 0.000000 0.000000
O O8 0.148100 0.311419 0.993603
O O9 0.140775 0.421273 0.901380
O O10 0.000000 0.368538 0.115001
O O11 0.143553 0.389629 0.400497
O O12 0.500000 0.269035 0.721047
O O13 0.854177 0.500000 0.500000
O O14 0.000000 0.440419 0.605162
#
# Coordination Sequence:
#
# PCOD9419731 Si02
#       5
#     8   8   8   8   8
#     4  11  21  36  57  82 108 138 183 232 268 310
#     4   9  17  31  53  80 106 134 173 223 274 318
#     4   9  17  28  42  64  96 135 172 205 255 319
#     4  11  22  36  54  77 112 152 182 214 269 336
#     4   9  15  24  40  63  93 128 167 213 261 305
#
# _framework density 23.614103
#
# number of rings (size 3 to 8) (size 9 to 14) (size 15 to 20)
#    0.000    2.200    0.000    5.400    0.000    5.600 
#    0.000    0.000    0.000    3.600    0.000    0.000 
#    0.000   44.800    0.000    0.000    0.000    0.000 
#
# Total GULP energy -223502.576632 kJ/mol
# GULP energy per Si atom -5587.564416 kJ/mol
# Density = 2.356036 g / cm^3
# Si number density = 23.614103 Si / 1000 Ang^3
#
#
#
# Elastic Constant Matrix: (Units=GPa)
#
#
# Indices 1 2 3 4 5 6 
#
# 1 40.9109 12.5428 4.1967 0.0000 0.0000 0.0000
# 2 12.5428 116.8012 15.0916 0.0000 0.0000 0.0000
# 3 4.1967 15.0916 133.3742 0.0000 0.0000 0.0000
# 4 0.0000 0.0000 0.0000 36.1150 0.0000 0.0000
# 5 0.0000 0.0000 0.0000 0.0000 -12.5169 0.0000
# 6 0.0000 0.0000 0.0000 0.0000 0.0000 23.1299
#
#
#
# Elastic Compliance Matrix: (Units=1/GPa)
#
#
# Indices 1 2 3 4 5 6 
#
# 1 0.025308 -0.002654 -0.000496 0.000000 0.000000 0.000000
# 2 -0.002654 0.008967 -0.000931 0.000000 0.000000 0.000000
# 3 -0.000496 -0.000931 0.007619 0.000000 0.000000 0.000000
# 4 0.000000 0.000000 0.000000 0.027689 0.000000 0.000000
# 5 0.000000 0.000000 0.000000 0.000000 -0.079892 0.000000
# 6 0.000000 0.000000 0.000000 0.000000 0.000000 0.043234
#
#
# Mechanical properties :
#
#
# Convention : Reuss Voigt Hill
#
# Bulk Modulus (GPa) = 29.64568 39.41649 34.53108
# Shear Modulus (GPa) = 95.54752 26.62929 61.08840
#
# Velocity S-wave (km/s) = 6.36788 3.36175 5.09172
# Velocity P-wave (km/s) = 8.16382 5.63885 7.01586
#
# Compressibility (1/GPa) = 0.03373173
#
# Stress axis : x y z
#
# Youngs Moduli (GPa) = 39.51353 111.52225 131.25649
#
# Poissons Ratio (x) = 0.29593 0.06511
# Poissons Ratio (y) = 0.10485 0.12222
# Poissons Ratio (z) = 0.01960 0.10384
#
# Static dielectric constant tensor:
#      x y z
#    x 1.973280 0.000000 0.000000 
#    y 0.000000 1.959730 0.000000 
#    z 0.000000 0.000000 1.819050 
# 
# From -- ./inp_files/2182.got.cif
#   From: 2010.05.17/outbox.cif.g08.bks.cpg/sg53_2_cif.got.tgz:2182.got - 2010.06.03 12:45:16.
