data_PCOD9419440
_publ_section_title
;
Structure prediction by ZEFSAII (Michael W. Deem and Ramdas Pophale) SiO2 
 PCOD9419440
Probable space group: P M N A
;
_chemical_formula_sum "Si O2"
_cell_formula_units_Z 56
_cell_length_a 9.056510
_cell_length_b 22.848580
_cell_length_c 14.421411
_cell_angle_alpha 90.000000
_cell_angle_beta 90.000000
_cell_angle_gamma 90.000000
_cell_volume 2984.199407
_symmetry_space_group_name_H-M "P M N A"
_symmetry_group_IT_number 53
_symmetry_cell_setting 'orthorhombic'
loop_
_space_group_symop_operation_xyz
x,y,z
1/2-x,-y,1/2+z
x,-y,-z
1/2-x,y,1/2-z
-x,-y,-z
1/2+x,y,1/2-z
-x,y,z
1/2+x,-y,1/2+z
loop_
_atom_site_type_symbol
_atom_site_label
_atom_site_fract_x
_atom_site_fract_y
_atom_site_fract_z
Si Si1 0.328351 0.202583 0.530515
Si Si2 0.829952 0.902720 0.165889
Si Si3 0.322833 0.141566 0.347247
Si Si4 0.323279 0.534393 0.649074
Si Si5 0.823861 0.698181 0.351678
Si Si6 0.322338 0.411250 0.546131
Si Si7 0.168294 0.981161 0.607167
O O1 0.500000 0.222048 0.536989
O O2 0.320628 0.138491 0.577176
O O3 0.287943 0.190445 0.424406
O O4 0.227207 0.246354 0.587412
O O5 0.750000 0.870179 0.250000
O O6 0.000000 0.912549 0.188003
O O7 0.748739 0.963820 0.152465
O O8 0.250000 0.156970 0.250000
O O9 0.500000 0.136525 0.341483
O O10 0.255911 0.078617 0.376402
O O11 0.250000 0.543287 0.750000
O O12 0.500000 0.539293 0.660401
O O13 0.292969 0.469570 0.607305
O O14 0.281436 0.576399 0.561879
O O15 0.750000 0.700493 0.250000
O O16 0.763219 0.641858 0.407025
O O17 0.000000 0.696290 0.341909
O O18 0.500000 0.401409 0.548692
O O19 0.000000 0.974073 0.640930
O O20 0.163514 0.000000 0.500000
#
# Coordination Sequence:
#
# PCOD9419440 Si02
#       7
#     8   8   8   8   8   8   8
#     4  10  23  42  62  83 111 148 189 237 287 336
#     4  11  22  37  57  82 111 143 181 225 281 340
#     4  11  23  41  63  86 113 147 188 234 288 347
#     4   9  18  33  57  88 123 163 201 245 294 343
#     4  12  25  40  62  89 118 153 194 239 289 344
#     4   9  19  37  58  85 123 162 202 244 292 344
#     4  11  22  36  57  84 113 146 183 227 281 340
#
# _framework density 18.765502000000001
#
# number of rings (size 3 to 8) (size 9 to 14) (size 15 to 20)
#    0.000    1.571    1.429    4.714    0.000    6.286 
#    0.000    2.143    0.000    0.000    0.000    0.000 
#    0.000    0.000    0.000    0.000    0.000    0.000 
#
# Total GULP energy -312706.203140 kJ/mol
# GULP energy per Si atom -5584.039342 kJ/mol
# Density = 1.872279 g / cm^3
# Si number density = 18.765502 Si / 1000 Ang^3
#
#
#
# Elastic Constant Matrix: (Units=GPa)
#
#
# Indices 1 2 3 4 5 6 
#
# 1 120.7083 62.8672 80.1655 0.0000 0.0000 0.0000
# 2 62.8672 85.5571 56.4879 0.0000 0.0000 0.0000
# 3 80.1655 56.4879 171.7275 0.0000 0.0000 0.0000
# 4 0.0000 0.0000 0.0000 23.7655 0.0000 0.0000
# 5 0.0000 0.0000 0.0000 0.0000 32.8350 0.0000
# 6 0.0000 0.0000 0.0000 0.0000 0.0000 20.1202
#
#
#
# Elastic Compliance Matrix: (Units=1/GPa)
#
#
# Indices 1 2 3 4 5 6 
#
# 1 0.015774 -0.008596 -0.004536 0.000000 0.000000 0.000000
# 2 -0.008596 0.019615 -0.002439 0.000000 0.000000 0.000000
# 3 -0.004536 -0.002439 0.008743 0.000000 0.000000 0.000000
# 4 0.000000 0.000000 0.000000 0.042078 0.000000 0.000000
# 5 0.000000 0.000000 0.000000 0.000000 0.030455 0.000000
# 6 0.000000 0.000000 0.000000 0.000000 0.000000 0.049701
#
#
# Mechanical properties :
#
#
# Convention : Reuss Voigt Hill
#
# Bulk Modulus (GPa) = 76.98610 86.33709 81.66160
# Shear Modulus (GPa) = 24.77234 27.24229 26.00731
#
# Velocity S-wave (km/s) = 3.63726 3.81428 3.72682
# Velocity P-wave (km/s) = 7.66511 8.09361 7.88228
#
# Compressibility (1/GPa) = 0.01298936
#
# Stress axis : x y z
#
# Youngs Moduli (GPa) = 63.39675 50.98194 114.37596
#
# Poissons Ratio (x) = 0.43822 0.51881
# Poissons Ratio (y) = 0.54494 0.27902
# Poissons Ratio (z) = 0.28757 0.12437
#
# Static dielectric constant tensor:
#      x y z
#    x 1.632670 0.000000 0.000000 
#    y 0.000000 1.628590 0.000000 
#    z 0.000000 0.000000 1.744520 
# 
# From -- ./inp_files/20509.got.cif
#   From: 2010.05.17/outbox.cif.g08.bks.cpg/sg53_11_cif.got.tgz:20509.got - 2010.06.03 12:45:16.
