data_PCOD9419774
_publ_section_title
;
Structure prediction by ZEFSAII (Michael W. Deem and Ramdas Pophale) SiO2 
 PCOD9419774
Probable space group: P M N A
;
_chemical_formula_sum "Si O2"
_cell_formula_units_Z 28
_cell_length_a 17.599927
_cell_length_b 8.784919
_cell_length_c 9.052751
_cell_angle_alpha 90.000000
_cell_angle_beta 90.000000
_cell_angle_gamma 90.000000
_cell_volume 1399.681437
_symmetry_space_group_name_H-M "P M N A"
_symmetry_group_IT_number 53
_symmetry_cell_setting 'orthorhombic'
loop_
_space_group_symop_operation_xyz
x,y,z
1/2-x,-y,1/2+z
x,-y,-z
1/2-x,y,1/2-z
-x,-y,-z
1/2+x,y,1/2-z
-x,y,z
1/2+x,-y,1/2+z
loop_
_atom_site_type_symbol
_atom_site_label
_atom_site_fract_x
_atom_site_fract_y
_atom_site_fract_z
Si Si1 0.500000 0.130647 0.640394
Si Si2 0.000000 0.471609 0.825443
Si Si3 0.750000 0.837900 0.750000
Si Si4 0.624129 0.373866 0.125379
Si Si5 0.000000 0.126894 0.382120
Si Si6 0.144279 0.000000 0.000000
O O1 0.500000 0.293757 0.717651
O O2 0.418427 0.124877 0.555062
O O3 0.500000 0.970879 0.731009
O O4 0.075818 0.547504 0.757177
O O5 0.000000 0.500000 0.000000
O O6 0.800418 0.717739 0.660005
O O7 0.697392 0.937577 0.635443
O O8 0.570105 0.234149 0.087211
O O9 0.632968 0.500000 0.000000
O O10 0.000000 0.000000 0.500000
#
# Coordination Sequence:
#
# PCOD9419774 Si02
#       6
#     4   4   4   8   4   4
#     4  11  22  44  73  97 135 186 245 293 336 418
#     4  11  23  41  71 101 135 181 233 284 345 419
#     4  12  26  44  68  98 148 184 228 292 362 432
#     4  11  25  44  64 102 137 176 229 285 353 421
#     4  11  21  41  71  99 126 177 234 289 336 406
#     4  11  26  44  68 105 136 186 242 295 354 416
#
# _framework density 20.004550999999999
#
# number of rings (size 3 to 8) (size 9 to 14) (size 15 to 20)
#    0.000    0.857    2.857    5.143    6.000    5.714 
#    0.000    0.000    0.000    0.000    0.000    0.000 
#    0.000    0.000    0.000    0.000    0.000    0.000 
#
# Total GULP energy -155900.626637 kJ/mol
# GULP energy per Si atom -5567.879523 kJ/mol
# Density = 1.995902 g / cm^3
# Si number density = 20.004551 Si / 1000 Ang^3
#
#
#
# Elastic Constant Matrix: (Units=GPa)
#
#
# Indices 1 2 3 4 5 6 
#
# 1 135.7545 55.9545 57.4816 0.0000 0.0000 0.0000
# 2 55.9545 148.8326 51.4471 0.0000 0.0000 0.0000
# 3 57.4816 51.4471 120.2749 0.0000 0.0000 0.0000
# 4 0.0000 0.0000 0.0000 44.8496 0.0000 0.0000
# 5 0.0000 0.0000 0.0000 0.0000 109.5447 0.0000
# 6 0.0000 0.0000 0.0000 0.0000 0.0000 47.3412
#
#
#
# Elastic Compliance Matrix: (Units=1/GPa)
#
#
# Indices 1 2 3 4 5 6 
#
# 1 0.009948 -0.002460 -0.003702 0.000000 0.000000 0.000000
# 2 -0.002460 0.008493 -0.002457 0.000000 0.000000 0.000000
# 3 -0.003702 -0.002457 0.011134 0.000000 0.000000 0.000000
# 4 0.000000 0.000000 0.000000 0.022297 0.000000 0.000000
# 5 0.000000 0.000000 0.000000 0.000000 0.009129 0.000000
# 6 0.000000 0.000000 0.000000 0.000000 0.000000 0.021123
#
#
# Mechanical properties :
#
#
# Convention : Reuss Voigt Hill
#
# Bulk Modulus (GPa) = 81.05714 81.62539 81.34126
# Shear Modulus (GPa) = 48.32081 56.34570 52.33326
#
# Velocity S-wave (km/s) = 4.92010 5.31296 5.12030
# Velocity P-wave (km/s) = 8.53720 8.86165 8.70094
#
# Compressibility (1/GPa) = 0.01233698
#
# Stress axis : x y z
#
# Youngs Moduli (GPa) = 100.52528 117.74006 89.81103
#
# Poissons Ratio (x) = 0.28968 0.33246
# Poissons Ratio (y) = 0.24732 0.22068
# Poissons Ratio (z) = 0.37213 0.28930
#
# Static dielectric constant tensor:
#      x y z
#    x 1.606250 0.000000 0.000000 
#    y 0.000000 1.650980 0.000000 
#    z 0.000000 0.000000 1.728540 
# 
# From -- ./inp_files/9467.got.cif
#   From: 2010.05.17/outbox.cif.g08.bks.cpg/sg53_5_cif.got.tgz:9467.got - 2010.06.03 12:45:16.
