data_PCOD9419796
_publ_section_title
;
Structure prediction by ZEFSAII (Michael W. Deem and Ramdas Pophale) SiO2 
 PCOD9419796
Probable space group: P M N A
;
_chemical_formula_sum "Si O2"
_cell_formula_units_Z 40
_cell_length_a 8.069391
_cell_length_b 7.022231
_cell_length_c 31.186136
_cell_angle_alpha 90.000000
_cell_angle_beta 90.000000
_cell_angle_gamma 90.000000
_cell_volume 1767.166377
_symmetry_space_group_name_H-M "P M N A"
_symmetry_group_IT_number 53
_symmetry_cell_setting 'orthorhombic'
loop_
_space_group_symop_operation_xyz
x,y,z
1/2-x,-y,1/2+z
x,-y,-z
1/2-x,y,1/2-z
-x,-y,-z
1/2+x,y,1/2-z
-x,y,z
1/2+x,-y,1/2+z
loop_
_atom_site_type_symbol
_atom_site_label
_atom_site_fract_x
_atom_site_fract_y
_atom_site_fract_z
Si Si1 0.698997 0.728621 0.034558
Si Si2 0.694211 0.353538 0.873971
Si Si3 0.302871 0.178603 0.056089
Si Si4 0.808498 0.938211 0.855545
Si Si5 0.301755 0.383127 0.201992
O O1 0.500000 0.694330 0.032799
O O2 0.764890 0.627707 0.077580
O O3 0.719492 0.954395 0.044605
O O4 0.760002 0.706267 0.985628
O O5 0.500000 0.403808 0.877568
O O6 0.764710 0.471661 0.834254
O O7 0.706640 0.131040 0.861861
O O8 0.500000 0.212322 0.059746
O O9 0.226379 0.195569 0.103012
O O10 0.761041 0.822582 0.813373
O O11 0.000000 0.990803 0.855416
O O12 0.250000 0.430798 0.250000
O O13 0.500000 0.383743 0.200401
#
# Coordination Sequence:
#
# PCOD9419796 Si02
#       5
#     8   8   8   8   8
#     4   7  11  24  50  80 107 141 186 230 269 319
#     4   9  19  38  62  85 111 147 191 235 281 333
#     4   8  13  26  50  78 110 147 188 229 268 318
#     4  11  22  36  57  85 119 154 187 226 275 334
#     4  11  24  42  63  84 109 142 184 237 288 336
#
# _framework density 22.635109
#
# number of rings (size 3 to 8) (size 9 to 14) (size 15 to 20)
#    0.000    2.800    0.000    4.800    0.000    2.400 
#    0.000   11.000    0.000    6.000    0.000    0.000 
#    0.000    0.000    0.000    0.000    0.000    0.000 
#
# Total GULP energy -223288.974281 kJ/mol
# GULP energy per Si atom -5582.224357 kJ/mol
# Density = 2.258359 g / cm^3
# Si number density = 22.635109 Si / 1000 Ang^3
#
#
#
# Elastic Constant Matrix: (Units=GPa)
#
#
# Indices 1 2 3 4 5 6 
#
# 1 26.6401 -16.2493 10.5155 0.0000 0.0000 0.0000
# 2 -16.2493 69.5632 49.4879 0.0000 0.0000 0.0000
# 3 10.5155 49.4879 178.6635 0.0000 0.0000 0.0000
# 4 0.0000 0.0000 0.0000 37.5690 0.0000 0.0000
# 5 0.0000 0.0000 0.0000 0.0000 14.6378 0.0000
# 6 0.0000 0.0000 0.0000 0.0000 0.0000 -0.1073
#
#
#
# Elastic Compliance Matrix: (Units=1/GPa)
#
#
# Indices 1 2 3 4 5 6 
#
# 1 0.051421 0.017641 -0.007913 0.000000 0.000000 0.000000
# 2 0.017641 0.023955 -0.007674 0.000000 0.000000 0.000000
# 3 -0.007913 -0.007674 0.008188 0.000000 0.000000 0.000000
# 4 0.000000 0.000000 0.000000 0.026618 0.000000 0.000000
# 5 0.000000 0.000000 0.000000 0.000000 0.068316 0.000000
# 6 0.000000 0.000000 0.000000 0.000000 0.000000 -9.318436
#
#
# Mechanical properties :
#
#
# Convention : Reuss Voigt Hill
#
# Bulk Modulus (GPa) = 11.40602 40.26386 25.83494
# Shear Modulus (GPa) = -0.54856 25.82741 12.63943
#
# Velocity S-wave (km/s) = -0.49282 3.38158 2.36561
# Velocity P-wave (km/s) = 2.17398 5.75097 4.34740
#
# Compressibility (1/GPa) = 0.08767299
#
# Stress axis : x y z
#
# Youngs Moduli (GPa) = 19.44737 41.74465 122.12506
#
# Poissons Ratio (x) = -0.73640 0.96634
# Poissons Ratio (y) = -0.34306 0.93714
# Poissons Ratio (z) = 0.15388 0.32033
#
# Static dielectric constant tensor:
#      x y z
#    x 1.801660 0.000000 0.000000 
#    y 0.000000 1.909800 0.000000 
#    z 0.000000 0.000000 1.873800 
# 
# From -- ./inp_files/36038.got.cif
#   From: 2010.05.17/outbox.cif.g08.bks.cpg/sg53_19_cif.got.tgz:36038.got - 2010.06.03 12:45:16.
