data_PCOD9419884
_publ_section_title
;
Structure prediction by ZEFSAII (Michael W. Deem and Ramdas Pophale) SiO2 
 PCOD9419884
Probable space group: P M N A
;
_chemical_formula_sum "Si O2"
_cell_formula_units_Z 40
_cell_length_a 15.067607
_cell_length_b 15.272443
_cell_length_c 8.904099
_cell_angle_alpha 90.000000
_cell_angle_beta 90.000000
_cell_angle_gamma 90.000000
_cell_volume 2049.003863
_symmetry_space_group_name_H-M "P M N A"
_symmetry_group_IT_number 53
_symmetry_cell_setting 'orthorhombic'
loop_
_space_group_symop_operation_xyz
x,y,z
1/2-x,-y,1/2+z
x,-y,-z
1/2-x,y,1/2-z
-x,-y,-z
1/2+x,y,1/2-z
-x,y,z
1/2+x,-y,1/2+z
loop_
_atom_site_type_symbol
_atom_site_label
_atom_site_fract_x
_atom_site_fract_y
_atom_site_fract_z
Si Si1 0.500000 0.521483 0.677191
Si Si2 0.000000 0.337845 0.662733
Si Si3 0.000000 0.756858 0.658097
Si Si4 0.500000 0.036127 0.166140
Si Si5 0.339799 0.255014 0.653513
Si Si6 0.653447 0.662490 0.674793
Si Si7 0.160627 0.050924 0.846188
O O1 0.500000 0.500000 0.500000
O O2 0.500000 0.440486 0.792771
O O3 0.590427 0.577588 0.695599
O O4 0.000000 0.303829 0.491406
O O5 0.915260 0.296874 0.744318
O O6 0.909909 0.734361 0.747487
O O7 0.000000 0.860274 0.641315
O O8 0.415693 0.998972 0.255459
O O9 0.500000 0.000000 0.000000
O O10 0.250000 0.258753 0.750000
O O11 0.334568 0.308836 0.498306
O O12 0.361864 0.152916 0.623872
O O13 0.750000 0.654221 0.750000
O O14 0.250000 0.049901 0.750000
O O15 0.174955 0.000000 0.000000
#
# Coordination Sequence:
#
# PCOD9419884 Si02
#       7
#     4   4   4   4   8   8   8
#     4  11  23  47  69  96 133 167 214 281 328 397
#     4  12  23  44  67  91 130 166 217 271 337 405
#     4  11  25  42  66  97 130 176 214 276 332 396
#     4  12  24  40  64  94 132 171 223 271 330 390
#     4  11  23  40  65  94 127 173 221 268 331 397
#     4  11  24  44  67  97 132 171 218 274 341 400
#     4  11  24  40  62  92 128 173 220 273 326 392
#
# _framework density 19.521681000000001
#
# number of rings (size 3 to 8) (size 9 to 14) (size 15 to 20)
#    0.000    0.800    2.000    5.700    0.000    8.800 
#    3.600    0.000    0.000    0.000    0.000    0.000 
#    0.000    0.000    0.000    0.000    0.000    0.000 
#
# Total GULP energy -223541.558161 kJ/mol
# GULP energy per Si atom -5588.538954 kJ/mol
# Density = 1.947725 g / cm^3
# Si number density = 19.521681 Si / 1000 Ang^3
#
#
#
# Elastic Constant Matrix: (Units=GPa)
#
#
# Indices 1 2 3 4 5 6 
#
# 1 129.6889 59.7885 55.2244 0.0000 0.0000 0.0000
# 2 59.7885 135.2383 24.2067 0.0000 0.0000 0.0000
# 3 55.2244 24.2067 108.7169 0.0000 0.0000 0.0000
# 4 0.0000 0.0000 0.0000 33.9557 0.0000 0.0000
# 5 0.0000 0.0000 0.0000 0.0000 37.0779 0.0000
# 6 0.0000 0.0000 0.0000 0.0000 0.0000 18.6212
#
#
#
# Elastic Compliance Matrix: (Units=1/GPa)
#
#
# Indices 1 2 3 4 5 6 
#
# 1 0.011867 -0.004340 -0.005062 0.000000 0.000000 0.000000
# 2 -0.004340 0.009289 0.000137 0.000000 0.000000 0.000000
# 3 -0.005062 0.000137 0.011739 0.000000 0.000000 0.000000
# 4 0.000000 0.000000 0.000000 0.029450 0.000000 0.000000
# 5 0.000000 0.000000 0.000000 0.000000 0.026970 0.000000
# 6 0.000000 0.000000 0.000000 0.000000 0.000000 0.053702
#
#
# Mechanical properties :
#
#
# Convention : Reuss Voigt Hill
#
# Bulk Modulus (GPa) = 69.61935 72.45370 71.03653
# Shear Modulus (GPa) = 30.05954 33.55926 31.80940
#
# Velocity S-wave (km/s) = 3.92829 4.15067 4.04101
# Velocity P-wave (km/s) = 7.50435 7.75666 7.63155
#
# Compressibility (1/GPa) = 0.01436382
#
# Stress axis : x y z
#
# Youngs Moduli (GPa) = 84.26639 107.65650 85.18660
#
# Poissons Ratio (x) = 0.46728 0.43119
# Poissons Ratio (y) = 0.36575 -0.01163
# Poissons Ratio (z) = 0.42653 -0.01470
#
# Static dielectric constant tensor:
#      x y z
#    x 1.570190 0.000000 0.000000 
#    y 0.000000 1.738760 0.000000 
#    z 0.000000 0.000000 1.660580 
# 
# From -- ./inp_files/8489.got.cif
#   From: 2010.05.17/outbox.cif.g08.bks.cpg/sg53_5_cif.got.tgz:8489.got - 2010.06.03 12:45:16.
