data_PCOD9419878
_publ_section_title
;
Structure prediction by ZEFSAII (Michael W. Deem and Ramdas Pophale) SiO2 
 PCOD9419878
Probable space group: P M N A
;
_chemical_formula_sum "Si O2"
_cell_formula_units_Z 48
_cell_length_a 8.842823
_cell_length_b 16.681599
_cell_length_c 16.109673
_cell_angle_alpha 90.000000
_cell_angle_beta 90.000000
_cell_angle_gamma 90.000000
_cell_volume 2376.376967
_symmetry_space_group_name_H-M "P M N A"
_symmetry_group_IT_number 53
_symmetry_cell_setting 'orthorhombic'
loop_
_space_group_symop_operation_xyz
x,y,z
1/2-x,-y,1/2+z
x,-y,-z
1/2-x,y,1/2-z
-x,-y,-z
1/2+x,y,1/2-z
-x,y,z
1/2+x,-y,1/2+z
loop_
_atom_site_type_symbol
_atom_site_label
_atom_site_fract_x
_atom_site_fract_y
_atom_site_fract_z
Si Si1 0.678304 0.825899 0.890977
Si Si2 0.821340 0.332087 0.165138
Si Si3 0.823164 0.404107 0.501302
Si Si4 0.319604 0.009682 0.840163
Si Si5 0.179254 0.318342 0.839378
Si Si6 0.179260 0.156455 0.932305
O O1 0.500000 0.809063 0.880844
O O2 0.775222 0.761271 0.841475
O O3 0.707167 0.917219 0.863984
O O4 0.728572 0.818705 0.986360
O O5 0.750000 0.365443 0.250000
O O6 0.755274 0.371020 0.081686
O O7 0.000000 0.341158 0.167227
O O8 0.810779 0.500000 0.500000
O O9 0.749451 0.368453 0.584627
O O10 0.000000 0.381671 0.499647
O O11 0.250000 0.024294 0.750000
O O12 0.500000 0.023637 0.840760
O O13 0.239361 0.070985 0.902224
O O14 0.250000 0.336714 0.750000
O O15 0.203829 0.224699 0.862915
O O16 0.000000 0.332498 0.836904
O O17 0.000000 0.153838 0.950799
#
# Coordination Sequence:
#
# PCOD9419878 Si02
#       6
#     8   8   8   8   8   8
#     4  11  23  40  63  91 127 170 218 271 326 384
#     4  12  25  43  69 100 134 175 221 269 327 390
#     4  11  25  46  72 101 133 170 213 267 329 392
#     4  11  24  39  57  86 123 168 218 271 325 379
#     4  11  24  42  67  99 133 175 220 268 325 387
#     4  11  23  39  62  92 126 169 218 268 324 384
#
# _framework density 20.198816000000001
#
# number of rings (size 3 to 8) (size 9 to 14) (size 15 to 20)
#    0.000    0.833    1.667    5.500    0.000   11.333 
#    0.000    0.000    0.000    0.000    0.000    0.000 
#    0.000    0.000    0.000    0.000    0.000    0.000 
#
# Total GULP energy -268657.989157 kJ/mol
# GULP energy per Si atom -5597.041441 kJ/mol
# Density = 2.015284 g / cm^3
# Si number density = 20.198816 Si / 1000 Ang^3
#
#
#
# Elastic Constant Matrix: (Units=GPa)
#
#
# Indices 1 2 3 4 5 6 
#
# 1 124.3309 45.9061 55.1502 0.0000 0.0000 0.0000
# 2 45.9061 62.4710 22.5426 0.0000 0.0000 0.0000
# 3 55.1502 22.5426 140.1616 0.0000 0.0000 0.0000
# 4 0.0000 0.0000 0.0000 -0.5984 0.0000 0.0000
# 5 0.0000 0.0000 0.0000 0.0000 21.3857 0.0000
# 6 0.0000 0.0000 0.0000 0.0000 0.0000 30.3377
#
#
#
# Elastic Compliance Matrix: (Units=1/GPa)
#
#
# Indices 1 2 3 4 5 6 
#
# 1 0.012607 -0.007935 -0.003684 0.000000 0.000000 0.000000
# 2 -0.007935 0.021988 -0.000414 0.000000 0.000000 0.000000
# 3 -0.003684 -0.000414 0.008651 0.000000 0.000000 0.000000
# 4 0.000000 0.000000 0.000000 -1.671197 0.000000 0.000000
# 5 0.000000 0.000000 0.000000 0.000000 0.046760 0.000000
# 6 0.000000 0.000000 0.000000 0.000000 0.000000 0.032962
#
#
# Mechanical properties :
#
#
# Convention : Reuss Voigt Hill
#
# Bulk Modulus (GPa) = 52.14028 63.79569 57.96799
# Shear Modulus (GPa) = -3.29431 23.78264 10.24416
#
# Velocity S-wave (km/s) = -1.27847 3.43509 2.25448
# Velocity P-wave (km/s) = 4.86726 6.88372 5.96137
#
# Compressibility (1/GPa) = 0.01917903
#
# Stress axis : x y z
#
# Youngs Moduli (GPa) = 79.32076 45.48019 115.59391
#
# Poissons Ratio (x) = 0.36087 0.42590
# Poissons Ratio (y) = 0.62938 0.04788
# Poissons Ratio (z) = 0.29225 0.01884
#
# Static dielectric constant tensor:
#      x y z
#    x 1.673650 0.000000 0.000000 
#    y 0.000000 1.720230 0.000000 
#    z 0.000000 0.000000 1.773270 
# 
# From -- ./inp_files/20132.got.cif
#   From: 2010.05.17/outbox.cif.g08.bks.cpg/sg53_11_cif.got.tgz:20132.got - 2010.06.03 12:45:16.
