data_PCOD9419686
_publ_section_title
;
Structure prediction by ZEFSAII (Michael W. Deem and Ramdas Pophale) SiO2 
 PCOD9419686
Probable space group: P M N A
;
_chemical_formula_sum "Si O2"
_cell_formula_units_Z 48
_cell_length_a 8.875434
_cell_length_b 15.450343
_cell_length_c 20.821137
_cell_angle_alpha 90.000000
_cell_angle_beta 90.000000
_cell_angle_gamma 90.000000
_cell_volume 2855.171276
_symmetry_space_group_name_H-M "P M N A"
_symmetry_group_IT_number 53
_symmetry_cell_setting 'orthorhombic'
loop_
_space_group_symop_operation_xyz
x,y,z
1/2-x,-y,1/2+z
x,-y,-z
1/2-x,y,1/2-z
-x,-y,-z
1/2+x,y,1/2-z
-x,y,z
1/2+x,-y,1/2+z
loop_
_atom_site_type_symbol
_atom_site_label
_atom_site_fract_x
_atom_site_fract_y
_atom_site_fract_z
Si Si1 0.825920 0.300034 0.842603
Si Si2 0.673825 0.730519 0.493671
Si Si3 0.178689 0.881550 0.316842
Si Si4 0.680305 0.495824 0.684570
Si Si5 0.182017 0.920324 0.046432
Si Si6 0.179478 0.568493 0.555603
O O1 0.724090 0.220087 0.821401
O O2 0.775941 0.394229 0.820258
O O3 0.000000 0.283776 0.822390
O O4 0.824943 0.301307 0.919886
O O5 0.500000 0.728490 0.516235
O O6 0.725480 0.830025 0.488184
O O7 0.772066 0.664178 0.534022
O O8 0.250000 0.914749 0.250000
O O9 0.245751 0.922208 0.382572
O O10 0.000000 0.891379 0.315579
O O11 0.750000 0.531719 0.750000
O O12 0.500000 0.499709 0.685869
O O13 0.742161 0.542435 0.621699
O O14 0.000000 0.917195 0.054865
O O15 0.219714 0.000000 0.000000
O O16 0.225925 0.500000 0.500000
O O17 0.000000 0.562612 0.562507
#
# Coordination Sequence:
#
# PCOD9419686 Si02
#       6
#     8   8   8   8   8   8
#     4   9  18  32  50  74 104 139 175 212 261 317
#     4   9  17  32  54  79 104 136 175 214 262 312
#     4  11  21  32  50  76 109 143 176 214 261 319
#     4  11  22  35  51  72 103 141 181 225 270 317
#     4   9  19  37  59  82 109 139 174 218 270 324
#     4  11  22  34  51  76 106 141 182 220 257 307
#
# _framework density 16.811601
#
# number of rings (size 3 to 8) (size 9 to 14) (size 15 to 20)
#    0.000    2.000    1.667    4.000    0.000    6.333 
#    0.000    0.000    0.000    1.000    0.000    4.667 
#    0.000    0.000    0.000    0.000    0.000    0.000 
#
# Total GULP energy -267856.112414 kJ/mol
# GULP energy per Si atom -5580.335675 kJ/mol
# Density = 1.677334 g / cm^3
# Si number density = 16.811601 Si / 1000 Ang^3
#
#
#
# Elastic Constant Matrix: (Units=GPa)
#
#
# Indices 1 2 3 4 5 6 
#
# 1 55.6520 32.6469 53.4172 0.0000 0.0000 0.0000
# 2 32.6469 85.5748 66.0761 0.0000 0.0000 0.0000
# 3 53.4172 66.0761 137.5428 0.0000 0.0000 0.0000
# 4 0.0000 0.0000 0.0000 17.4119 0.0000 0.0000
# 5 0.0000 0.0000 0.0000 0.0000 27.2876 0.0000
# 6 0.0000 0.0000 0.0000 0.0000 0.0000 -6.3819
#
#
#
# Elastic Compliance Matrix: (Units=1/GPa)
#
#
# Indices 1 2 3 4 5 6 
#
# 1 0.029412 -0.003816 -0.009589 0.000000 0.000000 0.000000
# 2 -0.003816 0.019072 -0.007680 0.000000 0.000000 0.000000
# 3 -0.009589 -0.007680 0.014684 0.000000 0.000000 0.000000
# 4 0.000000 0.000000 0.000000 0.057432 0.000000 0.000000
# 5 0.000000 0.000000 0.000000 0.000000 0.036647 0.000000
# 6 0.000000 0.000000 0.000000 0.000000 0.000000 -0.156693
#
#
# Mechanical properties :
#
#
# Convention : Reuss Voigt Hill
#
# Bulk Modulus (GPa) = 47.62709 64.78334 56.20521
# Shear Modulus (GPa) = 100.55768 16.10548 58.33158
#
# Velocity S-wave (km/s) = 7.74237 3.09851 5.89682
# Velocity P-wave (km/s) = 10.40755 7.17075 8.93691
#
# Compressibility (1/GPa) = 0.02099645
#
# Stress axis : x y z
#
# Youngs Moduli (GPa) = 34.00012 52.43382 68.10104
#
# Poissons Ratio (x) = 0.20011 0.65303
# Poissons Ratio (y) = 0.12976 0.52301
# Poissons Ratio (z) = 0.32603 0.40269
#
# Static dielectric constant tensor:
#      x y z
#    x 1.565810 0.000000 0.000000 
#    y 0.000000 1.556460 0.000000 
#    z 0.000000 0.000000 1.573960 
# 
# From -- ./inp_files/30539.got.cif
#   From: 2010.05.17/outbox.cif.g08.bks.cpg/sg53_16_cif.got.tgz:30539.got - 2010.06.03 12:45:16.
