data_PCOD9419127
_publ_section_title
;
Structure prediction by ZEFSAII (Michael W. Deem and Ramdas Pophale) SiO2 
 PCOD9419127
Probable space group: P M N A
;
_chemical_formula_sum "Si O2"
_cell_formula_units_Z 64
_cell_length_a 14.068216
_cell_length_b 11.326314
_cell_length_c 16.984703
_cell_angle_alpha 90.000000
_cell_angle_beta 90.000000
_cell_angle_gamma 90.000000
_cell_volume 2706.360101
_symmetry_space_group_name_H-M "P M N A"
_symmetry_group_IT_number 53
_symmetry_cell_setting 'orthorhombic'
loop_
_space_group_symop_operation_xyz
x,y,z
1/2-x,-y,1/2+z
x,-y,-z
1/2-x,y,1/2-z
-x,-y,-z
1/2+x,y,1/2-z
-x,y,z
1/2+x,-y,1/2+z
loop_
_atom_site_type_symbol
_atom_site_label
_atom_site_fract_x
_atom_site_fract_y
_atom_site_fract_z
Si Si1 0.894536 0.489826 0.404245
Si Si2 0.394190 0.430976 0.581647
Si Si3 0.607684 0.880952 0.949050
Si Si4 0.289758 0.624078 0.662341
Si Si5 0.609814 0.117888 0.642257
Si Si6 0.739846 0.231179 0.933033
Si Si7 0.892498 0.261469 0.697467
Si Si8 0.215596 0.880615 0.836810
O O1 0.894685 0.500000 0.500000
O O2 0.804104 0.410406 0.386095
O O3 0.885576 0.607800 0.346047
O O4 0.000000 0.442414 0.384201
O O5 0.399408 0.500000 0.500000
O O6 0.500000 0.378020 0.595123
O O7 0.369545 0.525510 0.648796
O O8 0.300526 0.350329 0.572664
O O9 0.500000 0.851212 0.923790
O O10 0.687678 0.903929 0.884454
O O11 0.656504 0.782263 0.004594
O O12 0.601996 0.000000 0.000000
O O13 0.250000 0.617795 0.750000
O O14 0.324893 0.753400 0.635953
O O15 0.500000 0.113247 0.624305
O O16 0.672453 0.141337 0.564077
O O17 0.621429 0.221670 0.710837
O O18 0.645377 0.990183 0.668758
O O19 0.688281 0.196685 0.851435
O O20 0.000000 0.222067 0.679388
O O21 0.250000 0.856403 0.750000
#
# Coordination Sequence:
#
# PCOD9419127 Si02
#       8
#     8   8   8   8   8   8   8   8
#     4  10  22  41  68 109 153 190 233 299 376 449
#     4  11  25  44  67  97 136 185 237 286 349 433
#     4  11  25  45  74 109 142 181 240 307 376 447
#     4  11  25  43  68  96 137 188 234 290 353 431
#     4  11  25  44  68 100 137 188 244 295 358 434
#     4  12  22  42  70 102 142 176 229 305 367 430
#     4  10  22  38  67 106 145 185 231 292 369 442
#     4  11  25  48  68  97 144 194 243 302 367 439
#
# _framework density 23.647998000000001
#
# number of rings (size 3 to 8) (size 9 to 14) (size 15 to 20)
#    0.000    1.125    2.500    3.000    3.500    2.000 
#    0.000    4.375    0.000    0.375    0.000    0.000 
#    0.000    0.000    0.000    0.000    0.000    0.000 
#
# Total GULP energy -356887.933437 kJ/mol
# GULP energy per Si atom -5576.373960 kJ/mol
# Density = 2.359417 g / cm^3
# Si number density = 23.647998 Si / 1000 Ang^3
#
#
#
# Elastic Constant Matrix: (Units=GPa)
#
#
# Indices 1 2 3 4 5 6 
#
# 1 136.4511 23.3905 34.2520 0.0000 0.0000 0.0000
# 2 23.3905 114.3709 7.6882 0.0000 0.0000 0.0000
# 3 34.2520 7.6882 54.4398 0.0000 0.0000 0.0000
# 4 0.0000 0.0000 0.0000 24.4685 0.0000 0.0000
# 5 0.0000 0.0000 0.0000 0.0000 16.6265 0.0000
# 6 0.0000 0.0000 0.0000 0.0000 0.0000 25.5407
#
#
#
# Elastic Compliance Matrix: (Units=1/GPa)
#
#
# Indices 1 2 3 4 5 6 
#
# 1 0.008940 -0.001464 -0.005418 0.000000 0.000000 0.000000
# 2 -0.001464 0.009067 -0.000359 0.000000 0.000000 0.000000
# 3 -0.005418 -0.000359 0.021828 0.000000 0.000000 0.000000
# 4 0.000000 0.000000 0.000000 0.040869 0.000000 0.000000
# 5 0.000000 0.000000 0.000000 0.000000 0.060145 0.000000
# 6 0.000000 0.000000 0.000000 0.000000 0.000000 0.039153
#
#
# Mechanical properties :
#
#
# Convention : Reuss Voigt Hill
#
# Bulk Modulus (GPa) = 39.44361 48.43591 43.93976
# Shear Modulus (GPa) = 24.63839 29.32255 26.98047
#
# Velocity S-wave (km/s) = 3.23132 3.52513 3.38141
# Velocity P-wave (km/s) = 5.53512 6.09058 5.81948
#
# Compressibility (1/GPa) = 0.02535265
#
# Stress axis : x y z
#
# Youngs Moduli (GPa) = 111.86213 110.28930 45.81196
#
# Poissons Ratio (x) = 0.16147 0.24820
# Poissons Ratio (y) = 0.16377 0.01646
# Poissons Ratio (z) = 0.60604 0.03963
#
# Static dielectric constant tensor:
#      x y z
#    x 1.854830 0.000000 0.000000 
#    y 0.000000 2.063070 0.000000 
#    z 0.000000 0.000000 1.877750 
# 
# From -- ./inp_files/28551.got.cif
#   From: 2010.05.17/outbox.cif.g08.bks.cpg/sg53_15_cif.got.tgz:28551.got - 2010.06.03 12:45:16.
