data_PCOD9419132
_publ_section_title
;
Structure prediction by ZEFSAII (Michael W. Deem and Ramdas Pophale) SiO2 
 PCOD9419132
Probable space group: P M N A
;
_chemical_formula_sum "Si O2"
_cell_formula_units_Z 56
_cell_length_a 7.651303
_cell_length_b 19.556587
_cell_length_c 17.674780
_cell_angle_alpha 90.000000
_cell_angle_beta 90.000000
_cell_angle_gamma 90.000000
_cell_volume 2644.736945
_symmetry_space_group_name_H-M "P M N A"
_symmetry_group_IT_number 53
_symmetry_cell_setting 'orthorhombic'
loop_
_space_group_symop_operation_xyz
x,y,z
1/2-x,-y,1/2+z
x,-y,-z
1/2-x,y,1/2-z
-x,-y,-z
1/2+x,y,1/2-z
-x,y,z
1/2+x,-y,1/2+z
loop_
_atom_site_type_symbol
_atom_site_label
_atom_site_fract_x
_atom_site_fract_y
_atom_site_fract_z
Si Si1 0.200052 0.954171 0.567692
Si Si2 0.790119 0.287632 0.063740
Si Si3 0.708775 0.348443 0.665699
Si Si4 0.713181 0.213354 0.588672
Si Si5 0.204615 0.832138 0.662878
Si Si6 0.291330 0.075779 0.663714
Si Si7 0.714086 0.576915 0.485711
O O1 0.284628 0.884868 0.600766
O O2 0.000000 0.939793 0.543424
O O3 0.282007 0.000000 0.500000
O O4 0.203051 0.005815 0.638412
O O5 0.740824 0.245632 0.137903
O O6 0.731215 0.365130 0.046568
O O7 0.000000 0.289306 0.060919
O O8 0.728955 0.241983 0.992262
O O9 0.750000 0.371178 0.750000
O O10 0.500000 0.346875 0.658815
O O11 0.769937 0.270957 0.649044
O O12 0.771029 0.395591 0.596656
O O13 0.500000 0.211632 0.588420
O O14 0.771159 0.138108 0.610952
O O15 0.250000 0.845014 0.750000
O O16 0.000000 0.844071 0.657405
O O17 0.250000 0.092913 0.750000
O O18 0.500000 0.068071 0.655386
O O19 0.774001 0.500000 0.500000
O O20 0.500000 0.575839 0.486355
#
# Coordination Sequence:
#
# PCOD9419132 Si02
#       7
#     8   8   8   8   8   8   8
#     4  10  22  39  56  75 100 130 168 216 268 317
#     4   9  17  33  57  79 100 130 171 213 250 299
#     4   9  16  28  47  71 100 132 166 202 243 296
#     4   8  16  30  48  72 100 131 165 200 243 300
#     4  11  23  38  56  77 104 138 176 220 267 315
#     4  11  21  32  48  71 100 131 164 203 248 298
#     4   8  15  30  53  78 104 137 172 205 250 309
#
# _framework density 21.174126999999999
#
# number of rings (size 3 to 8) (size 9 to 14) (size 15 to 20)
#    0.000    2.571    0.000    4.286    0.000    2.571 
#    0.000    5.000    0.000    3.429    0.000    0.000 
#    0.000    0.000    0.000    0.000    0.000    0.000 
#
# Total GULP energy -312422.150567 kJ/mol
# GULP energy per Si atom -5578.966974 kJ/mol
# Density = 2.112593 g / cm^3
# Si number density = 21.174127 Si / 1000 Ang^3
#
#
#
# Elastic Constant Matrix: (Units=GPa)
#
#
# Indices 1 2 3 4 5 6 
#
# 1 46.1784 3.6031 4.2346 0.0000 0.0000 0.0000
# 2 3.6031 143.6594 43.4068 0.0000 0.0000 0.0000
# 3 4.2346 43.4068 75.5809 0.0000 0.0000 0.0000
# 4 0.0000 0.0000 0.0000 21.4289 0.0000 0.0000
# 5 0.0000 0.0000 0.0000 0.0000 17.6912 0.0000
# 6 0.0000 0.0000 0.0000 0.0000 0.0000 3.3681
#
#
#
# Elastic Compliance Matrix: (Units=1/GPa)
#
#
# Indices 1 2 3 4 5 6 
#
# 1 0.021772 -0.000215 -0.001097 0.000000 0.000000 0.000000
# 2 -0.000215 0.008425 -0.004826 0.000000 0.000000 0.000000
# 3 -0.001097 -0.004826 0.016064 0.000000 0.000000 0.000000
# 4 0.000000 0.000000 0.000000 0.046666 0.000000 0.000000
# 5 0.000000 0.000000 0.000000 0.000000 0.056525 0.000000
# 6 0.000000 0.000000 0.000000 0.000000 0.000000 0.296900
#
#
# Mechanical properties :
#
#
# Convention : Reuss Voigt Hill
#
# Bulk Modulus (GPa) = 29.42390 40.87865 35.15127
# Shear Modulus (GPa) = 10.63928 22.77592 16.70760
#
# Velocity S-wave (km/s) = 2.24401 3.28327 2.81206
# Velocity P-wave (km/s) = 4.54317 5.80698 5.21351
#
# Compressibility (1/GPa) = 0.03398598
#
# Stress axis : x y z
#
# Youngs Moduli (GPa) = 45.92957 118.70053 62.25075
#
# Poissons Ratio (x) = 0.02549 0.06826
# Poissons Ratio (y) = 0.00986 0.30044
# Poissons Ratio (z) = 0.05036 0.57288
#
# Static dielectric constant tensor:
#      x y z
#    x 1.792590 0.000000 0.000000 
#    y 0.000000 1.780420 0.000000 
#    z 0.000000 0.000000 1.787420 
# 
# From -- ./inp_files/20644.got.cif
#   From: 2010.05.17/outbox.cif.g08.bks.cpg/sg53_11_cif.got.tgz:20644.got - 2010.06.03 12:45:16.
