data_PCOD9419308
_publ_section_title
;
Structure prediction by ZEFSAII (Michael W. Deem and Ramdas Pophale) SiO2 
 PCOD9419308
Probable space group: P M N A
;
_chemical_formula_sum "Si O2"
_cell_formula_units_Z 56
_cell_length_a 13.349475
_cell_length_b 11.828498
_cell_length_c 16.527999
_cell_angle_alpha 90.000000
_cell_angle_beta 90.000000
_cell_angle_gamma 90.000000
_cell_volume 2609.841093
_symmetry_space_group_name_H-M "P M N A"
_symmetry_group_IT_number 53
_symmetry_cell_setting 'orthorhombic'
loop_
_space_group_symop_operation_xyz
x,y,z
1/2-x,-y,1/2+z
x,-y,-z
1/2-x,y,1/2-z
-x,-y,-z
1/2+x,y,1/2-z
-x,y,z
1/2+x,-y,1/2+z
loop_
_atom_site_type_symbol
_atom_site_label
_atom_site_fract_x
_atom_site_fract_y
_atom_site_fract_z
Si Si1 0.617582 0.750789 0.362368
Si Si2 0.882586 0.354755 0.429028
Si Si3 0.615185 0.731984 0.101488
Si Si4 0.884259 0.126665 0.033918
Si Si5 0.774433 0.548874 0.336348
Si Si6 0.288146 0.164312 0.167957
Si Si7 0.620371 0.076913 0.785868
O O1 0.500000 0.724657 0.349415
O O2 0.628147 0.796649 0.453953
O O3 0.686259 0.639072 0.355340
O O4 0.642107 0.849793 0.295644
O O5 0.846970 0.317524 0.517828
O O6 0.809213 0.451852 0.396818
O O7 0.869490 0.244028 0.374224
O O8 0.000000 0.391228 0.430991
O O9 0.500000 0.753613 0.086224
O O10 0.631321 0.634882 0.167573
O O11 0.655816 0.846411 0.138519
O O12 0.802756 0.147843 0.103968
O O13 0.000000 0.139188 0.063681
O O14 0.873274 0.000000 0.000000
O O15 0.750000 0.497785 0.250000
O O16 0.250000 0.221649 0.250000
O O17 0.334074 0.045672 0.198703
O O18 0.500000 0.066573 0.787180
#
# Coordination Sequence:
#
# PCOD9419308 Si02
#       7
#     8   8   8   8   8   8   8
#     4  10  22  42  68 102 137 173 227 290 338 390
#     4  11  26  46  65  95 139 183 222 271 337 408
#     4  10  22  41  67  98 132 172 219 279 338 396
#     4  10  23  41  64  95 135 178 219 269 333 398
#     4  12  23  38  68  96 132 175 230 276 329 395
#     4  12  26  41  68  97 135 184 226 274 329 408
#     4  10  22  41  68 104 135 169 221 283 345 398
#
# _framework density 21.457245
#
# number of rings (size 3 to 8) (size 9 to 14) (size 15 to 20)
#    0.000    1.286    1.429    3.429    6.000    4.000 
#    0.000    2.857    0.000    3.429    0.000    0.000 
#    0.000    0.000    0.000    0.000    0.000    0.000 
#
# Total GULP energy -312697.286810 kJ/mol
# GULP energy per Si atom -5583.880122 kJ/mol
# Density = 2.140841 g / cm^3
# Si number density = 21.457245 Si / 1000 Ang^3
#
#
#
# Elastic Constant Matrix: (Units=GPa)
#
#
# Indices 1 2 3 4 5 6 
#
# 1 116.6318 60.9429 64.7004 0.0000 0.0000 0.0000
# 2 60.9429 114.2104 44.3541 0.0000 0.0000 0.0000
# 3 64.7004 44.3541 121.4354 0.0000 0.0000 0.0000
# 4 0.0000 0.0000 0.0000 29.7760 0.0000 0.0000
# 5 0.0000 0.0000 0.0000 0.0000 32.4600 0.0000
# 6 0.0000 0.0000 0.0000 0.0000 0.0000 31.4782
#
#
#
# Elastic Compliance Matrix: (Units=1/GPa)
#
#
# Indices 1 2 3 4 5 6 
#
# 1 0.014715 -0.005602 -0.005794 0.000000 0.000000 0.000000
# 2 -0.005602 0.012336 -0.001521 0.000000 0.000000 0.000000
# 3 -0.005794 -0.001521 0.011877 0.000000 0.000000 0.000000
# 4 0.000000 0.000000 0.000000 0.033584 0.000000 0.000000
# 5 0.000000 0.000000 0.000000 0.000000 0.030807 0.000000
# 6 0.000000 0.000000 0.000000 0.000000 0.000000 0.031768
#
#
# Mechanical properties :
#
#
# Convention : Reuss Voigt Hill
#
# Bulk Modulus (GPa) = 76.36839 76.91915 76.64377
# Shear Modulus (GPa) = 30.25046 30.89485 30.57265
#
# Velocity S-wave (km/s) = 3.75881 3.79863 3.77877
# Velocity P-wave (km/s) = 7.38284 7.42731 7.40511
#
# Compressibility (1/GPa) = 0.01309442
#
# Stress axis : x y z
#
# Youngs Moduli (GPa) = 67.95575 81.06598 84.19302
#
# Poissons Ratio (x) = 0.45413 0.48783
# Poissons Ratio (y) = 0.38069 0.12804
# Poissons Ratio (z) = 0.39375 0.12329
#
# Static dielectric constant tensor:
#      x y z
#    x 1.829910 0.000000 0.000000 
#    y 0.000000 1.779640 0.000000 
#    z 0.000000 0.000000 1.819520 
# 
# From -- ./inp_files/22826.got.cif
#   From: 2010.05.17/outbox.cif.g08.bks.cpg/sg53_12_cif.got.tgz:22826.got - 2010.06.03 12:45:16.
