data_PCOD9419279
_publ_section_title
;
Structure prediction by ZEFSAII (Michael W. Deem and Ramdas Pophale) SiO2 
 PCOD9419279
Probable space group: P M N A
;
_chemical_formula_sum "Si O2"
_cell_formula_units_Z 56
_cell_length_a 19.222780
_cell_length_b 8.890178
_cell_length_c 17.222491
_cell_angle_alpha 90.000000
_cell_angle_beta 90.000000
_cell_angle_gamma 90.000000
_cell_volume 2943.219272
_symmetry_space_group_name_H-M "P M N A"
_symmetry_group_IT_number 53
_symmetry_cell_setting 'orthorhombic'
loop_
_space_group_symop_operation_xyz
x,y,z
1/2-x,-y,1/2+z
x,-y,-z
1/2-x,y,1/2-z
-x,-y,-z
1/2+x,y,1/2-z
-x,y,z
1/2+x,-y,1/2+z
loop_
_atom_site_type_symbol
_atom_site_label
_atom_site_fract_x
_atom_site_fract_y
_atom_site_fract_z
Si Si1 0.860592 0.819575 0.009957
Si Si2 0.420644 0.199373 0.203034
Si Si3 0.203199 0.164610 0.538950
Si Si4 0.918223 0.290776 0.832201
Si Si5 0.081685 0.631628 0.865592
Si Si6 0.422712 0.336433 0.039131
Si Si7 0.173793 0.092741 0.713890
O O1 0.781015 0.774436 0.027973
O O2 0.908352 0.784958 0.083908
O O3 0.883430 0.724574 0.934945
O O4 0.862836 0.000000 0.000000
O O5 0.500000 0.139790 0.199094
O O6 0.411590 0.277915 0.285667
O O7 0.414158 0.318280 0.132248
O O8 0.367075 0.062726 0.199223
O O9 0.141861 0.251308 0.496880
O O10 0.186073 0.162535 0.629620
O O11 0.203803 0.000000 0.500000
O O12 0.893827 0.462453 0.846988
O O13 0.871800 0.199607 0.770227
O O14 0.000000 0.291212 0.809417
O O15 0.000000 0.618563 0.885744
O O16 0.500000 0.270921 0.021745
O O17 0.422473 0.500000 0.000000
O O18 0.250000 0.064877 0.750000
#
# Coordination Sequence:
#
# PCOD9419279 Si02
#       7
#     8   8   8   8   8   8   8
#     4  11  23  41  66  94 127 168 210 263 317 380
#     4  10  22  41  64  93 124 166 214 259 319 379
#     4  11  24  43  63  91 127 166 216 261 317 379
#     4  11  24  42  66  96 129 167 210 263 319 378
#     4  10  23  41  65  96 131 165 209 263 318 383
#     4  10  23  41  63  91 126 166 214 267 316 374
#     4  12  24  43  64  93 130 165 211 266 314 380
#
# _framework density 19.026783999999999
#
# number of rings (size 3 to 8) (size 9 to 14) (size 15 to 20)
#    0.000    1.286    2.857    2.143    4.000    6.000 
#    0.000    0.714    0.000    0.000    0.000    0.000 
#    0.000    0.000    0.000    0.000    0.000    0.000 
#
# Total GULP energy -312599.477925 kJ/mol
# GULP energy per Si atom -5582.133534 kJ/mol
# Density = 1.898348 g / cm^3
# Si number density = 19.026784 Si / 1000 Ang^3
#
#
#
# Elastic Constant Matrix: (Units=GPa)
#
#
# Indices 1 2 3 4 5 6 
#
# 1 95.4580 48.2104 54.8097 0.0000 0.0000 0.0000
# 2 48.2104 78.1557 39.0151 0.0000 0.0000 0.0000
# 3 54.8097 39.0151 140.0375 0.0000 0.0000 0.0000
# 4 0.0000 0.0000 0.0000 33.2643 0.0000 0.0000
# 5 0.0000 0.0000 0.0000 0.0000 32.3283 0.0000
# 6 0.0000 0.0000 0.0000 0.0000 0.0000 24.6567
#
#
#
# Elastic Compliance Matrix: (Units=1/GPa)
#
#
# Indices 1 2 3 4 5 6 
#
# 1 0.017277 -0.008458 -0.004406 0.000000 0.000000 0.000000
# 2 -0.008458 0.019003 -0.001984 0.000000 0.000000 0.000000
# 3 -0.004406 -0.001984 0.009418 0.000000 0.000000 0.000000
# 4 0.000000 0.000000 0.000000 0.030062 0.000000 0.000000
# 5 0.000000 0.000000 0.000000 0.000000 0.030933 0.000000
# 6 0.000000 0.000000 0.000000 0.000000 0.000000 0.040557
#
#
# Mechanical properties :
#
#
# Convention : Reuss Voigt Hill
#
# Bulk Modulus (GPa) = 62.48971 66.41351 64.45161
# Shear Modulus (GPa) = 27.43046 29.49091 28.46069
#
# Velocity S-wave (km/s) = 3.80106 3.94123 3.87178
# Velocity P-wave (km/s) = 7.22346 7.46272 7.34406
#
# Compressibility (1/GPa) = 0.01600264
#
# Stress axis : x y z
#
# Youngs Moduli (GPa) = 57.87992 52.62423 106.17975
#
# Poissons Ratio (x) = 0.44510 0.46779
# Poissons Ratio (y) = 0.48955 0.21064
# Poissons Ratio (z) = 0.25500 0.10440
#
# Static dielectric constant tensor:
#      x y z
#    x 1.664040 0.000000 0.000000 
#    y 0.000000 1.662460 0.000000 
#    z 0.000000 0.000000 1.635370 
# 
# From -- ./inp_files/24358.got.cif
#   From: 2010.05.17/outbox.cif.g08.bks.cpg/sg53_13_cif.got.tgz:24358.got - 2010.06.03 12:45:16.
