data_PCOD9419559
_publ_section_title
;
Structure prediction by ZEFSAII (Michael W. Deem and Ramdas Pophale) SiO2 
 PCOD9419559
Probable space group: P M N A
;
_chemical_formula_sum "Si O2"
_cell_formula_units_Z 38
_cell_length_a 21.088476
_cell_length_b 6.916856
_cell_length_c 11.645154
_cell_angle_alpha 90.000000
_cell_angle_beta 90.000000
_cell_angle_gamma 90.000000
_cell_volume 1698.631472
_symmetry_space_group_name_H-M "P M N A"
_symmetry_group_IT_number 53
_symmetry_cell_setting 'orthorhombic'
loop_
_space_group_symop_operation_xyz
x,y,z
1/2-x,-y,1/2+z
x,-y,-z
1/2-x,y,1/2-z
-x,-y,-z
1/2+x,y,1/2-z
-x,y,z
1/2+x,-y,1/2+z
loop_
_atom_site_type_symbol
_atom_site_label
_atom_site_fract_x
_atom_site_fract_y
_atom_site_fract_z
Si Si1 0.352906 0.476033 0.700823
Si Si2 0.076182 0.123431 0.888100
Si Si3 0.500000 0.000000 0.000000
Si Si4 0.219665 0.000000 0.500000
Si Si5 0.231022 0.616077 0.402366
Si Si6 0.611156 0.863068 0.829270
O O1 0.397360 0.340857 0.624836
O O2 0.318368 0.352262 0.800935
O O3 0.289295 0.524289 0.629618
O O4 0.384209 0.656462 0.764612
O O5 0.000000 0.132007 0.888713
O O6 0.097986 0.012048 0.773799
O O7 0.095919 0.000000 0.000000
O O8 0.555441 0.891199 0.921861
O O9 0.256190 0.822595 0.443097
O O10 0.175188 0.909709 0.599949
O O11 0.194244 0.500000 0.500000
#
# Coordination Sequence:
#
# PCOD9419559 Si02
#       6
#     8   8   2   4   8   8
#     4  11  26  43  69 101 141 184 241 290 364 434
#     4  11  26  46  67  99 140 188 244 293 358 437
#     4  10  24  44  76 106 138 184 238 296 388 416
#     4  11  22  43  72  96 147 172 231 304 362 426
#     4  11  24  44  66 104 136 183 236 293 364 434
#     4  11  23  45  70 105 137 183 231 304 360 439
#
# _framework density 22.370951999999999
#
# number of rings (size 3 to 8) (size 9 to 14) (size 15 to 20)
#    0.000    1.053    5.263    0.000    5.895    0.000 
#    0.000    3.158    0.000    0.000    0.000    0.000 
#    0.000    0.000    0.000    0.000    0.000    0.000 
#
# Total GULP energy -211604.307458 kJ/mol
# GULP energy per Si atom -5568.534407 kJ/mol
# Density = 2.232004 g / cm^3
# Si number density = 22.370952 Si / 1000 Ang^3
#
#
#
# Elastic Constant Matrix: (Units=GPa)
#
#
# Indices 1 2 3 4 5 6 
#
# 1 77.7104 44.8403 39.9542 0.0000 0.0000 0.0000
# 2 44.8403 110.7377 31.1672 0.0000 0.0000 0.0000
# 3 39.9542 31.1672 81.0659 0.0000 0.0000 0.0000
# 4 0.0000 0.0000 0.0000 50.2951 0.0000 0.0000
# 5 0.0000 0.0000 0.0000 0.0000 3.1948 0.0000
# 6 0.0000 0.0000 0.0000 0.0000 0.0000 13.0739
#
#
#
# Elastic Compliance Matrix: (Units=1/GPa)
#
#
# Indices 1 2 3 4 5 6 
#
# 1 0.020317 -0.006065 -0.007682 0.000000 0.000000 0.000000
# 2 -0.006065 0.011937 -0.001600 0.000000 0.000000 0.000000
# 3 -0.007682 -0.001600 0.016737 0.000000 0.000000 0.000000
# 4 0.000000 0.000000 0.000000 0.019883 0.000000 0.000000
# 5 0.000000 0.000000 0.000000 0.000000 0.313007 0.000000
# 6 0.000000 0.000000 0.000000 0.000000 0.000000 0.076488
#
#
# Mechanical properties :
#
#
# Convention : Reuss Voigt Hill
#
# Bulk Modulus (GPa) = 54.65338 55.71527 55.18433
# Shear Modulus (GPa) = 10.09771 23.54958 16.82365
#
# Velocity S-wave (km/s) = 2.12687 3.24803 2.74529
# Velocity P-wave (km/s) = 5.52403 6.24704 5.89663
#
# Compressibility (1/GPa) = 0.01829713
#
# Stress axis : x y z
#
# Youngs Moduli (GPa) = 49.21867 83.77651 59.74817
#
# Poissons Ratio (x) = 0.50810 0.45898
# Poissons Ratio (y) = 0.29851 0.09560
# Poissons Ratio (z) = 0.37809 0.13404
#
# Static dielectric constant tensor:
#      x y z
#    x 1.782160 0.000000 0.000000 
#    y 0.000000 1.852050 0.000000 
#    z 0.000000 0.000000 2.120430 
# 
# From -- ./inp_files/18608.got.cif
#   From: 2010.05.17/outbox.cif.g08.bks.cpg/sg53_10_cif.got.tgz:18608.got - 2010.06.03 12:45:16.
