data_PCOD9419344
_publ_section_title
;
Structure prediction by ZEFSAII (Michael W. Deem and Ramdas Pophale) SiO2 
 PCOD9419344
Probable space group: P M N A
;
_chemical_formula_sum "Si O2"
_cell_formula_units_Z 40
_cell_length_a 9.577350
_cell_length_b 13.819197
_cell_length_c 12.847831
_cell_angle_alpha 90.000000
_cell_angle_beta 90.000000
_cell_angle_gamma 90.000000
_cell_volume 1700.426960
_symmetry_space_group_name_H-M "P M N A"
_symmetry_group_IT_number 53
_symmetry_cell_setting 'orthorhombic'
loop_
_space_group_symop_operation_xyz
x,y,z
1/2-x,-y,1/2+z
x,-y,-z
1/2-x,y,1/2-z
-x,-y,-z
1/2+x,y,1/2-z
-x,y,z
1/2+x,-y,1/2+z
loop_
_atom_site_type_symbol
_atom_site_label
_atom_site_fract_x
_atom_site_fract_y
_atom_site_fract_z
Si Si1 0.667520 0.223068 0.648213
Si Si2 0.163300 0.287689 0.085655
Si Si3 0.250000 0.871642 0.750000
Si Si4 0.276732 0.492385 0.115682
Si Si5 0.000000 0.455611 0.792730
Si Si6 0.848300 0.039774 0.616421
O O1 0.750000 0.262046 0.750000
O O2 0.500000 0.235053 0.663983
O O3 0.703664 0.263215 0.533559
O O4 0.720960 0.111945 0.640224
O O5 0.185271 0.196177 0.161106
O O6 0.247675 0.378072 0.129589
O O7 0.000000 0.313329 0.088466
O O8 0.348564 0.946655 0.809991
O O9 0.380727 0.529924 0.202014
O O10 0.126486 0.545165 0.120884
O O11 0.334384 0.500000 0.000000
O O12 0.000000 0.090921 0.626298
O O13 0.834325 0.000000 0.500000
#
# Coordination Sequence:
#
# PCOD9419344 Si02
#       6
#     8   8   4   8   4   8
#     4  11  24  44  63  89 131 180 233 282 339 410
#     4  11  25  42  65 100 138 180 225 280 348 402
#     4  12  22  40  68 100 134 174 224 286 342 402
#     4  11  23  46  71 105 144 180 229 286 344 419
#     4  10  22  42  74 104 134 180 226 280 348 410
#     4  11  23  40  62  96 131 172 223 276 343 405
#
# _framework density 23.523503999999999
#
# number of rings (size 3 to 8) (size 9 to 14) (size 15 to 20)
#    0.000    1.000    4.000    3.000    0.000    1.200 
#    9.000    0.000    0.000    0.000    0.000    0.000 
#    0.000    0.000    0.000    0.000    0.000    0.000 
#
# Total GULP energy -222779.081716 kJ/mol
# GULP energy per Si atom -5569.477043 kJ/mol
# Density = 2.346996 g / cm^3
# Si number density = 23.523504 Si / 1000 Ang^3
#
#
#
# Elastic Constant Matrix: (Units=GPa)
#
#
# Indices 1 2 3 4 5 6 
#
# 1 132.3772 10.3693 30.5378 0.0000 0.0000 0.0000
# 2 10.3693 90.9330 35.6299 0.0000 0.0000 0.0000
# 3 30.5378 35.6299 182.3062 0.0000 0.0000 0.0000
# 4 0.0000 0.0000 0.0000 15.1786 0.0000 0.0000
# 5 0.0000 0.0000 0.0000 0.0000 55.0852 0.0000
# 6 0.0000 0.0000 0.0000 0.0000 0.0000 8.8957
#
#
#
# Elastic Compliance Matrix: (Units=1/GPa)
#
#
# Indices 1 2 3 4 5 6 
#
# 1 0.007872 -0.000413 -0.001238 0.000000 0.000000 0.000000
# 2 -0.000413 0.011931 -0.002263 0.000000 0.000000 0.000000
# 3 -0.001238 -0.002263 0.006135 0.000000 0.000000 0.000000
# 4 0.000000 0.000000 0.000000 0.065882 0.000000 0.000000
# 5 0.000000 0.000000 0.000000 0.000000 0.018154 0.000000
# 6 0.000000 0.000000 0.000000 0.000000 0.000000 0.112413
#
#
# Mechanical properties :
#
#
# Convention : Reuss Voigt Hill
#
# Bulk Modulus (GPa) = 55.21442 62.07673 58.64557
# Shear Modulus (GPa) = 21.16399 37.77054 29.46727
#
# Velocity S-wave (km/s) = 3.00275 4.01140 3.54315
# Velocity P-wave (km/s) = 5.96196 6.92110 6.45936
#
# Compressibility (1/GPa) = 0.01811121
#
# Stress axis : x y z
#
# Youngs Moduli (GPa) = 127.03125 83.81729 163.00284
#
# Poissons Ratio (x) = 0.03458 0.20180
# Poissons Ratio (y) = 0.05241 0.36881
# Poissons Ratio (z) = 0.15726 0.18965
#
# Static dielectric constant tensor:
#      x y z
#    x 1.870290 0.000000 0.000000 
#    y 0.000000 1.972630 0.000000 
#    z 0.000000 0.000000 1.868090 
# 
# From -- ./inp_files/19938.got.cif
#   From: 2010.05.17/outbox.cif.g08.bks.cpg/sg53_10_cif.got.tgz:19938.got - 2010.06.03 12:45:16.
