data_PCOD9419305
_publ_section_title
;
Structure prediction by ZEFSAII (Michael W. Deem and Ramdas Pophale) SiO2 
 PCOD9419305
Probable space group: P M N A
;
_chemical_formula_sum "Si O2"
_cell_formula_units_Z 58
_cell_length_a 14.995397
_cell_length_b 19.093480
_cell_length_c 11.062470
_cell_angle_alpha 90.000000
_cell_angle_beta 90.000000
_cell_angle_gamma 90.000000
_cell_volume 3167.343495
_symmetry_space_group_name_H-M "P M N A"
_symmetry_group_IT_number 53
_symmetry_cell_setting 'orthorhombic'
loop_
_space_group_symop_operation_xyz
x,y,z
1/2-x,-y,1/2+z
x,-y,-z
1/2-x,y,1/2-z
-x,-y,-z
1/2+x,y,1/2-z
-x,y,z
1/2+x,-y,1/2+z
loop_
_atom_site_type_symbol
_atom_site_label
_atom_site_fract_x
_atom_site_fract_y
_atom_site_fract_z
Si Si1 0.142091 0.094858 0.131000
Si Si2 0.850186 0.064884 0.409814
Si Si3 0.399664 0.748024 0.544673
Si Si4 0.101470 0.784242 0.505257
Si Si5 0.734217 0.307389 0.887846
Si Si6 0.854313 0.676964 0.719759
Si Si7 0.397232 0.582127 0.986374
Si Si8 0.000000 0.000000 0.000000
O O1 0.243668 0.074121 0.102720
O O2 0.119251 0.068986 0.268436
O O3 0.131142 0.177946 0.104982
O O4 0.076894 0.055673 0.041728
O O5 0.889053 0.134375 0.470173
O O6 0.870364 0.000000 0.500000
O O7 0.500000 0.756158 0.494008
O O8 0.324955 0.717029 0.454580
O O9 0.402026 0.694888 0.656691
O O10 0.167687 0.758462 0.402074
O O11 0.130055 0.740903 0.625292
O O12 0.000000 0.765884 0.478119
O O13 0.750000 0.324627 0.750000
O O14 0.678384 0.371055 0.948231
O O15 0.750000 0.671758 0.750000
O O16 0.889343 0.608695 0.651436
O O17 0.500000 0.595961 0.027095
O O18 0.380585 0.500000 0.000000
#
# Coordination Sequence:
#
# PCOD9419305 Si02
#       8
#     8   8   8   8   8   8   8   2
#     4  11  23  42  63  88 124 163 209 264 321 388
#     4  11  23  41  61  87 123 159 203 267 328 373
#     4  12  22  38  67  97 122 159 218 269 314 370
#     4  11  22  39  63  90 119 157 210 266 320 377
#     4  11  24  43  62  90 131 168 205 257 319 379
#     4  11  18  36  67  96 124 155 206 267 311 360
#     4  10  22  41  67  97 130 169 209 254 316 383
#     4  12  24  44  62  92 122 176 208 254 330 396
#
# _framework density 18.311876000000002
#
# number of rings (size 3 to 8) (size 9 to 14) (size 15 to 20)
#    0.000    0.966    6.897    2.483    0.966    1.931 
#    4.966    0.000    0.000    0.414    0.000    0.000 
#    0.000    0.000    0.000    0.000    0.000    0.000 
#
# Total GULP energy -322954.708313 kJ/mol
# GULP energy per Si atom -5568.184626 kJ/mol
# Density = 1.827020 g / cm^3
# Si number density = 18.311876 Si / 1000 Ang^3
#
#
#
# Elastic Constant Matrix: (Units=GPa)
#
#
# Indices 1 2 3 4 5 6 
#
# 1 116.5323 29.3718 28.9471 0.0000 0.0000 0.0000
# 2 29.3718 129.7401 42.8687 0.0000 0.0000 0.0000
# 3 28.9471 42.8687 73.4665 0.0000 0.0000 0.0000
# 4 0.0000 0.0000 0.0000 17.8071 0.0000 0.0000
# 5 0.0000 0.0000 0.0000 0.0000 0.0917 0.0000
# 6 0.0000 0.0000 0.0000 0.0000 0.0000 21.6286
#
#
#
# Elastic Compliance Matrix: (Units=1/GPa)
#
#
# Indices 1 2 3 4 5 6 
#
# 1 0.009649 -0.001150 -0.003131 0.000000 0.000000 0.000000
# 2 -0.001150 0.009686 -0.005199 0.000000 0.000000 0.000000
# 3 -0.003131 -0.005199 0.017879 0.000000 0.000000 0.000000
# 4 0.000000 0.000000 0.000000 0.056157 0.000000 0.000000
# 5 0.000000 0.000000 0.000000 0.000000 10.909945 0.000000
# 6 0.000000 0.000000 0.000000 0.000000 0.000000 0.046235
#
#
# Mechanical properties :
#
#
# Convention : Reuss Voigt Hill
#
# Bulk Modulus (GPa) = 54.78099 58.01270 56.39684
# Shear Modulus (GPa) = 0.45148 22.47556 11.46352
#
# Velocity S-wave (km/s) = 0.49708 3.50719 2.50474
# Velocity P-wave (km/s) = 5.50545 6.93900 6.26337
#
# Compressibility (1/GPa) = 0.01825451
#
# Stress axis : x y z
#
# Youngs Moduli (GPa) = 103.63920 103.24389 55.93228
#
# Poissons Ratio (x) = 0.11872 0.17511
# Poissons Ratio (y) = 0.11918 0.29078
# Poissons Ratio (z) = 0.32448 0.53674
#
# Static dielectric constant tensor:
#      x y z
#    x 1.664850 0.000000 0.000000 
#    y 0.000000 1.628220 0.000000 
#    z 0.000000 0.000000 1.643760 
# 
# From -- ./inp_files/16177.got.cif
#   From: 2010.05.17/outbox.cif.g08.bks.cpg/sg53_9_cif.got.tgz:16177.got - 2010.06.03 12:45:16.
