data_PCOD9419263
_publ_section_title
;
Structure prediction by ZEFSAII (Michael W. Deem and Ramdas Pophale) SiO2 
 PCOD9419263
Probable space group: P M N A
;
_chemical_formula_sum "Si O2"
_cell_formula_units_Z 40
_cell_length_a 18.281486
_cell_length_b 5.170423
_cell_length_c 18.716050
_cell_angle_alpha 90.000000
_cell_angle_beta 90.000000
_cell_angle_gamma 90.000000
_cell_volume 1769.097488
_symmetry_space_group_name_H-M "P M N A"
_symmetry_group_IT_number 53
_symmetry_cell_setting 'orthorhombic'
loop_
_space_group_symop_operation_xyz
x,y,z
1/2-x,-y,1/2+z
x,-y,-z
1/2-x,y,1/2-z
-x,-y,-z
1/2+x,y,1/2-z
-x,y,z
1/2+x,-y,1/2+z
loop_
_atom_site_type_symbol
_atom_site_label
_atom_site_fract_x
_atom_site_fract_y
_atom_site_fract_z
Si Si1 0.084269 0.068617 0.690060
Si Si2 0.655126 0.775323 0.389575
Si Si3 0.791335 0.908737 0.583261
Si Si4 0.914111 0.575743 0.783347
Si Si5 0.234799 0.500000 0.000000
Si Si6 0.000000 0.235492 0.947732
O O1 0.139251 0.999259 0.627096
O O2 0.100108 0.860272 0.752752
O O3 0.000000 0.027875 0.668498
O O4 0.090595 0.357969 0.721034
O O5 0.646933 0.524160 0.338948
O O6 0.678916 0.707424 0.470147
O O7 0.569948 0.826563 0.397978
O O8 0.720008 0.977439 0.375345
O O9 0.780669 0.603999 0.566869
O O10 0.799320 0.000000 0.500000
O O11 0.000000 0.575275 0.808995
O O12 0.000000 0.500000 0.000000
O O13 0.000000 0.000000 0.000000
#
# Coordination Sequence:
#
# PCOD9419263 Si02
#       6
#     8   8   8   8   4   4
#     4  10  24  46  69  97 132 172 222 279 335 395
#     4  11  23  41  63  95 136 179 218 271 328 387
#     4  10  24  43  66  97 132 173 222 286 333 394
#     4  10  23  43  67  96 133 172 219 272 324 398
#     4  10  22  41  61  94 134 168 224 278 319 387
#     4  12  24  38  64  96 132 180 227 259 320 396
#
# _framework density 22.610401
#
# number of rings (size 3 to 8) (size 9 to 14) (size 15 to 20)
#    0.000    1.600    2.000    1.800    8.400    1.200 
#    0.000    0.500    0.000    0.000    0.000    0.000 
#    0.000    0.000    0.000    0.000    0.000    0.000 
#
# Total GULP energy -222671.862382 kJ/mol
# GULP energy per Si atom -5566.796560 kJ/mol
# Density = 2.255894 g / cm^3
# Si number density = 22.610401 Si / 1000 Ang^3
#
#
#
# Elastic Constant Matrix: (Units=GPa)
#
#
# Indices 1 2 3 4 5 6 
#
# 1 121.1981 13.3930 47.7740 0.0000 0.0000 0.0000
# 2 13.3930 66.7187 4.8471 0.0000 0.0000 0.0000
# 3 47.7740 4.8471 62.2189 0.0000 0.0000 0.0000
# 4 0.0000 0.0000 0.0000 32.7169 0.0000 0.0000
# 5 0.0000 0.0000 0.0000 0.0000 54.5384 0.0000
# 6 0.0000 0.0000 0.0000 0.0000 0.0000 20.5895
#
#
#
# Elastic Compliance Matrix: (Units=1/GPa)
#
#
# Indices 1 2 3 4 5 6 
#
# 1 0.012033 -0.001754 -0.009103 0.000000 0.000000 0.000000
# 2 -0.001754 0.015329 0.000153 0.000000 0.000000 0.000000
# 3 -0.009103 0.000153 0.023050 0.000000 0.000000 0.000000
# 4 0.000000 0.000000 0.000000 0.030565 0.000000 0.000000
# 5 0.000000 0.000000 0.000000 0.000000 0.018336 0.000000
# 6 0.000000 0.000000 0.000000 0.000000 0.000000 0.048569
#
#
# Mechanical properties :
#
#
# Convention : Reuss Voigt Hill
#
# Bulk Modulus (GPa) = 34.47829 42.46264 38.47046
# Shear Modulus (GPa) = 27.93958 33.84372 30.89165
#
# Velocity S-wave (km/s) = 3.51906 3.87307 3.70030
# Velocity P-wave (km/s) = 5.63859 6.23072 5.94203
#
# Compressibility (1/GPa) = 0.02900376
#
# Stress axis : x y z
#
# Youngs Moduli (GPa) = 83.10561 65.23436 43.38443
#
# Poissons Ratio (x) = 0.11443 0.39491
# Poissons Ratio (y) = 0.14578 -0.00662
# Poissons Ratio (z) = 0.75648 -0.00996
#
# Static dielectric constant tensor:
#      x y z
#    x 1.827860 0.000000 0.000000 
#    y 0.000000 2.176570 0.000000 
#    z 0.000000 0.000000 1.644410 
# 
# From -- ./inp_files/29236.got.cif
#   From: 2010.05.17/outbox.cif.g08.bks.cpg/sg53_15_cif.got.tgz:29236.got - 2010.06.03 12:45:16.
