data_PCOD9419371
_publ_section_title
;
Structure prediction by ZEFSAII (Michael W. Deem and Ramdas Pophale) SiO2 
 PCOD9419371
Probable space group: P M N A
;
_chemical_formula_sum "Si O2"
_cell_formula_units_Z 48
_cell_length_a 17.571840
_cell_length_b 9.503711
_cell_length_c 13.996269
_cell_angle_alpha 90.000000
_cell_angle_beta 90.000000
_cell_angle_gamma 90.000000
_cell_volume 2337.344579
_symmetry_space_group_name_H-M "P M N A"
_symmetry_group_IT_number 53
_symmetry_cell_setting 'orthorhombic'
loop_
_space_group_symop_operation_xyz
x,y,z
1/2-x,-y,1/2+z
x,-y,-z
1/2-x,y,1/2-z
-x,-y,-z
1/2+x,y,1/2-z
-x,y,z
1/2+x,-y,1/2+z
loop_
_atom_site_type_symbol
_atom_site_label
_atom_site_fract_x
_atom_site_fract_y
_atom_site_fract_z
Si Si1 0.371172 0.860464 0.945423
Si Si2 0.082744 0.750283 0.757465
Si Si3 0.840911 0.784746 0.090007
Si Si4 0.192986 0.898621 0.887997
Si Si5 0.415453 0.582474 0.261342
Si Si6 0.318020 0.626357 0.075925
O O1 0.412806 0.797035 0.853315
O O2 0.282250 0.887488 0.913777
O O3 0.370071 0.741122 0.025002
O O4 0.398833 0.000000 0.000000
O O5 0.159460 0.811819 0.801612
O O6 0.084148 0.584548 0.781175
O O7 0.000000 0.804249 0.793967
O O8 0.897929 0.686637 0.149919
O O9 0.764056 0.694530 0.090361
O O10 0.826509 0.938968 0.134353
O O11 0.852143 0.832172 0.979542
O O12 0.500000 0.617664 0.224858
O O13 0.353403 0.594967 0.178223
O O14 0.312043 0.500000 0.000000
#
# Coordination Sequence:
#
# PCOD9419371 Si02
#       6
#     8   8   8   8   8   8
#     4  11  22  42  67  94 125 163 212 269 316 369
#     4  11  26  42  61  93 132 171 209 256 319 384
#     4  10  23  42  67  95 123 160 214 265 316 373
#     4  10  22  44  66  93 125 161 210 269 315 367
#     4  11  26  42  60  94 133 170 209 257 317 383
#     4  11  22  40  68  95 122 165 212 261 317 375
#
# _framework density 20.536124999999998
#
# number of rings (size 3 to 8) (size 9 to 14) (size 15 to 20)
#    0.000    1.333    5.000    1.000    7.000    5.333 
#    0.000    3.333    0.000    0.000    0.000    0.000 
#    0.000    0.000    0.000    0.000    0.000    0.000 
#
# Total GULP energy -267523.940949 kJ/mol
# GULP energy per Si atom -5573.415436 kJ/mol
# Density = 2.048938 g / cm^3
# Si number density = 20.536125 Si / 1000 Ang^3
#
#
#
# Elastic Constant Matrix: (Units=GPa)
#
#
# Indices 1 2 3 4 5 6 
#
# 1 39.6594 21.4756 10.4597 0.0000 0.0000 0.0000
# 2 21.4756 118.2197 26.7832 0.0000 0.0000 0.0000
# 3 10.4597 26.7832 43.9560 0.0000 0.0000 0.0000
# 4 0.0000 0.0000 0.0000 33.2455 0.0000 0.0000
# 5 0.0000 0.0000 0.0000 0.0000 -16.1730 0.0000
# 6 0.0000 0.0000 0.0000 0.0000 0.0000 -66.1681
#
#
#
# Elastic Compliance Matrix: (Units=1/GPa)
#
#
# Indices 1 2 3 4 5 6 
#
# 1 0.028627 -0.004243 -0.004227 0.000000 0.000000 0.000000
# 2 -0.004243 0.010442 -0.005353 0.000000 0.000000 0.000000
# 3 -0.004227 -0.005353 0.027018 0.000000 0.000000 0.000000
# 4 0.000000 0.000000 0.000000 0.030079 0.000000 0.000000
# 5 0.000000 0.000000 0.000000 0.000000 -0.061831 0.000000
# 6 0.000000 0.000000 0.000000 0.000000 0.000000 -0.015113
#
#
# Mechanical properties :
#
#
# Convention : Reuss Voigt Hill
#
# Bulk Modulus (GPa) = 26.01354 35.47466 30.74410
# Shear Modulus (GPa) = 83.77881 -0.27803 41.75039
#
# Velocity S-wave (km/s) = 6.39409 -0.36834 4.51380
# Velocity P-wave (km/s) = 8.19800 4.13895 6.49377
#
# Compressibility (1/GPa) = 0.03844152
#
# Stress axis : x y z
#
# Youngs Moduli (GPa) = 34.93218 95.76418 37.01290
#
# Poissons Ratio (x) = 0.40630 0.15645
# Poissons Ratio (y) = 0.14821 0.19813
# Poissons Ratio (z) = 0.14765 0.51264
#
# Static dielectric constant tensor:
#      x y z
#    x 1.719420 0.000000 0.000000 
#    y 0.000000 1.871440 0.000000 
#    z 0.000000 0.000000 1.660120 
# 
# From -- ./inp_files/23685.got.cif
#   From: 2010.05.17/outbox.cif.g08.bks.cpg/sg53_12_cif.got.tgz:23685.got - 2010.06.03 12:45:16.
