data_PCOD9419173
_publ_section_title
;
Structure prediction by ZEFSAII (Michael W. Deem and Ramdas Pophale) SiO2 
 PCOD9419173
Probable space group: P M N A
;
_chemical_formula_sum "Si O2"
_cell_formula_units_Z 48
_cell_length_a 10.265831
_cell_length_b 15.373856
_cell_length_c 17.008595
_cell_angle_alpha 90.000000
_cell_angle_beta 90.000000
_cell_angle_gamma 90.000000
_cell_volume 2684.388437
_symmetry_space_group_name_H-M "P M N A"
_symmetry_group_IT_number 53
_symmetry_cell_setting 'orthorhombic'
loop_
_space_group_symop_operation_xyz
x,y,z
1/2-x,-y,1/2+z
x,-y,-z
1/2-x,y,1/2-z
-x,-y,-z
1/2+x,y,1/2-z
-x,y,z
1/2+x,-y,1/2+z
loop_
_atom_site_type_symbol
_atom_site_label
_atom_site_fract_x
_atom_site_fract_y
_atom_site_fract_z
Si Si1 0.258446 0.232663 0.066450
Si Si2 0.000000 0.008532 0.594489
Si Si3 0.846930 0.313658 0.682226
Si Si4 0.153192 0.399959 0.513900
Si Si5 0.500000 0.840814 0.647349
Si Si6 0.500000 0.181725 0.168090
Si Si7 0.268018 0.863092 0.098949
Si Si8 0.000000 0.034641 0.909854
O O1 0.125765 0.198026 0.103624
O O2 0.372236 0.223748 0.129969
O O3 0.260765 0.331077 0.034271
O O4 0.288750 0.172769 0.990008
O O5 0.000000 0.917312 0.637687
O O6 0.000000 0.000000 0.500000
O O7 0.126988 0.063193 0.616320
O O8 0.750000 0.344502 0.750000
O O9 0.837612 0.374220 0.605347
O O10 0.796103 0.218845 0.654550
O O11 0.000000 0.308406 0.704986
O O12 0.187083 0.500000 0.500000
O O13 0.000000 0.387164 0.491775
O O14 0.500000 0.815151 0.738393
O O15 0.500000 0.945823 0.640107
O O16 0.126412 0.906062 0.104402
O O17 0.000000 0.000000 0.000000
#
# Coordination Sequence:
#
# PCOD9419173 Si02
#       8
#     8   4   8   8   4   4   8   4
#     4  11  20  40  61  85 115 154 202 243 301 358
#     4  12  20  34  60  80 109 152 214 263 280 337
#     4  10  22  39  62  94 127 156 197 253 310 356
#     4   9  19  40  72  96 114 155 205 241 288 372
#     4  12  26  38  53  86 128 160 197 253 302 352
#     4  12  24  36  57  82 116 162 205 251 292 344
#     4  11  21  36  61  83 111 163 207 248 296 360
#     4  12  22  38  56  82 121 166 202 251 308 345
#
# _framework density 17.881167000000001
#
# number of rings (size 3 to 8) (size 9 to 14) (size 15 to 20)
#    0.000    1.167    5.000    2.000    1.167    1.333 
#    1.500    2.083    0.000    0.000    0.000    0.000 
#    0.000    0.000    0.000    0.000    0.000    0.000 
#
# Total GULP energy -268174.798840 kJ/mol
# GULP energy per Si atom -5586.974976 kJ/mol
# Density = 1.784047 g / cm^3
# Si number density = 17.881167 Si / 1000 Ang^3
#
#
#
# Elastic Constant Matrix: (Units=GPa)
#
#
# Indices 1 2 3 4 5 6 
#
# 1 103.7625 33.2739 22.9517 0.0000 0.0000 0.0000
# 2 33.2739 106.3453 23.9059 0.0000 0.0000 0.0000
# 3 22.9517 23.9059 73.2860 0.0000 0.0000 0.0000
# 4 0.0000 0.0000 0.0000 11.8235 0.0000 0.0000
# 5 0.0000 0.0000 0.0000 0.0000 24.8717 0.0000
# 6 0.0000 0.0000 0.0000 0.0000 0.0000 20.5963
#
#
#
# Elastic Compliance Matrix: (Units=1/GPa)
#
#
# Indices 1 2 3 4 5 6 
#
# 1 0.011133 -0.002913 -0.002536 0.000000 0.000000 0.000000
# 2 -0.002913 0.010910 -0.002646 0.000000 0.000000 0.000000
# 3 -0.002536 -0.002646 0.015303 0.000000 0.000000 0.000000
# 4 0.000000 0.000000 0.000000 0.084578 0.000000 0.000000
# 5 0.000000 0.000000 0.000000 0.000000 0.040206 0.000000
# 6 0.000000 0.000000 0.000000 0.000000 0.000000 0.048552
#
#
# Mechanical properties :
#
#
# Convention : Reuss Voigt Hill
#
# Bulk Modulus (GPa) = 47.27351 49.29518 48.28434
# Shear Modulus (GPa) = 21.37447 25.00912 23.19180
#
# Velocity S-wave (km/s) = 3.46115 3.74388 3.60529
# Velocity P-wave (km/s) = 6.51673 6.80565 6.66276
#
# Compressibility (1/GPa) = 0.02115349
#
# Stress axis : x y z
#
# Youngs Moduli (GPa) = 89.82678 91.66168 65.34778
#
# Poissons Ratio (x) = 0.26702 0.16574
# Poissons Ratio (y) = 0.26167 0.17294
# Poissons Ratio (z) = 0.22782 0.24258
#
# Static dielectric constant tensor:
#      x y z
#    x 1.622680 0.000000 0.000000 
#    y 0.000000 1.591010 0.000000 
#    z 0.000000 0.000000 1.615710 
# 
# From -- ./inp_files/26360.got.cif
#   From: 2010.05.17/outbox.cif.g08.bks.cpg/sg53_14_cif.got.tgz:26360.got - 2010.06.03 12:45:16.
