data_PCOD9419778
_publ_section_title
;
Structure prediction by ZEFSAII (Michael W. Deem and Ramdas Pophale) SiO2 
 PCOD9419778
Probable space group: P M N A
;
_chemical_formula_sum "Si O2"
_cell_formula_units_Z 28
_cell_length_a 17.654822
_cell_length_b 9.416968
_cell_length_c 8.697508
_cell_angle_alpha 90.000000
_cell_angle_beta 90.000000
_cell_angle_gamma 90.000000
_cell_volume 1446.003269
_symmetry_space_group_name_H-M "P M N A"
_symmetry_group_IT_number 53
_symmetry_cell_setting 'orthorhombic'
loop_
_space_group_symop_operation_xyz
x,y,z
1/2-x,-y,1/2+z
x,-y,-z
1/2-x,y,1/2-z
-x,-y,-z
1/2+x,y,1/2-z
-x,y,z
1/2+x,-y,1/2+z
loop_
_atom_site_type_symbol
_atom_site_label
_atom_site_fract_x
_atom_site_fract_y
_atom_site_fract_z
Si Si1 0.750000 0.829830 0.250000
Si Si2 0.500000 0.603160 0.143487
Si Si3 0.000000 0.161879 0.397906
Si Si4 0.375998 0.363681 0.606372
Si Si5 0.146757 0.000000 0.500000
Si Si6 0.000000 0.167938 0.046217
O O1 0.696555 0.723190 0.343351
O O2 0.800105 0.920706 0.373491
O O3 0.426118 0.585897 0.248048
O O4 0.500000 0.500000 0.000000
O O5 0.500000 0.754415 0.059149
O O6 0.083644 0.089955 0.405587
O O7 0.000000 0.213637 0.224064
O O8 0.361721 0.500000 0.500000
O O9 0.428252 0.246039 0.525851
O O10 0.000000 0.000000 0.000000
#
# Coordination Sequence:
#
# PCOD9419778 Si02
#       6
#     4   4   4   8   4   4
#     4  12  26  46  66 102 148 182 232 290 368 420
#     4  11  21  43  71  95 129 176 242 283 332 419
#     4  11  22  44  69 100 131 178 236 285 340 410
#     4  11  25  46  66 101 141 183 230 283 354 425
#     4  11  26  44  68 101 138 180 230 295 344 424
#     4  11  23  41  75 103 133 183 237 288 338 411
#
# _framework density 19.363720000000001
#
# number of rings (size 3 to 8) (size 9 to 14) (size 15 to 20)
#    0.000    0.857    2.857    5.143   10.000    1.143 
#    5.143    0.000    0.000    0.000    0.000    0.000 
#    0.000    0.000    0.000    0.000    0.000    0.000 
#
# Total GULP energy -155958.442874 kJ/mol
# GULP energy per Si atom -5569.944388 kJ/mol
# Density = 1.931965 g / cm^3
# Si number density = 19.363720 Si / 1000 Ang^3
#
#
#
# Elastic Constant Matrix: (Units=GPa)
#
#
# Indices 1 2 3 4 5 6 
#
# 1 182.7855 84.6152 80.2364 0.0000 0.0000 0.0000
# 2 84.6152 122.2304 63.7396 0.0000 0.0000 0.0000
# 3 80.2364 63.7396 140.9107 0.0000 0.0000 0.0000
# 4 0.0000 0.0000 0.0000 42.0716 0.0000 0.0000
# 5 0.0000 0.0000 0.0000 0.0000 -152.8639 0.0000
# 6 0.0000 0.0000 0.0000 0.0000 0.0000 -29.8444
#
#
#
# Elastic Compliance Matrix: (Units=1/GPa)
#
#
# Indices 1 2 3 4 5 6 
#
# 1 0.008921 -0.004615 -0.002992 0.000000 0.000000 0.000000
# 2 -0.004615 0.013095 -0.003295 0.000000 0.000000 0.000000
# 3 -0.002992 -0.003295 0.010291 0.000000 0.000000 0.000000
# 4 0.000000 0.000000 0.000000 0.023769 0.000000 0.000000
# 5 0.000000 0.000000 0.000000 0.000000 -0.006542 0.000000
# 6 0.000000 0.000000 0.000000 0.000000 0.000000 -0.033507
#
#
# Mechanical properties :
#
#
# Convention : Reuss Voigt Hill
#
# Bulk Modulus (GPa) = 95.22524 100.34545 97.78535
# Shear Modulus (GPa) = 120.97273 -13.63830 53.66721
#
# Velocity S-wave (km/s) = 7.91262 -2.65679 5.27025
# Velocity P-wave (km/s) = 11.52229 6.52093 9.36178
#
# Compressibility (1/GPa) = 0.01050142
#
# Stress axis : x y z
#
# Youngs Moduli (GPa) = 112.09821 76.36732 97.17341
#
# Poissons Ratio (x) = 0.35246 0.29073
# Poissons Ratio (y) = 0.51737 0.32021
# Poissons Ratio (z) = 0.33539 0.25165
#
# Static dielectric constant tensor:
#      x y z
#    x 1.623090 0.000000 0.000000 
#    y 0.000000 1.698780 0.000000 
#    z 0.000000 0.000000 1.794840 
# 
# From -- ./inp_files/9475.got.cif
#   From: 2010.05.17/outbox.cif.g08.bks.cpg/sg53_5_cif.got.tgz:9475.got - 2010.06.03 12:45:16.
