data_PCOD9419987
_publ_section_title
;
Structure prediction by ZEFSAII (Michael W. Deem and Ramdas Pophale) SiO2 
 PCOD9419987
Probable space group: P M N A
;
_chemical_formula_sum "Si O2"
_cell_formula_units_Z 36
_cell_length_a 20.730144
_cell_length_b 5.070941
_cell_length_c 17.584181
_cell_angle_alpha 90.000000
_cell_angle_beta 90.000000
_cell_angle_gamma 90.000000
_cell_volume 1848.472619
_symmetry_space_group_name_H-M "P M N A"
_symmetry_group_IT_number 53
_symmetry_cell_setting 'orthorhombic'
loop_
_space_group_symop_operation_xyz
x,y,z
1/2-x,-y,1/2+z
x,-y,-z
1/2-x,y,1/2-z
-x,-y,-z
1/2+x,y,1/2-z
-x,y,z
1/2+x,-y,1/2+z
loop_
_atom_site_type_symbol
_atom_site_label
_atom_site_fract_x
_atom_site_fract_y
_atom_site_fract_z
Si Si1 0.291112 0.515663 0.829791
Si Si2 0.102743 0.064779 0.169009
Si Si3 0.500000 0.248644 0.447579
Si Si4 0.240115 0.988448 0.091412
Si Si5 0.425496 0.560119 0.235508
O O1 0.250000 0.527596 0.750000
O O2 0.289141 0.798196 0.871687
O O3 0.362712 0.396212 0.816621
O O4 0.256444 0.307254 0.884200
O O5 0.061061 0.209635 0.105319
O O6 0.173833 0.053322 0.135490
O O7 0.090408 0.261889 0.238532
O O8 0.080640 0.774527 0.195944
O O9 0.500000 0.500000 0.500000
O O10 0.500000 0.000000 0.500000
O O11 0.235072 0.000000 0.000000
O O12 0.500000 0.575187 0.208215
#
# Coordination Sequence:
#
# PCOD9419987 Si02
#       5
#     8   8   4   8   8
#     4  12  23  42  70  92 127 173 217 268 322 380
#     4  12  22  39  61  88 129 171 207 257 318 380
#     4  12  24  36  52  82 130 180 207 234 303 390
#     4  12  25  42  65  98 131 166 214 270 327 383
#     4  12  23  40  65  93 126 163 217 268 319 376
#
# _framework density 19.475538
#
# number of rings (size 3 to 8) (size 9 to 14) (size 15 to 20)
#    0.000    0.000    6.667    4.667    0.000    1.778 
#    0.000    0.000    0.000    4.000    0.000    0.000 
#    0.000    0.000    0.000    0.000    0.000    0.000 
#
# Total GULP energy -200872.165291 kJ/mol
# GULP energy per Si atom -5579.782369 kJ/mol
# Density = 1.943121 g / cm^3
# Si number density = 19.475538 Si / 1000 Ang^3
#
#
#
# Elastic Constant Matrix: (Units=GPa)
#
#
# Indices 1 2 3 4 5 6 
#
# 1 117.4705 -5.0751 15.1136 0.0000 0.0000 0.0000
# 2 -5.0751 96.9917 8.8493 0.0000 0.0000 0.0000
# 3 15.1136 8.8493 28.9299 0.0000 0.0000 0.0000
# 4 0.0000 0.0000 0.0000 43.2577 0.0000 0.0000
# 5 0.0000 0.0000 0.0000 0.0000 26.1621 0.0000
# 6 0.0000 0.0000 0.0000 0.0000 0.0000 26.1192
#
#
#
# Elastic Compliance Matrix: (Units=1/GPa)
#
#
# Indices 1 2 3 4 5 6 
#
# 1 0.009210 0.000947 -0.005101 0.000000 0.000000 0.000000
# 2 0.000947 0.010704 -0.003769 0.000000 0.000000 0.000000
# 3 -0.005101 -0.003769 0.038384 0.000000 0.000000 0.000000
# 4 0.000000 0.000000 0.000000 0.023117 0.000000 0.000000
# 5 0.000000 0.000000 0.000000 0.000000 0.038223 0.000000
# 6 0.000000 0.000000 0.000000 0.000000 0.000000 0.038286
#
#
# Mechanical properties :
#
#
# Convention : Reuss Voigt Hill
#
# Bulk Modulus (GPa) = 23.55608 31.24088 27.39848
# Shear Modulus (GPa) = 26.60696 34.07478 30.34087
#
# Velocity S-wave (km/s) = 3.70019 4.18738 3.95130
# Velocity P-wave (km/s) = 5.51150 6.28131 5.90895
#
# Compressibility (1/GPa) = 0.04245188
#
# Stress axis : x y z
#
# Youngs Moduli (GPa) = 108.57729 93.42646 26.05240
#
# Poissons Ratio (x) = -0.08851 0.13290
# Poissons Ratio (y) = -0.10286 0.09819
# Poissons Ratio (z) = 0.55389 0.35213
#
# Static dielectric constant tensor:
#      x y z
#    x 1.641840 0.000000 0.000000 
#    y 0.000000 1.691980 0.000000 
#    z 0.000000 0.000000 1.766780 
# 
# From -- ./inp_files/24079.got.cif
#   From: 2010.05.17/outbox.cif.g08.bks.cpg/sg53_13_cif.got.tgz:24079.got - 2010.06.03 12:45:16.
