data_PCOD9419161
_publ_section_title
;
Structure prediction by ZEFSAII (Michael W. Deem and Ramdas Pophale) SiO2 
 PCOD9419161
Probable space group: P M N A
;
_chemical_formula_sum "Si O2"
_cell_formula_units_Z 34
_cell_length_a 7.779952
_cell_length_b 22.881521
_cell_length_c 9.225051
_cell_angle_alpha 90.000000
_cell_angle_beta 90.000000
_cell_angle_gamma 90.000000
_cell_volume 1642.217150
_symmetry_space_group_name_H-M "P M N A"
_symmetry_group_IT_number 53
_symmetry_cell_setting 'orthorhombic'
loop_
_space_group_symop_operation_xyz
x,y,z
1/2-x,-y,1/2+z
x,-y,-z
1/2-x,y,1/2-z
-x,-y,-z
1/2+x,y,1/2-z
-x,y,z
1/2+x,-y,1/2+z
loop_
_atom_site_type_symbol
_atom_site_label
_atom_site_fract_x
_atom_site_fract_y
_atom_site_fract_z
Si Si1 0.000000 0.500000 0.000000
Si Si2 0.198023 0.287649 0.087864
Si Si3 0.793050 0.057978 0.418700
Si Si4 0.794625 0.826403 0.417705
Si Si5 0.802952 0.416054 0.419972
O O1 0.154711 0.550171 0.005957
O O2 0.250000 0.268578 0.250000
O O3 0.297779 0.346773 0.049467
O O4 0.000000 0.305099 0.093336
O O5 0.223484 0.233955 0.980784
O O6 0.750000 0.056210 0.250000
O O7 0.728980 0.117542 0.492891
O O8 0.000000 0.058265 0.433064
O O9 0.728055 0.000000 0.500000
O O10 0.750000 0.833578 0.250000
O O11 0.000000 0.823786 0.433743
O O12 0.750000 0.423605 0.250000
O O13 0.000000 0.436345 0.439245
#
# Coordination Sequence:
#
# PCOD9419161 Si02
#       5
#     2   8   8   8   8
#     4  12  22  40  64  96 128 168 208 260 324 388
#     4  11  21  39  65  93 121 160 212 264 317 381
#     4  10  22  39  60  89 124 163 212 261 315 378
#     4  11  23  39  60  88 125 165 208 260 323 381
#     4  11  21  40  66  92 127 165 214 265 319 383
#
# _framework density 20.703716
#
# number of rings (size 3 to 8) (size 9 to 14) (size 15 to 20)
#    0.000    1.176    2.353    6.000    0.000    4.235 
#    0.000    1.176    0.000    0.000    0.000    0.000 
#    0.000    0.000    0.000    0.000    0.000    0.000 
#
# Total GULP energy -189522.193964 kJ/mol
# GULP energy per Si atom -5574.182175 kJ/mol
# Density = 2.065659 g / cm^3
# Si number density = 20.703716 Si / 1000 Ang^3
#
#
#
# Elastic Constant Matrix: (Units=GPa)
#
#
# Indices 1 2 3 4 5 6 
#
# 1 142.3885 28.3980 4.2786 0.0000 0.0000 0.0000
# 2 28.3980 123.9277 63.2784 0.0000 0.0000 0.0000
# 3 4.2786 63.2784 95.7999 0.0000 0.0000 0.0000
# 4 0.0000 0.0000 0.0000 -47.0918 0.0000 0.0000
# 5 0.0000 0.0000 0.0000 0.0000 21.3147 0.0000
# 6 0.0000 0.0000 0.0000 0.0000 0.0000 24.0499
#
#
#
# Elastic Compliance Matrix: (Units=1/GPa)
#
#
# Indices 1 2 3 4 5 6 
#
# 1 0.007450 -0.002319 0.001199 0.000000 0.000000 0.000000
# 2 -0.002319 0.012898 -0.008416 0.000000 0.000000 0.000000
# 3 0.001199 -0.008416 0.015944 0.000000 0.000000 0.000000
# 4 0.000000 0.000000 0.000000 -0.021235 0.000000 0.000000
# 5 0.000000 0.000000 0.000000 0.000000 0.046916 0.000000
# 6 0.000000 0.000000 0.000000 0.000000 0.000000 0.041580
#
#
# Mechanical properties :
#
#
# Convention : Reuss Voigt Hill
#
# Bulk Modulus (GPa) = 58.07416 61.55846 59.81631
# Shear Modulus (GPa) = 38.95182 17.39866 28.17524
#
# Velocity S-wave (km/s) = 4.34221 2.90205 3.69301
# Velocity P-wave (km/s) = 7.29731 6.40521 6.86577
#
# Compressibility (1/GPa) = 0.01721936
#
# Stress axis : x y z
#
# Youngs Moduli (GPa) = 134.23551 77.53206 62.72067
#
# Poissons Ratio (x) = 0.17983 -0.07522
# Poissons Ratio (y) = 0.31136 0.52784
# Poissons Ratio (z) = -0.16100 0.65249
#
# Static dielectric constant tensor:
#      x y z
#    x 1.762160 0.000000 0.000000 
#    y 0.000000 1.730320 0.000000 
#    z 0.000000 0.000000 1.709400 
# 
# From -- ./inp_files/6145.got.cif
#   From: 2010.05.17/outbox.cif.g08.bks.cpg/sg53_4_cif.got.tgz:6145.got - 2010.06.03 12:45:16.
