data_PCOD9419119
_publ_section_title
;
Structure prediction by ZEFSAII (Michael W. Deem and Ramdas Pophale) SiO2 
 PCOD9419119
Probable space group: P M N A
;
_chemical_formula_sum "Si O2"
_cell_formula_units_Z 32
_cell_length_a 18.433446
_cell_length_b 12.206712
_cell_length_c 7.338911
_cell_angle_alpha 90.000000
_cell_angle_beta 90.000000
_cell_angle_gamma 90.000000
_cell_volume 1651.341328
_symmetry_space_group_name_H-M "P M N A"
_symmetry_group_IT_number 53
_symmetry_cell_setting 'orthorhombic'
loop_
_space_group_symop_operation_xyz
x,y,z
1/2-x,-y,1/2+z
x,-y,-z
1/2-x,y,1/2-z
-x,-y,-z
1/2+x,y,1/2-z
-x,y,z
1/2+x,-y,1/2+z
loop_
_atom_site_type_symbol
_atom_site_label
_atom_site_fract_x
_atom_site_fract_y
_atom_site_fract_z
Si Si1 0.913591 0.125245 0.955927
Si Si2 0.663559 0.288347 0.268566
Si Si3 0.914488 0.738260 0.382846
Si Si4 0.167069 0.531660 0.286924
O O1 0.900476 0.157663 0.745784
O O2 0.000000 0.140618 0.989464
O O3 0.869237 0.207499 0.083149
O O4 0.895401 0.000000 0.000000
O O5 0.750000 0.277273 0.250000
O O6 0.650378 0.417366 0.313861
O O7 0.627342 0.261445 0.073673
O O8 0.887103 0.632443 0.269162
O O9 0.000000 0.729218 0.417958
O O10 0.164029 0.500000 0.500000
O O11 0.250000 0.565933 0.250000
#
# Coordination Sequence:
#
# PCOD9419119 Si02
#       4
#     8   8   8   8
#     4  10  23  42  61  85 119 159 205 248 291 349
#     4  10  22  39  59  89 121 158 196 246 302 353
#     4  10  22  38  62  90 120 159 198 245 298 353
#     4   9  20  34  57  86 120 155 192 240 303 359
#
# _framework density 19.378185999999999
#
# number of rings (size 3 to 8) (size 9 to 14) (size 15 to 20)
#    0.000    2.250    0.000    0.750   10.500    6.500 
#    4.500    6.250    0.000    0.000    0.000    0.000 
#    0.000    0.000    0.000    0.000    0.000    0.000 
#
# Total GULP energy -178692.833865 kJ/mol
# GULP energy per Si atom -5584.151058 kJ/mol
# Density = 1.933408 g / cm^3
# Si number density = 19.378186 Si / 1000 Ang^3
#
#
#
# Elastic Constant Matrix: (Units=GPa)
#
#
# Indices 1 2 3 4 5 6 
#
# 1 77.8841 51.9118 52.6651 0.0000 0.0000 0.0000
# 2 51.9118 66.9195 38.6556 0.0000 0.0000 0.0000
# 3 52.6651 38.6556 75.3135 0.0000 0.0000 0.0000
# 4 0.0000 0.0000 0.0000 24.8268 0.0000 0.0000
# 5 0.0000 0.0000 0.0000 0.0000 32.8374 0.0000
# 6 0.0000 0.0000 0.0000 0.0000 0.0000 18.4316
#
#
#
# Elastic Compliance Matrix: (Units=1/GPa)
#
#
# Indices 1 2 3 4 5 6 
#
# 1 0.035833 -0.018937 -0.015337 0.000000 0.000000 0.000000
# 2 -0.018937 0.031249 -0.002797 0.000000 0.000000 0.000000
# 3 -0.015337 -0.002797 0.025438 0.000000 0.000000 0.000000
# 4 0.000000 0.000000 0.000000 0.040279 0.000000 0.000000
# 5 0.000000 0.000000 0.000000 0.000000 0.030453 0.000000
# 6 0.000000 0.000000 0.000000 0.000000 0.000000 0.054255
#
#
# Mechanical properties :
#
#
# Convention : Reuss Voigt Hill
#
# Bulk Modulus (GPa) = 54.41337 56.28690 55.35014
# Shear Modulus (GPa) = 16.79120 20.34480 18.56800
#
# Velocity S-wave (km/s) = 2.94683 3.24370 3.09882
# Velocity P-wave (km/s) = 6.30231 6.56798 6.43652
#
# Compressibility (1/GPa) = 0.01837784
#
# Stress axis : x y z
#
# Youngs Moduli (GPa) = 27.90738 32.00108 39.31089
#
# Poissons Ratio (x) = 0.60601 0.60292
# Poissons Ratio (y) = 0.52849 0.10993
# Poissons Ratio (z) = 0.42803 0.08949
#
# Static dielectric constant tensor:
#      x y z
#    x 1.638130 0.000000 0.000000 
#    y 0.000000 1.692000 0.000000 
#    z 0.000000 0.000000 1.991560 
# 
# From -- ./inp_files/7984.got.cif
#   From: 2010.05.17/outbox.cif.g08.bks.cpg/sg53_4_cif.got.tgz:7984.got - 2010.06.03 12:45:16.
