data_PCOD9419418
_publ_section_title
;
Structure prediction by ZEFSAII (Michael W. Deem and Ramdas Pophale) SiO2 
 PCOD9419418
Probable space group: P M N A
;
_chemical_formula_sum "Si O2"
_cell_formula_units_Z 32
_cell_length_a 10.226356
_cell_length_b 11.370688
_cell_length_c 13.706339
_cell_angle_alpha 90.000000
_cell_angle_beta 90.000000
_cell_angle_gamma 90.000000
_cell_volume 1593.782741
_symmetry_space_group_name_H-M "P M N A"
_symmetry_group_IT_number 53
_symmetry_cell_setting 'orthorhombic'
loop_
_space_group_symop_operation_xyz
x,y,z
1/2-x,-y,1/2+z
x,-y,-z
1/2-x,y,1/2-z
-x,-y,-z
1/2+x,y,1/2-z
-x,y,z
1/2+x,-y,1/2+z
loop_
_atom_site_type_symbol
_atom_site_label
_atom_site_fract_x
_atom_site_fract_y
_atom_site_fract_z
Si Si1 0.000000 0.378672 0.945722
Si Si2 0.734858 0.304866 0.856369
Si Si3 0.500000 0.831375 0.601132
Si Si4 0.500000 0.515689 0.117078
Si Si5 0.000000 0.756808 0.673855
Si Si6 0.713051 0.874288 0.964084
O O1 0.872004 0.364337 0.881655
O O2 0.000000 0.500000 0.000000
O O3 0.000000 0.280063 0.029162
O O4 0.750000 0.247695 0.750000
O O5 0.625035 0.405494 0.855377
O O6 0.709181 0.212240 0.942460
O O7 0.500000 0.793028 0.713413
O O8 0.638272 0.892362 0.575191
O O9 0.500000 0.384907 0.162036
O O10 0.500000 0.500000 0.000000
O O11 0.874776 0.812500 0.618481
O O12 0.662182 0.000000 0.000000
#
# Coordination Sequence:
#
# PCOD9419418 Si02
#       6
#     4   8   4   4   4   8
#     4  10  23  40  60  92 130 167 210 258 314 387
#     4  11  24  40  64  96 128 171 213 262 323 380
#     4  10  25  42  65  97 128 167 213 262 322 377
#     4  12  23  43  63  94 138 167 205 270 321 381
#     4  12  25  41  67 100 128 170 213 261 325 382
#     4  11  24  46  67  93 130 170 218 268 315 374
#
# _framework density 20.078019999999999
#
# number of rings (size 3 to 8) (size 9 to 14) (size 15 to 20)
#    0.000    1.000    2.500    3.000    7.000    2.000 
#    0.000    0.000    0.000    0.000    0.000    0.000 
#    0.000    0.000    0.000    0.000    0.000    0.000 
#
# Total GULP energy -178891.543271 kJ/mol
# GULP energy per Si atom -5590.360727 kJ/mol
# Density = 2.003232 g / cm^3
# Si number density = 20.078020 Si / 1000 Ang^3
#
#
#
# Elastic Constant Matrix: (Units=GPa)
#
#
# Indices 1 2 3 4 5 6 
#
# 1 151.6496 51.5088 48.1744 0.0000 0.0000 0.0000
# 2 51.5088 97.2534 22.2665 0.0000 0.0000 0.0000
# 3 48.1744 22.2665 157.9416 0.0000 0.0000 0.0000
# 4 0.0000 0.0000 0.0000 14.4945 0.0000 0.0000
# 5 0.0000 0.0000 0.0000 0.0000 35.9028 0.0000
# 6 0.0000 0.0000 0.0000 0.0000 0.0000 15.6056
#
#
#
# Elastic Compliance Matrix: (Units=1/GPa)
#
#
# Indices 1 2 3 4 5 6 
#
# 1 0.008642 -0.004106 -0.002057 0.000000 0.000000 0.000000
# 2 -0.004106 0.012576 -0.000521 0.000000 0.000000 0.000000
# 3 -0.002057 -0.000521 0.007032 0.000000 0.000000 0.000000
# 4 0.000000 0.000000 0.000000 0.068992 0.000000 0.000000
# 5 0.000000 0.000000 0.000000 0.000000 0.027853 0.000000
# 6 0.000000 0.000000 0.000000 0.000000 0.000000 0.064080
#
#
# Mechanical properties :
#
#
# Convention : Reuss Voigt Hill
#
# Bulk Modulus (GPa) = 67.19014 72.30488 69.74751
# Shear Modulus (GPa) = 24.09585 32.19355 28.14470
#
# Velocity S-wave (km/s) = 3.46802 4.00862 3.74808
# Velocity P-wave (km/s) = 7.04084 7.58390 7.31741
#
# Compressibility (1/GPa) = 0.01488314
#
# Stress axis : x y z
#
# Youngs Moduli (GPa) = 115.70887 79.51373 142.20103
#
# Poissons Ratio (x) = 0.32651 0.29253
# Poissons Ratio (y) = 0.47514 0.07402
# Poissons Ratio (z) = 0.23803 0.04139
#
# Static dielectric constant tensor:
#      x y z
#    x 1.736790 0.000000 0.000000 
#    y 0.000000 1.661900 0.000000 
#    z 0.000000 0.000000 1.679710 
# 
# From -- ./inp_files/19669.got.cif
#   From: 2010.05.17/outbox.cif.g08.bks.cpg/sg53_10_cif.got.tgz:19669.got - 2010.06.03 12:45:16.
