data_PCOD9419024
_publ_section_title
;
Structure prediction by ZEFSAII (Michael W. Deem and Ramdas Pophale) SiO2 
 PCOD9419024
Probable space group: P M N A
;
_chemical_formula_sum "Si O2"
_cell_formula_units_Z 44
_cell_length_a 25.627714
_cell_length_b 8.452557
_cell_length_c 8.723766
_cell_angle_alpha 90.000000
_cell_angle_beta 90.000000
_cell_angle_gamma 90.000000
_cell_volume 1889.739690
_symmetry_space_group_name_H-M "P M N A"
_symmetry_group_IT_number 53
_symmetry_cell_setting 'orthorhombic'
loop_
_space_group_symop_operation_xyz
x,y,z
1/2-x,-y,1/2+z
x,-y,-z
1/2-x,y,1/2-z
-x,-y,-z
1/2+x,y,1/2-z
-x,y,z
1/2+x,-y,1/2+z
loop_
_atom_site_type_symbol
_atom_site_label
_atom_site_fract_x
_atom_site_fract_y
_atom_site_fract_z
Si Si1 0.288786 0.253180 0.870891
Si Si2 0.285672 0.843149 0.604565
Si Si3 0.132244 0.563260 0.177673
Si Si4 0.128519 0.000000 0.500000
Si Si5 0.441363 0.173345 0.550429
Si Si6 0.102067 0.242906 0.248878
O O1 0.250000 0.177547 0.750000
O O2 0.316779 0.388017 0.772569
O O3 0.332813 0.129100 0.923694
O O4 0.249120 0.284663 0.010074
O O5 0.250000 0.866812 0.750000
O O6 0.342470 0.794273 0.664088
O O7 0.290729 0.000000 0.500000
O O8 0.107427 0.427857 0.286078
O O9 0.138966 0.500000 0.000000
O O10 0.096166 0.719597 0.154190
O O11 0.096915 0.106877 0.376958
O O12 0.500000 0.160521 0.613180
O O13 0.441688 0.248150 0.381423
O O14 0.421484 0.000000 0.500000
#
# Coordination Sequence:
#
# PCOD9419024 Si02
#       6
#     8   8   8   4   8   8
#     4  12  23  41  63  90 136 181 235 283 339 405
#     4  12  22  38  64  97 135 187 240 284 337 400
#     4  10  24  43  63 100 137 177 224 294 354 420
#     4  12  24  40  63  94 132 192 229 290 336 410
#     4  10  21  42  74 103 128 169 227 292 358 427
#     4  11  23  41  62  96 138 179 233 281 348 410
#
# _framework density 23.283629000000001
#
# number of rings (size 3 to 8) (size 9 to 14) (size 15 to 20)
#    0.000    0.909    2.727    5.455    0.000    4.727 
#    8.182    0.455    0.000    1.091    0.000    8.909 
#    0.000    0.000    0.000    0.000    0.000    0.000 
#
# Total GULP energy -245275.876432 kJ/mol
# GULP energy per Si atom -5574.451737 kJ/mol
# Density = 2.323063 g / cm^3
# Si number density = 23.283629 Si / 1000 Ang^3
#
#
#
# Elastic Constant Matrix: (Units=GPa)
#
#
# Indices 1 2 3 4 5 6 
#
# 1 78.8209 19.2597 10.5260 0.0000 0.0000 0.0000
# 2 19.2597 98.6030 18.7737 0.0000 0.0000 0.0000
# 3 10.5260 18.7737 63.9751 0.0000 0.0000 0.0000
# 4 0.0000 0.0000 0.0000 38.4164 0.0000 0.0000
# 5 0.0000 0.0000 0.0000 0.0000 10.8750 0.0000
# 6 0.0000 0.0000 0.0000 0.0000 0.0000 0.5268
#
#
#
# Elastic Compliance Matrix: (Units=1/GPa)
#
#
# Indices 1 2 3 4 5 6 
#
# 1 0.013463 -0.002339 -0.001529 0.000000 0.000000 0.000000
# 2 -0.002339 0.011148 -0.002887 0.000000 0.000000 0.000000
# 3 -0.001529 -0.002887 0.016730 0.000000 0.000000 0.000000
# 4 0.000000 0.000000 0.000000 0.026031 0.000000 0.000000
# 5 0.000000 0.000000 0.000000 0.000000 0.091954 0.000000
# 6 0.000000 0.000000 0.000000 0.000000 0.000000 1.898414
#
#
# Mechanical properties :
#
#
# Convention : Reuss Voigt Hill
#
# Bulk Modulus (GPa) = 35.92932 37.61307 36.77119
# Shear Modulus (GPa) = 2.40324 22.81959 12.61141
#
# Velocity S-wave (km/s) = 1.01705 3.13400 2.32985
# Velocity P-wave (km/s) = 4.10413 5.41159 4.80256
#
# Compressibility (1/GPa) = 0.02783242
#
# Stress axis : x y z
#
# Youngs Moduli (GPa) = 74.28007 89.70166 59.77381
#
# Poissons Ratio (x) = 0.20977 0.09138
# Poissons Ratio (y) = 0.17370 0.17255
# Poissons Ratio (z) = 0.11356 0.25894
#
# Static dielectric constant tensor:
#      x y z
#    x 1.873870 0.000000 0.000000 
#    y 0.000000 2.121830 0.000000 
#    z 0.000000 0.000000 1.907700 
# 
# From -- ./inp_files/12918.got.cif
#   From: 2010.05.17/outbox.cif.g08.bks.cpg/sg53_7_cif.got.tgz:12918.got - 2010.06.03 12:45:16.
