data_PCOD9419023
_publ_section_title
;
Structure prediction by ZEFSAII (Michael W. Deem and Ramdas Pophale) SiO2 
 PCOD9419023
Probable space group: P M N A
;
_chemical_formula_sum "Si O2"
_cell_formula_units_Z 18
_cell_length_a 13.817128
_cell_length_b 11.119216
_cell_length_c 4.829566
_cell_angle_alpha 90.000000
_cell_angle_beta 90.000000
_cell_angle_gamma 90.000000
_cell_volume 741.993419
_symmetry_space_group_name_H-M "P M N A"
_symmetry_group_IT_number 53
_symmetry_cell_setting 'orthorhombic'
loop_
_space_group_symop_operation_xyz
x,y,z
1/2-x,-y,1/2+z
x,-y,-z
1/2-x,y,1/2-z
-x,-y,-z
1/2+x,y,1/2-z
-x,y,z
1/2+x,-y,1/2+z
loop_
_atom_site_type_symbol
_atom_site_label
_atom_site_fract_x
_atom_site_fract_y
_atom_site_fract_z
Si Si1 0.000000 0.000000 0.500000
Si Si2 0.108946 0.583328 0.766744
Si Si3 0.315201 0.169388 0.018796
O O1 0.086323 0.899466 0.447976
O O2 0.101995 0.500000 0.500000
O O3 0.154491 0.707585 0.672078
O O4 0.000000 0.612349 0.871595
O O5 0.158302 0.500000 0.000000
O O6 0.250000 0.101063 0.250000
O O7 0.250000 0.192362 0.750000
#
# Coordination Sequence:
#
# PCOD9419023 Si02
#       3
#     2   8   8
#     4  12  28  54  72 108 158 206 256 336 360 464
#     4  10  21  42  72 106 145 189 239 307 383 449
#     4  12  27  47  76 113 149 203 260 312 389 458
#
# _framework density 24.258977000000002
#
# number of rings (size 3 to 8) (size 9 to 14) (size 15 to 20)
#    0.000    0.889    2.222    4.000    0.000    7.111 
#    0.000    0.000    0.000    0.000    0.000    0.000 
#    0.000    0.000    0.000    0.000    0.000    0.000 
#
# Total GULP energy -100240.996243 kJ/mol
# GULP energy per Si atom -5568.944236 kJ/mol
# Density = 2.420376 g / cm^3
# Si number density = 24.258977 Si / 1000 Ang^3
#
#
#
# Elastic Constant Matrix: (Units=GPa)
#
#
# Indices 1 2 3 4 5 6 
#
# 1 222.1782 66.0585 45.2727 0.0000 0.0000 0.0000
# 2 66.0585 144.6336 33.5482 0.0000 0.0000 0.0000
# 3 45.2727 33.5482 140.2097 0.0000 0.0000 0.0000
# 4 0.0000 0.0000 0.0000 6.9278 0.0000 0.0000
# 5 0.0000 0.0000 0.0000 0.0000 20.9973 0.0000
# 6 0.0000 0.0000 0.0000 0.0000 0.0000 57.7170
#
#
#
# Elastic Compliance Matrix: (Units=1/GPa)
#
#
# Indices 1 2 3 4 5 6 
#
# 1 0.005399 -0.002182 -0.001221 0.000000 0.000000 0.000000
# 2 -0.002182 0.008203 -0.001258 0.000000 0.000000 0.000000
# 3 -0.001221 -0.001258 0.007827 0.000000 0.000000 0.000000
# 4 0.000000 0.000000 0.000000 0.144346 0.000000 0.000000
# 5 0.000000 0.000000 0.000000 0.000000 0.047625 0.000000
# 6 0.000000 0.000000 0.000000 0.000000 0.000000 0.017326
#
#
# Mechanical properties :
#
#
# Convention : Reuss Voigt Hill
#
# Bulk Modulus (GPa) = 82.60486 88.53114 85.56800
# Shear Modulus (GPa) = 20.48478 41.27124 30.87801
#
# Velocity S-wave (km/s) = 2.90904 4.12913 3.57157
# Velocity P-wave (km/s) = 6.73859 7.70106 7.23584
#
# Compressibility (1/GPa) = 0.01210582
#
# Stress axis : x y z
#
# Youngs Moduli (GPa) = 185.23366 121.91231 127.75631
#
# Poissons Ratio (x) = 0.26607 0.15599
# Poissons Ratio (y) = 0.40427 0.16071
# Poissons Ratio (z) = 0.22616 0.15336
#
# Static dielectric constant tensor:
#      x y z
#    x 1.974310 0.000000 0.000000 
#    y 0.000000 1.950570 0.000000 
#    z 0.000000 0.000000 1.957020 
# 
# From -- ./inp_files/927.got.cif
#   From: 2010.05.17/outbox.cif.g08.bks.cpg/sg53_1_cif.got.tgz:927.got - 2010.06.03 12:45:16.
