data_PCOD9419210
_publ_section_title
;
Structure prediction by ZEFSAII (Michael W. Deem and Ramdas Pophale) SiO2 
 PCOD9419210
Probable space group: P M N A
;
_chemical_formula_sum "Si O2"
_cell_formula_units_Z 48
_cell_length_a 15.596632
_cell_length_b 16.680973
_cell_length_c 9.709780
_cell_angle_alpha 90.000000
_cell_angle_beta 90.000000
_cell_angle_gamma 90.000000
_cell_volume 2526.164307
_symmetry_space_group_name_H-M "P M N A"
_symmetry_group_IT_number 53
_symmetry_cell_setting 'orthorhombic'
loop_
_space_group_symop_operation_xyz
x,y,z
1/2-x,-y,1/2+z
x,-y,-z
1/2-x,y,1/2-z
-x,-y,-z
1/2+x,y,1/2-z
-x,y,z
1/2+x,-y,1/2+z
loop_
_atom_site_type_symbol
_atom_site_label
_atom_site_fract_x
_atom_site_fract_y
_atom_site_fract_z
Si Si1 0.768618 0.424692 0.585538
Si Si2 0.905228 0.716787 0.478520
Si Si3 0.403675 0.348388 0.508049
Si Si4 0.850211 0.785850 0.218947
Si Si5 0.149059 0.225435 0.227240
Si Si6 0.896847 0.092292 0.015901
O O1 0.805046 0.500000 0.500000
O O2 0.750000 0.436112 0.750000
O O3 0.831972 0.349274 0.556510
O O4 0.675967 0.407604 0.517375
O O5 0.895977 0.786351 0.364920
O O6 0.892349 0.757582 0.625842
O O7 0.000000 0.680123 0.470036
O O8 0.500000 0.381518 0.508035
O O9 0.389694 0.290133 0.638822
O O10 0.389254 0.291070 0.377240
O O11 0.750000 0.775022 0.250000
O O12 0.863814 0.859358 0.116894
O O13 0.250000 0.237678 0.250000
O O14 0.134450 0.140277 0.151482
O O15 0.000000 0.096553 0.016941
O O16 0.870714 0.000000 0.000000
#
# Coordination Sequence:
#
# PCOD9419210 Si02
#       6
#     8   8   8   8   8   8
#     4  12  27  44  63  93 128 166 204 261 321 372
#     4  12  22  39  65  93 124 161 210 263 312 364
#     4  11  21  41  66  88 119 165 213 250 303 379
#     4  11  19  38  64  90 118 160 211 255 305 367
#     4  11  21  38  64  93 123 161 210 262 303 369
#     4  10  22  40  60  89 129 169 210 254 305 373
#
# _framework density 19.001138000000001
#
# number of rings (size 3 to 8) (size 9 to 14) (size 15 to 20)
#    0.000    0.833    5.000    5.000    2.333    1.333 
#    0.000    0.833    0.000    3.000    0.000    0.000 
#    0.000    0.000    0.000    0.000    0.000    0.000 
#
# Total GULP energy -267906.606869 kJ/mol
# GULP energy per Si atom -5581.387643 kJ/mol
# Density = 1.895789 g / cm^3
# Si number density = 19.001138 Si / 1000 Ang^3
#
#
#
# Elastic Constant Matrix: (Units=GPa)
#
#
# Indices 1 2 3 4 5 6 
#
# 1 128.3355 17.4436 18.7891 0.0000 0.0000 0.0000
# 2 17.4436 86.3974 40.6871 0.0000 0.0000 0.0000
# 3 18.7891 40.6871 154.9623 0.0000 0.0000 0.0000
# 4 0.0000 0.0000 0.0000 9.3251 0.0000 0.0000
# 5 0.0000 0.0000 0.0000 0.0000 18.0520 0.0000
# 6 0.0000 0.0000 0.0000 0.0000 0.0000 19.3590
#
#
#
# Elastic Compliance Matrix: (Units=1/GPa)
#
#
# Indices 1 2 3 4 5 6 
#
# 1 0.008065 -0.001333 -0.000628 0.000000 0.000000 0.000000
# 2 -0.001333 0.013428 -0.003364 0.000000 0.000000 0.000000
# 3 -0.000628 -0.003364 0.007413 0.000000 0.000000 0.000000
# 4 0.000000 0.000000 0.000000 0.107237 0.000000 0.000000
# 5 0.000000 0.000000 0.000000 0.000000 0.055396 0.000000
# 6 0.000000 0.000000 0.000000 0.000000 0.000000 0.051656
#
#
# Mechanical properties :
#
#
# Convention : Reuss Voigt Hill
#
# Bulk Modulus (GPa) = 54.77599 58.17055 56.47327
# Shear Modulus (GPa) = 19.23607 28.86557 24.05082
#
# Velocity S-wave (km/s) = 3.18522 3.90186 3.56161
# Velocity P-wave (km/s) = 6.51290 7.14003 6.83366
#
# Compressibility (1/GPa) = 0.01825617
#
# Stress axis : x y z
#
# Youngs Moduli (GPa) = 123.99022 74.47299 134.90562
#
# Poissons Ratio (x) = 0.09924 0.08472
# Poissons Ratio (y) = 0.16523 0.45382
# Poissons Ratio (z) = 0.07787 0.25053
#
# Static dielectric constant tensor:
#      x y z
#    x 1.696930 0.000000 0.000000 
#    y 0.000000 1.654480 0.000000 
#    z 0.000000 0.000000 1.673020 
# 
# From -- ./inp_files/8623.got.cif
#   From: 2010.05.17/outbox.cif.g08.bks.cpg/sg53_5_cif.got.tgz:8623.got - 2010.06.03 12:45:16.
