data_PCOD9419205
_publ_section_title
;
Structure prediction by ZEFSAII (Michael W. Deem and Ramdas Pophale) SiO2 
 PCOD9419205
Probable space group: P M N A
;
_chemical_formula_sum "Si O2"
_cell_formula_units_Z 48
_cell_length_a 8.656695
_cell_length_b 15.865550
_cell_length_c 17.988206
_cell_angle_alpha 90.000000
_cell_angle_beta 90.000000
_cell_angle_gamma 90.000000
_cell_volume 2470.558266
_symmetry_space_group_name_H-M "P M N A"
_symmetry_group_IT_number 53
_symmetry_cell_setting 'orthorhombic'
loop_
_space_group_symop_operation_xyz
x,y,z
1/2-x,-y,1/2+z
x,-y,-z
1/2-x,y,1/2-z
-x,-y,-z
1/2+x,y,1/2-z
-x,y,z
1/2+x,-y,1/2+z
loop_
_atom_site_type_symbol
_atom_site_label
_atom_site_fract_x
_atom_site_fract_y
_atom_site_fract_z
Si Si1 0.686490 0.171859 0.098697
Si Si2 0.815646 0.707339 0.166014
Si Si3 0.816509 0.990922 0.829696
Si Si4 0.814652 0.862451 0.428139
Si Si5 0.813895 0.651972 0.666342
Si Si6 0.814270 0.532692 0.334322
O O1 0.500000 0.166098 0.105915
O O2 0.734390 0.266814 0.119395
O O3 0.762307 0.103727 0.152738
O O4 0.727644 0.148653 0.014320
O O5 0.750000 0.714237 0.250000
O O6 0.752625 0.784582 0.118320
O O7 0.757517 0.617804 0.133158
O O8 0.000000 0.708375 0.169302
O O9 0.750000 0.017983 0.750000
O O10 0.749498 0.052019 0.892835
O O11 0.000000 0.996374 0.828387
O O12 0.000000 0.862509 0.422513
O O13 0.750000 0.659480 0.750000
O O14 0.771531 0.559544 0.634336
O O15 0.000000 0.652708 0.670918
O O16 0.750000 0.530122 0.250000
O O17 0.000000 0.540835 0.333479
#
# Coordination Sequence:
#
# PCOD9419205 Si02
#       6
#     8   8   8   8   8   8
#     4  10  22  40  60  84 115 150 186 226 277 333
#     4  11  21  35  56  82 112 145 187 234 280 331
#     4  12  25  41  62  87 114 144 184 230 276 329
#     4  11  23  40  60  82 113 150 186 227 278 334
#     4   9  18  33  55  83 112 145 186 230 274 324
#     4   9  16  29  51  79 110 143 183 229 276 323
#
# _framework density 19.428808
#
# number of rings (size 3 to 8) (size 9 to 14) (size 15 to 20)
#    0.000    1.667    0.000    6.500    0.000    6.000 
#    0.000    0.833    0.000    5.000    0.000    0.000 
#    0.000    0.000    0.000    0.000    0.000    0.000 
#
# Total GULP energy -268141.873212 kJ/mol
# GULP energy per Si atom -5586.289025 kJ/mol
# Density = 1.938459 g / cm^3
# Si number density = 19.428808 Si / 1000 Ang^3
#
#
#
# Elastic Constant Matrix: (Units=GPa)
#
#
# Indices 1 2 3 4 5 6 
#
# 1 62.2731 15.6350 16.1771 0.0000 0.0000 0.0000
# 2 15.6350 95.9717 1.2777 0.0000 0.0000 0.0000
# 3 16.1771 1.2777 42.9868 0.0000 0.0000 0.0000
# 4 0.0000 0.0000 0.0000 -174.2070 0.0000 0.0000
# 5 0.0000 0.0000 0.0000 0.0000 10.6254 0.0000
# 6 0.0000 0.0000 0.0000 0.0000 0.0000 29.5228
#
#
#
# Elastic Compliance Matrix: (Units=1/GPa)
#
#
# Indices 1 2 3 4 5 6 
#
# 1 0.018590 -0.002937 -0.006909 0.000000 0.000000 0.000000
# 2 -0.002937 0.010888 0.000781 0.000000 0.000000 0.000000
# 3 -0.006909 0.000781 0.025840 0.000000 0.000000 0.000000
# 4 0.000000 0.000000 0.000000 -0.005740 0.000000 0.000000
# 5 0.000000 0.000000 0.000000 0.000000 0.094114 0.000000
# 6 0.000000 0.000000 0.000000 0.000000 0.000000 0.033872
#
#
# Mechanical properties :
#
#
# Convention : Reuss Voigt Hill
#
# Bulk Modulus (GPa) = 26.88893 29.71235 28.30064
# Shear Modulus (GPa) = 24.02828 -15.60232 4.21298
#
# Velocity S-wave (km/s) = 3.52054 -2.83689 1.47415
# Velocity P-wave (km/s) = 5.51320 2.14372 4.18276
#
# Compressibility (1/GPa) = 0.03719003
#
# Stress axis : x y z
#
# Youngs Moduli (GPa) = 53.79145 91.84639 38.70018
#
# Poissons Ratio (x) = 0.26972 0.26737
# Poissons Ratio (y) = 0.15796 -0.03024
# Poissons Ratio (z) = 0.37163 -0.07178
#
# Static dielectric constant tensor:
#      x y z
#    x 1.646680 0.000000 0.000000 
#    y 0.000000 1.711000 0.000000 
#    z 0.000000 0.000000 1.660360 
# 
# From -- ./inp_files/26212.got.cif
#   From: 2010.05.17/outbox.cif.g08.bks.cpg/sg53_14_cif.got.tgz:26212.got - 2010.06.03 12:45:16.
