data_PCOD9419509
_publ_section_title
;
Structure prediction by ZEFSAII (Michael W. Deem and Ramdas Pophale) SiO2 
 PCOD9419509
Probable space group: P M N A
;
_chemical_formula_sum "Si O2"
_cell_formula_units_Z 38
_cell_length_a 21.887459
_cell_length_b 5.248778
_cell_length_c 14.747888
_cell_angle_alpha 90.000000
_cell_angle_beta 90.000000
_cell_angle_gamma 90.000000
_cell_volume 1694.272964
_symmetry_space_group_name_H-M "P M N A"
_symmetry_group_IT_number 53
_symmetry_cell_setting 'orthorhombic'
loop_
_space_group_symop_operation_xyz
x,y,z
1/2-x,-y,1/2+z
x,-y,-z
1/2-x,y,1/2-z
-x,-y,-z
1/2+x,y,1/2-z
-x,y,z
1/2+x,-y,1/2+z
loop_
_atom_site_type_symbol
_atom_site_label
_atom_site_fract_x
_atom_site_fract_y
_atom_site_fract_z
Si Si1 0.892668 0.297085 0.077645
Si Si2 0.570544 0.747892 0.957670
Si Si3 0.128573 0.384285 0.284690
Si Si4 0.220978 0.000000 0.000000
Si Si5 0.202053 0.875996 0.327341
Si Si6 0.000000 0.000000 0.000000
O O1 0.887881 0.399898 0.179234
O O2 0.911731 0.500000 0.000000
O O3 0.945306 0.085316 0.071510
O O4 0.826147 0.192781 0.049116
O O5 0.500000 0.749992 0.986542
O O6 0.575247 0.716414 0.850512
O O7 0.600959 0.500000 0.000000
O O8 0.599371 0.000000 0.000000
O O9 0.150417 0.660810 0.318145
O O10 0.178381 0.160665 0.303221
O O11 0.263059 0.877348 0.077123
O O12 0.250000 0.801972 0.250000
#
# Coordination Sequence:
#
# PCOD9419509 Si02
#       6
#     8   8   8   4   8   2
#     4  11  25  49  73 107 147 191 244 309 371 446
#     4  10  23  46  68  99 138 181 231 293 354 418
#     4  12  27  44  73 105 142 184 247 293 361 433
#     4  11  26  45  72  98 147 194 237 306 360 432
#     4  12  26  46  67 104 141 191 236 292 361 426
#     4  10  26  48  76 110 144 192 250 294 394 442
#
# _framework density 22.428497
#
# number of rings (size 3 to 8) (size 9 to 14) (size 15 to 20)
#    0.000    0.842    2.105    3.474   11.789    0.000 
#    0.000    0.000    0.000    0.000    0.000    0.000 
#    0.000    0.000    0.000    0.000    0.000    0.000 
#
# Total GULP energy -211817.520215 kJ/mol
# GULP energy per Si atom -5574.145269 kJ/mol
# Density = 2.237745 g / cm^3
# Si number density = 22.428497 Si / 1000 Ang^3
#
#
#
# Elastic Constant Matrix: (Units=GPa)
#
#
# Indices 1 2 3 4 5 6 
#
# 1 58.7012 13.6217 20.0098 0.0000 0.0000 0.0000
# 2 13.6217 96.8704 43.7137 0.0000 0.0000 0.0000
# 3 20.0098 43.7137 180.6056 0.0000 0.0000 0.0000
# 4 0.0000 0.0000 0.0000 20.1935 0.0000 0.0000
# 5 0.0000 0.0000 0.0000 0.0000 27.4036 0.0000
# 6 0.0000 0.0000 0.0000 0.0000 0.0000 -28.3190
#
#
#
# Elastic Compliance Matrix: (Units=1/GPa)
#
#
# Indices 1 2 3 4 5 6 
#
# 1 0.017988 -0.001830 -0.001550 0.000000 0.000000 0.000000
# 2 -0.001830 0.011775 -0.002647 0.000000 0.000000 0.000000
# 3 -0.001550 -0.002647 0.006349 0.000000 0.000000 0.000000
# 4 0.000000 0.000000 0.000000 0.049521 0.000000 0.000000
# 5 0.000000 0.000000 0.000000 0.000000 0.036492 0.000000
# 6 0.000000 0.000000 0.000000 0.000000 0.000000 -0.035312
#
#
# Mechanical properties :
#
#
# Convention : Reuss Voigt Hill
#
# Bulk Modulus (GPa) = 41.56585 54.54082 48.05334
# Shear Modulus (GPa) = 46.77816 21.11107 33.94461
#
# Velocity S-wave (km/s) = 4.57185 3.07133 3.89454
# Velocity P-wave (km/s) = 6.81483 6.07847 6.45716
#
# Compressibility (1/GPa) = 0.02405821
#
# Stress axis : x y z
#
# Youngs Moduli (GPa) = 55.59118 84.92560 157.49506
#
# Poissons Ratio (x) = 0.15542 0.24413
# Poissons Ratio (y) = 0.10173 0.41693
# Poissons Ratio (z) = 0.08617 0.22482
#
# Static dielectric constant tensor:
#      x y z
#    x 1.835490 0.000000 0.000000 
#    y 0.000000 1.940540 0.000000 
#    z 0.000000 0.000000 1.835520 
# 
# From -- ./inp_files/24580.got.cif
#   From: 2010.05.17/outbox.cif.g08.bks.cpg/sg53_13_cif.got.tgz:24580.got - 2010.06.03 12:45:16.
