data_PCOD9419842
_publ_section_title
;
Structure prediction by ZEFSAII (Michael W. Deem and Ramdas Pophale) SiO2 
 PCOD9419842
Probable space group: P M N A
;
_chemical_formula_sum "Si O2"
_cell_formula_units_Z 48
_cell_length_a 14.393166
_cell_length_b 17.779627
_cell_length_c 8.824220
_cell_angle_alpha 90.000000
_cell_angle_beta 90.000000
_cell_angle_gamma 90.000000
_cell_volume 2258.163103
_symmetry_space_group_name_H-M "P M N A"
_symmetry_group_IT_number 53
_symmetry_cell_setting 'orthorhombic'
loop_
_space_group_symop_operation_xyz
x,y,z
1/2-x,-y,1/2+z
x,-y,-z
1/2-x,y,1/2-z
-x,-y,-z
1/2+x,y,1/2-z
-x,y,z
1/2+x,-y,1/2+z
loop_
_atom_site_type_symbol
_atom_site_label
_atom_site_fract_x
_atom_site_fract_y
_atom_site_fract_z
Si Si1 0.392681 0.698560 0.424967
Si Si2 0.821920 0.867565 0.111281
Si Si3 0.242502 0.579515 0.928474
Si Si4 0.108853 0.678937 0.431912
Si Si5 0.309732 0.818127 0.887735
Si Si6 0.000000 0.061720 0.736770
Si Si7 0.500000 0.893282 0.887932
O O1 0.500000 0.692141 0.468130
O O2 0.363331 0.785604 0.428139
O O3 0.330439 0.643740 0.524273
O O4 0.381462 0.675892 0.248796
O O5 0.750000 0.863842 0.250000
O O6 0.908548 0.917816 0.165282
O O7 0.754386 0.881907 0.967862
O O8 0.250000 0.572660 0.750000
O O9 0.215709 0.500000 0.000000
O O10 0.340573 0.607887 0.995430
O O11 0.160817 0.752987 0.495209
O O12 0.000000 0.684287 0.469519
O O13 0.250000 0.786060 0.750000
O O14 0.406578 0.852918 0.835133
O O15 0.000000 0.106606 0.574325
O O16 0.000000 0.976426 0.680468
#
# Coordination Sequence:
#
# PCOD9419842 Si02
#       7
#     8   8   8   8   8   4   4
#     4  11  22  40  71 102 131 180 235 293 348 420
#     4  12  21  40  73 103 134 181 249 285 349 428
#     4  12  26  45  67 101 145 183 229 287 354 423
#     4  11  22  41  70  98 134 180 237 288 351 417
#     4  12  25  43  69 104 139 188 237 297 351 428
#     4  11  24  43  71 105 134 189 234 301 360 433
#     4  11  24  47  67  97 150 181 234 297 371 421
#
# _framework density 21.256215000000001
#
# number of rings (size 3 to 8) (size 9 to 14) (size 15 to 20)
#    0.000    0.500    6.667    2.000    0.000    2.667 
#    0.000    0.833    0.000    0.000    0.000    0.000 
#    0.000    0.000    0.000    0.000    0.000    0.000 
#
# Total GULP energy -268532.647002 kJ/mol
# GULP energy per Si atom -5594.430146 kJ/mol
# Density = 2.120783 g / cm^3
# Si number density = 21.256215 Si / 1000 Ang^3
#
#
#
# Elastic Constant Matrix: (Units=GPa)
#
#
# Indices 1 2 3 4 5 6 
#
# 1 156.1667 32.2938 55.9162 0.0000 0.0000 0.0000
# 2 32.2938 62.9633 10.3567 0.0000 0.0000 0.0000
# 3 55.9162 10.3567 61.4037 0.0000 0.0000 0.0000
# 4 0.0000 0.0000 0.0000 25.0005 0.0000 0.0000
# 5 0.0000 0.0000 0.0000 0.0000 21.6529 0.0000
# 6 0.0000 0.0000 0.0000 0.0000 0.0000 19.2705
#
#
#
# Elastic Compliance Matrix: (Units=1/GPa)
#
#
# Indices 1 2 3 4 5 6 
#
# 1 0.010340 -0.003862 -0.008765 0.000000 0.000000 0.000000
# 2 -0.003862 0.017778 0.000518 0.000000 0.000000 0.000000
# 3 -0.008765 0.000518 0.024180 0.000000 0.000000 0.000000
# 4 0.000000 0.000000 0.000000 0.039999 0.000000 0.000000
# 5 0.000000 0.000000 0.000000 0.000000 0.046183 0.000000
# 6 0.000000 0.000000 0.000000 0.000000 0.000000 0.051893
#
#
# Mechanical properties :
#
#
# Convention : Reuss Voigt Hill
#
# Bulk Modulus (GPa) = 35.61136 53.07412 44.34274
# Shear Modulus (GPa) = 22.32637 25.31591 23.82114
#
# Velocity S-wave (km/s) = 3.24442 3.45481 3.35127
# Velocity P-wave (km/s) = 5.55201 6.39822 5.99008
#
# Compressibility (1/GPa) = 0.02808093
#
# Stress axis : x y z
#
# Youngs Moduli (GPa) = 96.70907 56.25007 41.35676
#
# Poissons Ratio (x) = 0.21723 0.36249
# Poissons Ratio (y) = 0.37347 -0.02143
# Poissons Ratio (z) = 0.84764 -0.02915
#
# Static dielectric constant tensor:
#      x y z
#    x 1.773590 0.000000 0.000000 
#    y 0.000000 1.753870 0.000000 
#    z 0.000000 0.000000 1.783500 
# 
# From -- ./inp_files/8719.got.cif
#   From: 2010.05.17/outbox.cif.g08.bks.cpg/sg53_5_cif.got.tgz:8719.got - 2010.06.03 12:45:16.
