data_PCOD9419392
_publ_section_title
;
Structure prediction by ZEFSAII (Michael W. Deem and Ramdas Pophale) SiO2 
 PCOD9419392
Probable space group: P M N A
;
_chemical_formula_sum "Si O2"
_cell_formula_units_Z 64
_cell_length_a 14.213398
_cell_length_b 21.581907
_cell_length_c 9.160882
_cell_angle_alpha 90.000000
_cell_angle_beta 90.000000
_cell_angle_gamma 90.000000
_cell_volume 2810.121017
_symmetry_space_group_name_H-M "P M N A"
_symmetry_group_IT_number 53
_symmetry_cell_setting 'orthorhombic'
loop_
_space_group_symop_operation_xyz
x,y,z
1/2-x,-y,1/2+z
x,-y,-z
1/2-x,y,1/2-z
-x,-y,-z
1/2+x,y,1/2-z
-x,y,z
1/2+x,-y,1/2+z
loop_
_atom_site_type_symbol
_atom_site_label
_atom_site_fract_x
_atom_site_fract_y
_atom_site_fract_z
Si Si1 0.607825 0.711968 0.527568
Si Si2 0.114337 0.595584 0.793531
Si Si3 0.858343 0.751956 0.280076
Si Si4 0.725137 0.836539 0.582401
Si Si5 0.890153 0.472155 0.666455
Si Si6 0.113155 0.644773 0.479415
Si Si7 0.395576 0.881056 0.123229
Si Si8 0.112914 0.938961 0.083809
O O1 0.500000 0.723238 0.583205
O O2 0.639899 0.644302 0.582076
O O3 0.604018 0.712047 0.353149
O O4 0.679637 0.767345 0.569231
O O5 0.146959 0.524168 0.778522
O O6 0.144087 0.627839 0.641669
O O7 0.000000 0.591933 0.796067
O O8 0.750000 0.763997 0.250000
O O9 0.868031 0.713738 0.427912
O O10 0.905600 0.818001 0.284158
O O11 0.750000 0.846869 0.750000
O O12 0.818766 0.858399 0.493629
O O13 0.647669 0.881363 0.511682
O O14 0.889240 0.500000 0.500000
O O15 0.847535 0.404574 0.638477
O O16 0.000000 0.463765 0.707306
O O17 0.000000 0.637107 0.481321
O O18 0.500000 0.897865 0.065766
O O19 0.361269 0.930397 0.244529
O O20 0.000000 0.940514 0.085058
O O21 0.148438 0.000000 0.000000
#
# Coordination Sequence:
#
# PCOD9419392 Si02
#       8
#     8   8   8   8   8   8   8   8
#     4  11  22  38  58  86 126 168 213 267 333 394
#     4   8  16  30  53  82 115 157 204 261 322 388
#     4  12  22  37  57  82 122 162 213 270 328 394
#     4  12  26  41  63  99 141 177 219 269 326 385
#     4   7  11  25  48  76 109 147 200 259 315 381
#     4   9  17  30  54  84 109 150 212 266 317 389
#     4  11  23  44  70  96 132 180 231 275 323 386
#     4  10  22  45  76 104 134 177 223 266 318 378
#
# _framework density 22.774819999999998
#
# number of rings (size 3 to 8) (size 9 to 14) (size 15 to 20)
#    0.000    2.000    2.500    3.375    1.750    2.000 
#    0.000    0.625    0.000   10.875    0.000    0.000 
#    0.000    0.000    0.000    0.000    0.000    3.500 
#
# Total GULP energy -356978.158085 kJ/mol
# GULP energy per Si atom -5577.783720 kJ/mol
# Density = 2.272298 g / cm^3
# Si number density = 22.774820 Si / 1000 Ang^3
#
#
#
# Elastic Constant Matrix: (Units=GPa)
#
#
# Indices 1 2 3 4 5 6 
#
# 1 94.2632 -0.2146 9.9630 0.0000 0.0000 0.0000
# 2 -0.2146 62.9755 14.0146 0.0000 0.0000 0.0000
# 3 9.9630 14.0146 78.6789 0.0000 0.0000 0.0000
# 4 0.0000 0.0000 0.0000 34.9297 0.0000 0.0000
# 5 0.0000 0.0000 0.0000 0.0000 19.6447 0.0000
# 6 0.0000 0.0000 0.0000 0.0000 0.0000 22.5423
#
#
#
# Elastic Compliance Matrix: (Units=1/GPa)
#
#
# Indices 1 2 3 4 5 6 
#
# 1 0.010760 0.000354 -0.001426 0.000000 0.000000 0.000000
# 2 0.000354 0.016546 -0.002992 0.000000 0.000000 0.000000
# 3 -0.001426 -0.002992 0.013423 0.000000 0.000000 0.000000
# 4 0.000000 0.000000 0.000000 0.028629 0.000000 0.000000
# 5 0.000000 0.000000 0.000000 0.000000 0.050904 0.000000
# 6 0.000000 0.000000 0.000000 0.000000 0.000000 0.044361
#
#
# Mechanical properties :
#
#
# Convention : Reuss Voigt Hill
#
# Bulk Modulus (GPa) = 30.67279 31.49373 31.08326
# Shear Modulus (GPa) = 27.23032 29.56699 28.39865
#
# Velocity S-wave (km/s) = 3.46154 3.60701 3.53502
# Velocity P-wave (km/s) = 5.42895 5.58620 5.50814
#
# Compressibility (1/GPa) = 0.03260219
#
# Stress axis : x y z
#
# Youngs Moduli (GPa) = 92.93614 60.43666 74.49690
#
# Poissons Ratio (x) = -0.02139 0.10620
# Poissons Ratio (y) = -0.03289 0.22290
# Poissons Ratio (z) = 0.13249 0.18083
#
# Static dielectric constant tensor:
#      x y z
#    x 1.915340 0.000000 0.000000 
#    y 0.000000 1.863180 0.000000 
#    z 0.000000 0.000000 1.853520 
# 
# From -- ./inp_files/8977.got.cif
#   From: 2010.05.17/outbox.cif.g08.bks.cpg/sg53_5_cif.got.tgz:8977.got - 2010.06.03 12:45:16.
