data_PCOD9419209
_publ_section_title
;
Structure prediction by ZEFSAII (Michael W. Deem and Ramdas Pophale) SiO2 
 PCOD9419209
Probable space group: P M N A
;
_chemical_formula_sum "Si O2"
_cell_formula_units_Z 64
_cell_length_a 15.143968
_cell_length_b 11.344413
_cell_length_c 17.033893
_cell_angle_alpha 90.000000
_cell_angle_beta 90.000000
_cell_angle_gamma 90.000000
_cell_volume 2926.413065
_symmetry_space_group_name_H-M "P M N A"
_symmetry_group_IT_number 53
_symmetry_cell_setting 'orthorhombic'
loop_
_space_group_symop_operation_xyz
x,y,z
1/2-x,-y,1/2+z
x,-y,-z
1/2-x,y,1/2-z
-x,-y,-z
1/2+x,y,1/2-z
-x,y,z
1/2+x,-y,1/2+z
loop_
_atom_site_type_symbol
_atom_site_label
_atom_site_fract_x
_atom_site_fract_y
_atom_site_fract_z
Si Si1 0.096467 0.156841 0.419187
Si Si2 0.315313 0.167329 0.822040
Si Si3 0.398483 0.239572 0.395921
Si Si4 0.599414 0.510177 0.405694
Si Si5 0.728554 0.879526 0.489030
Si Si6 0.594256 0.427144 0.079373
Si Si7 0.143879 0.075626 0.253781
Si Si8 0.224763 0.416565 0.661564
O O1 0.182110 0.105117 0.459977
O O2 0.098596 0.292056 0.443540
O O3 0.108434 0.152146 0.325810
O O4 0.000000 0.106460 0.439406
O O5 0.250000 0.188498 0.750000
O O6 0.259524 0.131383 0.899258
O O7 0.340249 0.302207 0.844672
O O8 0.375175 0.059692 0.787150
O O9 0.500000 0.230714 0.423141
O O10 0.386700 0.377123 0.371259
O O11 0.329744 0.217072 0.466594
O O12 0.385495 0.140699 0.326833
O O13 0.600352 0.500000 0.500000
O O14 0.500000 0.549774 0.382621
O O15 0.680800 0.593498 0.381813
O O16 0.674868 0.000000 0.500000
O O17 0.500000 0.447106 0.120400
O O18 0.675096 0.470393 0.129436
O O19 0.596579 0.500000 0.000000
O O20 0.250000 0.076762 0.250000
O O21 0.250000 0.437747 0.750000
#
# Coordination Sequence:
#
# PCOD9419209 Si02
#       8
#     8   8   8   8   8   8   8   8
#     4  11  23  38  63  94 125 168 218 270 328 393
#     4  10  22  42  63  90 125 174 214 266 328 396
#     4  11  24  40  67 101 133 177 225 276 342 409
#     4  10  22  41  65  98 136 172 219 277 333 399
#     4  12  21  40  65  90 124 166 216 278 328 388
#     4  10  22  40  60  87 125 166 211 264 317 383
#     4  11  21  42  64  91 134 169 217 269 329 386
#     4  11  23  37  62  91 124 167 214 255 325 388
#
# _framework density 21.869776000000002
#
# number of rings (size 3 to 8) (size 9 to 14) (size 15 to 20)
#    0.000    1.250    2.500    3.750    1.750    1.000 
#    0.000    1.250    0.000   12.750    0.000    0.000 
#    0.000    0.000    0.000    0.000    0.000    0.000 
#
# Total GULP energy -356553.344084 kJ/mol
# GULP energy per Si atom -5571.146001 kJ/mol
# Density = 2.182000 g / cm^3
# Si number density = 21.869776 Si / 1000 Ang^3
#
#
#
# Elastic Constant Matrix: (Units=GPa)
#
#
# Indices 1 2 3 4 5 6 
#
# 1 93.9710 13.0275 19.3189 0.0000 0.0000 0.0000
# 2 13.0275 62.5599 7.4130 0.0000 0.0000 0.0000
# 3 19.3189 7.4130 101.4883 0.0000 0.0000 0.0000
# 4 0.0000 0.0000 0.0000 30.4807 0.0000 0.0000
# 5 0.0000 0.0000 0.0000 0.0000 8.8502 0.0000
# 6 0.0000 0.0000 0.0000 0.0000 0.0000 7.2777
#
#
#
# Elastic Compliance Matrix: (Units=1/GPa)
#
#
# Indices 1 2 3 4 5 6 
#
# 1 0.011348 -0.002126 -0.002005 0.000000 0.000000 0.000000
# 2 -0.002126 0.016522 -0.000802 0.000000 0.000000 0.000000
# 3 -0.002005 -0.000802 0.010294 0.000000 0.000000 0.000000
# 4 0.000000 0.000000 0.000000 0.032808 0.000000 0.000000
# 5 0.000000 0.000000 0.000000 0.000000 0.112991 0.000000
# 6 0.000000 0.000000 0.000000 0.000000 0.000000 0.137406
#
#
# Mechanical properties :
#
#
# Convention : Reuss Voigt Hill
#
# Bulk Modulus (GPa) = 35.33722 37.50424 36.42073
# Shear Modulus (GPa) = 14.67704 23.87239 19.27471
#
# Velocity S-wave (km/s) = 2.59339 3.30748 2.97196
# Velocity P-wave (km/s) = 5.01604 5.63666 5.33538
#
# Compressibility (1/GPa) = 0.02829877
#
# Stress axis : x y z
#
# Youngs Moduli (GPa) = 88.11775 60.52401 97.14764
#
# Poissons Ratio (x) = 0.12865 0.19478
# Poissons Ratio (y) = 0.18731 0.07793
# Poissons Ratio (z) = 0.17667 0.04855
#
# Static dielectric constant tensor:
#      x y z
#    x 1.916050 0.000000 0.000000 
#    y 0.000000 1.932880 0.000000 
#    z 0.000000 0.000000 1.796300 
# 
# From -- ./inp_files/28545.got.cif
#   From: 2010.05.17/outbox.cif.g08.bks.cpg/sg53_15_cif.got.tgz:28545.got - 2010.06.03 12:45:16.
