data_PCOD9419300
_publ_section_title
;
Structure prediction by ZEFSAII (Michael W. Deem and Ramdas Pophale) SiO2 
 PCOD9419300
Probable space group: P M N A
;
_chemical_formula_sum "Si O2"
_cell_formula_units_Z 48
_cell_length_a 15.537765
_cell_length_b 17.148843
_cell_length_c 8.762496
_cell_angle_alpha 90.000000
_cell_angle_beta 90.000000
_cell_angle_gamma 90.000000
_cell_volume 2334.808178
_symmetry_space_group_name_H-M "P M N A"
_symmetry_group_IT_number 53
_symmetry_cell_setting 'orthorhombic'
loop_
_space_group_symop_operation_xyz
x,y,z
1/2-x,-y,1/2+z
x,-y,-z
1/2-x,y,1/2-z
-x,-y,-z
1/2+x,y,1/2-z
-x,y,z
1/2+x,-y,1/2+z
loop_
_atom_site_type_symbol
_atom_site_label
_atom_site_fract_x
_atom_site_fract_y
_atom_site_fract_z
Si Si1 0.500000 0.109136 0.826519
Si Si2 0.598892 0.674458 0.874091
Si Si3 0.346451 0.170828 0.309898
Si Si4 0.834697 0.820871 0.168809
Si Si5 0.241952 0.655273 0.095101
Si Si6 0.905757 0.418863 0.091675
Si Si7 0.500000 0.070580 0.185119
O O1 0.583282 0.155005 0.766711
O O2 0.500000 0.019921 0.769433
O O3 0.500000 0.093683 0.006777
O O4 0.500000 0.686138 0.926270
O O5 0.623129 0.744739 0.756509
O O6 0.601570 0.594298 0.774535
O O7 0.668852 0.675029 0.009663
O O8 0.250000 0.159447 0.250000
O O9 0.346109 0.160012 0.491565
O O10 0.414182 0.109546 0.247849
O O11 0.750000 0.856306 0.250000
O O12 0.813504 0.729093 0.155783
O O13 0.250000 0.605094 0.250000
O O14 0.180249 0.618273 0.971952
O O15 0.000000 0.380525 0.056893
O O16 0.909721 0.500000 0.000000
#
# Coordination Sequence:
#
# PCOD9419300 Si02
#       7
#     4   8   8   8   8   8   4
#     4  11  27  47  65  95 145 172 221 286 344 406
#     4  11  22  41  69 100 136 178 233 278 333 411
#     4  12  21  39  70  97 129 176 229 274 336 410
#     4  11  24  41  65  98 131 172 224 284 335 398
#     4  11  24  39  63 104 133 178 227 279 338 397
#     4  10  22  41  66  97 138 182 224 274 333 397
#     4  11  27  45  67 101 129 186 224 271 350 415
#
# _framework density 20.558433000000001
#
# number of rings (size 3 to 8) (size 9 to 14) (size 15 to 20)
#    0.000    1.000    4.167    2.000    3.500    4.000 
#    0.000    0.000    0.000    3.500    0.000    0.000 
#    0.000    0.000    0.000    0.000    0.000    0.000 
#
# Total GULP energy -267525.412098 kJ/mol
# GULP energy per Si atom -5573.446085 kJ/mol
# Density = 2.051164 g / cm^3
# Si number density = 20.558433 Si / 1000 Ang^3
#
#
#
# Elastic Constant Matrix: (Units=GPa)
#
#
# Indices 1 2 3 4 5 6 
#
# 1 185.8324 27.6817 47.1615 0.0000 0.0000 0.0000
# 2 27.6817 39.6269 9.1380 0.0000 0.0000 0.0000
# 3 47.1615 9.1380 94.3607 0.0000 0.0000 0.0000
# 4 0.0000 0.0000 0.0000 222.1846 0.0000 0.0000
# 5 0.0000 0.0000 0.0000 0.0000 42.8914 0.0000
# 6 0.0000 0.0000 0.0000 0.0000 0.0000 -11.9732
#
#
#
# Elastic Compliance Matrix: (Units=1/GPa)
#
#
# Indices 1 2 3 4 5 6 
#
# 1 0.006735 -0.004019 -0.002977 0.000000 0.000000 0.000000
# 2 -0.004019 0.028209 -0.000723 0.000000 0.000000 0.000000
# 3 -0.002977 -0.000723 0.012156 0.000000 0.000000 0.000000
# 4 0.000000 0.000000 0.000000 0.004501 0.000000 0.000000
# 5 0.000000 0.000000 0.000000 0.000000 0.023315 0.000000
# 6 0.000000 0.000000 0.000000 0.000000 0.000000 -0.083520
#
#
# Mechanical properties :
#
#
# Convention : Reuss Voigt Hill
#
# Bulk Modulus (GPa) = 31.58331 54.19803 42.89067
# Shear Modulus (GPa) = 287.55587 66.34315 176.94951
#
# Velocity S-wave (km/s) = 11.83960 5.68688 9.28754
# Velocity P-wave (km/s) = 14.22313 8.33912 11.65844
#
# Compressibility (1/GPa) = 0.03166230
#
# Stress axis : x y z
#
# Youngs Moduli (GPa) = 148.47019 35.44923 82.26602
#
# Poissons Ratio (x) = 0.14245 0.24492
# Poissons Ratio (y) = 0.59663 0.05951
# Poissons Ratio (z) = 0.44202 0.02564
#
# Static dielectric constant tensor:
#      x y z
#    x 1.722600 0.000000 0.000000 
#    y 0.000000 1.799780 0.000000 
#    z 0.000000 0.000000 1.887390 
# 
# From -- ./inp_files/8711.got.cif
#   From: 2010.05.17/outbox.cif.g08.bks.cpg/sg53_5_cif.got.tgz:8711.got - 2010.06.03 12:45:16.
