data_PCOD9419738
_publ_section_title
;
Structure prediction by ZEFSAII (Michael W. Deem and Ramdas Pophale) SiO2 
 PCOD9419738
Probable space group: P M N A
;
_chemical_formula_sum "Si O2"
_cell_formula_units_Z 40
_cell_length_a 8.631019
_cell_length_b 7.830782
_cell_length_c 29.206228
_cell_angle_alpha 90.000000
_cell_angle_beta 90.000000
_cell_angle_gamma 90.000000
_cell_volume 1973.979680
_symmetry_space_group_name_H-M "P M N A"
_symmetry_group_IT_number 53
_symmetry_cell_setting 'orthorhombic'
loop_
_space_group_symop_operation_xyz
x,y,z
1/2-x,-y,1/2+z
x,-y,-z
1/2-x,y,1/2-z
-x,-y,-z
1/2+x,y,1/2-z
-x,y,z
1/2+x,-y,1/2+z
loop_
_atom_site_type_symbol
_atom_site_label
_atom_site_fract_x
_atom_site_fract_y
_atom_site_fract_z
Si Si1 0.314301 0.177923 0.552985
Si Si2 0.185158 0.207448 0.456944
Si Si3 0.815268 0.687810 0.351520
Si Si4 0.685767 0.987048 0.699892
Si Si5 0.314649 0.333590 0.364035
O O1 0.500000 0.175269 0.554043
O O2 0.254419 0.261161 0.505891
O O3 0.248660 0.266113 0.598064
O O4 0.251489 0.983236 0.552143
O O5 0.239634 0.319386 0.414239
O O6 0.000000 0.201016 0.459648
O O7 0.747447 0.502820 0.339651
O O8 0.000000 0.683679 0.352071
O O9 0.756470 0.836435 0.318225
O O10 0.750000 0.947648 0.750000
O O11 0.500000 0.000952 0.700978
O O12 0.726450 0.835558 0.664617
O O13 0.500000 0.341179 0.368618
#
# Coordination Sequence:
#
# PCOD9419738 Si02
#       5
#     8   8   8   8   8
#     4  11  21  37  61  91 130 175 219 262 319 380
#     4  11  21  36  61  94 130 171 219 265 318 377
#     4  12  25  42  67  98 133 170 217 269 322 383
#     4  11  25  46  72  97 128 167 212 266 328 390
#     4  11  24  43  67  96 132 173 217 264 323 386
#
# _framework density 20.263634
#
# number of rings (size 3 to 8) (size 9 to 14) (size 15 to 20)
#    0.000    0.800    2.000    7.800    0.000    4.000 
#    0.000    6.000    0.000    0.000    0.000    0.000 
#    0.000    0.000    0.000    0.000    0.000    0.000 
#
# Total GULP energy -223937.319791 kJ/mol
# GULP energy per Si atom -5598.432995 kJ/mol
# Density = 2.021751 g / cm^3
# Si number density = 20.263634 Si / 1000 Ang^3
#
#
#
# Elastic Constant Matrix: (Units=GPa)
#
#
# Indices 1 2 3 4 5 6 
#
# 1 92.7407 2.9451 5.1790 0.0000 0.0000 0.0000
# 2 2.9451 37.3470 -21.2347 0.0000 0.0000 0.0000
# 3 5.1790 -21.2347 59.2519 0.0000 0.0000 0.0000
# 4 0.0000 0.0000 0.0000 6.2002 0.0000 0.0000
# 5 0.0000 0.0000 0.0000 0.0000 45.8224 0.0000
# 6 0.0000 0.0000 0.0000 0.0000 0.0000 30.1808
#
#
#
# Elastic Compliance Matrix: (Units=1/GPa)
#
#
# Indices 1 2 3 4 5 6 
#
# 1 0.010927 -0.001764 -0.001587 0.000000 0.000000 0.000000
# 2 -0.001764 0.033913 0.012308 0.000000 0.000000 0.000000
# 3 -0.001587 0.012308 0.021427 0.000000 0.000000 0.000000
# 4 0.000000 0.000000 0.000000 0.161286 0.000000 0.000000
# 5 0.000000 0.000000 0.000000 0.000000 0.021823 0.000000
# 6 0.000000 0.000000 0.000000 0.000000 0.000000 0.033134
#
#
# Mechanical properties :
#
#
# Convention : Reuss Voigt Hill
#
# Bulk Modulus (GPa) = 11.87934 18.12427 15.00181
# Shear Modulus (GPa) = 17.08483 29.93735 23.51109
#
# Velocity S-wave (km/s) = 2.90682 3.84786 3.40995
# Velocity P-wave (km/s) = 4.14020 5.35770 4.78781
#
# Compressibility (1/GPa) = 0.08417979
#
# Stress axis : x y z
#
# Youngs Moduli (GPa) = 91.51287 29.48716 46.67063
#
# Poissons Ratio (x) = 0.05202 0.07409
# Poissons Ratio (y) = 0.16145 -0.57442
# Poissons Ratio (z) = 0.14527 -0.36293
#
# Static dielectric constant tensor:
#      x y z
#    x 1.668250 0.000000 0.000000 
#    y 0.000000 1.771620 0.000000 
#    z 0.000000 0.000000 1.738530 
# 
# From -- ./inp_files/36034.got.cif
#   From: 2010.05.17/outbox.cif.g08.bks.cpg/sg53_19_cif.got.tgz:36034.got - 2010.06.03 12:45:16.
