data_PCOD9419650
_publ_section_title
;
Structure prediction by ZEFSAII (Michael W. Deem and Ramdas Pophale) SiO2 
 PCOD9419650
Probable space group: P M N A
;
_chemical_formula_sum "Si O2"
_cell_formula_units_Z 56
_cell_length_a 15.687820
_cell_length_b 11.971835
_cell_length_c 15.037838
_cell_angle_alpha 90.000000
_cell_angle_beta 90.000000
_cell_angle_gamma 90.000000
_cell_volume 2824.286318
_symmetry_space_group_name_H-M "P M N A"
_symmetry_group_IT_number 53
_symmetry_cell_setting 'orthorhombic'
loop_
_space_group_symop_operation_xyz
x,y,z
1/2-x,-y,1/2+z
x,-y,-z
1/2-x,y,1/2-z
-x,-y,-z
1/2+x,y,1/2-z
-x,y,z
1/2+x,-y,1/2+z
loop_
_atom_site_type_symbol
_atom_site_label
_atom_site_fract_x
_atom_site_fract_y
_atom_site_fract_z
Si Si1 0.646652 0.451461 0.086233
Si Si2 0.757916 0.741897 0.997730
Si Si3 0.786807 0.609021 0.161022
Si Si4 0.350477 0.851977 0.752862
Si Si5 0.094983 0.598547 0.775777
Si Si6 0.904659 0.100199 0.071203
Si Si7 0.095903 0.124560 0.460672
O O1 0.703754 0.552291 0.120023
O O2 0.591820 0.417360 0.169399
O O3 0.601045 0.500000 0.000000
O O4 0.717018 0.357575 0.061201
O O5 0.808567 0.694886 0.083469
O O6 0.826289 0.818127 0.948703
O O7 0.671463 0.812421 0.013051
O O8 0.750000 0.664603 0.250000
O O9 0.850382 0.505702 0.184671
O O10 0.250000 0.872956 0.750000
O O11 0.366686 0.723271 0.721294
O O12 0.394619 0.926962 0.676364
O O13 0.383172 0.869494 0.854267
O O14 0.000000 0.597301 0.814089
O O15 0.000000 0.148548 0.059623
O O16 0.897415 0.000000 0.000000
O O17 0.000000 0.172198 0.472589
O O18 0.095207 0.000000 0.500000
#
# Coordination Sequence:
#
# PCOD9419650 Si02
#       7
#     8   8   8   8   8   8   8
#     4   9  18  33  56  81 112 153 198 250 306 369
#     4  11  20  38  63  87 122 166 204 258 319 376
#     4   9  20  37  54  83 122 164 203 246 303 372
#     4  12  22  39  68  92 121 163 209 260 319 379
#     4  11  20  33  57  89 121 156 208 257 305 368
#     4  11  24  41  60  87 120 159 212 260 304 371
#     4  11  24  42  65  98 129 156 209 277 333 387
#
# _framework density 19.828019000000001
#
# number of rings (size 3 to 8) (size 9 to 14) (size 15 to 20)
#    0.000    1.429    2.857    3.857    0.000    0.857 
#    2.571    5.714    0.000    4.286    0.000    0.000 
#    0.000    0.000    0.000    0.000    0.000    0.000 
#
# Total GULP energy -311770.490469 kJ/mol
# GULP energy per Si atom -5567.330187 kJ/mol
# Density = 1.978289 g / cm^3
# Si number density = 19.828019 Si / 1000 Ang^3
#
#
#
# Elastic Constant Matrix: (Units=GPa)
#
#
# Indices 1 2 3 4 5 6 
#
# 1 105.0768 12.7925 37.3300 0.0000 0.0000 0.0000
# 2 12.7925 39.5509 48.7316 0.0000 0.0000 0.0000
# 3 37.3300 48.7316 92.0436 0.0000 0.0000 0.0000
# 4 0.0000 0.0000 0.0000 30.4851 0.0000 0.0000
# 5 0.0000 0.0000 0.0000 0.0000 -17.6981 0.0000
# 6 0.0000 0.0000 0.0000 0.0000 0.0000 -107.8658
#
#
#
# Elastic Compliance Matrix: (Units=1/GPa)
#
#
# Indices 1 2 3 4 5 6 
#
# 1 0.011574 0.005868 -0.007801 0.000000 0.000000 0.000000
# 2 0.005868 0.075700 -0.042459 0.000000 0.000000 0.000000
# 3 -0.007801 -0.042459 0.036507 0.000000 0.000000 0.000000
# 4 0.000000 0.000000 0.000000 0.032803 0.000000 0.000000
# 5 0.000000 0.000000 0.000000 0.000000 -0.056503 0.000000
# 6 0.000000 0.000000 0.000000 0.000000 0.000000 -0.009271
#
#
# Mechanical properties :
#
#
# Convention : Reuss Voigt Hill
#
# Bulk Modulus (GPa) = 28.57248 48.26441 38.41844
# Shear Modulus (GPa) = 26.14251 -9.82794 8.15728
#
# Velocity S-wave (km/s) = 3.63500 -2.22876 2.03050
# Velocity P-wave (km/s) = 5.66208 4.21559 4.99151
#
# Compressibility (1/GPa) = 0.03499872
#
# Stress axis : x y z
#
# Youngs Moduli (GPa) = 86.40234 13.20999 27.39165
#
# Poissons Ratio (x) = -0.07752 0.21367
# Poissons Ratio (y) = -0.50701 1.16301
# Poissons Ratio (z) = 0.67400 0.56088
#
# Static dielectric constant tensor:
#      x y z
#    x 1.699700 0.000000 0.000000 
#    y 0.000000 1.756980 0.000000 
#    z 0.000000 0.000000 1.862240 
# 
# From -- ./inp_files/22844.got.cif
#   From: 2010.05.17/outbox.cif.g08.bks.cpg/sg53_12_cif.got.tgz:22844.got - 2010.06.03 12:45:16.
