data_PCOD9419187
_publ_section_title
;
Structure prediction by ZEFSAII (Michael W. Deem and Ramdas Pophale) SiO2 
 PCOD9419187
Probable space group: P M N A
;
_chemical_formula_sum "Si O2"
_cell_formula_units_Z 48
_cell_length_a 15.006314
_cell_length_b 7.868128
_cell_length_c 19.970713
_cell_angle_alpha 90.000000
_cell_angle_beta 90.000000
_cell_angle_gamma 90.000000
_cell_volume 2357.974024
_symmetry_space_group_name_H-M "P M N A"
_symmetry_group_IT_number 53
_symmetry_cell_setting 'orthorhombic'
loop_
_space_group_symop_operation_xyz
x,y,z
1/2-x,-y,1/2+z
x,-y,-z
1/2-x,y,1/2-z
-x,-y,-z
1/2+x,y,1/2-z
-x,y,z
1/2+x,-y,1/2+z
loop_
_atom_site_type_symbol
_atom_site_label
_atom_site_fract_x
_atom_site_fract_y
_atom_site_fract_z
Si Si1 0.735988 0.150712 0.050052
Si Si2 0.663683 0.368277 0.548994
Si Si3 0.104946 0.729003 0.660029
Si Si4 0.898685 0.961807 0.117971
Si Si5 0.894303 0.073075 0.727096
Si Si6 0.710078 0.387418 0.823493
O O1 0.655004 0.198270 0.096097
O O2 0.822799 0.091263 0.092854
O O3 0.761814 0.306017 0.003149
O O4 0.713359 0.000000 0.000000
O O5 0.613138 0.500000 0.500000
O O6 0.607697 0.202140 0.569787
O O7 0.716542 0.413519 0.617705
O O8 0.139667 0.539815 0.671284
O O9 0.000000 0.726154 0.652171
O O10 0.126428 0.874105 0.715185
O O11 0.878895 0.898883 0.193695
O O12 0.000000 0.030290 0.117166
O O13 0.837329 0.201205 0.680581
O O14 0.000000 0.099880 0.714199
O O15 0.750000 0.407562 0.750000
#
# Coordination Sequence:
#
# PCOD9419187 Si02
#       6
#     8   8   8   8   8   8
#     4  10  22  39  65  89 131 170 219 269 327 397
#     4  11  22  40  61  95 128 171 221 268 327 399
#     4  11  25  42  66 100 133 173 223 273 328 396
#     4  10  22  41  65  95 132 176 220 276 336 394
#     4  10  22  41  65  97 132 169 222 273 327 397
#     4  12  24  41  70  93 130 180 219 273 334 390
#
# _framework density 20.356459000000001
#
# number of rings (size 3 to 8) (size 9 to 14) (size 15 to 20)
#    0.000    1.333    3.333    2.500    2.333    3.667 
#    0.000    2.500    0.000    0.000    0.000    0.000 
#    0.000    0.000    0.000    0.000    0.000    0.000 
#
# Total GULP energy -267774.230349 kJ/mol
# GULP energy per Si atom -5578.629799 kJ/mol
# Density = 2.031013 g / cm^3
# Si number density = 20.356459 Si / 1000 Ang^3
#
#
#
# Elastic Constant Matrix: (Units=GPa)
#
#
# Indices 1 2 3 4 5 6 
#
# 1 72.7821 34.6616 20.8237 0.0000 0.0000 0.0000
# 2 34.6616 80.5371 11.0634 0.0000 0.0000 0.0000
# 3 20.8237 11.0634 77.0115 0.0000 0.0000 0.0000
# 4 0.0000 0.0000 0.0000 22.9961 0.0000 0.0000
# 5 0.0000 0.0000 0.0000 0.0000 13.8981 0.0000
# 6 0.0000 0.0000 0.0000 0.0000 0.0000 -61.8466
#
#
#
# Elastic Compliance Matrix: (Units=1/GPa)
#
#
# Indices 1 2 3 4 5 6 
#
# 1 0.018367 -0.007368 -0.003908 0.000000 0.000000 0.000000
# 2 -0.007368 0.015622 -0.000252 0.000000 0.000000 0.000000
# 3 -0.003908 -0.000252 0.014078 0.000000 0.000000 0.000000
# 4 0.000000 0.000000 0.000000 0.043486 0.000000 0.000000
# 5 0.000000 0.000000 0.000000 0.000000 0.071952 0.000000
# 6 0.000000 0.000000 0.000000 0.000000 0.000000 -0.016169
#
#
# Mechanical properties :
#
#
# Convention : Reuss Voigt Hill
#
# Bulk Modulus (GPa) = 39.98178 40.38093 40.18136
# Shear Modulus (GPa) = 27.97546 5.92832 16.95189
#
# Velocity S-wave (km/s) = 3.71115 1.70838 2.88888
# Velocity P-wave (km/s) = 6.16822 4.87559 5.55960
#
# Compressibility (1/GPa) = 0.02501139
#
# Stress axis : x y z
#
# Youngs Moduli (GPa) = 54.44690 64.01148 71.03313
#
# Poissons Ratio (x) = 0.47162 0.27758
# Poissons Ratio (y) = 0.40115 0.01790
# Poissons Ratio (z) = 0.21277 0.01613
#
# Static dielectric constant tensor:
#      x y z
#    x 1.714970 0.000000 0.000000 
#    y 0.000000 1.903620 0.000000 
#    z 0.000000 0.000000 1.731940 
# 
# From -- ./inp_files/28240.got.cif
#   From: 2010.05.17/outbox.cif.g08.bks.cpg/sg53_15_cif.got.tgz:28240.got - 2010.06.03 12:45:16.
