data_PCOD9419516
_publ_section_title
;
Structure prediction by ZEFSAII (Michael W. Deem and Ramdas Pophale) SiO2 
 PCOD9419516
Probable space group: P M N A
;
_chemical_formula_sum "Si O2"
_cell_formula_units_Z 32
_cell_length_a 26.820162
_cell_length_b 4.911790
_cell_length_c 11.433087
_cell_angle_alpha 90.000000
_cell_angle_beta 90.000000
_cell_angle_gamma 90.000000
_cell_volume 1506.137756
_symmetry_space_group_name_H-M "P M N A"
_symmetry_group_IT_number 53
_symmetry_cell_setting 'orthorhombic'
loop_
_space_group_symop_operation_xyz
x,y,z
1/2-x,-y,1/2+z
x,-y,-z
1/2-x,y,1/2-z
-x,-y,-z
1/2+x,y,1/2-z
-x,y,z
1/2+x,-y,1/2+z
loop_
_atom_site_type_symbol
_atom_site_label
_atom_site_fract_x
_atom_site_fract_y
_atom_site_fract_z
Si Si1 0.670687 0.256386 0.081417
Si Si2 0.750000 0.976039 0.250000
Si Si3 0.105664 0.294274 0.210391
Si Si4 0.840505 0.801593 0.113235
Si Si5 0.500000 0.255645 0.409930
O O1 0.714142 0.158907 0.169398
O O2 0.624236 0.363167 0.159370
O O3 0.688772 0.500000 0.000000
O O4 0.657522 0.000000 0.000000
O O5 0.785592 0.797222 0.167814
O O6 0.124824 0.986421 0.195697
O O7 0.048780 0.282932 0.170614
O O8 0.135170 0.503835 0.124429
O O9 0.838656 0.000000 0.000000
O O10 0.500000 0.500000 0.500000
O O11 0.500000 0.000000 0.500000
#
# Coordination Sequence:
#
# PCOD9419516 Si02
#       5
#     8   4   8   8   4
#     4  11  24  42  63  91 132 176 215 267 321 379
#     4  10  24  38  62  92 122 166 218 256 306 378
#     4  11  24  41  62  93 125 162 210 259 319 387
#     4  11  22  38  60  89 127 163 202 256 316 379
#     4  12  24  42  70  98 126 162 208 272 335 384
#
# _framework density 21.246395
#
# number of rings (size 3 to 8) (size 9 to 14) (size 15 to 20)
#    0.000    1.000    0.000    8.250    0.000   13.000 
#    0.000    1.250    0.000    0.000    0.000    0.000 
#    0.000    0.000    0.000    0.000    0.000    0.000 
#
# Total GULP energy -178687.474913 kJ/mol
# GULP energy per Si atom -5583.983591 kJ/mol
# Density = 2.119804 g / cm^3
# Si number density = 21.246395 Si / 1000 Ang^3
#
#
#
# Elastic Constant Matrix: (Units=GPa)
#
#
# Indices 1 2 3 4 5 6 
#
# 1 174.4168 39.3718 60.0662 0.0000 0.0000 0.0000
# 2 39.3718 131.6763 34.3666 0.0000 0.0000 0.0000
# 3 60.0662 34.3666 120.9514 0.0000 0.0000 0.0000
# 4 0.0000 0.0000 0.0000 30.4697 0.0000 0.0000
# 5 0.0000 0.0000 0.0000 0.0000 20.5190 0.0000
# 6 0.0000 0.0000 0.0000 0.0000 0.0000 12.0720
#
#
#
# Elastic Compliance Matrix: (Units=1/GPa)
#
#
# Indices 1 2 3 4 5 6 
#
# 1 0.007117 -0.001302 -0.003164 0.000000 0.000000 0.000000
# 2 -0.001302 0.008441 -0.001752 0.000000 0.000000 0.000000
# 3 -0.003164 -0.001752 0.010337 0.000000 0.000000 0.000000
# 4 0.000000 0.000000 0.000000 0.032819 0.000000 0.000000
# 5 0.000000 0.000000 0.000000 0.000000 0.048735 0.000000
# 6 0.000000 0.000000 0.000000 0.000000 0.000000 0.082836
#
#
# Mechanical properties :
#
#
# Convention : Reuss Voigt Hill
#
# Bulk Modulus (GPa) = 74.30296 77.18375 75.74336
# Shear Modulus (GPa) = 24.13026 32.16149 28.14587
#
# Velocity S-wave (km/s) = 3.37372 3.89490 3.64364
# Velocity P-wave (km/s) = 7.08689 7.52554 7.30951
#
# Compressibility (1/GPa) = 0.01345841
#
# Stress axis : x y z
#
# Youngs Moduli (GPa) = 140.50618 118.47069 96.73952
#
# Poissons Ratio (x) = 0.15427 0.30613
# Poissons Ratio (y) = 0.18296 0.16946
# Poissons Ratio (z) = 0.44463 0.20753
#
# Static dielectric constant tensor:
#      x y z
#    x 1.689880 0.000000 0.000000 
#    y 0.000000 1.749370 0.000000 
#    z 0.000000 0.000000 1.924830 
# 
# From -- ./inp_files/18557.got.cif
#   From: 2010.05.17/outbox.cif.g08.bks.cpg/sg53_10_cif.got.tgz:18557.got - 2010.06.03 12:45:16.
