data_PCOD9419911
_publ_section_title
;
Structure prediction by ZEFSAII (Michael W. Deem and Ramdas Pophale) SiO2 
 PCOD9419911
Probable space group: P M N A
;
_chemical_formula_sum "Si O2"
_cell_formula_units_Z 44
_cell_length_a 10.791324
_cell_length_b 15.891961
_cell_length_c 14.030736
_cell_angle_alpha 90.000000
_cell_angle_beta 90.000000
_cell_angle_gamma 90.000000
_cell_volume 2406.205282
_symmetry_space_group_name_H-M "P M N A"
_symmetry_group_IT_number 53
_symmetry_cell_setting 'orthorhombic'
loop_
_space_group_symop_operation_xyz
x,y,z
1/2-x,-y,1/2+z
x,-y,-z
1/2-x,y,1/2-z
-x,-y,-z
1/2+x,y,1/2-z
-x,y,z
1/2+x,-y,1/2+z
loop_
_atom_site_type_symbol
_atom_site_label
_atom_site_fract_x
_atom_site_fract_y
_atom_site_fract_z
Si Si1 0.250000 0.624484 0.250000
Si Si2 0.143241 0.645828 0.891132
Si Si3 0.367034 0.827364 0.692374
Si Si4 0.141853 0.091295 0.983413
Si Si5 0.640557 0.515655 0.885323
Si Si6 0.852978 0.261882 0.913266
O O1 0.332323 0.565663 0.180389
O O2 0.174827 0.685536 0.180148
O O3 0.141166 0.726944 0.823082
O O4 0.246215 0.578570 0.863581
O O5 0.000000 0.613490 0.896693
O O6 0.182663 0.682628 0.994623
O O7 0.250000 0.858005 0.750000
O O8 0.500000 0.847054 0.737724
O O9 0.365797 0.866692 0.587439
O O10 0.199200 0.166435 0.919734
O O11 0.000000 0.074940 0.948246
O O12 0.201629 0.000000 0.000000
O O13 0.500000 0.546440 0.864532
O O14 0.646103 0.500000 0.000000
O O15 0.000000 0.251211 0.924036
#
# Coordination Sequence:
#
# PCOD9419911 Si02
#       6
#     4   8   8   8   8   8
#     4  12  22  36  54  78 112 152 192 236 280 338
#     4   9  19  37  56  74 101 143 189 231 275 328
#     4   9  18  32  53  81 109 138 176 223 277 329
#     4   8  15  32  57  80 105 139 181 225 270 330
#     4  11  24  39  54  79 114 150 192 240 287 331
#     4   9  18  34  55  77 102 139 187 231 275 332
#
# _framework density 18.286055000000001
#
# number of rings (size 3 to 8) (size 9 to 14) (size 15 to 20)
#    0.000    2.545    1.818    2.727    1.273    2.545 
#    1.636    0.000    0.000    0.545    0.000    0.000 
#    0.000    0.000    0.000    0.000    0.000    0.000 
#
# Total GULP energy -244935.735515 kJ/mol
# GULP energy per Si atom -5566.721262 kJ/mol
# Density = 1.824444 g / cm^3
# Si number density = 18.286055 Si / 1000 Ang^3
#
#
#
# Elastic Constant Matrix: (Units=GPa)
#
#
# Indices 1 2 3 4 5 6 
#
# 1 77.8380 40.5708 16.8615 0.0000 0.0000 0.0000
# 2 40.5708 122.3893 25.1840 0.0000 0.0000 0.0000
# 3 16.8615 25.1840 63.7175 0.0000 0.0000 0.0000
# 4 0.0000 0.0000 0.0000 16.0909 0.0000 0.0000
# 5 0.0000 0.0000 0.0000 0.0000 9.9224 0.0000
# 6 0.0000 0.0000 0.0000 0.0000 0.0000 12.5203
#
#
#
# Elastic Compliance Matrix: (Units=1/GPa)
#
#
# Indices 1 2 3 4 5 6 
#
# 1 0.015835 -0.004775 -0.002303 0.000000 0.000000 0.000000
# 2 -0.004775 0.010334 -0.002821 0.000000 0.000000 0.000000
# 3 -0.002303 -0.002821 0.017419 0.000000 0.000000 0.000000
# 4 0.000000 0.000000 0.000000 0.062147 0.000000 0.000000
# 5 0.000000 0.000000 0.000000 0.000000 0.100782 0.000000
# 6 0.000000 0.000000 0.000000 0.000000 0.000000 0.079870
#
#
# Mechanical properties :
#
#
# Convention : Reuss Voigt Hill
#
# Bulk Modulus (GPa) = 42.03527 47.68638 44.86082
# Shear Modulus (GPa) = 15.91774 19.79530 17.85652
#
# Velocity S-wave (km/s) = 2.95360 3.29376 3.12831
# Velocity P-wave (km/s) = 5.88805 6.37179 6.13469
#
# Compressibility (1/GPa) = 0.02378955
#
# Stress axis : x y z
#
# Youngs Moduli (GPa) = 63.15110 96.76760 57.40985
#
# Poissons Ratio (x) = 0.46209 0.13221
# Poissons Ratio (y) = 0.30156 0.16194
# Poissons Ratio (z) = 0.14544 0.27296
#
# Static dielectric constant tensor:
#      x y z
#    x 1.642030 0.000000 0.000000 
#    y 0.000000 1.682040 0.000000 
#    z 0.000000 0.000000 1.657800 
# 
# From -- ./inp_files/21753.got.cif
#   From: 2010.05.17/outbox.cif.g08.bks.cpg/sg53_11_cif.got.tgz:21753.got - 2010.06.03 12:45:16.
