data_PCOD9419767
_publ_section_title
;
Structure prediction by ZEFSAII (Michael W. Deem and Ramdas Pophale) SiO2 
 PCOD9419767
Probable space group: P M N A
;
_chemical_formula_sum "Si O2"
_cell_formula_units_Z 28
_cell_length_a 16.780170
_cell_length_b 8.667294
_cell_length_c 8.898521
_cell_angle_alpha 90.000000
_cell_angle_beta 90.000000
_cell_angle_gamma 90.000000
_cell_volume 1294.189030
_symmetry_space_group_name_H-M "P M N A"
_symmetry_group_IT_number 53
_symmetry_cell_setting 'orthorhombic'
loop_
_space_group_symop_operation_xyz
x,y,z
1/2-x,-y,1/2+z
x,-y,-z
1/2-x,y,1/2-z
-x,-y,-z
1/2+x,y,1/2-z
-x,y,z
1/2+x,-y,1/2+z
loop_
_atom_site_type_symbol
_atom_site_label
_atom_site_fract_x
_atom_site_fract_y
_atom_site_fract_z
Si Si1 0.750000 0.878174 0.250000
Si Si2 0.500000 0.519333 0.184533
Si Si3 0.000000 0.185963 0.396860
Si Si4 0.370279 0.347248 0.588359
Si Si5 0.138475 0.000000 0.500000
Si Si6 0.000000 0.156145 0.090404
O O1 0.697857 0.765292 0.353920
O O2 0.807050 0.980459 0.354510
O O3 0.500000 0.336068 0.208734
O O4 0.424841 0.595948 0.269144
O O5 0.500000 0.500000 0.000000
O O6 0.000000 0.074372 0.255559
O O7 0.079181 0.147752 0.487546
O O8 0.341670 0.500000 0.500000
O O9 0.424437 0.253140 0.471003
O O10 0.000000 0.000000 0.000000
#
# Coordination Sequence:
#
# PCOD9419767 Si02
#       6
#     4   4   4   8   4   4
#     4  12  28  44  66 102 150 186 222 290 370 426
#     4  11  21  40  74  97 131 177 234 286 334 409
#     4  11  22  45  70  97 128 184 248 278 326 411
#     4  11  24  45  64 105 137 176 237 278 352 428
#     4  11  28  44  66 107 140 180 242 289 350 428
#     4  11  21  40  76  95 128 179 229 290 333 401
#
# _framework density 21.635171
#
# number of rings (size 3 to 8) (size 9 to 14) (size 15 to 20)
#    0.000    0.857    2.857    4.286    6.000    8.000 
#    0.000    0.000    0.000    0.000    0.000    0.000 
#    0.000    0.000    0.000    0.000    0.000    0.000 
#
# Total GULP energy -156099.974962 kJ/mol
# GULP energy per Si atom -5574.999106 kJ/mol
# Density = 2.158593 g / cm^3
# Si number density = 21.635171 Si / 1000 Ang^3
#
#
#
# Elastic Constant Matrix: (Units=GPa)
#
#
# Indices 1 2 3 4 5 6 
#
# 1 112.3800 23.3067 39.3962 0.0000 0.0000 0.0000
# 2 23.3067 57.0999 -1.3222 0.0000 0.0000 0.0000
# 3 39.3962 -1.3222 123.8425 0.0000 0.0000 0.0000
# 4 0.0000 0.0000 0.0000 49.1745 0.0000 0.0000
# 5 0.0000 0.0000 0.0000 0.0000 28.7168 0.0000
# 6 0.0000 0.0000 0.0000 0.0000 0.0000 9.2822
#
#
#
# Elastic Compliance Matrix: (Units=1/GPa)
#
#
# Indices 1 2 3 4 5 6 
#
# 1 0.011113 -0.004619 -0.003585 0.000000 0.000000 0.000000
# 2 -0.004619 0.019437 0.001677 0.000000 0.000000 0.000000
# 3 -0.003585 0.001677 0.009233 0.000000 0.000000 0.000000
# 4 0.000000 0.000000 0.000000 0.020336 0.000000 0.000000
# 5 0.000000 0.000000 0.000000 0.000000 0.034823 0.000000
# 6 0.000000 0.000000 0.000000 0.000000 0.000000 0.107733
#
#
# Mechanical properties :
#
#
# Convention : Reuss Voigt Hill
#
# Bulk Modulus (GPa) = 37.41113 46.23154 41.82134
# Shear Modulus (GPa) = 22.25802 32.89749 27.57775
#
# Velocity S-wave (km/s) = 3.21095 3.90366 3.57413
# Velocity P-wave (km/s) = 5.57461 6.46012 6.03363
#
# Compressibility (1/GPa) = 0.02673001
#
# Stress axis : x y z
#
# Youngs Moduli (GPa) = 89.98534 51.44733 108.30753
#
# Poissons Ratio (x) = 0.23764 0.38823
# Poissons Ratio (y) = 0.41564 -0.18162
# Poissons Ratio (z) = 0.32255 -0.08627
#
# Static dielectric constant tensor:
#      x y z
#    x 1.793980 0.000000 0.000000 
#    y 0.000000 2.232000 0.000000 
#    z 0.000000 0.000000 1.393670 
# 
# From -- ./inp_files/9471.got.cif
#   From: 2010.05.17/outbox.cif.g08.bks.cpg/sg53_5_cif.got.tgz:9471.got - 2010.06.03 12:45:16.
