data_PCOD9419329
_publ_section_title
;
Structure prediction by ZEFSAII (Michael W. Deem and Ramdas Pophale) SiO2 
 PCOD9419329
Probable space group: P M N A
;
_chemical_formula_sum "Si O2"
_cell_formula_units_Z 20
_cell_length_a 10.980316
_cell_length_b 11.235666
_cell_length_c 6.812684
_cell_angle_alpha 90.000000
_cell_angle_beta 90.000000
_cell_angle_gamma 90.000000
_cell_volume 840.488749
_symmetry_space_group_name_H-M "P M N A"
_symmetry_group_IT_number 53
_symmetry_cell_setting 'orthorhombic'
loop_
_space_group_symop_operation_xyz
x,y,z
1/2-x,-y,1/2+z
x,-y,-z
1/2-x,y,1/2-z
-x,-y,-z
1/2+x,y,1/2-z
-x,y,z
1/2+x,-y,1/2+z
loop_
_atom_site_type_symbol
_atom_site_label
_atom_site_fract_x
_atom_site_fract_y
_atom_site_fract_z
Si Si1 0.250000 0.803179 0.750000
Si Si2 0.126393 0.969118 0.230207
Si Si3 0.143286 0.633671 0.085834
O O1 0.347308 0.902081 0.829095
O O2 0.315862 0.723076 0.588616
O O3 0.250000 0.896837 0.250000
O O4 0.000000 0.915883 0.290733
O O5 0.119392 0.000000 0.000000
O O6 0.250000 0.636924 0.250000
O O7 0.000000 0.657498 0.143482
O O8 0.144186 0.500000 0.000000
#
# Coordination Sequence:
#
# PCOD9419329 Si02
#       3
#     4   8   8
#     4  10  22  42  66  92 132 176 212 270 326 398
#     4   9  20  38  60  87 121 160 209 263 314 378
#     4  11  24  42  66  97 132 173 222 273 326 392
#
# _framework density 23.795677999999999
#
# number of rings (size 3 to 8) (size 9 to 14) (size 15 to 20)
#    1.200    0.800    2.000    1.200    0.000    6.400 
#    0.000    0.000    0.000    0.000    0.000    0.000 
#    0.000    0.000    0.000    0.000    0.000    0.000 
#
# Total GULP energy -111452.012933 kJ/mol
# GULP energy per Si atom -5572.600647 kJ/mol
# Density = 2.374152 g / cm^3
# Si number density = 23.795678 Si / 1000 Ang^3
#
#
#
# Elastic Constant Matrix: (Units=GPa)
#
#
# Indices 1 2 3 4 5 6 
#
# 1 306.9314 45.7992 80.0942 0.0000 0.0000 0.0000
# 2 45.7992 176.9775 23.8138 0.0000 0.0000 0.0000
# 3 80.0942 23.8138 80.0066 0.0000 0.0000 0.0000
# 4 0.0000 0.0000 0.0000 38.8562 0.0000 0.0000
# 5 0.0000 0.0000 0.0000 0.0000 32.1232 0.0000
# 6 0.0000 0.0000 0.0000 0.0000 0.0000 -63.9709
#
#
#
# Elastic Compliance Matrix: (Units=1/GPa)
#
#
# Indices 1 2 3 4 5 6 
#
# 1 0.004466 -0.000577 -0.004299 0.000000 0.000000 0.000000
# 2 -0.000577 0.005961 -0.001196 0.000000 0.000000 0.000000
# 3 -0.004299 -0.001196 0.017159 0.000000 0.000000 0.000000
# 4 0.000000 0.000000 0.000000 0.025736 0.000000 0.000000
# 5 0.000000 0.000000 0.000000 0.000000 0.031130 0.000000
# 6 0.000000 0.000000 0.000000 0.000000 0.000000 -0.015632
#
#
# Mechanical properties :
#
#
# Convention : Reuss Voigt Hill
#
# Bulk Modulus (GPa) = 64.76552 95.92552 80.34552
# Shear Modulus (GPa) = 58.06402 29.01561 43.53982
#
# Velocity S-wave (km/s) = 4.94510 3.49573 4.28218
# Velocity P-wave (km/s) = 7.73834 7.52949 7.63463
#
# Compressibility (1/GPa) = 0.01544031
#
# Stress axis : x y z
#
# Youngs Moduli (GPa) = 223.91122 167.76276 58.27889
#
# Poissons Ratio (x) = 0.09684 0.25055
# Poissons Ratio (y) = 0.12926 0.06972
# Poissons Ratio (z) = 0.96262 0.20070
#
# Static dielectric constant tensor:
#      x y z
#    x 1.983700 0.000000 0.000000 
#    y 0.000000 1.858910 0.000000 
#    z 0.000000 0.000000 2.007310 
# 
# From -- ./inp_files/396.got.cif
#   From: 2010.05.17/outbox.cif.g08.bks.cpg/sg53_1_cif.got.tgz:396.got - 2010.06.03 12:45:16.
