data_PCOD9419547
_publ_section_title
;
Structure prediction by ZEFSAII (Michael W. Deem and Ramdas Pophale) SiO2 
 PCOD9419547
Probable space group: P M N A
;
_chemical_formula_sum "Si O2"
_cell_formula_units_Z 20
_cell_length_a 29.269133
_cell_length_b 5.193902
_cell_length_c 5.125251
_cell_angle_alpha 90.000000
_cell_angle_beta 90.000000
_cell_angle_gamma 90.000000
_cell_volume 779.145825
_symmetry_space_group_name_H-M "P M N A"
_symmetry_group_IT_number 53
_symmetry_cell_setting 'orthorhombic'
loop_
_space_group_symop_operation_xyz
x,y,z
1/2-x,-y,1/2+z
x,-y,-z
1/2-x,y,1/2-z
-x,-y,-z
1/2+x,y,1/2-z
-x,y,z
1/2+x,-y,1/2+z
loop_
_atom_site_type_symbol
_atom_site_label
_atom_site_fract_x
_atom_site_fract_y
_atom_site_fract_z
Si Si1 0.173448 0.000000 0.000000
Si Si2 0.750000 0.681300 0.750000
Si Si3 0.500000 0.250394 0.815903
Si Si4 0.098786 0.252012 0.683054
O O1 0.206486 0.863481 0.793842
O O2 0.140381 0.213236 0.877392
O O3 0.755396 0.500000 0.500000
O O4 0.450981 0.254818 0.676188
O O5 0.500000 0.500000 0.000000
O O6 0.500000 0.000000 0.000000
O O7 0.103120 0.500000 0.500000
O O8 0.099473 0.000000 0.500000
#
# Coordination Sequence:
#
# PCOD9419547 Si02
#       4
#     4   4   4   8
#     4  12  30  47  76 116 146 213 268 330 404 478
#     4  12  32  54  80 110 162 206 272 344 416 474
#     4   8  16  39  66 107 155 200 244 314 382 464
#     4  10  24  43  75 112 157 202 259 317 391 473
#
# _framework density 25.669136999999999
#
# number of rings (size 3 to 8) (size 9 to 14) (size 15 to 20)
#    0.000    1.600    0.000    1.200   14.000    0.800 
#    0.000    0.000    0.000   14.400    0.000    4.200 
#    0.000    0.000    0.000    0.000    0.000    0.000 
#
# Total GULP energy -112246.044606 kJ/mol
# GULP energy per Si atom -5612.302230 kJ/mol
# Density = 2.561071 g / cm^3
# Si number density = 25.669137 Si / 1000 Ang^3
#
#
#
# Elastic Constant Matrix: (Units=GPa)
#
#
# Indices 1 2 3 4 5 6 
#
# 1 275.3754 61.9570 72.8680 0.0000 0.0000 0.0000
# 2 61.9570 200.6938 59.2156 0.0000 0.0000 0.0000
# 3 72.8680 59.2156 102.8725 0.0000 0.0000 0.0000
# 4 0.0000 0.0000 0.0000 65.4959 0.0000 0.0000
# 5 0.0000 0.0000 0.0000 0.0000 221.7358 0.0000
# 6 0.0000 0.0000 0.0000 0.0000 0.0000 284.8085
#
#
#
# Elastic Compliance Matrix: (Units=1/GPa)
#
#
# Indices 1 2 3 4 5 6 
#
# 1 0.004518 -0.000543 -0.002888 0.000000 0.000000 0.000000
# 2 -0.000543 0.006067 -0.003108 0.000000 0.000000 0.000000
# 3 -0.002888 -0.003108 0.013555 0.000000 0.000000 0.000000
# 4 0.000000 0.000000 0.000000 0.015268 0.000000 0.000000
# 5 0.000000 0.000000 0.000000 0.000000 0.004510 0.000000
# 6 0.000000 0.000000 0.000000 0.000000 0.000000 0.003511
#
#
# Mechanical properties :
#
#
# Convention : Reuss Voigt Hill
#
# Bulk Modulus (GPa) = 90.38771 107.44700 98.91735
# Shear Modulus (GPa) = 77.88918 140.06811 108.97865
#
# Velocity S-wave (km/s) = 5.51447 7.39494 6.52283
# Velocity P-wave (km/s) = 8.70832 10.71741 9.76468
#
# Compressibility (1/GPa) = 0.01106345
#
# Stress axis : x y z
#
# Youngs Moduli (GPa) = 221.35667 164.81821 73.77218
#
# Poissons Ratio (x) = 0.08944 0.21303
# Poissons Ratio (y) = 0.12012 0.22929
# Poissons Ratio (z) = 0.63919 0.51227
#
# Static dielectric constant tensor:
#      x y z
#    x 2.034180 0.000000 0.000000 
#    y 0.000000 1.986050 0.000000 
#    z 0.000000 0.000000 2.048630 
# 
# From -- ./inp_files/3988.got.cif
#   From: 2010.05.17/outbox.cif.g08.bks.cpg/sg53_2_cif.got.tgz:3988.got - 2010.06.03 12:45:16.
