data_PCOD9419851
_publ_section_title
;
Structure prediction by ZEFSAII (Michael W. Deem and Ramdas Pophale) SiO2 
 PCOD9419851
Probable space group: P M N A
;
_chemical_formula_sum "Si O2"
_cell_formula_units_Z 38
_cell_length_a 11.734611
_cell_length_b 10.922523
_cell_length_c 13.967821
_cell_angle_alpha 90.000000
_cell_angle_beta 90.000000
_cell_angle_gamma 90.000000
_cell_volume 1790.277387
_symmetry_space_group_name_H-M "P M N A"
_symmetry_group_IT_number 53
_symmetry_cell_setting 'orthorhombic'
loop_
_space_group_symop_operation_xyz
x,y,z
1/2-x,-y,1/2+z
x,-y,-z
1/2-x,y,1/2-z
-x,-y,-z
1/2+x,y,1/2-z
-x,y,z
1/2+x,-y,1/2+z
loop_
_atom_site_type_symbol
_atom_site_label
_atom_site_fract_x
_atom_site_fract_y
_atom_site_fract_z
Si Si1 0.678767 0.806035 0.088544
Si Si2 0.373277 0.428972 0.800986
Si Si3 0.870233 0.672692 0.592694
Si Si4 0.250000 0.825843 0.750000
Si Si5 0.000000 0.000000 0.500000
Si Si6 0.130247 0.978327 0.114779
O O1 0.624527 0.707560 0.158562
O O2 0.792857 0.860490 0.132770
O O3 0.599578 0.919691 0.057192
O O4 0.704124 0.727677 0.992335
O O5 0.250000 0.444463 0.750000
O O6 0.500000 0.452784 0.754401
O O7 0.367322 0.529329 0.886295
O O8 0.835162 0.740984 0.689872
O O9 0.000000 0.708546 0.567454
O O10 0.316722 0.910982 0.675220
O O11 0.000000 0.961295 0.143019
O O12 0.135335 0.000000 0.000000
#
# Coordination Sequence:
#
# PCOD9419851 Si02
#       6
#     8   8   8   4   2   8
#     4  12  23  44  68  99 134 177 232 285 344 413
#     4  11  25  45  70 101 140 179 230 290 349 413
#     4  11  22  42  70  97 130 176 239 290 337 407
#     4  12  22  44  68  98 132 188 234 290 346 430
#     4  12  20  40  68 100 128 168 232 282 334 410
#     4  11  25  44  66  99 142 182 225 286 363 428
#
# _framework density 21.225760999999999
#
# number of rings (size 3 to 8) (size 9 to 14) (size 15 to 20)
#    0.000    0.632    6.316    1.263    1.474    2.526 
#    1.895    1.053    0.000    2.526    0.000    0.000 
#    0.000    0.000    0.000    0.000    0.000    0.000 
#
# Total GULP energy -211728.665879 kJ/mol
# GULP energy per Si atom -5571.806997 kJ/mol
# Density = 2.117745 g / cm^3
# Si number density = 21.225761 Si / 1000 Ang^3
#
#
#
# Elastic Constant Matrix: (Units=GPa)
#
#
# Indices 1 2 3 4 5 6 
#
# 1 140.8355 53.8300 21.5148 0.0000 0.0000 0.0000
# 2 53.8300 82.0259 11.3342 0.0000 0.0000 0.0000
# 3 21.5148 11.3342 47.4204 0.0000 0.0000 0.0000
# 4 0.0000 0.0000 0.0000 29.3236 0.0000 0.0000
# 5 0.0000 0.0000 0.0000 0.0000 19.1712 0.0000
# 6 0.0000 0.0000 0.0000 0.0000 0.0000 14.7781
#
#
#
# Elastic Compliance Matrix: (Units=1/GPa)
#
#
# Indices 1 2 3 4 5 6 
#
# 1 0.009883 -0.006066 -0.003034 0.000000 0.000000 0.000000
# 2 -0.006066 0.016331 -0.001151 0.000000 0.000000 0.000000
# 3 -0.003034 -0.001151 0.022740 0.000000 0.000000 0.000000
# 4 0.000000 0.000000 0.000000 0.034102 0.000000 0.000000
# 5 0.000000 0.000000 0.000000 0.000000 0.052162 0.000000
# 6 0.000000 0.000000 0.000000 0.000000 0.000000 0.067668
#
#
# Mechanical properties :
#
#
# Convention : Reuss Voigt Hill
#
# Bulk Modulus (GPa) = 35.14817 49.29332 42.22075
# Shear Modulus (GPa) = 21.47109 24.89476 23.18293
#
# Velocity S-wave (km/s) = 3.18395 3.42841 3.30844
# Velocity P-wave (km/s) = 5.48743 6.24066 5.87612
#
# Compressibility (1/GPa) = 0.02845098
#
# Stress axis : x y z
#
# Youngs Moduli (GPa) = 101.18796 61.23185 43.97618
#
# Poissons Ratio (x) = 0.37145 0.13342
# Poissons Ratio (y) = 0.61384 0.05062
# Poissons Ratio (z) = 0.30699 0.07049
#
# Static dielectric constant tensor:
#      x y z
#    x 1.782340 0.000000 0.000000 
#    y 0.000000 1.775820 0.000000 
#    z 0.000000 0.000000 1.812030 
# 
# From -- ./inp_files/21693.got.cif
#   From: 2010.05.17/outbox.cif.g08.bks.cpg/sg53_11_cif.got.tgz:21693.got - 2010.06.03 12:45:16.
