data_PCOD9419431
_publ_section_title
;
Structure prediction by ZEFSAII (Michael W. Deem and Ramdas Pophale) SiO2 
 PCOD9419431
Probable space group: P M N A
;
_chemical_formula_sum "Si O2"
_cell_formula_units_Z 48
_cell_length_a 28.584432
_cell_length_b 14.981025
_cell_length_c 5.405155
_cell_angle_alpha 90.000000
_cell_angle_beta 90.000000
_cell_angle_gamma 90.000000
_cell_volume 2314.617583
_symmetry_space_group_name_H-M "P M N A"
_symmetry_group_IT_number 53
_symmetry_cell_setting 'orthorhombic'
loop_
_space_group_symop_operation_xyz
x,y,z
1/2-x,-y,1/2+z
x,-y,-z
1/2-x,y,1/2-z
-x,-y,-z
1/2+x,y,1/2-z
-x,y,z
1/2+x,-y,1/2+z
loop_
_atom_site_type_symbol
_atom_site_label
_atom_site_fract_x
_atom_site_fract_y
_atom_site_fract_z
Si Si1 0.108998 0.591087 0.400649
Si Si2 0.912105 0.821541 0.845070
Si Si3 0.555048 0.629266 0.582866
Si Si4 0.333193 0.757304 0.036985
Si Si5 0.250000 0.779590 0.750000
Si Si6 0.322349 0.102621 0.565165
Si Si7 0.500000 0.057750 0.246830
O O1 0.132582 0.500000 0.500000
O O2 0.077234 0.613941 0.643674
O O3 0.144236 0.671687 0.330693
O O4 0.077931 0.579954 0.153684
O O5 0.934953 0.734653 0.968753
O O6 0.875269 0.787385 0.641086
O O7 0.953775 0.881470 0.745665
O O8 0.877273 0.878073 0.016608
O O9 0.500000 0.612070 0.592416
O O10 0.316946 0.848710 0.171472
O O11 0.285618 0.723197 0.912970
O O12 0.286343 0.840956 0.600265
O O13 0.313350 0.000000 0.500000
O O14 0.500000 0.000000 0.500000
O O15 0.500000 0.000000 0.000000
#
# Coordination Sequence:
#
# PCOD9419431 Si02
#       7
#     8   8   8   8   4   8   4
#     4  11  24  42  69  98 132 175 223 279 344 406
#     4  10  23  41  60  92 130 182 222 268 329 394
#     4  11  22  41  65  96 135 178 226 277 336 399
#     4  10  23  43  66  91 132 171 216 279 342 405
#     4  10  24  40  66  96 124 162 216 274 344 404
#     4  11  23  39  66  94 130 169 221 274 336 399
#     4  12  28  40  62  94 135 182 239 274 314 386
#
# _framework density 20.737769
#
# number of rings (size 3 to 8) (size 9 to 14) (size 15 to 20)
#    0.000    1.333    2.500    2.000    7.000    3.333 
#    0.000    0.000    3.667    0.000    0.000    0.000 
#    0.000    0.000    0.000    0.000    0.000    0.000 
#
# Total GULP energy -267418.232700 kJ/mol
# GULP energy per Si atom -5571.213181 kJ/mol
# Density = 2.069057 g / cm^3
# Si number density = 20.737769 Si / 1000 Ang^3
#
#
#
# Elastic Constant Matrix: (Units=GPa)
#
#
# Indices 1 2 3 4 5 6 
#
# 1 121.5864 13.1702 27.4870 0.0000 0.0000 0.0000
# 2 13.1702 75.6626 19.4068 0.0000 0.0000 0.0000
# 3 27.4870 19.4068 88.1223 0.0000 0.0000 0.0000
# 4 0.0000 0.0000 0.0000 24.3467 0.0000 0.0000
# 5 0.0000 0.0000 0.0000 0.0000 18.2354 0.0000
# 6 0.0000 0.0000 0.0000 0.0000 0.0000 32.0537
#
#
#
# Elastic Compliance Matrix: (Units=1/GPa)
#
#
# Indices 1 2 3 4 5 6 
#
# 1 0.008904 -0.000888 -0.002582 0.000000 0.000000 0.000000
# 2 -0.000888 0.014096 -0.002827 0.000000 0.000000 0.000000
# 3 -0.002582 -0.002827 0.012776 0.000000 0.000000 0.000000
# 4 0.000000 0.000000 0.000000 0.041073 0.000000 0.000000
# 5 0.000000 0.000000 0.000000 0.000000 0.054839 0.000000
# 6 0.000000 0.000000 0.000000 0.000000 0.000000 0.031198
#
#
# Mechanical properties :
#
#
# Convention : Reuss Voigt Hill
#
# Bulk Modulus (GPa) = 43.13621 45.05549 44.09585
# Shear Modulus (GPa) = 27.29139 29.94764 28.61952
#
# Velocity S-wave (km/s) = 3.63164 3.80427 3.71896
# Velocity P-wave (km/s) = 6.19928 6.40859 6.30480
#
# Compressibility (1/GPa) = 0.02318238
#
# Stress axis : x y z
#
# Youngs Moduli (GPa) = 112.30322 70.94049 78.27222
#
# Poissons Ratio (x) = 0.06297 0.20210
# Poissons Ratio (y) = 0.09969 0.22131
# Poissons Ratio (z) = 0.28996 0.20058
#
# Static dielectric constant tensor:
#      x y z
#    x 1.693600 0.000000 0.000000 
#    y 0.000000 1.794210 0.000000 
#    z 0.000000 0.000000 1.637710 
# 
# From -- ./inp_files/4537.got.cif
#   From: 2010.05.17/outbox.cif.g08.bks.cpg/sg53_3_cif.got.tgz:4537.got - 2010.06.03 12:45:16.
