data_PCOD9419103
_publ_section_title
;
Structure prediction by ZEFSAII (Michael W. Deem and Ramdas Pophale) SiO2 
 PCOD9419103
Probable space group: P M N A
;
_chemical_formula_sum "Si O2"
_cell_formula_units_Z 64
_cell_length_a 8.226372
_cell_length_b 12.257470
_cell_length_c 31.591737
_cell_angle_alpha 90.000000
_cell_angle_beta 90.000000
_cell_angle_gamma 90.000000
_cell_volume 3185.537257
_symmetry_space_group_name_H-M "P M N A"
_symmetry_group_IT_number 53
_symmetry_cell_setting 'orthorhombic'
loop_
_space_group_symop_operation_xyz
x,y,z
1/2-x,-y,1/2+z
x,-y,-z
1/2-x,y,1/2-z
-x,-y,-z
1/2+x,y,1/2-z
-x,y,z
1/2+x,-y,1/2+z
loop_
_atom_site_type_symbol
_atom_site_label
_atom_site_fract_x
_atom_site_fract_y
_atom_site_fract_z
Si Si1 0.696236 0.513784 0.048175
Si Si2 0.806873 0.255378 0.588607
Si Si3 0.197302 0.035487 0.952841
Si Si4 0.303699 0.513261 0.295924
Si Si5 0.196132 0.633370 0.874951
Si Si6 0.806474 0.119336 0.122875
Si Si7 0.309446 0.756565 0.316762
Si Si8 0.688958 0.008151 0.795706
O O1 0.500000 0.508038 0.047763
O O2 0.742166 0.632205 0.066271
O O3 0.758516 0.424126 0.081107
O O4 0.754196 0.500000 0.000000
O O5 0.713242 0.242468 0.632684
O O6 0.000000 0.259015 0.597613
O O7 0.767829 0.152509 0.559432
O O8 0.254924 0.948719 0.917521
O O9 0.000000 0.041936 0.950833
O O10 0.242747 0.000000 0.000000
O O11 0.250000 0.471992 0.250000
O O12 0.500000 0.515624 0.297558
O O13 0.245211 0.439731 0.335224
O O14 0.247277 0.638828 0.301288
O O15 0.258235 0.757540 0.873591
O O16 0.000000 0.635596 0.871894
O O17 0.775745 0.051074 0.165333
O O18 0.000000 0.128568 0.117083
O O19 0.500000 0.766926 0.306110
O O20 0.219446 0.862142 0.299105
O O21 0.750000 0.970312 0.750000
O O22 0.500000 0.985746 0.799778
#
# Coordination Sequence:
#
# PCOD9419103 Si02
#       8
#     8   8   8   8   8   8   8   8
#     4  10  23  41  60  88 125 162 201 248 301 357
#     4  11  22  37  61  91 122 160 201 250 304 358
#     4  10  22  39  61  90 122 160 202 249 305 359
#     4  10  22  38  59  87 118 152 194 243 295 355
#     4  10  22  41  62  88 119 158 205 249 298 357
#     4  10  22  41  62  86 123 161 202 255 302 356
#     4  11  21  38  62  90 124 156 195 249 303 359
#     4  12  25  41  63  91 123 160 204 248 302 362
#
# _framework density 20.090803000000001
#
# number of rings (size 3 to 8) (size 9 to 14) (size 15 to 20)
#    0.000    1.500    2.500    2.250    1.750    4.500 
#    0.000    1.250    0.000    0.000    0.000    0.000 
#    0.000    0.000    0.000    0.000    0.000    0.000 
#
# Total GULP energy -357749.381663 kJ/mol
# GULP energy per Si atom -5589.834088 kJ/mol
# Density = 2.004508 g / cm^3
# Si number density = 20.090803 Si / 1000 Ang^3
#
#
#
# Elastic Constant Matrix: (Units=GPa)
#
#
# Indices 1 2 3 4 5 6 
#
# 1 0.1361 -1.8344 -13.2876 0.0000 0.0000 0.0000
# 2 -1.8344 122.4688 43.2592 0.0000 0.0000 0.0000
# 3 -13.2876 43.2592 133.4575 0.0000 0.0000 0.0000
# 4 0.0000 0.0000 0.0000 47.0197 0.0000 0.0000
# 5 0.0000 0.0000 0.0000 0.0000 22.4753 0.0000
# 6 0.0000 0.0000 0.0000 0.0000 0.0000 -1.6165
#
#
#
# Elastic Compliance Matrix: (Units=1/GPa)
#
#
# Indices 1 2 3 4 5 6 
#
# 1 -0.804315 0.018339 -0.086026 0.000000 0.000000 0.000000
# 2 0.018339 0.008803 -0.001028 0.000000 0.000000 0.000000
# 3 -0.086026 -0.001028 -0.000739 0.000000 0.000000 0.000000
# 4 0.000000 0.000000 0.000000 0.021268 0.000000 0.000000
# 5 0.000000 0.000000 0.000000 0.000000 0.044493 0.000000
# 6 0.000000 0.000000 0.000000 0.000000 0.000000 -0.618607
#
#
# Mechanical properties :
#
#
# Convention : Reuss Voigt Hill
#
# Bulk Modulus (GPa) = -1.07103 34.70407 16.81652
# Shear Modulus (GPa) = -3.28322 28.77071 12.74374
#
# Velocity S-wave (km/s) = -1.27974 3.78833 2.52128
# Velocity P-wave (km/s) = 1.64861 6.03708 4.10661
#
# Compressibility (1/GPa) = -0.93367992
#
# Stress axis : x y z
#
# Youngs Moduli (GPa) = -1.24329 113.59786 -1353.11138
#
# Poissons Ratio (x) = -2.08327 -116.40240
# Poissons Ratio (y) = 0.02280 -1.39033
# Poissons Ratio (z) = -0.10696 0.11672
#
# Static dielectric constant tensor:
#      x y z
#    x 1.701280 0.000000 0.000000 
#    y 0.000000 1.696590 0.000000 
#    z 0.000000 0.000000 1.682270 
# 
# From -- ./inp_files/38250.got.cif
#   From: 2010.05.17/outbox.cif.g08.bks.cpg/sg53_20_cif.got.tgz:38250.got - 2010.06.03 12:45:16.
