data_PCOD9419803
_publ_section_title
;
Structure prediction by ZEFSAII (Michael W. Deem and Ramdas Pophale) SiO2 
 PCOD9419803
Probable space group: P M N A
;
_chemical_formula_sum "Si O2"
_cell_formula_units_Z 56
_cell_length_a 7.772731
_cell_length_b 21.459169
_cell_length_c 15.883375
_cell_angle_alpha 90.000000
_cell_angle_beta 90.000000
_cell_angle_gamma 90.000000
_cell_volume 2649.288946
_symmetry_space_group_name_H-M "P M N A"
_symmetry_group_IT_number 53
_symmetry_cell_setting 'orthorhombic'
loop_
_space_group_symop_operation_xyz
x,y,z
1/2-x,-y,1/2+z
x,-y,-z
1/2-x,y,1/2-z
-x,-y,-z
1/2+x,y,1/2-z
-x,y,z
1/2+x,-y,1/2+z
loop_
_atom_site_type_symbol
_atom_site_label
_atom_site_fract_x
_atom_site_fract_y
_atom_site_fract_z
Si Si1 0.788523 0.292450 0.982572
Si Si2 0.303728 0.346935 0.345527
Si Si3 0.801818 0.971258 0.094785
Si Si4 0.211007 0.847258 0.019755
Si Si5 0.705048 0.610229 0.341670
Si Si6 0.793086 0.098225 0.158535
Si Si7 0.700210 0.519754 0.908202
O O1 0.722578 0.310529 0.075618
O O2 0.736637 0.222591 0.958992
O O3 0.000000 0.293796 0.982295
O O4 0.733026 0.344456 0.915810
O O5 0.250000 0.336451 0.250000
O O6 0.500000 0.327652 0.347712
O O7 0.287944 0.420127 0.368257
O O8 0.000000 0.963136 0.122738
O O9 0.723356 0.027132 0.149349
O O10 0.726455 0.902533 0.081258
O O11 0.806434 0.000000 0.000000
O O12 0.264156 0.863756 0.923760
O O13 0.000000 0.849814 0.021075
O O14 0.750000 0.635764 0.250000
O O15 0.500000 0.603577 0.349105
O O16 0.784039 0.541748 0.352232
O O17 0.750000 0.124373 0.250000
O O18 0.000000 0.094718 0.152317
O O19 0.500000 0.536419 0.918771
O O20 0.771007 0.500000 0.000000
#
# Coordination Sequence:
#
# PCOD9419803 Si02
#       7
#     8   8   8   8   8   8   8
#     4   9  19  34  53  75 103 140 178 217 259 310
#     4  11  22  37  55  79 109 140 176 215 263 315
#     4   7  11  22  42  66  89 118 159 201 234 273
#     4   8  14  28  49  70  93 128 174 210 240 291
#     4  11  22  38  58  80 105 136 175 219 268 315
#     4   9  16  26  45  73 101 127 160 205 252 297
#     4  11  22  37  59  84 107 134 171 216 268 316
#
# _framework density 21.137747000000001
#
# number of rings (size 3 to 8) (size 9 to 14) (size 15 to 20)
#    0.000    2.571    1.429    3.429    0.000    1.143 
#    0.000    0.714    0.000    6.429    0.000    0.000 
#    0.000    0.000    0.000    0.000    0.000    0.000 
#
# Total GULP energy -312314.922598 kJ/mol
# GULP energy per Si atom -5577.052189 kJ/mol
# Density = 2.108964 g / cm^3
# Si number density = 21.137747 Si / 1000 Ang^3
#
#
#
# Elastic Constant Matrix: (Units=GPa)
#
#
# Indices 1 2 3 4 5 6 
#
# 1 25.7078 -11.7107 -0.6533 0.0000 0.0000 0.0000
# 2 -11.7107 72.3934 -14.3174 0.0000 0.0000 0.0000
# 3 -0.6533 -14.3174 59.6087 0.0000 0.0000 0.0000
# 4 0.0000 0.0000 0.0000 10.5226 0.0000 0.0000
# 5 0.0000 0.0000 0.0000 0.0000 -605.4427 0.0000
# 6 0.0000 0.0000 0.0000 0.0000 0.0000 -6.0249
#
#
#
# Elastic Compliance Matrix: (Units=1/GPa)
#
#
# Indices 1 2 3 4 5 6 
#
# 1 0.042269 0.007275 0.002211 0.000000 0.000000 0.000000
# 2 0.007275 0.015754 0.003864 0.000000 0.000000 0.000000
# 3 0.002211 0.003864 0.017728 0.000000 0.000000 0.000000
# 4 0.000000 0.000000 0.000000 0.095033 0.000000 0.000000
# 5 0.000000 0.000000 0.000000 0.000000 -0.001652 0.000000
# 6 0.000000 0.000000 0.000000 0.000000 0.000000 -0.165978
#
#
# Mechanical properties :
#
#
# Convention : Reuss Voigt Hill
#
# Bulk Modulus (GPa) = 9.76089 11.59413 10.67751
# Shear Modulus (GPa) = 471.42105 -107.89623 181.76241
#
# Velocity S-wave (km/s) = 14.95017 -7.15228 9.28311
# Velocity P-wave (km/s) = 17.39649 7.91896 10.95280
#
# Compressibility (1/GPa) = 0.10244966
#
# Stress axis : x y z
#
# Youngs Moduli (GPa) = 23.65817 63.47447 56.40687
#
# Poissons Ratio (x) = -0.46176 -0.12469
# Poissons Ratio (y) = -0.17211 -0.21794
# Poissons Ratio (z) = -0.05230 -0.24525
#
# Static dielectric constant tensor:
#      x y z
#    x 1.791610 0.000000 0.000000 
#    y 0.000000 1.758520 0.000000 
#    z 0.000000 0.000000 1.786590 
# 
# From -- ./inp_files/26733.got.cif
#   From: 2010.05.17/outbox.cif.g08.bks.cpg/sg53_14_cif.got.tgz:26733.got - 2010.06.03 12:45:16.
