data_PCOD9419949
_publ_section_title
;
Structure prediction by ZEFSAII (Michael W. Deem and Ramdas Pophale) SiO2 
 PCOD9419949
Probable space group: P M N A
;
_chemical_formula_sum "Si O2"
_cell_formula_units_Z 40
_cell_length_a 28.437908
_cell_length_b 7.776401
_cell_length_c 7.578260
_cell_angle_alpha 90.000000
_cell_angle_beta 90.000000
_cell_angle_gamma 90.000000
_cell_volume 1675.891096
_symmetry_space_group_name_H-M "P M N A"
_symmetry_group_IT_number 53
_symmetry_cell_setting 'orthorhombic'
loop_
_space_group_symop_operation_xyz
x,y,z
1/2-x,-y,1/2+z
x,-y,-z
1/2-x,y,1/2-z
-x,-y,-z
1/2+x,y,1/2-z
-x,y,z
1/2+x,-y,1/2+z
loop_
_atom_site_type_symbol
_atom_site_label
_atom_site_fract_x
_atom_site_fract_y
_atom_site_fract_z
Si Si1 0.855548 0.079754 0.685654
Si Si2 0.805205 0.603741 0.234483
Si Si3 0.552256 0.334617 0.244393
Si Si4 0.346895 0.264339 0.361888
Si Si5 0.947961 0.738836 0.324813
O O1 0.821682 0.239531 0.645878
O O2 0.904946 0.154903 0.753451
O O3 0.867688 0.000000 0.500000
O O4 0.833859 0.927201 0.802004
O O5 0.750000 0.577376 0.250000
O O6 0.830628 0.422175 0.263468
O O7 0.822809 0.680218 0.045233
O O8 0.500000 0.284872 0.307134
O O9 0.596579 0.269443 0.353569
O O10 0.554367 0.542411 0.241850
O O11 0.556601 0.275901 0.039059
O O12 0.000000 0.809048 0.287609
#
# Coordination Sequence:
#
# PCOD9419949 Si02
#       5
#     8   8   8   8   8
#     4  12  24  39  72 106 137 177 226 285 336 409
#     4  11  28  50  68  92 134 180 230 292 354 414
#     4   9  17  36  69 103 144 189 226 270 338 416
#     4  11  24  46  72 102 137 180 228 286 349 412
#     4   9  18  35  63 105 148 185 225 269 328 410
#
# _framework density 23.867901
#
# number of rings (size 3 to 8) (size 9 to 14) (size 15 to 20)
#    0.000    1.600    4.000    1.800    0.000    7.600 
#    0.000    3.000    0.000    2.400    0.000    0.000 
#    0.000    0.000    0.000    0.000    0.000    0.000 
#
# Total GULP energy -223711.117393 kJ/mol
# GULP energy per Si atom -5592.777935 kJ/mol
# Density = 2.381358 g / cm^3
# Si number density = 23.867901 Si / 1000 Ang^3
#
#
#
# Elastic Constant Matrix: (Units=GPa)
#
#
# Indices 1 2 3 4 5 6 
#
# 1 138.9070 37.8327 7.2928 0.0000 0.0000 0.0000
# 2 37.8327 138.6920 19.3989 0.0000 0.0000 0.0000
# 3 7.2928 19.3989 51.4709 0.0000 0.0000 0.0000
# 4 0.0000 0.0000 0.0000 30.9261 0.0000 0.0000
# 5 0.0000 0.0000 0.0000 0.0000 26.1142 0.0000
# 6 0.0000 0.0000 0.0000 0.0000 0.0000 -2.2085
#
#
#
# Elastic Compliance Matrix: (Units=1/GPa)
#
#
# Indices 1 2 3 4 5 6 
#
# 1 0.007782 -0.002078 -0.000319 0.000000 0.000000 0.000000
# 2 -0.002078 0.008166 -0.002783 0.000000 0.000000 0.000000
# 3 -0.000319 -0.002783 0.020523 0.000000 0.000000 0.000000
# 4 0.000000 0.000000 0.000000 0.032335 0.000000 0.000000
# 5 0.000000 0.000000 0.000000 0.000000 0.038293 0.000000
# 6 0.000000 0.000000 0.000000 0.000000 0.000000 -0.452792
#
#
# Mechanical properties :
#
#
# Convention : Reuss Voigt Hill
#
# Bulk Modulus (GPa) = 38.30061 50.90208 44.60134
# Shear Modulus (GPa) = -15.30794 28.60270 6.64738
#
# Velocity S-wave (km/s) = -2.53526 3.46551 1.67066
# Velocity P-wave (km/s) = 2.74075 6.11440 4.73802
#
# Compressibility (1/GPa) = 0.02610925
#
# Stress axis : x y z
#
# Youngs Moduli (GPa) = 128.50476 122.45297 48.72642
#
# Poissons Ratio (x) = 0.25447 0.01556
# Poissons Ratio (y) = 0.26704 0.13563
# Poissons Ratio (z) = 0.04104 0.34084
#
# Static dielectric constant tensor:
#      x y z
#    x 1.872960 0.000000 0.000000 
#    y 0.000000 2.013290 0.000000 
#    z 0.000000 0.000000 2.042580 
# 
# From -- ./inp_files/12249.got.cif
#   From: 2010.05.17/outbox.cif.g08.bks.cpg/sg53_7_cif.got.tgz:12249.got - 2010.06.03 12:45:16.
