data_PCOD9419958
_publ_section_title
;
Structure prediction by ZEFSAII (Michael W. Deem and Ramdas Pophale) SiO2 
 PCOD9419958
Probable space group: P M N A
;
_chemical_formula_sum "Si O2"
_cell_formula_units_Z 24
_cell_length_a 10.377392
_cell_length_b 18.838047
_cell_length_c 5.331186
_cell_angle_alpha 90.000000
_cell_angle_beta 90.000000
_cell_angle_gamma 90.000000
_cell_volume 1042.192475
_symmetry_space_group_name_H-M "P M N A"
_symmetry_group_IT_number 53
_symmetry_cell_setting 'orthorhombic'
loop_
_space_group_symop_operation_xyz
x,y,z
1/2-x,-y,1/2+z
x,-y,-z
1/2-x,y,1/2-z
-x,-y,-z
1/2+x,y,1/2-z
-x,y,z
1/2+x,-y,1/2+z
loop_
_atom_site_type_symbol
_atom_site_label
_atom_site_fract_x
_atom_site_fract_y
_atom_site_fract_z
Si Si1 0.750000 0.196286 0.750000
Si Si2 0.000000 0.367418 0.422407
Si Si3 0.750000 0.543659 0.750000
Si Si4 0.132833 0.918020 0.580841
Si Si5 0.000000 0.720305 0.066710
O O1 0.850839 0.140034 0.629669
O O2 0.643061 0.243359 0.603561
O O3 0.871657 0.411569 0.353302
O O4 0.000000 0.339068 0.708832
O O5 0.000000 0.303604 0.222015
O O6 0.707945 0.500000 0.500000
O O7 0.250000 0.902117 0.750000
O O8 0.000000 0.909120 0.723190
O O9 0.140397 0.000000 0.500000
#
# Coordination Sequence:
#
# PCOD9419958 Si02
#       5
#     4   4   4   8   4
#     4  12  26  43  64 101 128 194 246 292 368 448
#     4  12  26  49  68 109 148 188 230 288 348 412
#     4  12  24  45  80 111 140 182 232 288 346 414
#     4  11  25  43  66  97 133 175 240 320 382 433
#     4  12  28  45  70  97 152 196 236 288 348 440
#
# _framework density 23.028373999999999
#
# number of rings (size 3 to 8) (size 9 to 14) (size 15 to 20)
#    0.000    0.333    3.333    5.000    7.000    0.667 
#    0.000    0.000    0.000    0.000    0.000    0.000 
#    0.000    0.000    0.000    0.000    0.000    0.000 
#
# Total GULP energy -133763.145233 kJ/mol
# GULP energy per Si atom -5573.464385 kJ/mol
# Density = 2.297596 g / cm^3
# Si number density = 23.028374 Si / 1000 Ang^3
#
#
#
# Elastic Constant Matrix: (Units=GPa)
#
#
# Indices 1 2 3 4 5 6 
#
# 1 102.4352 18.0930 -16.5257 0.0000 0.0000 0.0000
# 2 18.0930 48.5203 -3.0683 0.0000 0.0000 0.0000
# 3 -16.5257 -3.0683 40.8603 0.0000 0.0000 0.0000
# 4 0.0000 0.0000 0.0000 21.4205 0.0000 0.0000
# 5 0.0000 0.0000 0.0000 0.0000 29.6804 0.0000
# 6 0.0000 0.0000 0.0000 0.0000 0.0000 47.9152
#
#
#
# Elastic Compliance Matrix: (Units=1/GPa)
#
#
# Indices 1 2 3 4 5 6 
#
# 1 0.011127 -0.003883 0.004209 0.000000 0.000000 0.000000
# 2 -0.003883 0.022063 0.000086 0.000000 0.000000 0.000000
# 3 0.004209 0.000086 0.026182 0.000000 0.000000 0.000000
# 4 0.000000 0.000000 0.000000 0.046684 0.000000 0.000000
# 5 0.000000 0.000000 0.000000 0.000000 0.033692 0.000000
# 6 0.000000 0.000000 0.000000 0.000000 0.000000 0.020870
#
#
# Mechanical properties :
#
#
# Convention : Reuss Voigt Hill
#
# Bulk Modulus (GPa) = 16.61224 20.97931 18.79577
# Shear Modulus (GPa) = 27.79922 32.69103 30.24512
#
# Velocity S-wave (km/s) = 3.47821 3.77184 3.62800
# Velocity P-wave (km/s) = 4.83322 5.30085 5.07243
#
# Compressibility (1/GPa) = 0.06019659
#
# Stress axis : x y z
#
# Youngs Moduli (GPa) = 89.87040 45.32396 38.19374
#
# Poissons Ratio (x) = 0.17600 -0.16075
# Poissons Ratio (y) = 0.34898 -0.00330
# Poissons Ratio (z) = -0.37824 -0.00391
#
# Static dielectric constant tensor:
#      x y z
#    x 1.749340 0.000000 0.000000 
#    y 0.000000 1.778050 0.000000 
#    z 0.000000 0.000000 1.920920 
# 
# From -- ./inp_files/524.got.cif
#   From: 2010.05.17/outbox.cif.g08.bks.cpg/sg53_1_cif.got.tgz:524.got - 2010.06.03 12:45:16.
