data_PCOD9419160
_publ_section_title
;
Structure prediction by ZEFSAII (Michael W. Deem and Ramdas Pophale) SiO2 
 PCOD9419160
Probable space group: P M N A
;
_chemical_formula_sum "Si O2"
_cell_formula_units_Z 40
_cell_length_a 19.142032
_cell_length_b 17.210794
_cell_length_c 5.943600
_cell_angle_alpha 90.000000
_cell_angle_beta 90.000000
_cell_angle_gamma 90.000000
_cell_volume 1958.116461
_symmetry_space_group_name_H-M "P M N A"
_symmetry_group_IT_number 53
_symmetry_cell_setting 'orthorhombic'
loop_
_space_group_symop_operation_xyz
x,y,z
1/2-x,-y,1/2+z
x,-y,-z
1/2-x,y,1/2-z
-x,-y,-z
1/2+x,y,1/2-z
-x,y,z
1/2+x,-y,1/2+z
loop_
_atom_site_type_symbol
_atom_site_label
_atom_site_fract_x
_atom_site_fract_y
_atom_site_fract_z
Si Si1 0.419939 0.647558 0.501201
Si Si2 0.676625 0.441761 0.823035
Si Si3 0.077226 0.794444 0.336475
Si Si4 0.819450 0.293245 0.381685
Si Si5 0.081485 0.025679 0.752840
O O1 0.500000 0.626025 0.543427
O O2 0.376870 0.582081 0.369101
O O3 0.419881 0.726015 0.348449
O O4 0.376844 0.668224 0.720955
O O5 0.750000 0.479742 0.750000
O O6 0.642525 0.500000 0.000000
O O7 0.698339 0.361064 0.942285
O O8 0.141238 0.777441 0.500641
O O9 0.082611 0.880809 0.242681
O O10 0.000000 0.787753 0.447548
O O11 0.750000 0.271125 0.250000
O O12 0.000000 0.998449 0.752419
O O13 0.108579 0.000000 0.500000
O O14 0.110926 0.000000 0.000000
#
# Coordination Sequence:
#
# PCOD9419160 Si02
#       5
#     8   8   8   8   8
#     4  10  22  39  60  89 120 153 197 255 309 360
#     4  11  23  39  61  86 117 158 201 246 303 373
#     4   9  20  35  56  88 124 157 197 256 312 362
#     4  11  21  37  60  86 114 158 208 250 302 373
#     4   9  18  32  54  88 125 161 203 252 310 374
#
# _framework density 20.427795
#
# number of rings (size 3 to 8) (size 9 to 14) (size 15 to 20)
#    0.000    2.000    2.000    1.200    2.800    1.200 
#    0.000    1.000    0.000    0.000    5.200    0.000 
#    0.000    0.000    0.000    0.000    0.000    0.000 
#
# Total GULP energy -223138.980683 kJ/mol
# GULP energy per Si atom -5578.474517 kJ/mol
# Density = 2.038130 g / cm^3
# Si number density = 20.427795 Si / 1000 Ang^3
#
#
#
# Elastic Constant Matrix: (Units=GPa)
#
#
# Indices 1 2 3 4 5 6 
#
# 1 100.1031 13.2712 39.7646 0.0000 0.0000 0.0000
# 2 13.2712 69.5978 21.1650 0.0000 0.0000 0.0000
# 3 39.7646 21.1650 98.3719 0.0000 0.0000 0.0000
# 4 0.0000 0.0000 0.0000 43.3751 0.0000 0.0000
# 5 0.0000 0.0000 0.0000 0.0000 29.8957 0.0000
# 6 0.0000 0.0000 0.0000 0.0000 0.0000 14.8747
#
#
#
# Elastic Compliance Matrix: (Units=1/GPa)
#
#
# Indices 1 2 3 4 5 6 
#
# 1 0.011949 -0.000866 -0.004644 0.000000 0.000000 0.000000
# 2 -0.000866 0.015437 -0.002971 0.000000 0.000000 0.000000
# 3 -0.004644 -0.002971 0.012682 0.000000 0.000000 0.000000
# 4 0.000000 0.000000 0.000000 0.023055 0.000000 0.000000
# 5 0.000000 0.000000 0.000000 0.000000 0.033450 0.000000
# 6 0.000000 0.000000 0.000000 0.000000 0.000000 0.067228
#
#
# Mechanical properties :
#
#
# Convention : Reuss Voigt Hill
#
# Bulk Modulus (GPa) = 43.27951 46.27492 44.77721
# Shear Modulus (GPa) = 26.53013 30.55392 28.54202
#
# Velocity S-wave (km/s) = 3.60769 3.87163 3.74199
# Velocity P-wave (km/s) = 6.21181 6.53361 6.37474
#
# Compressibility (1/GPa) = 0.02310562
#
# Stress axis : x y z
#
# Youngs Moduli (GPa) = 83.68732 64.77944 78.85247
#
# Poissons Ratio (x) = 0.05612 0.36618
# Poissons Ratio (y) = 0.07250 0.23428
# Poissons Ratio (z) = 0.38863 0.19247
#
# Static dielectric constant tensor:
#      x y z
#    x 1.709170 0.000000 0.000000 
#    y 0.000000 1.702640 0.000000 
#    z 0.000000 0.000000 1.809260 
# 
# From -- ./inp_files/2081.got.cif
#   From: 2010.05.17/outbox.cif.g08.bks.cpg/sg53_2_cif.got.tgz:2081.got - 2010.06.03 12:45:16.
