data_PCOD9419625
_publ_section_title
;
Structure prediction by ZEFSAII (Michael W. Deem and Ramdas Pophale) SiO2 
 PCOD9419625
Probable space group: P M N A
;
_chemical_formula_sum "Si O2"
_cell_formula_units_Z 40
_cell_length_a 10.212111
_cell_length_b 10.157802
_cell_length_c 21.201726
_cell_angle_alpha 90.000000
_cell_angle_beta 90.000000
_cell_angle_gamma 90.000000
_cell_volume 2199.310195
_symmetry_space_group_name_H-M "P M N A"
_symmetry_group_IT_number 53
_symmetry_cell_setting 'orthorhombic'
loop_
_space_group_symop_operation_xyz
x,y,z
1/2-x,-y,1/2+z
x,-y,-z
1/2-x,y,1/2-z
-x,-y,-z
1/2+x,y,1/2-z
-x,y,z
1/2+x,-y,1/2+z
loop_
_atom_site_type_symbol
_atom_site_label
_atom_site_fract_x
_atom_site_fract_y
_atom_site_fract_z
Si Si1 0.662154 0.664866 0.312920
Si Si2 0.000000 0.967996 0.599499
Si Si3 0.739050 0.973944 0.323042
Si Si4 0.740782 0.383981 0.550927
Si Si5 0.000000 0.225467 0.512671
Si Si6 0.500000 0.799036 0.479034
Si Si7 0.500000 0.934773 0.602876
O O1 0.750000 0.632847 0.250000
O O2 0.500000 0.652816 0.306419
O O3 0.696606 0.819465 0.326547
O O4 0.718129 0.586165 0.374299
O O5 0.000000 0.831668 0.559217
O O6 0.127665 0.991024 0.641720
O O7 0.000000 0.091338 0.552204
O O8 0.750000 0.004527 0.250000
O O9 0.626856 0.058777 0.354941
O O10 0.724952 0.500000 0.500000
O O11 0.875614 0.311431 0.533357
O O12 0.626983 0.280100 0.539010
O O13 0.500000 0.818941 0.553436
O O14 0.500000 0.934299 0.440529
#
# Coordination Sequence:
#
# PCOD9419625 Si02
#       7
#     8   4   8   8   4   4   4
#     4  11  23  38  60  90 125 154 198 254 310 356
#     4  11  21  36  58  83 128 150 195 247 301 378
#     4  11  20  32  55  85 120 153 194 244 304 360
#     4  12  23  40  62  90 121 157 209 252 294 361
#     4  11  23  38  56  91 120 162 189 247 315 348
#     4  11  21  36  60  85 116 152 195 241 309 348
#     4  11  19  36  56  85 120 146 187 249 299 372
#
# _framework density 18.187521
#
# number of rings (size 3 to 8) (size 9 to 14) (size 15 to 20)
#    0.000    0.800    6.000    2.400    5.600    3.200 
#    0.000    0.000    0.000    7.200    0.000    0.000 
#    0.000    0.000    0.000    0.000    0.000    0.000 
#
# Total GULP energy -223009.980296 kJ/mol
# GULP energy per Si atom -5575.249507 kJ/mol
# Density = 1.814613 g / cm^3
# Si number density = 18.187521 Si / 1000 Ang^3
#
#
#
# Elastic Constant Matrix: (Units=GPa)
#
#
# Indices 1 2 3 4 5 6 
#
# 1 162.4085 15.4269 67.1059 0.0000 0.0000 0.0000
# 2 15.4269 16.2767 31.9519 0.0000 0.0000 0.0000
# 3 67.1059 31.9519 181.1169 0.0000 0.0000 0.0000
# 4 0.0000 0.0000 0.0000 32.6725 0.0000 0.0000
# 5 0.0000 0.0000 0.0000 0.0000 35.8630 0.0000
# 6 0.0000 0.0000 0.0000 0.0000 0.0000 -15.1501
#
#
#
# Elastic Compliance Matrix: (Units=1/GPa)
#
#
# Indices 1 2 3 4 5 6 
#
# 1 0.007335 -0.002474 -0.002281 0.000000 0.000000 0.000000
# 2 -0.002474 0.094820 -0.015811 0.000000 0.000000 0.000000
# 3 -0.002281 -0.015811 0.009156 0.000000 0.000000 0.000000
# 4 0.000000 0.000000 0.000000 0.030607 0.000000 0.000000
# 5 0.000000 0.000000 0.000000 0.000000 0.027884 0.000000
# 6 0.000000 0.000000 0.000000 0.000000 0.000000 -0.066006
#
#
# Mechanical properties :
#
#
# Convention : Reuss Voigt Hill
#
# Bulk Modulus (GPa) = 14.24936 65.41906 39.83421
# Shear Modulus (GPa) = 29.70517 27.03157 28.36837
#
# Velocity S-wave (km/s) = 4.04576 3.85940 3.95368
# Velocity P-wave (km/s) = 5.44756 7.47711 6.54153
#
# Compressibility (1/GPa) = 0.07017857
#
# Stress axis : x y z
#
# Youngs Moduli (GPa) = 136.33475 10.54626 109.21929
#
# Poissons Ratio (x) = 0.02609 0.24916
# Poissons Ratio (y) = 0.33726 1.72690
# Poissons Ratio (z) = 0.31101 0.16675
#
# Static dielectric constant tensor:
#      x y z
#    x 1.610440 0.000000 0.000000 
#    y 0.000000 1.604630 0.000000 
#    z 0.000000 0.000000 1.629240 
# 
# From -- ./inp_files/30428.got.cif
#   From: 2010.05.17/outbox.cif.g08.bks.cpg/sg53_16_cif.got.tgz:30428.got - 2010.06.03 12:45:16.
