data_PCOD9419404
_publ_section_title
;
Structure prediction by ZEFSAII (Michael W. Deem and Ramdas Pophale) SiO2 
 PCOD9419404
Probable space group: P M N A
;
_chemical_formula_sum "Si O2"
_cell_formula_units_Z 56
_cell_length_a 14.510969
_cell_length_b 9.847197
_cell_length_c 20.618307
_cell_angle_alpha 90.000000
_cell_angle_beta 90.000000
_cell_angle_gamma 90.000000
_cell_volume 2946.198761
_symmetry_space_group_name_H-M "P M N A"
_symmetry_group_IT_number 53
_symmetry_cell_setting 'orthorhombic'
loop_
_space_group_symop_operation_xyz
x,y,z
1/2-x,-y,1/2+z
x,-y,-z
1/2-x,y,1/2-z
-x,-y,-z
1/2+x,y,1/2-z
-x,y,z
1/2+x,-y,1/2+z
loop_
_atom_site_type_symbol
_atom_site_label
_atom_site_fract_x
_atom_site_fract_y
_atom_site_fract_z
Si Si1 0.173431 0.848025 0.693795
Si Si2 0.779074 0.348166 0.487794
Si Si3 0.220144 0.921921 0.937544
Si Si4 0.211911 0.308745 0.628287
Si Si5 0.107606 0.422255 0.362990
Si Si6 0.099009 0.126085 0.722350
Si Si7 0.394806 0.837103 0.376715
O O1 0.250000 0.843089 0.750000
O O2 0.218876 0.896781 0.626066
O O3 0.126613 0.703106 0.684471
O O4 0.103660 0.966514 0.710931
O O5 0.739774 0.500000 0.500000
O O6 0.707587 0.232860 0.463416
O O7 0.825578 0.298825 0.554785
O O8 0.856705 0.370592 0.433124
O O9 0.140563 0.026188 0.913521
O O10 0.262558 0.000000 0.000000
O O11 0.174847 0.452274 0.653688
O O12 0.176244 0.197795 0.678954
O O13 0.319939 0.282594 0.614862
O O14 0.000000 0.459530 0.363668
O O15 0.108308 0.142787 0.799132
O O16 0.000000 0.183660 0.701975
O O17 0.500000 0.807069 0.395600
#
# Coordination Sequence:
#
# PCOD9419404 Si02
#       7
#     8   8   8   8   8   8   8
#     4  11  20  37  60  87 123 164 197 249 308 359
#     4   9  20  36  61  88 121 161 201 244 302 373
#     4  11  19  37  62  88 118 158 206 247 303 360
#     4  11  20  40  60  86 123 162 199 252 310 359
#     4  10  23  38  60  91 123 162 204 247 308 378
#     4  11  21  35  60  90 121 156 201 250 306 370
#     4  11  23  37  61  91 118 157 210 257 304 364
#
# _framework density 19.007543999999999
#
# number of rings (size 3 to 8) (size 9 to 14) (size 15 to 20)
#    0.000    1.429    4.286    1.286    0.000    4.571 
#    0.000    0.000    0.000   17.571    0.000    0.000 
#    0.000    0.000    0.000    0.000    0.000    0.000 
#
# Total GULP energy -311769.773850 kJ/mol
# GULP energy per Si atom -5567.317390 kJ/mol
# Density = 1.896428 g / cm^3
# Si number density = 19.007544 Si / 1000 Ang^3
#
#
#
# Elastic Constant Matrix: (Units=GPa)
#
#
# Indices 1 2 3 4 5 6 
#
# 1 100.2911 44.6243 12.8655 0.0000 0.0000 0.0000
# 2 44.6243 115.0882 27.0887 0.0000 0.0000 0.0000
# 3 12.8655 27.0887 72.5893 0.0000 0.0000 0.0000
# 4 0.0000 0.0000 0.0000 18.7968 0.0000 0.0000
# 5 0.0000 0.0000 0.0000 0.0000 -29.3031 0.0000
# 6 0.0000 0.0000 0.0000 0.0000 0.0000 20.4188
#
#
#
# Elastic Compliance Matrix: (Units=1/GPa)
#
#
# Indices 1 2 3 4 5 6 
#
# 1 0.012062 -0.004576 -0.000430 0.000000 0.000000 0.000000
# 2 -0.004576 0.011261 -0.003392 0.000000 0.000000 0.000000
# 3 -0.000430 -0.003392 0.015118 0.000000 0.000000 0.000000
# 4 0.000000 0.000000 0.000000 0.053200 0.000000 0.000000
# 5 0.000000 0.000000 0.000000 0.000000 -0.034126 0.000000
# 6 0.000000 0.000000 0.000000 0.000000 0.000000 0.048974
#
#
# Mechanical properties :
#
#
# Convention : Reuss Voigt Hill
#
# Bulk Modulus (GPa) = 46.19674 50.79173 48.49423
# Shear Modulus (GPa) = 38.31388 15.54185 26.92786
#
# Velocity S-wave (km/s) = 4.49455 2.86259 3.76798
# Velocity P-wave (km/s) = 7.16183 6.14050 6.67074
#
# Compressibility (1/GPa) = 0.02164655
#
# Stress axis : x y z
#
# Youngs Moduli (GPa) = 82.90426 88.79853 66.14606
#
# Poissons Ratio (x) = 0.40631 0.02846
# Poissons Ratio (y) = 0.37934 0.22434
# Poissons Ratio (z) = 0.03567 0.30116
#
# Static dielectric constant tensor:
#      x y z
#    x 1.682260 0.000000 0.000000 
#    y 0.000000 1.697050 0.000000 
#    z 0.000000 0.000000 1.934240 
# 
# From -- ./inp_files/32458.got.cif
#   From: 2010.05.17/outbox.cif.g08.bks.cpg/sg53_17_cif.got.tgz:32458.got - 2010.06.03 12:45:16.
