data_PCOD9419616
_publ_section_title
;
Structure prediction by ZEFSAII (Michael W. Deem and Ramdas Pophale) SiO2 
 PCOD9419616
Probable space group: P M N A
;
_chemical_formula_sum "Si O2"
_cell_formula_units_Z 56
_cell_length_a 9.160745
_cell_length_b 14.986648
_cell_length_c 26.898425
_cell_angle_alpha 90.000000
_cell_angle_beta 90.000000
_cell_angle_gamma 90.000000
_cell_volume 3692.854124
_symmetry_space_group_name_H-M "P M N A"
_symmetry_group_IT_number 53
_symmetry_cell_setting 'orthorhombic'
loop_
_space_group_symop_operation_xyz
x,y,z
1/2-x,-y,1/2+z
x,-y,-z
1/2-x,y,1/2-z
-x,-y,-z
1/2+x,y,1/2-z
-x,y,z
1/2+x,-y,1/2+z
loop_
_atom_site_type_symbol
_atom_site_label
_atom_site_fract_x
_atom_site_fract_y
_atom_site_fract_z
Si Si1 0.330225 0.874134 0.466357
Si Si2 0.822870 0.381589 0.455470
Si Si3 0.675859 0.577058 0.069016
Si Si4 0.670385 0.269082 0.622796
Si Si5 0.323378 0.115905 0.696752
Si Si6 0.174584 0.815469 0.565777
Si Si7 0.174540 0.974582 0.887861
O O1 0.500000 0.879463 0.482869
O O2 0.319861 0.796443 0.425020
O O3 0.228200 0.851320 0.512237
O O4 0.294027 0.964431 0.436539
O O5 0.780189 0.388939 0.513645
O O6 0.777324 0.473386 0.428932
O O7 0.775774 0.287914 0.432226
O O8 0.000000 0.381775 0.455439
O O9 0.500000 0.580419 0.071271
O O10 0.741952 0.642292 0.109848
O O11 0.500000 0.290496 0.629842
O O12 0.720026 0.207889 0.668886
O O13 0.250000 0.107653 0.750000
O O14 0.500000 0.116400 0.700491
O O15 0.284141 0.034360 0.659765
O O16 0.244906 0.881224 0.605982
O O17 0.000000 0.818554 0.568733
O O18 0.000000 0.962077 0.886555
#
# Coordination Sequence:
#
# PCOD9419616 Si02
#       7
#     8   8   8   8   8   8   8
#     4   9  17  29  42  57  86 125 153 175 214 264
#     4   8  16  27  40  60  90 123 154 187 220 250
#     4   9  15  28  45  60  85 124 157 182 218 261
#     4   9  17  29  45  67  92 116 146 187 227 264
#     4   9  19  35  52  69  91 115 143 183 230 278
#     4  11  19  27  41  64  90 118 155 193 216 246
#     4   9  19  33  45  60  87 121 148 176 223 274
#
# _framework density 15.164422999999999
#
# number of rings (size 3 to 8) (size 9 to 14) (size 15 to 20)
#    0.000    2.857    1.429    3.429    0.000    3.429 
#    0.000    5.714    0.000    0.000    0.000    1.000 
#    0.000    0.000    0.000    0.000    0.000    0.000 
#
# Total GULP energy -311951.996616 kJ/mol
# GULP energy per Si atom -5570.571368 kJ/mol
# Density = 1.512991 g / cm^3
# Si number density = 15.164423 Si / 1000 Ang^3
#
#
#
# Elastic Constant Matrix: (Units=GPa)
#
#
# Indices 1 2 3 4 5 6 
#
# 1 21.9497 42.0751 24.4111 0.0000 0.0000 0.0000
# 2 42.0751 151.6147 54.2933 0.0000 0.0000 0.0000
# 3 24.4111 54.2933 70.6700 0.0000 0.0000 0.0000
# 4 0.0000 0.0000 0.0000 12.9489 0.0000 0.0000
# 5 0.0000 0.0000 0.0000 0.0000 22.1491 0.0000
# 6 0.0000 0.0000 0.0000 0.0000 0.0000 28.5477
#
#
#
# Elastic Compliance Matrix: (Units=1/GPa)
#
#
# Indices 1 2 3 4 5 6 
#
# 1 0.116700 -0.024763 -0.021286 0.000000 0.000000 0.000000
# 2 -0.024763 0.014354 -0.002474 0.000000 0.000000 0.000000
# 3 -0.021286 -0.002474 0.023403 0.000000 0.000000 0.000000
# 4 0.000000 0.000000 0.000000 0.077227 0.000000 0.000000
# 5 0.000000 0.000000 0.000000 0.000000 0.045149 0.000000
# 6 0.000000 0.000000 0.000000 0.000000 0.000000 0.035029
#
#
# Mechanical properties :
#
#
# Convention : Reuss Voigt Hill
#
# Bulk Modulus (GPa) = 17.41828 53.97705 35.69767
# Shear Modulus (GPa) = 11.68102 20.95946 16.32024
#
# Velocity S-wave (km/s) = 2.77842 3.72176 3.28414
# Velocity P-wave (km/s) = 4.66948 7.35802 6.16216
#
# Compressibility (1/GPa) = 0.05741094
#
# Stress axis : x y z
#
# Youngs Moduli (GPa) = 8.56897 69.66921 42.72873
#
# Poissons Ratio (x) = 1.72523 0.90954
# Poissons Ratio (y) = 0.21219 0.10569
# Poissons Ratio (z) = 0.18240 0.17233
#
# Static dielectric constant tensor:
#      x y z
#    x 1.505030 0.000000 0.000000 
#    y 0.000000 1.532970 0.000000 
#    z 0.000000 0.000000 1.481120 
# 
# From -- ./inp_files/38378.got.cif
#   From: 2010.05.17/outbox.cif.g08.bks.cpg/sg53_20_cif.got.tgz:38378.got - 2010.06.03 12:45:16.
