data_PCOD9419319
_publ_section_title
;
Structure prediction by ZEFSAII (Michael W. Deem and Ramdas Pophale) SiO2 
 PCOD9419319
Probable space group: P M N A
;
_chemical_formula_sum "Si O2"
_cell_formula_units_Z 40
_cell_length_a 17.188035
_cell_length_b 8.521478
_cell_length_c 12.329174
_cell_angle_alpha 90.000000
_cell_angle_beta 90.000000
_cell_angle_gamma 90.000000
_cell_volume 1805.822826
_symmetry_space_group_name_H-M "P M N A"
_symmetry_group_IT_number 53
_symmetry_cell_setting 'orthorhombic'
loop_
_space_group_symop_operation_xyz
x,y,z
1/2-x,-y,1/2+z
x,-y,-z
1/2-x,y,1/2-z
-x,-y,-z
1/2+x,y,1/2-z
-x,y,z
1/2+x,-y,1/2+z
loop_
_atom_site_type_symbol
_atom_site_label
_atom_site_fract_x
_atom_site_fract_y
_atom_site_fract_z
Si Si1 0.656568 0.820162 0.973906
Si Si2 0.656936 0.131572 0.263017
Si Si3 0.329335 0.314225 0.482763
Si Si4 0.412963 0.409239 0.893675
Si Si5 0.906885 0.783063 0.201387
O O1 0.631231 0.791481 0.850165
O O2 0.739130 0.736088 0.995017
O O3 0.589924 0.763998 0.054429
O O4 0.672178 0.000000 0.000000
O O5 0.750000 0.113759 0.250000
O O6 0.643434 0.240869 0.367634
O O7 0.622215 0.957354 0.269228
O O8 0.335599 0.500000 0.500000
O O9 0.378793 0.240639 0.579387
O O10 0.500000 0.471014 0.877578
O O11 0.376145 0.363123 0.777405
O O12 0.379403 0.500000 0.000000
O O13 0.000000 0.776711 0.209819
#
# Coordination Sequence:
#
# PCOD9419319 Si02
#       5
#     8   8   8   8   8
#     4  11  21  41  67  94 126 167 218 274 332 394
#     4  10  22  42  64  93 128 166 218 273 325 394
#     4  11  25  41  62  95 129 170 219 275 338 400
#     4  10  23  40  61  94 131 167 212 267 329 391
#     4  11  24  43  67  94 130 177 219 269 334 401
#
# _framework density 22.150565
#
# number of rings (size 3 to 8) (size 9 to 14) (size 15 to 20)
#    0.000    1.400    2.000    3.600    2.800    3.200 
#    3.600    0.000    0.000    0.000    0.000    0.000 
#    0.000    0.000    0.000    0.000    0.000    0.000 
#
# Total GULP energy -223003.952286 kJ/mol
# GULP energy per Si atom -5575.098807 kJ/mol
# Density = 2.210015 g / cm^3
# Si number density = 22.150565 Si / 1000 Ang^3
#
#
#
# Elastic Constant Matrix: (Units=GPa)
#
#
# Indices 1 2 3 4 5 6 
#
# 1 22.3975 4.4874 22.7381 0.0000 0.0000 0.0000
# 2 4.4874 73.0111 27.1992 0.0000 0.0000 0.0000
# 3 22.7381 27.1992 166.0994 0.0000 0.0000 0.0000
# 4 0.0000 0.0000 0.0000 49.3156 0.0000 0.0000
# 5 0.0000 0.0000 0.0000 0.0000 43.5047 0.0000
# 6 0.0000 0.0000 0.0000 0.0000 0.0000 20.0102
#
#
#
# Elastic Compliance Matrix: (Units=1/GPa)
#
#
# Indices 1 2 3 4 5 6 
#
# 1 0.051877 -0.000578 -0.007007 0.000000 0.000000 0.000000
# 2 -0.000578 0.014593 -0.002310 0.000000 0.000000 0.000000
# 3 -0.007007 -0.002310 0.007358 0.000000 0.000000 0.000000
# 4 0.000000 0.000000 0.000000 0.020278 0.000000 0.000000
# 5 0.000000 0.000000 0.000000 0.000000 0.022986 0.000000
# 6 0.000000 0.000000 0.000000 0.000000 0.000000 0.049975
#
#
# Mechanical properties :
#
#
# Convention : Reuss Voigt Hill
#
# Bulk Modulus (GPa) = 18.50589 41.15082 29.82836
# Shear Modulus (GPa) = 24.40577 36.37165 30.38871
#
# Velocity S-wave (km/s) = 3.32296 4.05658 3.70796
# Velocity P-wave (km/s) = 4.80577 6.36861 5.64157
#
# Compressibility (1/GPa) = 0.05403685
#
# Stress axis : x y z
#
# Youngs Moduli (GPa) = 19.27631 68.52691 135.90543
#
# Poissons Ratio (x) = 0.03961 0.95229
# Poissons Ratio (y) = 0.01114 0.31401
# Poissons Ratio (z) = 0.13507 0.15833
#
# Static dielectric constant tensor:
#      x y z
#    x 1.800980 0.000000 0.000000 
#    y 0.000000 1.884000 0.000000 
#    z 0.000000 0.000000 1.884270 
# 
# From -- ./inp_files/16687.got.cif
#   From: 2010.05.17/outbox.cif.g08.bks.cpg/sg53_9_cif.got.tgz:16687.got - 2010.06.03 12:45:16.
