data_PCOD9419754
_publ_section_title
;
Structure prediction by ZEFSAII (Michael W. Deem and Ramdas Pophale) SiO2 
 PCOD9419754
Probable space group: P M N A
;
_chemical_formula_sum "Si O2"
_cell_formula_units_Z 40
_cell_length_a 16.576523
_cell_length_b 5.824330
_cell_length_c 18.028336
_cell_angle_alpha 90.000000
_cell_angle_beta 90.000000
_cell_angle_gamma 90.000000
_cell_volume 1740.584283
_symmetry_space_group_name_H-M "P M N A"
_symmetry_group_IT_number 53
_symmetry_cell_setting 'orthorhombic'
loop_
_space_group_symop_operation_xyz
x,y,z
1/2-x,-y,1/2+z
x,-y,-z
1/2-x,y,1/2-z
-x,-y,-z
1/2+x,y,1/2-z
-x,y,z
1/2+x,-y,1/2+z
loop_
_atom_site_type_symbol
_atom_site_label
_atom_site_fract_x
_atom_site_fract_y
_atom_site_fract_z
Si Si1 0.372802 0.988090 0.639260
Si Si2 0.593111 0.211855 0.789445
Si Si3 0.315369 0.975191 0.912814
Si Si4 0.209085 0.408794 0.318646
Si Si5 0.865048 0.515236 0.088205
O O1 0.390725 0.022051 0.726312
O O2 0.403983 0.234111 0.605738
O O3 0.278020 0.988259 0.614880
O O4 0.401994 0.734118 0.612874
O O5 0.500000 0.271582 0.788779
O O6 0.652477 0.420799 0.773244
O O7 0.625537 0.144548 0.870282
O O8 0.341685 0.733096 0.877757
O O9 0.317021 0.000000 0.000000
O O10 0.250000 0.272659 0.250000
O O11 0.279021 0.518214 0.369300
O O12 0.853490 0.500000 0.000000
#
# Coordination Sequence:
#
# PCOD9419754 Si02
#       5
#     8   8   8   8   8
#     4  11  22  42  67 102 131 176 229 285 339 403
#     4  12  26  42  62  94 139 185 228 273 342 426
#     4  11  23  41  70 100 132 170 229 296 350 401
#     4  11  21  40  67  97 129 175 233 285 342 414
#     4  11  21  38  72 103 130 161 220 298 350 390
#
# _framework density 22.980786999999999
#
# number of rings (size 3 to 8) (size 9 to 14) (size 15 to 20)
#    0.000    0.800    4.000    6.000    0.000    1.200 
#    0.000    1.000    0.000    6.600    0.000    0.000 
#    0.000    0.000    0.000    0.000    0.000    0.000 
#
# Total GULP energy -222965.937304 kJ/mol
# GULP energy per Si atom -5574.148433 kJ/mol
# Density = 2.292848 g / cm^3
# Si number density = 22.980787 Si / 1000 Ang^3
#
#
#
# Elastic Constant Matrix: (Units=GPa)
#
#
# Indices 1 2 3 4 5 6 
#
# 1 80.6353 19.0822 40.0729 0.0000 0.0000 0.0000
# 2 19.0822 149.6827 33.2215 0.0000 0.0000 0.0000
# 3 40.0729 33.2215 186.7713 0.0000 0.0000 0.0000
# 4 0.0000 0.0000 0.0000 37.3698 0.0000 0.0000
# 5 0.0000 0.0000 0.0000 0.0000 2.9744 0.0000
# 6 0.0000 0.0000 0.0000 0.0000 0.0000 143.5012
#
#
#
# Elastic Compliance Matrix: (Units=1/GPa)
#
#
# Indices 1 2 3 4 5 6 
#
# 1 0.014076 -0.001170 -0.002812 0.000000 0.000000 0.000000
# 2 -0.001170 0.007053 -0.001003 0.000000 0.000000 0.000000
# 3 -0.002812 -0.001003 0.006136 0.000000 0.000000 0.000000
# 4 0.000000 0.000000 0.000000 0.026760 0.000000 0.000000
# 5 0.000000 0.000000 0.000000 0.000000 0.336199 0.000000
# 6 0.000000 0.000000 0.000000 0.000000 0.000000 0.006969
#
#
# Mechanical properties :
#
#
# Convention : Reuss Voigt Hill
#
# Bulk Modulus (GPa) = 57.82600 66.87137 62.34868
# Shear Modulus (GPa) = 12.10866 58.41660 35.26263
#
# Velocity S-wave (km/s) = 2.29793 5.04727 3.92144
# Velocity P-wave (km/s) = 5.67961 7.94535 6.90603
#
# Compressibility (1/GPa) = 0.01729326
#
# Stress axis : x y z
#
# Youngs Moduli (GPa) = 71.04344 141.78976 162.97476
#
# Poissons Ratio (x) = 0.16595 0.45827
# Poissons Ratio (y) = 0.08315 0.16352
# Poissons Ratio (z) = 0.19977 0.14227
#
# Static dielectric constant tensor:
#      x y z
#    x 1.836630 0.000000 0.000000 
#    y 0.000000 2.107320 0.000000 
#    z 0.000000 0.000000 1.819230 
# 
# From -- ./inp_files/28757.got.cif
#   From: 2010.05.17/outbox.cif.g08.bks.cpg/sg53_15_cif.got.tgz:28757.got - 2010.06.03 12:45:16.
