data_PCOD9419747
_publ_section_title
;
Structure prediction by ZEFSAII (Michael W. Deem and Ramdas Pophale) SiO2 
 PCOD9419747
Probable space group: P M N A
;
_chemical_formula_sum "Si O2"
_cell_formula_units_Z 36
_cell_length_a 14.202655
_cell_length_b 9.327453
_cell_length_c 14.732980
_cell_angle_alpha 90.000000
_cell_angle_beta 90.000000
_cell_angle_gamma 90.000000
_cell_volume 1951.745588
_symmetry_space_group_name_H-M "P M N A"
_symmetry_group_IT_number 53
_symmetry_cell_setting 'orthorhombic'
loop_
_space_group_symop_operation_xyz
x,y,z
1/2-x,-y,1/2+z
x,-y,-z
1/2-x,y,1/2-z
-x,-y,-z
1/2+x,y,1/2-z
-x,y,z
1/2+x,-y,1/2+z
loop_
_atom_site_type_symbol
_atom_site_label
_atom_site_fract_x
_atom_site_fract_y
_atom_site_fract_z
Si Si1 0.000000 0.445164 0.894670
Si Si2 0.291695 0.658893 0.352044
Si Si3 0.500000 0.432441 0.207233
Si Si4 0.500000 0.352723 0.941017
Si Si5 0.183523 0.166427 0.512470
Si Si6 0.294451 0.645559 0.848180
O O1 0.097038 0.362435 0.869539
O O2 0.000000 0.567766 0.816217
O O3 0.000000 0.500000 0.000000
O O4 0.250000 0.671326 0.250000
O O5 0.255635 0.793665 0.408228
O O6 0.243801 0.508001 0.383768
O O7 0.500000 0.592667 0.163373
O O8 0.405693 0.363449 0.169197
O O9 0.409404 0.258112 0.963555
O O10 0.500000 0.500000 0.000000
O O11 0.225360 0.232817 0.420419
O O12 0.163621 0.000000 0.500000
O O13 0.250000 0.669638 0.750000
#
# Coordination Sequence:
#
# PCOD9419747 Si02
#       6
#     4   8   4   4   8   8
#     4  12  22  36  63  99 124 154 214 272 322 371
#     4  11  22  40  65  90 124 164 221 271 319 369
#     4  12  20  36  62  99 115 152 200 278 316 365
#     4  12  19  38  67  90 125 151 216 267 316 366
#     4  12  24  38  59  93 131 170 203 257 331 395
#     4  11  21  37  62  90 121 157 213 262 318 363
#
# _framework density 18.445028000000001
#
# number of rings (size 3 to 8) (size 9 to 14) (size 15 to 20)
#    0.000    0.444    8.889    2.333    0.000    0.889 
#    0.000    0.556    0.000    2.667    0.000    0.000 
#    0.000    0.000    0.000    0.000    0.000    0.000 
#
# Total GULP energy -200891.848546 kJ/mol
# GULP energy per Si atom -5580.329126 kJ/mol
# Density = 1.840305 g / cm^3
# Si number density = 18.445028 Si / 1000 Ang^3
#
#
#
# Elastic Constant Matrix: (Units=GPa)
#
#
# Indices 1 2 3 4 5 6 
#
# 1 142.5695 24.4795 28.4514 0.0000 0.0000 0.0000
# 2 24.4795 102.9683 42.3374 0.0000 0.0000 0.0000
# 3 28.4514 42.3374 127.8263 0.0000 0.0000 0.0000
# 4 0.0000 0.0000 0.0000 10.9226 0.0000 0.0000
# 5 0.0000 0.0000 0.0000 0.0000 -9.7352 0.0000
# 6 0.0000 0.0000 0.0000 0.0000 0.0000 11.9340
#
#
#
# Elastic Compliance Matrix: (Units=1/GPa)
#
#
# Indices 1 2 3 4 5 6 
#
# 1 0.007480 -0.001266 -0.001246 0.000000 0.000000 0.000000
# 2 -0.001266 0.011457 -0.003513 0.000000 0.000000 0.000000
# 3 -0.001246 -0.003513 0.009264 0.000000 0.000000 0.000000
# 4 0.000000 0.000000 0.000000 0.091553 0.000000 0.000000
# 5 0.000000 0.000000 0.000000 0.000000 -0.102720 0.000000
# 6 0.000000 0.000000 0.000000 0.000000 0.000000 0.083794
#
#
# Mechanical properties :
#
#
# Convention : Reuss Voigt Hill
#
# Bulk Modulus (GPa) = 61.91240 62.65565 62.28402
# Shear Modulus (GPa) = 42.27907 21.16400 31.72153
#
# Velocity S-wave (km/s) = 4.79285 3.39102 4.15153
# Velocity P-wave (km/s) = 8.01669 7.02671 7.53797
#
# Compressibility (1/GPa) = 0.01615185
#
# Stress axis : x y z
#
# Youngs Moduli (GPa) = 133.68824 87.28178 107.94638
#
# Poissons Ratio (x) = 0.11051 0.13445
# Poissons Ratio (y) = 0.16927 0.37921
# Poissons Ratio (z) = 0.16651 0.30661
#
# Static dielectric constant tensor:
#      x y z
#    x 1.700840 0.000000 0.000000 
#    y 0.000000 1.598700 0.000000 
#    z 0.000000 0.000000 1.709750 
# 
# From -- ./inp_files/22346.got.cif
#   From: 2010.05.17/outbox.cif.g08.bks.cpg/sg53_12_cif.got.tgz:22346.got - 2010.06.03 12:45:16.
