data_PCOD9419813
_publ_section_title
;
Structure prediction by ZEFSAII (Michael W. Deem and Ramdas Pophale) SiO2 
 PCOD9419813
Probable space group: P M N A
;
_chemical_formula_sum "Si O2"
_cell_formula_units_Z 48
_cell_length_a 8.560532
_cell_length_b 9.733405
_cell_length_c 30.900352
_cell_angle_alpha 90.000000
_cell_angle_beta 90.000000
_cell_angle_gamma 90.000000
_cell_volume 2574.713891
_symmetry_space_group_name_H-M "P M N A"
_symmetry_group_IT_number 53
_symmetry_cell_setting 'orthorhombic'
loop_
_space_group_symop_operation_xyz
x,y,z
1/2-x,-y,1/2+z
x,-y,-z
1/2-x,y,1/2-z
-x,-y,-z
1/2+x,y,1/2-z
-x,y,z
1/2+x,-y,1/2+z
loop_
_atom_site_type_symbol
_atom_site_label
_atom_site_fract_x
_atom_site_fract_y
_atom_site_fract_z
Si Si1 0.686770 0.344624 0.201578
Si Si2 0.310550 0.340942 0.550431
Si Si3 0.810477 0.656378 0.951280
Si Si4 0.688203 0.150130 0.373148
Si Si5 0.814279 0.841595 0.372149
Si Si6 0.686484 0.354417 0.701873
O O1 0.750000 0.319827 0.250000
O O2 0.500000 0.342897 0.201958
O O3 0.752599 0.233354 0.168452
O O4 0.745809 0.496725 0.188682
O O5 0.500000 0.332349 0.553530
O O6 0.264518 0.499547 0.559409
O O7 0.264658 0.311440 0.500662
O O8 0.236357 0.238667 0.584582
O O9 0.758295 0.764717 0.915560
O O10 0.000000 0.656322 0.951137
O O11 0.500000 0.146722 0.372937
O O12 0.752569 0.996610 0.373515
O O13 0.739913 0.759620 0.331976
O O14 0.000000 0.840639 0.367777
O O15 0.750000 0.325037 0.750000
O O16 0.500000 0.363739 0.703132
#
# Coordination Sequence:
#
# PCOD9419813 Si02
#       6
#     8   8   8   8   8   8
#     4  11  22  39  62  90 119 151 189 235 283 337
#     4   9  17  36  62  87 111 145 190 239 288 344
#     4   8  17  34  61  88 111 142 190 240 286 341
#     4  11  22  38  58  84 116 156 197 238 285 341
#     4  12  25  39  54  82 119 156 193 238 291 345
#     4  11  22  40  64  89 114 148 190 236 284 340
#
# _framework density 18.642848999999998
#
# number of rings (size 3 to 8) (size 9 to 14) (size 15 to 20)
#    0.000    1.667    0.000    8.000    0.000    2.667 
#    0.000   10.833    0.000    0.000    0.000    0.000 
#    0.000    0.000    0.000    0.000    0.000    0.000 
#
# Total GULP energy -268295.855263 kJ/mol
# GULP energy per Si atom -5589.496985 kJ/mol
# Density = 1.860042 g / cm^3
# Si number density = 18.642849 Si / 1000 Ang^3
#
#
#
# Elastic Constant Matrix: (Units=GPa)
#
#
# Indices 1 2 3 4 5 6 
#
# 1 82.6756 22.8929 21.1544 0.0000 0.0000 0.0000
# 2 22.8929 147.4466 98.6244 0.0000 0.0000 0.0000
# 3 21.1544 98.6244 102.4284 0.0000 0.0000 0.0000
# 4 0.0000 0.0000 0.0000 -483.0088 0.0000 0.0000
# 5 0.0000 0.0000 0.0000 0.0000 27.7806 0.0000
# 6 0.0000 0.0000 0.0000 0.0000 0.0000 30.0675
#
#
#
# Elastic Compliance Matrix: (Units=1/GPa)
#
#
# Indices 1 2 3 4 5 6 
#
# 1 0.012790 -0.000615 -0.002049 0.000000 0.000000 0.000000
# 2 -0.000615 0.019083 -0.018247 0.000000 0.000000 0.000000
# 3 -0.002049 -0.018247 0.027755 0.000000 0.000000 0.000000
# 4 0.000000 0.000000 0.000000 -0.002070 0.000000 0.000000
# 5 0.000000 0.000000 0.000000 0.000000 0.035996 0.000000
# 6 0.000000 0.000000 0.000000 0.000000 0.000000 0.033259
#
#
# Mechanical properties :
#
#
# Convention : Reuss Voigt Hill
#
# Bulk Modulus (GPa) = 56.16205 68.65489 62.40847
# Shear Modulus (GPa) = 28.64168 -72.37356 -21.86594
#
# Velocity S-wave (km/s) = 3.92386 -6.23742 -3.42846
# Velocity P-wave (km/s) = 7.12177 3.86878 4.22801
#
# Compressibility (1/GPa) = 0.01780562
#
# Stress axis : x y z
#
# Youngs Moduli (GPa) = 78.18524 52.40349 36.02897
#
# Poissons Ratio (x) = 0.03223 0.07383
# Poissons Ratio (y) = 0.04809 0.65742
# Poissons Ratio (z) = 0.16022 0.95620
#
# Static dielectric constant tensor:
#      x y z
#    x 1.628150 0.000000 0.000000 
#    y 0.000000 1.610780 0.000000 
#    z 0.000000 0.000000 1.636360 
# 
# From -- ./inp_files/37680.got.cif
#   From: 2010.05.17/outbox.cif.g08.bks.cpg/sg53_19_cif.got.tgz:37680.got - 2010.06.03 12:45:16.
