data_PCOD9419501
_publ_section_title
;
Structure prediction by ZEFSAII (Michael W. Deem and Ramdas Pophale) SiO2 
 PCOD9419501
Probable space group: P M N A
;
_chemical_formula_sum "Si O2"
_cell_formula_units_Z 36
_cell_length_a 9.480002
_cell_length_b 20.813393
_cell_length_c 8.356744
_cell_angle_alpha 90.000000
_cell_angle_beta 90.000000
_cell_angle_gamma 90.000000
_cell_volume 1648.877576
_symmetry_space_group_name_H-M "P M N A"
_symmetry_group_IT_number 53
_symmetry_cell_setting 'orthorhombic'
loop_
_space_group_symop_operation_xyz
x,y,z
1/2-x,-y,1/2+z
x,-y,-z
1/2-x,y,1/2-z
-x,-y,-z
1/2+x,y,1/2-z
-x,y,z
1/2+x,-y,1/2+z
loop_
_atom_site_type_symbol
_atom_site_label
_atom_site_fract_x
_atom_site_fract_y
_atom_site_fract_z
Si Si1 0.833504 0.431899 0.413281
Si Si2 0.500000 0.801448 0.483040
Si Si3 0.750000 0.022203 0.750000
Si Si4 0.253580 0.297171 0.444360
Si Si5 0.500000 0.086382 0.950324
Si Si6 0.000000 0.937157 0.824537
Si Si7 0.000000 0.226401 0.609675
O O1 0.833001 0.500000 0.500000
O O2 0.750000 0.442673 0.250000
O O3 0.748520 0.372436 0.493501
O O4 0.000000 0.412438 0.391379
O O5 0.371388 0.756011 0.529458
O O6 0.500000 0.870243 0.575334
O O7 0.500000 0.801384 0.289839
O O8 0.640690 0.065742 0.852844
O O9 0.854413 0.975596 0.850190
O O10 0.250000 0.300824 0.250000
O O11 0.130227 0.268244 0.552857
O O12 0.500000 0.161323 0.988689
O O13 0.500000 0.060656 0.129907
#
# Coordination Sequence:
#
# PCOD9419501 Si02
#       7
#     8   4   4   8   4   4   4
#     4  10  23  44  71 105 145 192 240 294 352 422
#     4  12  29  43  72 107 141 188 241 294 364 424
#     4  10  24  46  74 102 136 184 242 298 358 420
#     4  11  24  48  72 104 141 192 237 296 354 432
#     4  11  26  46  72 101 144 183 235 305 353 437
#     4  11  26  48  72 104 139 191 234 289 364 437
#     4  12  27  45  72 104 148 176 242 300 357 429
#
# _framework density 21.833034000000001
#
# number of rings (size 3 to 8) (size 9 to 14) (size 15 to 20)
#    0.000    1.111    1.111    4.000   12.444    4.000 
#    0.000    5.556    0.000    0.000    0.000    0.000 
#    0.000    0.000    0.000    0.000    0.000    0.000 
#
# Total GULP energy -200602.433370 kJ/mol
# GULP energy per Si atom -5572.289816 kJ/mol
# Density = 2.178334 g / cm^3
# Si number density = 21.833034 Si / 1000 Ang^3
#
#
#
# Elastic Constant Matrix: (Units=GPa)
#
#
# Indices 1 2 3 4 5 6 
#
# 1 85.2330 37.5776 39.2852 0.0000 0.0000 0.0000
# 2 37.5776 134.2443 28.3946 0.0000 0.0000 0.0000
# 3 39.2852 28.3946 94.0719 0.0000 0.0000 0.0000
# 4 0.0000 0.0000 0.0000 30.8376 0.0000 0.0000
# 5 0.0000 0.0000 0.0000 0.0000 41.5150 0.0000
# 6 0.0000 0.0000 0.0000 0.0000 0.0000 -170.2449
#
#
#
# Elastic Compliance Matrix: (Units=1/GPa)
#
#
# Indices 1 2 3 4 5 6 
#
# 1 0.015732 -0.003220 -0.005598 0.000000 0.000000 0.000000
# 2 -0.003220 0.008616 -0.001256 0.000000 0.000000 0.000000
# 3 -0.005598 -0.001256 0.013347 0.000000 0.000000 0.000000
# 4 0.000000 0.000000 0.000000 0.032428 0.000000 0.000000
# 5 0.000000 0.000000 0.000000 0.000000 0.024088 0.000000
# 6 0.000000 0.000000 0.000000 0.000000 0.000000 -0.005874
#
#
# Mechanical properties :
#
#
# Convention : Reuss Voigt Hill
#
# Bulk Modulus (GPa) = 56.98761 58.22935 57.60848
# Shear Modulus (GPa) = 43.73144 -5.69234 19.01955
#
# Velocity S-wave (km/s) = 4.48034 -1.61644 2.95470
# Velocity P-wave (km/s) = 7.27480 4.82124 6.17119
#
# Compressibility (1/GPa) = 0.01754767
#
# Stress axis : x y z
#
# Youngs Moduli (GPa) = 63.56349 116.06259 74.92249
#
# Poissons Ratio (x) = 0.37369 0.41942
# Poissons Ratio (y) = 0.20466 0.09411
# Poissons Ratio (z) = 0.35584 0.14578
#
# Static dielectric constant tensor:
#      x y z
#    x 1.794810 0.000000 0.000000 
#    y 0.000000 1.812280 0.000000 
#    z 0.000000 0.000000 1.918530 
# 
# From -- ./inp_files/6228.got.cif
#   From: 2010.05.17/outbox.cif.g08.bks.cpg/sg53_4_cif.got.tgz:6228.got - 2010.06.03 12:45:16.
