data_PCOD9419968
_publ_section_title
;
Structure prediction by ZEFSAII (Michael W. Deem and Ramdas Pophale) SiO2 
 PCOD9419968
Probable space group: P M N A
;
_chemical_formula_sum "Si O2"
_cell_formula_units_Z 24
_cell_length_a 21.680291
_cell_length_b 8.898218
_cell_length_c 5.093424
_cell_angle_alpha 90.000000
_cell_angle_beta 90.000000
_cell_angle_gamma 90.000000
_cell_volume 982.602758
_symmetry_space_group_name_H-M "P M N A"
_symmetry_group_IT_number 53
_symmetry_cell_setting 'orthorhombic'
loop_
_space_group_symop_operation_xyz
x,y,z
1/2-x,-y,1/2+z
x,-y,-z
1/2-x,y,1/2-z
-x,-y,-z
1/2+x,y,1/2-z
-x,y,z
1/2+x,-y,1/2+z
loop_
_atom_site_type_symbol
_atom_site_label
_atom_site_fract_x
_atom_site_fract_y
_atom_site_fract_z
Si Si1 0.371032 0.397039 0.745949
Si Si2 0.933174 0.170588 0.102049
Si Si3 0.693155 0.173921 0.072133
O O1 0.353360 0.500000 0.500000
O O2 0.424725 0.289455 0.633814
O O3 0.385692 0.500000 0.000000
O O4 0.317417 0.282253 0.827476
O O5 0.872754 0.184411 0.280396
O O6 0.000000 0.196386 0.231182
O O7 0.932307 0.000000 0.000000
O O8 0.750000 0.222464 0.250000
O O9 0.702886 0.000000 0.000000
#
# Coordination Sequence:
#
# PCOD9419968 Si02
#       3
#     8   8   8
#     4  12  27  52  77 117 162 207 257 330 400 471
#     4  11  25  49  80 117 158 211 271 327 385 468
#     4  12  27  50  84 116 156 210 272 325 390 471
#
# _framework density 24.424925000000002
#
# number of rings (size 3 to 8) (size 9 to 14) (size 15 to 20)
#    0.000    0.333    6.667    1.000    0.000    3.333 
#    6.000    0.000    0.000    0.000    0.000    0.000 
#    0.000    0.000    0.000    0.000    0.000    0.000 
#
# Total GULP energy -134417.364099 kJ/mol
# GULP energy per Si atom -5600.723504 kJ/mol
# Density = 2.436933 g / cm^3
# Si number density = 24.424925 Si / 1000 Ang^3
#
#
#
# Elastic Constant Matrix: (Units=GPa)
#
#
# Indices 1 2 3 4 5 6 
#
# 1 186.3013 18.8460 57.8714 0.0000 0.0000 0.0000
# 2 18.8460 173.2159 65.4152 0.0000 0.0000 0.0000
# 3 57.8714 65.4152 141.5194 0.0000 0.0000 0.0000
# 4 0.0000 0.0000 0.0000 51.4123 0.0000 0.0000
# 5 0.0000 0.0000 0.0000 0.0000 43.8895 0.0000
# 6 0.0000 0.0000 0.0000 0.0000 0.0000 -53.9483
#
#
#
# Elastic Compliance Matrix: (Units=1/GPa)
#
#
# Indices 1 2 3 4 5 6 
#
# 1 0.006165 0.000341 -0.002679 0.000000 0.000000 0.000000
# 2 0.000341 0.007013 -0.003381 0.000000 0.000000 0.000000
# 3 -0.002679 -0.003381 0.009724 0.000000 0.000000 0.000000
# 4 0.000000 0.000000 0.000000 0.019451 0.000000 0.000000
# 5 0.000000 0.000000 0.000000 0.000000 0.022784 0.000000
# 6 0.000000 0.000000 0.000000 0.000000 0.000000 -0.018536
#
#
# Mechanical properties :
#
#
# Convention : Reuss Voigt Hill
#
# Bulk Modulus (GPa) = 87.22324 87.25574 87.23949
# Shear Modulus (GPa) = 80.82687 32.19765 56.51226
#
# Velocity S-wave (km/s) = 5.75880 3.63468 4.81533
# Velocity P-wave (km/s) = 8.94465 7.30864 8.16771
#
# Compressibility (1/GPa) = 0.01146483
#
# Stress axis : x y z
#
# Youngs Moduli (GPa) = 162.19904 142.59460 102.83443
#
# Poissons Ratio (x) = -0.04860 0.27546
# Poissons Ratio (y) = -0.05528 0.34768
# Poissons Ratio (z) = 0.43448 0.48211
#
# Static dielectric constant tensor:
#      x y z
#    x 1.928790 0.000000 0.000000 
#    y 0.000000 1.948950 0.000000 
#    z 0.000000 0.000000 1.869270 
# 
# From -- ./inp_files/3246.got.cif
#   From: 2010.05.17/outbox.cif.g08.bks.cpg/sg53_2_cif.got.tgz:3246.got - 2010.06.03 12:45:16.
