data_PCOD9419282
_publ_section_title
;
Structure prediction by ZEFSAII (Michael W. Deem and Ramdas Pophale) SiO2 
 PCOD9419282
Probable space group: P M N A
;
_chemical_formula_sum "Si O2"
_cell_formula_units_Z 32
_cell_length_a 22.590590
_cell_length_b 9.031312
_cell_length_c 7.713236
_cell_angle_alpha 90.000000
_cell_angle_beta 90.000000
_cell_angle_gamma 90.000000
_cell_volume 1573.674976
_symmetry_space_group_name_H-M "P M N A"
_symmetry_group_IT_number 53
_symmetry_cell_setting 'orthorhombic'
loop_
_space_group_symop_operation_xyz
x,y,z
1/2-x,-y,1/2+z
x,-y,-z
1/2-x,y,1/2-z
-x,-y,-z
1/2+x,y,1/2-z
-x,y,z
1/2+x,-y,1/2+z
loop_
_atom_site_type_symbol
_atom_site_label
_atom_site_fract_x
_atom_site_fract_y
_atom_site_fract_z
Si Si1 0.770679 0.163257 0.552367
Si Si2 0.860064 0.175001 0.019087
Si Si3 0.381717 0.667763 0.154780
Si Si4 0.568229 0.658646 0.808386
O O1 0.750000 0.143747 0.750000
O O2 0.710371 0.202998 0.451405
O O3 0.819791 0.290139 0.560542
O O4 0.793889 0.000000 0.500000
O O5 0.879951 0.249680 0.838369
O O6 0.899214 0.234801 0.175077
O O7 0.865865 0.000000 0.000000
O O8 0.396374 0.497026 0.192505
O O9 0.428219 0.714873 0.006917
O O10 0.500000 0.633729 0.760420
#
# Coordination Sequence:
#
# PCOD9419282 Si02
#       4
#     8   8   8   8
#     4   9  20  37  63  96 128 161 204 265 333 390
#     4  10  23  42  66  98 130 167 212 266 329 384
#     4  10  22  41  64  94 127 168 215 262 326 380
#     4  11  25  44  65  91 130 178 219 263 312 377
#
# _framework density 20.334568000000001
#
# number of rings (size 3 to 8) (size 9 to 14) (size 15 to 20)
#    0.000    2.000    0.000    2.250   10.500    3.500 
#   27.000    1.250    0.000    0.000    0.000    0.000 
#    0.000    0.000    0.000    0.000    0.000    0.000 
#
# Total GULP energy -178551.615247 kJ/mol
# GULP energy per Si atom -5579.737976 kJ/mol
# Density = 2.028829 g / cm^3
# Si number density = 20.334568 Si / 1000 Ang^3
#
#
#
# Elastic Constant Matrix: (Units=GPa)
#
#
# Indices 1 2 3 4 5 6 
#
# 1 106.4103 60.3786 14.3131 0.0000 0.0000 0.0000
# 2 60.3786 42.8653 7.1276 0.0000 0.0000 0.0000
# 3 14.3131 7.1276 52.8463 0.0000 0.0000 0.0000
# 4 0.0000 0.0000 0.0000 31.1487 0.0000 0.0000
# 5 0.0000 0.0000 0.0000 0.0000 22.0098 0.0000
# 6 0.0000 0.0000 0.0000 0.0000 0.0000 21.3796
#
#
#
# Elastic Compliance Matrix: (Units=1/GPa)
#
#
# Indices 1 2 3 4 5 6 
#
# 1 0.047597 -0.066389 -0.003937 0.000000 0.000000 0.000000
# 2 -0.066389 0.116464 0.002273 0.000000 0.000000 0.000000
# 3 -0.003937 0.002273 0.019683 0.000000 0.000000 0.000000
# 4 0.000000 0.000000 0.000000 0.032104 0.000000 0.000000
# 5 0.000000 0.000000 0.000000 0.000000 0.045434 0.000000
# 6 0.000000 0.000000 0.000000 0.000000 0.000000 0.046774
#
#
# Mechanical properties :
#
#
# Convention : Reuss Voigt Hill
#
# Bulk Modulus (GPa) = 20.99188 40.64004 30.81596
# Shear Modulus (GPa) = 10.86859 22.92779 16.89819
#
# Velocity S-wave (km/s) = 2.31441 3.36151 2.88585
# Velocity P-wave (km/s) = 4.18182 5.92414 5.12753
#
# Compressibility (1/GPa) = 0.04763746
#
# Stress axis : x y z
#
# Youngs Moduli (GPa) = 21.00968 8.58633 50.80627
#
# Poissons Ratio (x) = 0.57004 0.20003
# Poissons Ratio (y) = 1.39481 -0.11548
# Poissons Ratio (z) = 0.08272 -0.01952
#
# Static dielectric constant tensor:
#      x y z
#    x 1.759870 0.000000 0.000000 
#    y 0.000000 1.698840 0.000000 
#    z 0.000000 0.000000 1.750600 
# 
# From -- ./inp_files/10432.got.cif
#   From: 2010.05.17/outbox.cif.g08.bks.cpg/sg53_6_cif.got.tgz:10432.got - 2010.06.03 12:45:16.
