data_PCOD9419268
_publ_section_title
;
Structure prediction by ZEFSAII (Michael W. Deem and Ramdas Pophale) SiO2 
 PCOD9419268
Probable space group: P M N A
;
_chemical_formula_sum "Si O2"
_cell_formula_units_Z 40
_cell_length_a 15.217109
_cell_length_b 6.893273
_cell_length_c 15.482939
_cell_angle_alpha 90.000000
_cell_angle_beta 90.000000
_cell_angle_gamma 90.000000
_cell_volume 1624.093517
_symmetry_space_group_name_H-M "P M N A"
_symmetry_group_IT_number 53
_symmetry_cell_setting 'orthorhombic'
loop_
_space_group_symop_operation_xyz
x,y,z
1/2-x,-y,1/2+z
x,-y,-z
1/2-x,y,1/2-z
-x,-y,-z
1/2+x,y,1/2-z
-x,y,z
1/2+x,-y,1/2+z
loop_
_atom_site_type_symbol
_atom_site_label
_atom_site_fract_x
_atom_site_fract_y
_atom_site_fract_z
Si Si1 0.344709 0.921115 0.786781
Si Si2 0.398328 0.652792 0.245070
Si Si3 0.392458 0.393161 0.089461
Si Si4 0.603343 0.806806 0.610096
Si Si5 0.106396 0.265169 0.928257
O O1 0.250000 0.976486 0.750000
O O2 0.352341 0.812700 0.878382
O O3 0.374979 0.776707 0.709947
O O4 0.397549 0.120379 0.782327
O O5 0.500000 0.594834 0.252166
O O6 0.360723 0.536463 0.165194
O O7 0.358979 0.634230 0.341431
O O8 0.500000 0.370849 0.090045
O O9 0.370089 0.500000 0.000000
O O10 0.500000 0.774654 0.604088
O O11 0.641403 0.701474 0.525225
O O12 0.618629 0.036001 0.592073
O O13 0.000000 0.296656 0.929393
#
# Coordination Sequence:
#
# PCOD9419268 Si02
#       5
#     8   8   8   8   8
#     4  11  22  36  55  84 119 153 188 237 305 367
#     4   9  18  36  61  84 110 148 194 242 290 346
#     4  10  22  41  63  85 113 156 213 264 292 328
#     4   8  13  26  49  74 103 138 178 222 270 336
#     4   7  11  23  48  79 102 126 166 216 271 330
#
# _framework density 24.629121000000001
#
# number of rings (size 3 to 8) (size 9 to 14) (size 15 to 20)
#    0.000    3.000    0.000    4.200    0.000    1.600 
#    0.000   14.000    0.000    4.800    0.000    0.000 
#    0.000    0.000    0.000    0.000    0.000    0.000 
#
# Total GULP energy -223082.727009 kJ/mol
# GULP energy per Si atom -5577.068175 kJ/mol
# Density = 2.457306 g / cm^3
# Si number density = 24.629121 Si / 1000 Ang^3
#
#
#
# Elastic Constant Matrix: (Units=GPa)
#
#
# Indices 1 2 3 4 5 6 
#
# 1 45.0197 -12.9512 -2.6180 0.0000 0.0000 0.0000
# 2 -12.9512 73.3462 25.9103 0.0000 0.0000 0.0000
# 3 -2.6180 25.9103 166.5378 0.0000 0.0000 0.0000
# 4 0.0000 0.0000 0.0000 40.4143 0.0000 0.0000
# 5 0.0000 0.0000 0.0000 0.0000 -28.5392 0.0000
# 6 0.0000 0.0000 0.0000 0.0000 0.0000 -10.8924
#
#
#
# Elastic Compliance Matrix: (Units=1/GPa)
#
#
# Indices 1 2 3 4 5 6 
#
# 1 0.023415 0.004237 -0.000291 0.000000 0.000000 0.000000
# 2 0.004237 0.015194 -0.002297 0.000000 0.000000 0.000000
# 3 -0.000291 -0.002297 0.006357 0.000000 0.000000 0.000000
# 4 0.000000 0.000000 0.000000 0.024744 0.000000 0.000000
# 5 0.000000 0.000000 0.000000 0.000000 -0.035040 0.000000
# 6 0.000000 0.000000 0.000000 0.000000 0.000000 -0.091807
#
#
# Mechanical properties :
#
#
# Convention : Reuss Voigt Hill
#
# Bulk Modulus (GPa) = 20.71957 33.95399 27.33678
# Shear Modulus (GPa) = -112.74769 18.50072 -47.12349
#
# Velocity S-wave (km/s) = -6.77330 2.74373 -4.37890
# Velocity P-wave (km/s) = 7.26218 4.88400 3.80038
#
# Compressibility (1/GPa) = 0.04826354
#
# Stress axis : x y z
#
# Youngs Moduli (GPa) = 42.70848 65.81662 157.29507
#
# Poissons Ratio (x) = -0.27889 0.04580
# Poissons Ratio (y) = -0.18097 0.36135
# Poissons Ratio (z) = 0.01244 0.15120
#
# Static dielectric constant tensor:
#      x y z
#    x 1.989200 0.000000 0.000000 
#    y 0.000000 2.085280 0.000000 
#    z 0.000000 0.000000 2.126970 
# 
# From -- ./inp_files/22433.got.cif
#   From: 2010.05.17/outbox.cif.g08.bks.cpg/sg53_12_cif.got.tgz:22433.got - 2010.06.03 12:45:16.
