data_PCOD9419080
_publ_section_title
;
Structure prediction by ZEFSAII (Michael W. Deem and Ramdas Pophale) SiO2 
 PCOD9419080
Probable space group: P M N A
;
_chemical_formula_sum "Si O2"
_cell_formula_units_Z 40
_cell_length_a 13.640935
_cell_length_b 5.163079
_cell_length_c 28.380983
_cell_angle_alpha 90.000000
_cell_angle_beta 90.000000
_cell_angle_gamma 90.000000
_cell_volume 1998.850639
_symmetry_space_group_name_H-M "P M N A"
_symmetry_group_IT_number 53
_symmetry_cell_setting 'orthorhombic'
loop_
_space_group_symop_operation_xyz
x,y,z
1/2-x,-y,1/2+z
x,-y,-z
1/2-x,y,1/2-z
-x,-y,-z
1/2+x,y,1/2-z
-x,y,z
1/2+x,-y,1/2+z
loop_
_atom_site_type_symbol
_atom_site_label
_atom_site_fract_x
_atom_site_fract_y
_atom_site_fract_z
Si Si1 0.889469 0.351259 0.284949
Si Si2 0.885120 0.846736 0.821381
Si Si3 0.264218 0.360956 0.659787
Si Si4 0.113044 0.995192 0.377005
Si Si5 0.118603 0.254250 0.471858
O O1 0.875767 0.229009 0.233803
O O2 0.881866 0.137108 0.326387
O O3 0.000000 0.461674 0.287114
O O4 0.808952 0.563243 0.297557
O O5 0.837323 0.126255 0.828838
O O6 0.000000 0.848053 0.833133
O O7 0.826663 0.620575 0.848902
O O8 0.188114 0.242302 0.622127
O O9 0.140251 0.200608 0.417310
O O10 0.000000 0.910505 0.384903
O O11 0.157866 0.500000 0.500000
O O12 0.000000 0.269191 0.473838
O O13 0.149245 0.000000 0.500000
#
# Coordination Sequence:
#
# PCOD9419080 Si02
#       5
#     8   8   8   8   8
#     4  10  23  38  56  83 114 152 192 234 277 333
#     4  11  26  41  56  78 113 155 202 242 282 325
#     4  12  23  39  59  81 111 152 198 236 286 324
#     4  10  22  37  57  87 119 151 192 231 276 340
#     4   9  19  34  53  77 113 154 182 215 272 340
#
# _framework density 20.011499000000001
#
# number of rings (size 3 to 8) (size 9 to 14) (size 15 to 20)
#    0.000    1.600    2.000    1.800    8.400    0.000 
#    0.000    0.000    0.000    0.000    0.000    0.000 
#    0.000   16.000    0.000    0.000    0.000    0.000 
#
# Total GULP energy -223503.066304 kJ/mol
# GULP energy per Si atom -5587.576658 kJ/mol
# Density = 1.996595 g / cm^3
# Si number density = 20.011499 Si / 1000 Ang^3
#
#
#
# Elastic Constant Matrix: (Units=GPa)
#
#
# Indices 1 2 3 4 5 6 
#
# 1 124.1618 52.9228 2.5289 0.0000 0.0000 0.0000
# 2 52.9228 118.1217 8.0612 0.0000 0.0000 0.0000
# 3 2.5289 8.0612 36.9084 0.0000 0.0000 0.0000
# 4 0.0000 0.0000 0.0000 23.2099 0.0000 0.0000
# 5 0.0000 0.0000 0.0000 0.0000 9.4446 0.0000
# 6 0.0000 0.0000 0.0000 0.0000 0.0000 24.0430
#
#
#
# Elastic Compliance Matrix: (Units=1/GPa)
#
#
# Indices 1 2 3 4 5 6 
#
# 1 0.009958 -0.004482 0.000297 0.000000 0.000000 0.000000
# 2 -0.004482 0.010611 -0.002010 0.000000 0.000000 0.000000
# 3 0.000297 -0.002010 0.027513 0.000000 0.000000 0.000000
# 4 0.000000 0.000000 0.000000 0.043085 0.000000 0.000000
# 5 0.000000 0.000000 0.000000 0.000000 0.105880 0.000000
# 6 0.000000 0.000000 0.000000 0.000000 0.000000 0.041592
#
#
# Mechanical properties :
#
#
# Convention : Reuss Voigt Hill
#
# Bulk Modulus (GPa) = 28.01855 45.13529 36.57692
# Shear Modulus (GPa) = 19.01659 25.71811 22.36735
#
# Velocity S-wave (km/s) = 3.08601 3.58881 3.34687
# Velocity P-wave (km/s) = 5.17006 6.30685 5.76654
#
# Compressibility (1/GPa) = 0.03569064
#
# Stress axis : x y z
#
# Youngs Moduli (GPa) = 100.41820 94.24076 36.34663
#
# Poissons Ratio (x) = 0.42238 -0.01078
# Poissons Ratio (y) = 0.45007 0.07307
# Poissons Ratio (z) = -0.02978 0.18947
#
# Static dielectric constant tensor:
#      x y z
#    x 1.733380 0.000000 0.000000 
#    y 0.000000 1.742850 0.000000 
#    z 0.000000 0.000000 1.624720 
# 
# From -- ./inp_files/35151.got.cif
#   From: 2010.05.17/outbox.cif.g08.bks.cpg/sg53_18_cif.got.tgz:35151.got - 2010.06.03 12:45:16.
