data_PCOD9419216
_publ_section_title
;
Structure prediction by ZEFSAII (Michael W. Deem and Ramdas Pophale) SiO2 
 PCOD9419216
Probable space group: P M N A
;
_chemical_formula_sum "Si O2"
_cell_formula_units_Z 32
_cell_length_a 15.618884
_cell_length_b 17.017699
_cell_length_c 5.175122
_cell_angle_alpha 90.000000
_cell_angle_beta 90.000000
_cell_angle_gamma 90.000000
_cell_volume 1375.534317
_symmetry_space_group_name_H-M "P M N A"
_symmetry_group_IT_number 53
_symmetry_cell_setting 'orthorhombic'
loop_
_space_group_symop_operation_xyz
x,y,z
1/2-x,-y,1/2+z
x,-y,-z
1/2-x,y,1/2-z
-x,-y,-z
1/2+x,y,1/2-z
-x,y,z
1/2+x,-y,1/2+z
loop_
_atom_site_type_symbol
_atom_site_label
_atom_site_fract_x
_atom_site_fract_y
_atom_site_fract_z
Si Si1 0.000000 0.554666 0.746853
Si Si2 0.324666 0.592384 0.562424
Si Si3 0.100067 0.287365 0.709185
Si Si4 0.899680 0.819251 0.780162
Si Si5 0.750000 0.945540 0.750000
O O1 0.000000 0.500000 0.500000
O O2 0.912819 0.601615 0.775569
O O3 0.000000 0.500000 0.000000
O O4 0.311683 0.500000 0.500000
O O5 0.250000 0.619522 0.750000
O O6 0.342978 0.639288 0.299752
O O7 0.123503 0.239054 0.455262
O O8 0.000000 0.312427 0.690040
O O9 0.106785 0.227210 0.950446
O O10 0.833683 0.890663 0.776341
O O11 0.000000 0.841895 0.744875
O O12 0.758224 0.000000 0.500000
#
# Coordination Sequence:
#
# PCOD9419216 Si02
#       5
#     4   8   8   8   4
#     4  10  22  40  62  86 130 174 226 301 354 413
#     4  11  24  42  63 100 135 188 245 305 360 416
#     4  10  22  44  70  98 137 192 239 290 350 412
#     4  10  24  46  72 106 145 184 233 281 344 419
#     4  12  26  46  76 114 146 182 226 276 350 430
#
# _framework density 23.263687000000001
#
# number of rings (size 3 to 8) (size 9 to 14) (size 15 to 20)
#    0.000    1.500    1.250    2.250    1.750    7.000 
#    0.000    0.000    0.000    0.000    0.000    0.000 
#    0.000    0.000    0.000    0.000    0.000    0.000 
#
# Total GULP energy -179514.898796 kJ/mol
# GULP energy per Si atom -5609.840587 kJ/mol
# Density = 2.321074 g / cm^3
# Si number density = 23.263687 Si / 1000 Ang^3
#
#
#
# Elastic Constant Matrix: (Units=GPa)
#
#
# Indices 1 2 3 4 5 6 
#
# 1 132.2440 47.8081 22.4730 0.0000 0.0000 0.0000
# 2 47.8081 124.2890 31.4687 0.0000 0.0000 0.0000
# 3 22.4730 31.4687 130.8222 0.0000 0.0000 0.0000
# 4 0.0000 0.0000 0.0000 42.0072 0.0000 0.0000
# 5 0.0000 0.0000 0.0000 0.0000 37.8849 0.0000
# 6 0.0000 0.0000 0.0000 0.0000 0.0000 -4.0521
#
#
#
# Elastic Compliance Matrix: (Units=1/GPa)
#
#
# Indices 1 2 3 4 5 6 
#
# 1 0.008851 -0.003215 -0.000747 0.000000 0.000000 0.000000
# 2 -0.003215 0.009736 -0.001790 0.000000 0.000000 0.000000
# 3 -0.000747 -0.001790 0.008203 0.000000 0.000000 0.000000
# 4 0.000000 0.000000 0.000000 0.023805 0.000000 0.000000
# 5 0.000000 0.000000 0.000000 0.000000 0.026396 0.000000
# 6 0.000000 0.000000 0.000000 0.000000 0.000000 -0.246783
#
#
# Mechanical properties :
#
#
# Convention : Reuss Voigt Hill
#
# Bulk Modulus (GPa) = 65.42109 65.65053 65.53581
# Shear Modulus (GPa) = -32.63851 34.20836 0.78492
#
# Velocity S-wave (km/s) = -3.74970 3.83882 0.58149
# Velocity P-wave (km/s) = 3.07174 6.92316 5.35564
#
# Compressibility (1/GPa) = 0.01528559
#
# Stress axis : x y z
#
# Youngs Moduli (GPa) = 112.97941 102.71474 121.91046
#
# Poissons Ratio (x) = 0.33028 0.09107
# Poissons Ratio (y) = 0.36328 0.21816
# Poissons Ratio (z) = 0.08440 0.18381
#
# Static dielectric constant tensor:
#      x y z
#    x 1.923760 0.000000 0.000000 
#    y 0.000000 1.806160 0.000000 
#    z 0.000000 0.000000 1.810550 
# 
# From -- ./inp_files/1294.got.cif
#   From: 2010.05.17/outbox.cif.g08.bks.cpg/sg53_1_cif.got.tgz:1294.got - 2010.06.03 12:45:16.
