data_PCOD9419242
_publ_section_title
;
Structure prediction by ZEFSAII (Michael W. Deem and Ramdas Pophale) SiO2 
 PCOD9419242
Probable space group: P M N A
;
_chemical_formula_sum "Si O2"
_cell_formula_units_Z 40
_cell_length_a 23.608127
_cell_length_b 6.777224
_cell_length_c 11.786689
_cell_angle_alpha 90.000000
_cell_angle_beta 90.000000
_cell_angle_gamma 90.000000
_cell_volume 1885.841538
_symmetry_space_group_name_H-M "P M N A"
_symmetry_group_IT_number 53
_symmetry_cell_setting 'orthorhombic'
loop_
_space_group_symop_operation_xyz
x,y,z
1/2-x,-y,1/2+z
x,-y,-z
1/2-x,y,1/2-z
-x,-y,-z
1/2+x,y,1/2-z
-x,y,z
1/2+x,-y,1/2+z
loop_
_atom_site_type_symbol
_atom_site_label
_atom_site_fract_x
_atom_site_fract_y
_atom_site_fract_z
Si Si1 0.836320 0.850405 0.648667
Si Si2 0.114649 0.500000 0.500000
Si Si3 0.205760 0.140955 0.102648
Si Si4 0.936037 0.849382 0.353591
Si Si5 0.563217 0.806339 0.418855
Si Si6 0.656216 0.500000 0.500000
O O1 0.850137 0.643202 0.585872
O O2 0.832292 0.870514 0.785159
O O3 0.771825 0.906840 0.619065
O O4 0.886609 0.997518 0.616678
O O5 0.078682 0.354635 0.581752
O O6 0.197892 0.369795 0.074626
O O7 0.187513 0.000000 0.000000
O O8 0.935346 0.838686 0.216421
O O9 0.000000 0.910942 0.383649
O O10 0.500000 0.724937 0.444315
O O11 0.613561 0.654501 0.443013
O O12 0.567579 0.000000 0.500000
#
# Coordination Sequence:
#
# PCOD9419242 Si02
#       6
#     8   4   8   8   8   4
#     4  11  25  44  66  94 131 172 216 270 325 383
#     4  12  24  42  64  94 130 170 218 266 320 388
#     4  11  24  42  66  96 130 172 220 268 321 384
#     4  11  24  42  65  93 128 170 216 269 326 387
#     4  10  22  40  64  97 134 171 215 268 327 389
#     4  12  20  36  64  94 129 170 215 266 320 382
#
# _framework density 21.210688999999999
#
# number of rings (size 3 to 8) (size 9 to 14) (size 15 to 20)
#    0.000    1.000    0.000    7.200    0.000    2.400 
#    0.000    9.000    0.000    0.000    0.000    0.000 
#    0.000    0.000    0.000    0.000    0.000    0.000 
#
# Total GULP energy -223011.080074 kJ/mol
# GULP energy per Si atom -5575.277002 kJ/mol
# Density = 2.116241 g / cm^3
# Si number density = 21.210689 Si / 1000 Ang^3
#
#
#
# Elastic Constant Matrix: (Units=GPa)
#
#
# Indices 1 2 3 4 5 6 
#
# 1 129.7919 51.0424 32.1724 0.0000 0.0000 0.0000
# 2 51.0424 110.7250 66.4875 0.0000 0.0000 0.0000
# 3 32.1724 66.4875 176.3119 0.0000 0.0000 0.0000
# 4 0.0000 0.0000 0.0000 37.4084 0.0000 0.0000
# 5 0.0000 0.0000 0.0000 0.0000 -0.7212 0.0000
# 6 0.0000 0.0000 0.0000 0.0000 0.0000 31.7792
#
#
#
# Elastic Compliance Matrix: (Units=1/GPa)
#
#
# Indices 1 2 3 4 5 6 
#
# 1 0.009412 -0.004276 -0.000105 0.000000 0.000000 0.000000
# 2 -0.004276 0.013617 -0.004355 0.000000 0.000000 0.000000
# 3 -0.000105 -0.004355 0.007333 0.000000 0.000000 0.000000
# 4 0.000000 0.000000 0.000000 0.026732 0.000000 0.000000
# 5 0.000000 0.000000 0.000000 0.000000 -1.386623 0.000000
# 6 0.000000 0.000000 0.000000 0.000000 0.000000 0.031467
#
#
# Mechanical properties :
#
#
# Convention : Reuss Voigt Hill
#
# Bulk Modulus (GPa) = 77.57194 79.58150 78.57672
# Shear Modulus (GPa) = -3.91760 31.50171 13.79206
#
# Velocity S-wave (km/s) = -1.36052 3.85799 2.55275
# Velocity P-wave (km/s) = 5.84666 7.57934 6.76867
#
# Compressibility (1/GPa) = 0.01289126
#
# Stress axis : x y z
#
# Youngs Moduli (GPa) = 106.24521 73.43497 136.36596
#
# Poissons Ratio (x) = 0.31399 0.01433
# Poissons Ratio (y) = 0.45428 0.59387
# Poissons Ratio (z) = 0.01116 0.31981
#
# Static dielectric constant tensor:
#      x y z
#    x 1.767640 0.000000 0.000000 
#    y 0.000000 1.760630 0.000000 
#    z 0.000000 0.000000 1.744200 
# 
# From -- ./inp_files/18626.got.cif
#   From: 2010.05.17/outbox.cif.g08.bks.cpg/sg53_10_cif.got.tgz:18626.got - 2010.06.03 12:45:16.
