data_PCOD9419441
_publ_section_title
;
Structure prediction by ZEFSAII (Michael W. Deem and Ramdas Pophale) SiO2 
 PCOD9419441
Probable space group: P M N A
;
_chemical_formula_sum "Si O2"
_cell_formula_units_Z 64
_cell_length_a 8.721024
_cell_length_b 24.724511
_cell_length_c 15.402512
_cell_angle_alpha 90.000000
_cell_angle_beta 90.000000
_cell_angle_gamma 90.000000
_cell_volume 3321.136674
_symmetry_space_group_name_H-M "P M N A"
_symmetry_group_IT_number 53
_symmetry_cell_setting 'orthorhombic'
loop_
_space_group_symop_operation_xyz
x,y,z
1/2-x,-y,1/2+z
x,-y,-z
1/2-x,y,1/2-z
-x,-y,-z
1/2+x,y,1/2-z
-x,y,z
1/2+x,-y,1/2+z
loop_
_atom_site_type_symbol
_atom_site_label
_atom_site_fract_x
_atom_site_fract_y
_atom_site_fract_z
Si Si1 0.184575 0.388024 0.652694
Si Si2 0.817439 0.620061 0.847530
Si Si3 0.317246 0.118240 0.343274
Si Si4 0.184012 0.508198 0.652277
Si Si5 0.316522 0.817648 0.004642
Si Si6 0.320800 0.996508 0.895508
Si Si7 0.317378 0.889109 0.340985
Si Si8 0.684656 0.690864 0.998458
O O1 0.250000 0.381041 0.750000
O O2 0.223085 0.448501 0.617716
O O3 0.234151 0.343265 0.583243
O O4 0.000000 0.385943 0.660082
O O5 0.750000 0.626748 0.750000
O O6 0.756287 0.562640 0.885280
O O7 0.000000 0.618548 0.841279
O O8 0.761236 0.666215 0.912736
O O9 0.250000 0.133063 0.250000
O O10 0.500000 0.121802 0.343994
O O11 0.245667 0.156498 0.416302
O O12 0.265795 0.056866 0.364186
O O13 0.250000 0.506856 0.750000
O O14 0.000000 0.513926 0.652602
O O15 0.500000 0.824993 0.009017
O O16 0.239784 0.850560 0.082502
O O17 0.281417 0.754101 0.009038
O O18 0.500000 0.992836 0.870711
O O19 0.248187 0.050896 0.857953
O O20 0.312112 0.000000 0.000000
O O21 0.250000 0.869345 0.250000
O O22 0.500000 0.891103 0.338531
O O23 0.500000 0.684786 0.990237
#
# Coordination Sequence:
#
# PCOD9419441 Si02
#       8
#     8   8   8   8   8   8   8   8
#     4   9  19  36  59  87 118 155 194 240 296 354
#     4  11  22  37  59  86 118 154 196 244 298 357
#     4  12  25  42  66  94 126 162 203 247 301 362
#     4   9  16  30  54  83 117 152 190 235 292 356
#     4  11  24  44  65  88 120 158 205 257 305 355
#     4  11  22  39  66  96 131 165 198 244 301 359
#     4  12  25  42  66  94 127 164 205 249 300 359
#     4  10  23  42  62  85 117 157 201 248 299 355
#
# _framework density 19.270510999999999
#
# number of rings (size 3 to 8) (size 9 to 14) (size 15 to 20)
#    0.000    1.375    1.250    5.625    0.000    4.000 
#    0.000    3.750    0.000    0.000    0.000    0.000 
#    0.000    0.000    0.000    0.000    0.000    0.000 
#
# Total GULP energy -357791.836037 kJ/mol
# GULP energy per Si atom -5590.497438 kJ/mol
# Density = 1.922665 g / cm^3
# Si number density = 19.270511 Si / 1000 Ang^3
#
#
#
# Elastic Constant Matrix: (Units=GPa)
#
#
# Indices 1 2 3 4 5 6 
#
# 1 58.7453 10.3765 3.0506 0.0000 0.0000 0.0000
# 2 10.3765 53.7618 -4.0000 0.0000 0.0000 0.0000
# 3 3.0506 -4.0000 64.6081 0.0000 0.0000 0.0000
# 4 0.0000 0.0000 0.0000 228.2876 0.0000 0.0000
# 5 0.0000 0.0000 0.0000 0.0000 29.8108 0.0000
# 6 0.0000 0.0000 0.0000 0.0000 0.0000 17.9258
#
#
#
# Elastic Compliance Matrix: (Units=1/GPa)
#
#
# Indices 1 2 3 4 5 6 
#
# 1 0.017694 -0.003493 -0.001052 0.000000 0.000000 0.000000
# 2 -0.003493 0.019376 0.001365 0.000000 0.000000 0.000000
# 3 -0.001052 0.001365 0.015612 0.000000 0.000000 0.000000
# 4 0.000000 0.000000 0.000000 0.004380 0.000000 0.000000
# 5 0.000000 0.000000 0.000000 0.000000 0.033545 0.000000
# 6 0.000000 0.000000 0.000000 0.000000 0.000000 0.055786
#
#
# Mechanical properties :
#
#
# Convention : Reuss Voigt Hill
#
# Bulk Modulus (GPa) = 21.58821 21.77437 21.68129
# Shear Modulus (GPa) = 29.72735 66.38405 48.05570
#
# Velocity S-wave (km/s) = 3.93190 5.87565 4.99916
# Velocity P-wave (km/s) = 5.64271 7.57330 6.67814
#
# Compressibility (1/GPa) = 0.04632157
#
# Stress axis : x y z
#
# Youngs Moduli (GPa) = 56.51535 51.60928 64.05298
#
# Poissons Ratio (x) = 0.18029 0.06737
# Poissons Ratio (y) = 0.19743 -0.08740
# Poissons Ratio (z) = 0.05944 -0.07042
#
# Static dielectric constant tensor:
#      x y z
#    x 1.650640 0.000000 0.000000 
#    y 0.000000 1.668260 0.000000 
#    z 0.000000 0.000000 1.697610 
# 
# From -- ./inp_files/21016.got.cif
#   From: 2010.05.17/outbox.cif.g08.bks.cpg/sg53_11_cif.got.tgz:21016.got - 2010.06.03 12:45:16.
