data_PCOD9419622
_publ_section_title
;
Structure prediction by ZEFSAII (Michael W. Deem and Ramdas Pophale) SiO2 
 PCOD9419622
Probable space group: P M N A
;
_chemical_formula_sum "Si O2"
_cell_formula_units_Z 64
_cell_length_a 20.879257
_cell_length_b 9.343292
_cell_length_c 17.915769
_cell_angle_alpha 90.000000
_cell_angle_beta 90.000000
_cell_angle_gamma 90.000000
_cell_volume 3495.026041
_symmetry_space_group_name_H-M "P M N A"
_symmetry_group_IT_number 53
_symmetry_cell_setting 'orthorhombic'
loop_
_space_group_symop_operation_xyz
x,y,z
1/2-x,-y,1/2+z
x,-y,-z
1/2-x,y,1/2-z
-x,-y,-z
1/2+x,y,1/2-z
-x,y,z
1/2+x,-y,1/2+z
loop_
_atom_site_type_symbol
_atom_site_label
_atom_site_fract_x
_atom_site_fract_y
_atom_site_fract_z
Si Si1 0.756816 0.440774 0.078935
Si Si2 0.072901 0.846793 0.796348
Si Si3 0.227307 0.880935 0.562839
Si Si4 0.625239 0.541677 0.692786
Si Si5 0.122580 0.135955 0.041502
Si Si6 0.070343 0.630748 0.057236
Si Si7 0.319479 0.977437 0.209610
Si Si8 0.691271 0.650582 0.191195
O O1 0.721037 0.292097 0.058620
O O2 0.812908 0.413142 0.140875
O O3 0.714879 0.565814 0.117996
O O4 0.782039 0.500000 0.000000
O O5 0.090871 0.683273 0.777718
O O6 0.080981 0.838604 0.885810
O O7 0.000000 0.882557 0.776133
O O8 0.124688 0.955827 0.761067
O O9 0.304838 0.895324 0.567250
O O10 0.209114 0.000000 0.500000
O O11 0.190745 0.926744 0.636926
O O12 0.587478 0.438319 0.636185
O O13 0.642966 0.449365 0.764326
O O14 0.120028 0.260040 0.979656
O O15 0.095933 0.000000 0.000000
O O16 0.000000 0.700105 0.060440
O O17 0.066775 0.500000 0.000000
O O18 0.250000 0.980600 0.250000
O O19 0.331592 0.813723 0.183838
O O20 0.750000 0.659134 0.250000
#
# Coordination Sequence:
#
# PCOD9419622 Si02
#       8
#     8   8   8   8   8   8   8   8
#     4  11  19  34  56  84 115 149 193 247 303 354
#     4  12  24  39  58  84 121 165 205 243 294 354
#     4  11  21  35  61  88 115 152 193 245 303 353
#     4  11  20  36  53  78 112 160 203 243 291 347
#     4  11  23  36  53  82 118 158 201 241 288 345
#     4  11  21  34  51  74 111 157 203 241 276 334
#     4  11  21  40  59  85 118 155 200 252 302 354
#     4   9  22  35  57  83 111 150 201 254 301 350
#
# _framework density 18.311737999999998
#
# number of rings (size 3 to 8) (size 9 to 14) (size 15 to 20)
#    0.000    1.125    3.750    3.375    1.750    4.000 
#    0.000    0.625    0.000    0.375    0.000    0.000 
#    0.000    6.000    0.000    0.000    0.000    0.000 
#
# Total GULP energy -356777.690064 kJ/mol
# GULP energy per Si atom -5574.651407 kJ/mol
# Density = 1.827006 g / cm^3
# Si number density = 18.311738 Si / 1000 Ang^3
#
#
#
# Elastic Constant Matrix: (Units=GPa)
#
#
# Indices 1 2 3 4 5 6 
#
# 1 67.0394 30.0294 18.7297 0.0000 0.0000 0.0000
# 2 30.0294 127.3248 26.7107 0.0000 0.0000 0.0000
# 3 18.7297 26.7107 47.0780 0.0000 0.0000 0.0000
# 4 0.0000 0.0000 0.0000 34.3729 0.0000 0.0000
# 5 0.0000 0.0000 0.0000 0.0000 -1.9769 0.0000
# 6 0.0000 0.0000 0.0000 0.0000 0.0000 21.8308
#
#
#
# Elastic Compliance Matrix: (Units=1/GPa)
#
#
# Indices 1 2 3 4 5 6 
#
# 1 0.017784 -0.003076 -0.005330 0.000000 0.000000 0.000000
# 2 -0.003076 0.009447 -0.004136 0.000000 0.000000 0.000000
# 3 -0.005330 -0.004136 0.025709 0.000000 0.000000 0.000000
# 4 0.000000 0.000000 0.000000 0.029093 0.000000 0.000000
# 5 0.000000 0.000000 0.000000 0.000000 -0.505846 0.000000
# 6 0.000000 0.000000 0.000000 0.000000 0.000000 0.045807
#
#
# Mechanical properties :
#
#
# Convention : Reuss Voigt Hill
#
# Bulk Modulus (GPa) = 35.90020 43.59798 39.74909
# Shear Modulus (GPa) = -14.55021 21.91019 3.67999
#
# Velocity S-wave (km/s) = -2.82189 3.46281 1.41915
# Velocity P-wave (km/s) = 3.00502 6.31257 4.94362
#
# Compressibility (1/GPa) = 0.02785499
#
# Stress axis : x y z
#
# Youngs Moduli (GPa) = 56.23171 105.85212 38.89763
#
# Poissons Ratio (x) = 0.32561 0.20731
# Poissons Ratio (y) = 0.17298 0.16089
# Poissons Ratio (z) = 0.29970 0.43783
#
# Static dielectric constant tensor:
#      x y z
#    x 1.665840 0.000000 0.000000 
#    y 0.000000 1.768140 0.000000 
#    z 0.000000 0.000000 1.623740 
# 
# From -- ./inp_files/29403.got.cif
#   From: 2010.05.17/outbox.cif.g08.bks.cpg/sg53_15_cif.got.tgz:29403.got - 2010.06.03 12:45:16.
