data_PCOD9419989
_publ_section_title
;
Structure prediction by ZEFSAII (Michael W. Deem and Ramdas Pophale) SiO2 
 PCOD9419989
Probable space group: P M N A
;
_chemical_formula_sum "Si O2"
_cell_formula_units_Z 48
_cell_length_a 19.059243
_cell_length_b 8.477267
_cell_length_c 14.390939
_cell_angle_alpha 90.000000
_cell_angle_beta 90.000000
_cell_angle_gamma 90.000000
_cell_volume 2325.148212
_symmetry_space_group_name_H-M "P M N A"
_symmetry_group_IT_number 53
_symmetry_cell_setting 'orthorhombic'
loop_
_space_group_symop_operation_xyz
x,y,z
1/2-x,-y,1/2+z
x,-y,-z
1/2-x,y,1/2-z
-x,-y,-z
1/2+x,y,1/2-z
-x,y,z
1/2+x,-y,1/2+z
loop_
_atom_site_type_symbol
_atom_site_label
_atom_site_fract_x
_atom_site_fract_y
_atom_site_fract_z
Si Si1 0.853299 0.178166 0.633500
Si Si2 0.368429 0.809157 0.830661
Si Si3 0.000000 0.474684 0.888889
Si Si4 0.000000 0.314748 0.705190
Si Si5 0.000000 0.619342 0.591845
Si Si6 0.147403 0.639033 0.855014
Si Si7 0.269150 0.321588 0.031817
Si Si8 0.250000 0.601729 0.250000
O O1 0.931431 0.242206 0.655317
O O2 0.814733 0.210025 0.535261
O O3 0.802897 0.282329 0.697632
O O4 0.858501 0.993087 0.651984
O O5 0.432907 0.731670 0.889257
O O6 0.367661 0.773462 0.721232
O O7 0.301883 0.715198 0.868686
O O8 0.073068 0.557745 0.865772
O O9 0.000000 0.319888 0.818562
O O10 0.000000 0.500000 0.000000
O O11 0.000000 0.497319 0.676486
O O12 0.000000 0.500000 0.500000
O O13 0.185953 0.697183 0.949762
O O14 0.200115 0.505162 0.814659
O O15 0.283466 0.500000 0.000000
#
# Coordination Sequence:
#
# PCOD9419989 Si02
#       8
#     8   8   4   4   4   8   8   4
#     4  12  27  41  71 107 149 182 238 311 384 434
#     4  12  24  43  67 108 145 190 236 302 376 438
#     4  12  26  44  75 109 131 187 250 310 342 428
#     4  12  23  48  70 107 146 188 236 299 373 442
#     4  12  23  42  76 103 146 198 245 296 369 462
#     4  12  23  46  74 100 143 188 253 294 360 440
#     4  12  23  42  68 103 138 186 239 299 353 447
#     4  12  22  42  70 100 134 196 240 298 358 444
#
# _framework density 20.643844000000001
#
# number of rings (size 3 to 8) (size 9 to 14) (size 15 to 20)
#    0.000    0.000    6.667    4.000    2.333    0.000 
#    0.000    2.500    0.000    1.000    0.000    0.000 
#    0.000    0.000    0.000    0.000    0.000    0.000 
#
# Total GULP energy -267579.634720 kJ/mol
# GULP energy per Si atom -5574.575723 kJ/mol
# Density = 2.059686 g / cm^3
# Si number density = 20.643844 Si / 1000 Ang^3
#
#
#
# Elastic Constant Matrix: (Units=GPa)
#
#
# Indices 1 2 3 4 5 6 
#
# 1 177.6427 67.9521 42.6288 0.0000 0.0000 0.0000
# 2 67.9521 135.7428 53.6428 0.0000 0.0000 0.0000
# 3 42.6288 53.6428 92.9721 0.0000 0.0000 0.0000
# 4 0.0000 0.0000 0.0000 22.7326 0.0000 0.0000
# 5 0.0000 0.0000 0.0000 0.0000 79.7150 0.0000
# 6 0.0000 0.0000 0.0000 0.0000 0.0000 -74.0654
#
#
#
# Elastic Compliance Matrix: (Units=1/GPa)
#
#
# Indices 1 2 3 4 5 6 
#
# 1 0.007135 -0.002952 -0.001568 0.000000 0.000000 0.000000
# 2 -0.002952 0.010764 -0.004857 0.000000 0.000000 0.000000
# 3 -0.001568 -0.004857 0.014277 0.000000 0.000000 0.000000
# 4 0.000000 0.000000 0.000000 0.043990 0.000000 0.000000
# 5 0.000000 0.000000 0.000000 0.000000 0.012545 0.000000
# 6 0.000000 0.000000 0.000000 0.000000 0.000000 -0.013502
#
#
# Mechanical properties :
#
#
# Convention : Reuss Voigt Hill
#
# Bulk Modulus (GPa) = 74.50589 81.64501 78.07545
# Shear Modulus (GPa) = 50.79380 21.81871 36.30626
#
# Velocity S-wave (km/s) = 4.96571 3.25454 4.19823
# Velocity P-wave (km/s) = 8.30946 7.33198 7.83598
#
# Compressibility (1/GPa) = 0.01342176
#
# Stress axis : x y z
#
# Youngs Moduli (GPa) = 140.15890 92.90220 70.04077
#
# Poissons Ratio (x) = 0.27424 0.10984
# Poissons Ratio (y) = 0.41374 0.34020
# Poissons Ratio (z) = 0.21980 0.45124
#
# Static dielectric constant tensor:
#      x y z
#    x 1.776840 0.000000 0.000000 
#    y 0.000000 1.692680 0.000000 
#    z 0.000000 0.000000 1.950860 
# 
# From -- ./inp_files/23749.got.cif
#   From: 2010.05.17/outbox.cif.g08.bks.cpg/sg53_12_cif.got.tgz:23749.got - 2010.06.03 12:45:16.
