data_PCOD9419560
_publ_section_title
;
Structure prediction by ZEFSAII (Michael W. Deem and Ramdas Pophale) SiO2 
 PCOD9419560
Probable space group: P M N A
;
_chemical_formula_sum "Si O2"
_cell_formula_units_Z 34
_cell_length_a 24.451004
_cell_length_b 5.197385
_cell_length_c 11.376883
_cell_angle_alpha 90.000000
_cell_angle_beta 90.000000
_cell_angle_gamma 90.000000
_cell_volume 1445.788870
_symmetry_space_group_name_H-M "P M N A"
_symmetry_group_IT_number 53
_symmetry_cell_setting 'orthorhombic'
loop_
_space_group_symop_operation_xyz
x,y,z
1/2-x,-y,1/2+z
x,-y,-z
1/2-x,y,1/2-z
-x,-y,-z
1/2+x,y,1/2-z
-x,y,z
1/2+x,-y,1/2+z
loop_
_atom_site_type_symbol
_atom_site_label
_atom_site_fract_x
_atom_site_fract_y
_atom_site_fract_z
Si Si1 0.500000 0.249221 0.421163
Si Si2 0.104340 0.772428 0.379532
Si Si3 0.390392 0.727275 0.727253
Si Si4 0.226322 0.859933 0.872388
Si Si5 0.699056 0.500000 0.000000
Si Si6 0.000000 0.500000 0.500000
O O1 0.500000 0.500000 0.500000
O O2 0.445819 0.248645 0.344351
O O3 0.500000 0.000000 0.500000
O O4 0.111462 0.561440 0.276179
O O5 0.157995 0.720021 0.456623
O O6 0.048716 0.687643 0.444104
O O7 0.104222 0.058388 0.329067
O O8 0.336371 0.791034 0.653724
O O9 0.250000 0.981062 0.750000
O O10 0.263353 0.608288 0.896322
O O11 0.229145 0.000000 0.000000
#
# Coordination Sequence:
#
# PCOD9419560 Si02
#       6
#     4   8   8   8   4   2
#     4  12  26  45  70 105 146 197 257 320 384 479
#     4  11  25  46  73 113 149 202 260 327 401 474
#     4  12  26  47  74 107 152 204 258 326 399 476
#     4  12  27  47  77 110 157 210 263 330 398 478
#     4  11  26  43  74 107 156 195 264 322 392 475
#     4  10  24  44  80 110 160 204 258 340 404 468
#
# _framework density 23.516573999999999
#
# number of rings (size 3 to 8) (size 9 to 14) (size 15 to 20)
#    0.000    0.471    2.353    4.941    4.941    4.706 
#    0.000    0.000    0.000    0.000    0.000    0.000 
#    0.000    0.000    0.000    0.000    0.000    0.000 
#
# Total GULP energy -189971.511364 kJ/mol
# GULP energy per Si atom -5587.397393 kJ/mol
# Density = 2.346305 g / cm^3
# Si number density = 23.516574 Si / 1000 Ang^3
#
#
#
# Elastic Constant Matrix: (Units=GPa)
#
#
# Indices 1 2 3 4 5 6 
#
# 1 240.9141 17.5794 79.8523 0.0000 0.0000 0.0000
# 2 17.5794 70.9337 48.1635 0.0000 0.0000 0.0000
# 3 79.8523 48.1635 139.0399 0.0000 0.0000 0.0000
# 4 0.0000 0.0000 0.0000 54.0833 0.0000 0.0000
# 5 0.0000 0.0000 0.0000 0.0000 15.8677 0.0000
# 6 0.0000 0.0000 0.0000 0.0000 0.0000 23.8313
#
#
#
# Elastic Compliance Matrix: (Units=1/GPa)
#
#
# Indices 1 2 3 4 5 6 
#
# 1 0.005177 0.000962 -0.003306 0.000000 0.000000 0.000000
# 2 0.000962 0.018612 -0.007000 0.000000 0.000000 0.000000
# 3 -0.003306 -0.007000 0.011516 0.000000 0.000000 0.000000
# 4 0.000000 0.000000 0.000000 0.018490 0.000000 0.000000
# 5 0.000000 0.000000 0.000000 0.000000 0.063021 0.000000
# 6 0.000000 0.000000 0.000000 0.000000 0.000000 0.041962
#
#
# Mechanical properties :
#
#
# Convention : Reuss Voigt Hill
#
# Bulk Modulus (GPa) = 60.18144 82.45313 71.31728
# Shear Modulus (GPa) = 27.32189 39.10929 33.21559
#
# Velocity S-wave (km/s) = 3.41224 4.08248 3.76231
# Velocity P-wave (km/s) = 6.41647 7.57364 7.01894
#
# Compressibility (1/GPa) = 0.01661642
#
# Stress axis : x y z
#
# Youngs Moduli (GPa) = 193.18049 53.72876 86.83845
#
# Poissons Ratio (x) = -0.05169 0.28710
# Poissons Ratio (y) = -0.18583 0.60784
# Poissons Ratio (z) = 0.63869 0.37608
#
# Static dielectric constant tensor:
#      x y z
#    x 1.748950 0.000000 0.000000 
#    y 0.000000 1.901090 0.000000 
#    z 0.000000 0.000000 1.807130 
# 
# From -- ./inp_files/18119.got.cif
#   From: 2010.05.17/outbox.cif.g08.bks.cpg/sg53_10_cif.got.tgz:18119.got - 2010.06.03 12:45:16.
