data_PCOD9419952
_publ_section_title
;
Structure prediction by ZEFSAII (Michael W. Deem and Ramdas Pophale) SiO2 
 PCOD9419952
Probable space group: P M N A
;
_chemical_formula_sum "Si O2"
_cell_formula_units_Z 22
_cell_length_a 32.846431
_cell_length_b 5.356528
_cell_length_c 5.050496
_cell_angle_alpha 90.000000
_cell_angle_beta 90.000000
_cell_angle_gamma 90.000000
_cell_volume 888.598546
_symmetry_space_group_name_H-M "P M N A"
_symmetry_group_IT_number 53
_symmetry_cell_setting 'orthorhombic'
loop_
_space_group_symop_operation_xyz
x,y,z
1/2-x,-y,1/2+z
x,-y,-z
1/2-x,y,1/2-z
-x,-y,-z
1/2+x,y,1/2-z
-x,y,z
1/2+x,-y,1/2+z
loop_
_atom_site_type_symbol
_atom_site_label
_atom_site_fract_x
_atom_site_fract_y
_atom_site_fract_z
Si Si1 0.344392 0.328144 0.250178
Si Si2 0.934226 0.240154 0.326938
Si Si3 0.000000 0.500000 0.000000
Si Si4 0.225180 0.000000 0.500000
O O1 0.336663 0.500000 0.500000
O O2 0.388015 0.194656 0.273319
O O3 0.305232 0.170778 0.171031
O O4 0.351081 0.500000 0.000000
O O5 0.937452 0.500000 0.500000
O O6 0.946065 0.000000 0.500000
O O7 0.964490 0.300372 0.091115
O O8 0.250000 0.879264 0.250000
#
# Coordination Sequence:
#
# PCOD9419952 Si02
#       4
#     8   8   2   4
#     4  11  24  47  73 108 153 207 255 328 413 489
#     4  11  25  45  71 109 157 207 267 333 399 482
#     4  12  24  46  72 116 148 222 268 334 398 482
#     4  12  26  46  76 113 146 197 264 340 408 510
#
# _framework density 24.758087
#
# number of rings (size 3 to 8) (size 9 to 14) (size 15 to 20)
#    0.000    0.727    3.636    3.273    0.000    5.818 
#    0.000    0.000    0.000    0.000    0.000    0.000 
#    0.000    0.000    0.000    0.000    0.000    0.000 
#
# Total GULP energy -122491.385105 kJ/mol
# GULP energy per Si atom -5567.790232 kJ/mol
# Density = 2.470174 g / cm^3
# Si number density = 24.758087 Si / 1000 Ang^3
#
#
#
# Elastic Constant Matrix: (Units=GPa)
#
#
# Indices 1 2 3 4 5 6 
#
# 1 153.6750 35.5106 61.0969 0.0000 0.0000 0.0000
# 2 35.5106 138.1342 71.0451 0.0000 0.0000 0.0000
# 3 61.0969 71.0451 172.8715 0.0000 0.0000 0.0000
# 4 0.0000 0.0000 0.0000 78.1931 0.0000 0.0000
# 5 0.0000 0.0000 0.0000 0.0000 -89.4993 0.0000
# 6 0.0000 0.0000 0.0000 0.0000 0.0000 52.9709
#
#
#
# Elastic Compliance Matrix: (Units=1/GPa)
#
#
# Indices 1 2 3 4 5 6 
#
# 1 0.007628 -0.000728 -0.002397 0.000000 0.000000 0.000000
# 2 -0.000728 0.009249 -0.003544 0.000000 0.000000 0.000000
# 3 -0.002397 -0.003544 0.008088 0.000000 0.000000 0.000000
# 4 0.000000 0.000000 0.000000 0.012789 0.000000 0.000000
# 5 0.000000 0.000000 0.000000 0.000000 -0.011173 0.000000
# 6 0.000000 0.000000 0.000000 0.000000 0.000000 0.018878
#
#
# Mechanical properties :
#
#
# Convention : Reuss Voigt Hill
#
# Bulk Modulus (GPa) = 85.99906 88.88731 87.44319
# Shear Modulus (GPa) = 79.77896 28.13483 53.95689
#
# Velocity S-wave (km/s) = 5.68272 3.37469 4.67343
# Velocity P-wave (km/s) = 8.82434 7.15297 8.03225
#
# Compressibility (1/GPa) = 0.01162803
#
# Stress axis : x y z
#
# Youngs Moduli (GPa) = 131.08876 108.11772 123.63905
#
# Poissons Ratio (x) = 0.07875 0.29633
# Poissons Ratio (y) = 0.09548 0.43814
# Poissons Ratio (z) = 0.31418 0.38314
#
# Static dielectric constant tensor:
#      x y z
#    x 2.107000 0.000000 0.000000 
#    y 0.000000 1.990160 0.000000 
#    z 0.000000 0.000000 1.970270 
# 
# From -- ./inp_files/4783.got.cif
#   From: 2010.05.17/outbox.cif.g08.bks.cpg/sg53_3_cif.got.tgz:4783.got - 2010.06.03 12:45:16.
