data_PCOD9419128
_publ_section_title
;
Structure prediction by ZEFSAII (Michael W. Deem and Ramdas Pophale) SiO2 
 PCOD9419128
Probable space group: P M N A
;
_chemical_formula_sum "Si O2"
_cell_formula_units_Z 34
_cell_length_a 9.956623
_cell_length_b 9.000446
_cell_length_c 19.447480
_cell_angle_alpha 90.000000
_cell_angle_beta 90.000000
_cell_angle_gamma 90.000000
_cell_volume 1742.767399
_symmetry_space_group_name_H-M "P M N A"
_symmetry_group_IT_number 53
_symmetry_cell_setting 'orthorhombic'
loop_
_space_group_symop_operation_xyz
x,y,z
1/2-x,-y,1/2+z
x,-y,-z
1/2-x,y,1/2-z
-x,-y,-z
1/2+x,y,1/2-z
-x,y,z
1/2+x,-y,1/2+z
loop_
_atom_site_type_symbol
_atom_site_label
_atom_site_fract_x
_atom_site_fract_y
_atom_site_fract_z
Si Si1 0.000000 0.955859 0.579336
Si Si2 0.000000 0.826346 0.012527
Si Si3 0.243042 0.473818 0.672805
Si Si4 0.000000 0.730243 0.165968
Si Si5 0.000000 0.500000 0.500000
Si Si6 0.500000 0.758731 0.178483
Si Si7 0.719590 0.717205 0.945249
O O1 0.864643 0.856555 0.585338
O O2 0.000000 0.000000 0.500000
O O3 0.000000 0.098773 0.629067
O O4 0.000000 0.816628 0.095057
O O5 0.137450 0.757100 0.979998
O O6 0.000000 0.000000 0.000000
O O7 0.250000 0.537318 0.750000
O O8 0.373604 0.376556 0.663621
O O9 0.123321 0.354445 0.667389
O O10 0.235757 0.601867 0.617167
O O11 0.000000 0.807985 0.240898
O O12 0.117950 0.630367 0.504005
#
# Coordination Sequence:
#
# PCOD9419128 Si02
#       7
#     4   4   8   4   2   4   8
#     4  11  26  41  64 100 133 172 222 279 333 399
#     4  12  27  43  62 100 144 179 219 269 344 414
#     4  10  22  42  68  96 124 168 224 276 327 396
#     4  10  23  43  68  90 129 175 220 270 328 412
#     4  10  22  38  68 100 120 170 222 272 334 366
#     4  10  23  44  69  93 129 173 225 271 339 402
#     4  11  24  42  66 100 133 173 219 283 331 394
#
# _framework density 19.509201000000001
#
# number of rings (size 3 to 8) (size 9 to 14) (size 15 to 20)
#    0.000    1.412    0.000    4.235   13.176    1.412 
#    4.235    0.000    0.000    0.000    0.000    0.000 
#    0.000    0.000    0.000    0.000    0.000    0.000 
#
# Total GULP energy -189288.247322 kJ/mol
# GULP energy per Si atom -5567.301392 kJ/mol
# Density = 1.946480 g / cm^3
# Si number density = 19.509201 Si / 1000 Ang^3
#
#
#
# Elastic Constant Matrix: (Units=GPa)
#
#
# Indices 1 2 3 4 5 6 
#
# 1 193.5970 63.9664 54.2126 0.0000 0.0000 0.0000
# 2 63.9664 121.3061 89.7779 0.0000 0.0000 0.0000
# 3 54.2126 89.7779 177.0713 0.0000 0.0000 0.0000
# 4 0.0000 0.0000 0.0000 44.9692 0.0000 0.0000
# 5 0.0000 0.0000 0.0000 0.0000 21.9035 0.0000
# 6 0.0000 0.0000 0.0000 0.0000 0.0000 -8.2583
#
#
#
# Elastic Compliance Matrix: (Units=1/GPa)
#
#
# Indices 1 2 3 4 5 6 
#
# 1 0.006272 -0.003019 -0.000390 0.000000 0.000000 0.000000
# 2 -0.003019 0.014648 -0.006502 0.000000 0.000000 0.000000
# 3 -0.000390 -0.006502 0.009064 0.000000 0.000000 0.000000
# 4 0.000000 0.000000 0.000000 0.022237 0.000000 0.000000
# 5 0.000000 0.000000 0.000000 0.000000 0.045655 0.000000
# 6 0.000000 0.000000 0.000000 0.000000 0.000000 -0.121090
#
#
# Mechanical properties :
#
#
# Convention : Reuss Voigt Hill
#
# Bulk Modulus (GPa) = 98.41068 100.87647 99.64357
# Shear Modulus (GPa) = -919796.46477 30.65740 -459882.90368
#
# Velocity S-wave (km/s) = -687.38021 3.96843 -486.04311
# Velocity P-wave (km/s) = 793.68645 8.53331 561.18864
#
# Compressibility (1/GPa) = 0.01016150
#
# Stress axis : x y z
#
# Youngs Moduli (GPa) = 159.43980 68.26879 110.33193
#
# Poissons Ratio (x) = 0.20610 0.04298
# Poissons Ratio (y) = 0.48134 0.71743
# Poissons Ratio (z) = 0.06211 0.44391
#
# Static dielectric constant tensor:
#      x y z
#    x 1.718050 0.000000 0.000000 
#    y 0.000000 1.653760 0.000000 
#    z 0.000000 0.000000 1.821470 
# 
# From -- ./inp_files/30203.got.cif
#   From: 2010.05.17/outbox.cif.g08.bks.cpg/sg53_16_cif.got.tgz:30203.got - 2010.06.03 12:45:16.
