data_PCOD9419438
_publ_section_title
;
Structure prediction by ZEFSAII (Michael W. Deem and Ramdas Pophale) SiO2 
 PCOD9419438
Probable space group: P M N A
;
_chemical_formula_sum "Si O2"
_cell_formula_units_Z 48
_cell_length_a 15.381301
_cell_length_b 15.770865
_cell_length_c 10.019833
_cell_angle_alpha 90.000000
_cell_angle_beta 90.000000
_cell_angle_gamma 90.000000
_cell_volume 2430.575234
_symmetry_space_group_name_H-M "P M N A"
_symmetry_group_IT_number 53
_symmetry_cell_setting 'orthorhombic'
loop_
_space_group_symop_operation_xyz
x,y,z
1/2-x,-y,1/2+z
x,-y,-z
1/2-x,y,1/2-z
-x,-y,-z
1/2+x,y,1/2-z
-x,y,z
1/2+x,-y,1/2+z
loop_
_atom_site_type_symbol
_atom_site_label
_atom_site_fract_x
_atom_site_fract_y
_atom_site_fract_z
Si Si1 0.897713 0.337593 0.779927
Si Si2 0.258952 0.918080 0.090592
Si Si3 0.145236 0.295960 0.241548
Si Si4 0.166756 0.519887 0.844877
Si Si5 0.101337 0.803490 0.013085
Si Si6 0.602525 0.230558 0.967451
O O1 0.882420 0.436044 0.798869
O O2 0.866198 0.300355 0.640259
O O3 0.000000 0.325527 0.781210
O O4 0.865545 0.276590 0.898035
O O5 0.250000 0.934155 0.250000
O O6 0.334905 0.849678 0.057768
O O7 0.166697 0.878642 0.045650
O O8 0.276088 0.000000 0.000000
O O9 0.250000 0.291314 0.250000
O O10 0.121538 0.389365 0.182995
O O11 0.110882 0.226688 0.138299
O O12 0.111598 0.272973 0.387756
O O13 0.250000 0.523253 0.750000
O O14 0.187048 0.500000 0.000000
O O15 0.000000 0.822146 0.042293
O O16 0.500000 0.209466 0.946271
#
# Coordination Sequence:
#
# PCOD9419438 Si02
#       6
#     8   8   8   8   8   8
#     4  10  23  41  66  92 127 183 227 266 330 387
#     4  12  28  47  74 102 135 171 213 278 341 410
#     4  11  23  40  66 101 138 182 226 276 333 384
#     4  11  25  38  61  96 135 179 228 280 326 379
#     4  11  23  44  71  98 132 179 224 268 328 399
#     4  11  25  46  71  99 136 180 223 273 336 402
#
# _framework density 19.748411000000001
#
# number of rings (size 3 to 8) (size 9 to 14) (size 15 to 20)
#    0.000    1.000    5.000    0.500    9.333    2.333 
#    0.000    1.667    0.000    0.000    0.000    0.000 
#    0.000    0.000    0.000    0.000    0.000    0.000 
#
# Total GULP energy -267973.246923 kJ/mol
# GULP energy per Si atom -5582.775978 kJ/mol
# Density = 1.970346 g / cm^3
# Si number density = 19.748411 Si / 1000 Ang^3
#
#
#
# Elastic Constant Matrix: (Units=GPa)
#
#
# Indices 1 2 3 4 5 6 
#
# 1 89.8449 33.5355 19.4955 0.0000 0.0000 0.0000
# 2 33.5355 98.5147 58.7790 0.0000 0.0000 0.0000
# 3 19.4955 58.7790 170.5645 0.0000 0.0000 0.0000
# 4 0.0000 0.0000 0.0000 36.0434 0.0000 0.0000
# 5 0.0000 0.0000 0.0000 0.0000 22.9027 0.0000
# 6 0.0000 0.0000 0.0000 0.0000 0.0000 -135.1036
#
#
#
# Elastic Compliance Matrix: (Units=1/GPa)
#
#
# Indices 1 2 3 4 5 6 
#
# 1 0.012751 -0.004369 0.000048 0.000000 0.000000 0.000000
# 2 -0.004369 0.014275 -0.004420 0.000000 0.000000 0.000000
# 3 0.000048 -0.004420 0.007381 0.000000 0.000000 0.000000
# 4 0.000000 0.000000 0.000000 0.027744 0.000000 0.000000
# 5 0.000000 0.000000 0.000000 0.000000 0.043663 0.000000
# 6 0.000000 0.000000 0.000000 0.000000 0.000000 -0.007402
#
#
# Mechanical properties :
#
#
# Convention : Reuss Voigt Hill
#
# Bulk Modulus (GPa) = 59.08588 64.72712 61.90650
# Shear Modulus (GPa) = 41.14012 1.24277 21.19145
#
# Velocity S-wave (km/s) = 4.56917 0.79415 3.27933
# Velocity P-wave (km/s) = 7.60399 5.80413 6.76419
#
# Compressibility (1/GPa) = 0.01692452
#
# Stress axis : x y z
#
# Youngs Moduli (GPa) = 78.42709 70.05061 135.49048
#
# Poissons Ratio (x) = 0.30607 -0.00655
# Poissons Ratio (y) = 0.34267 0.59888
# Poissons Ratio (z) = -0.00379 0.30963
#
# Static dielectric constant tensor:
#      x y z
#    x 1.720200 0.000000 0.000000 
#    y 0.000000 1.717900 0.000000 
#    z 0.000000 0.000000 1.688530 
# 
# From -- ./inp_files/8674.got.cif
#   From: 2010.05.17/outbox.cif.g08.bks.cpg/sg53_5_cif.got.tgz:8674.got - 2010.06.03 12:45:16.
