data_PCOD9419364
_publ_section_title
;
Structure prediction by ZEFSAII (Michael W. Deem and Ramdas Pophale) SiO2 
 PCOD9419364
Probable space group: P M N A
;
_chemical_formula_sum "Si O2"
_cell_formula_units_Z 20
_cell_length_a 16.120466
_cell_length_b 5.198812
_cell_length_c 9.105020
_cell_angle_alpha 90.000000
_cell_angle_beta 90.000000
_cell_angle_gamma 90.000000
_cell_volume 763.066888
_symmetry_space_group_name_H-M "P M N A"
_symmetry_group_IT_number 53
_symmetry_cell_setting 'orthorhombic'
loop_
_space_group_symop_operation_xyz
x,y,z
1/2-x,-y,1/2+z
x,-y,-z
1/2-x,y,1/2-z
-x,-y,-z
1/2+x,y,1/2-z
-x,y,z
1/2+x,-y,1/2+z
loop_
_atom_site_type_symbol
_atom_site_label
_atom_site_fract_x
_atom_site_fract_y
_atom_site_fract_z
Si Si1 0.500000 0.254704 0.398466
Si Si2 0.329736 0.063544 0.329407
Si Si3 0.402557 0.260884 0.903465
O O1 0.500000 0.500000 0.500000
O O2 0.413593 0.231228 0.313573
O O3 0.500000 0.000000 0.500000
O O4 0.250000 0.178195 0.250000
O O5 0.314366 0.000000 0.500000
O O6 0.148352 0.802357 0.257843
O O7 0.500000 0.299963 0.866479
O O8 0.373685 0.500000 0.000000
O O9 0.397091 0.000000 0.000000
#
# Coordination Sequence:
#
# PCOD9419364 Si02
#       3
#     4   8   8
#     4  10  24  48  76 110 154 214 268 324 406 494
#     4  11  24  48  77 116 163 215 275 339 410 487
#     4  10  22  43  72 108 151 203 263 329 398 474
#
# _framework density 26.210025000000002
#
# number of rings (size 3 to 8) (size 9 to 14) (size 15 to 20)
#    0.000    1.600    2.000    1.200    0.000    6.400 
#    0.000   32.000    0.000    0.000    0.000    0.000 
#    0.000    0.000    0.000    0.000    0.000    0.000 
#
# Total GULP energy -112284.736370 kJ/mol
# GULP energy per Si atom -5614.236818 kJ/mol
# Density = 2.615037 g / cm^3
# Si number density = 26.210025 Si / 1000 Ang^3
#
#
#
# Elastic Constant Matrix: (Units=GPa)
#
#
# Indices 1 2 3 4 5 6 
#
# 1 229.6713 50.0285 80.0078 0.0000 0.0000 0.0000
# 2 50.0285 166.9244 65.4611 0.0000 0.0000 0.0000
# 3 80.0078 65.4611 212.8658 0.0000 0.0000 0.0000
# 4 0.0000 0.0000 0.0000 54.7839 0.0000 0.0000
# 5 0.0000 0.0000 0.0000 0.0000 50.1395 0.0000
# 6 0.0000 0.0000 0.0000 0.0000 0.0000 15.1127
#
#
#
# Elastic Compliance Matrix: (Units=1/GPa)
#
#
# Indices 1 2 3 4 5 6 
#
# 1 0.005123 -0.000887 -0.001653 0.000000 0.000000 0.000000
# 2 -0.000887 0.006966 -0.001809 0.000000 0.000000 0.000000
# 3 -0.001653 -0.001809 0.005875 0.000000 0.000000 0.000000
# 4 0.000000 0.000000 0.000000 0.018254 0.000000 0.000000
# 5 0.000000 0.000000 0.000000 0.000000 0.019944 0.000000
# 6 0.000000 0.000000 0.000000 0.000000 0.000000 0.066169
#
#
# Mechanical properties :
#
#
# Convention : Reuss Voigt Hill
#
# Bulk Modulus (GPa) = 107.91155 111.16180 109.53668
# Shear Modulus (GPa) = 37.28065 51.60484 44.44274
#
# Velocity S-wave (km/s) = 3.77554 4.44204 4.12228
# Velocity P-wave (km/s) = 7.76321 8.29536 8.03369
#
# Compressibility (1/GPa) = 0.00926685
#
# Stress axis : x y z
#
# Youngs Moduli (GPa) = 195.19618 143.55519 170.20735
#
# Poissons Ratio (x) = 0.12738 0.28130
# Poissons Ratio (y) = 0.17320 0.30785
# Poissons Ratio (z) = 0.32260 0.25965
#
# Static dielectric constant tensor:
#      x y z
#    x 2.117430 0.000000 0.000000 
#    y 0.000000 1.803710 0.000000 
#    z 0.000000 0.000000 2.062480 
# 
# From -- ./inp_files/15188.got.cif
#   From: 2010.05.17/outbox.cif.g08.bks.cpg/sg53_8_cif.got.tgz:15188.got - 2010.06.03 12:45:16.
