data_PCOD9419239
_publ_section_title
;
Structure prediction by ZEFSAII (Michael W. Deem and Ramdas Pophale) SiO2 
 PCOD9419239
Probable space group: P M N A
;
_chemical_formula_sum "Si O2"
_cell_formula_units_Z 64
_cell_length_a 28.325454
_cell_length_b 9.297482
_cell_length_c 11.204230
_cell_angle_alpha 90.000000
_cell_angle_beta 90.000000
_cell_angle_gamma 90.000000
_cell_volume 2950.694459
_symmetry_space_group_name_H-M "P M N A"
_symmetry_group_IT_number 53
_symmetry_cell_setting 'orthorhombic'
loop_
_space_group_symop_operation_xyz
x,y,z
1/2-x,-y,1/2+z
x,-y,-z
1/2-x,y,1/2-z
-x,-y,-z
1/2+x,y,1/2-z
-x,y,z
1/2+x,-y,1/2+z
loop_
_atom_site_type_symbol
_atom_site_label
_atom_site_fract_x
_atom_site_fract_y
_atom_site_fract_z
Si Si1 0.917685 0.289037 0.301272
Si Si2 0.238325 0.587239 0.384437
Si Si3 0.551865 0.303561 0.934708
Si Si4 0.862401 0.552155 0.300005
Si Si5 0.448141 0.662919 0.545590
Si Si6 0.876002 0.798134 0.117728
Si Si7 0.055564 0.030969 0.709350
Si Si8 0.727397 0.085264 0.621323
O O1 0.941693 0.326564 0.426129
O O2 0.869840 0.381810 0.287814
O O3 0.947368 0.336758 0.187460
O O4 0.916304 0.117121 0.300532
O O5 0.255705 0.500000 0.500000
O O6 0.250000 0.530019 0.250000
O O7 0.181832 0.587429 0.381569
O O8 0.255225 0.750615 0.391448
O O9 0.500000 0.346194 0.893195
O O10 0.591352 0.387471 0.863872
O O11 0.556837 0.133982 0.905964
O O12 0.859927 0.647390 0.179933
O O13 0.442742 0.500000 0.500000
O O14 0.500000 0.715569 0.503266
O O15 0.403236 0.755901 0.503001
O O16 0.917604 0.873496 0.192784
O O17 0.829826 0.898778 0.121256
O O18 0.000000 0.001991 0.735830
O O19 0.750000 0.034723 0.750000
O O20 0.740918 0.000000 0.500000
#
# Coordination Sequence:
#
# PCOD9419239 Si02
#       8
#     8   8   8   8   8   8   8   8
#     4  12  23  39  63  97 138 181 233 284 331 407
#     4  11  24  48  74 104 142 185 233 301 367 434
#     4  10  22  40  64  95 138 186 225 279 346 408
#     4  11  23  45  69  97 136 178 232 288 348 413
#     4  11  24  39  63 100 141 185 235 288 335 408
#     4  11  23  47  70  94 138 186 229 281 356 424
#     4  10  23  41  64  98 142 184 225 279 340 411
#     4  11  26  51  78 105 142 181 237 306 368 435
#
# _framework density 21.689810000000001
#
# number of rings (size 3 to 8) (size 9 to 14) (size 15 to 20)
#    0.000    1.125    3.750    3.000    1.750    5.500 
#    4.500    1.250    0.000    0.000    0.000    0.000 
#    0.000    0.000    0.000    0.000    0.000    0.000 
#
# Total GULP energy -357271.863645 kJ/mol
# GULP energy per Si atom -5582.372869 kJ/mol
# Density = 2.164044 g / cm^3
# Si number density = 21.689810 Si / 1000 Ang^3
#
#
#
# Elastic Constant Matrix: (Units=GPa)
#
#
# Indices 1 2 3 4 5 6 
#
# 1 90.1302 15.7854 29.6979 0.0000 0.0000 0.0000
# 2 15.7854 81.4010 27.7087 0.0000 0.0000 0.0000
# 3 29.6979 27.7087 132.7817 0.0000 0.0000 0.0000
# 4 0.0000 0.0000 0.0000 32.2805 0.0000 0.0000
# 5 0.0000 0.0000 0.0000 0.0000 29.0551 0.0000
# 6 0.0000 0.0000 0.0000 0.0000 0.0000 -33.1597
#
#
#
# Elastic Compliance Matrix: (Units=1/GPa)
#
#
# Indices 1 2 3 4 5 6 
#
# 1 0.012155 -0.001541 -0.002397 0.000000 0.000000 0.000000
# 2 -0.001541 0.013420 -0.002456 0.000000 0.000000 0.000000
# 3 -0.002397 -0.002456 0.008580 0.000000 0.000000 0.000000
# 4 0.000000 0.000000 0.000000 0.030978 0.000000 0.000000
# 5 0.000000 0.000000 0.000000 0.000000 0.034417 0.000000
# 6 0.000000 0.000000 0.000000 0.000000 0.000000 -0.030157
#
#
# Mechanical properties :
#
#
# Convention : Reuss Voigt Hill
#
# Bulk Modulus (GPa) = 46.80212 50.07741 48.43977
# Shear Modulus (GPa) = 55.98945 21.04325 38.51635
#
# Velocity S-wave (km/s) = 5.08623 3.11817 4.21857
# Velocity P-wave (km/s) = 7.49118 6.00850 6.79043
#
# Compressibility (1/GPa) = 0.02136655
#
# Stress axis : x y z
#
# Youngs Moduli (GPa) = 82.27226 74.51767 116.55419
#
# Poissons Ratio (x) = 0.11484 0.27937
# Poissons Ratio (y) = 0.12680 0.28622
# Poissons Ratio (z) = 0.19720 0.18299
#
# Static dielectric constant tensor:
#      x y z
#    x 1.778260 0.000000 0.000000 
#    y 0.000000 1.826250 0.000000 
#    z 0.000000 0.000000 1.809820 
# 
# From -- ./inp_files/19035.got.cif
#   From: 2010.05.17/outbox.cif.g08.bks.cpg/sg53_10_cif.got.tgz:19035.got - 2010.06.03 12:45:16.
