data_PCOD9419710
_publ_section_title
;
Structure prediction by ZEFSAII (Michael W. Deem and Ramdas Pophale) SiO2 
 PCOD9419710
Probable space group: P M N A
;
_chemical_formula_sum "Si O2"
_cell_formula_units_Z 48
_cell_length_a 7.848057
_cell_length_b 15.294996
_cell_length_c 18.428850
_cell_angle_alpha 90.000000
_cell_angle_beta 90.000000
_cell_angle_gamma 90.000000
_cell_volume 2212.125446
_symmetry_space_group_name_H-M "P M N A"
_symmetry_group_IT_number 53
_symmetry_cell_setting 'orthorhombic'
loop_
_space_group_symop_operation_xyz
x,y,z
1/2-x,-y,1/2+z
x,-y,-z
1/2-x,y,1/2-z
-x,-y,-z
1/2+x,y,1/2-z
-x,y,z
1/2+x,-y,1/2+z
loop_
_atom_site_type_symbol
_atom_site_label
_atom_site_fract_x
_atom_site_fract_y
_atom_site_fract_z
Si Si1 0.208195 0.120939 0.064855
Si Si2 0.293153 0.067405 0.598828
Si Si3 0.302931 0.687260 0.599320
Si Si4 0.302920 0.380687 0.945300
Si Si5 0.203921 0.760054 0.169609
Si Si6 0.804621 0.484372 0.331513
O O1 0.268655 0.214202 0.094235
O O2 0.000000 0.124576 0.065722
O O3 0.264363 0.032772 0.106010
O O4 0.256059 0.104196 0.980770
O O5 0.500000 0.064239 0.598863
O O6 0.240713 0.139574 0.656790
O O7 0.500000 0.692196 0.621134
O O8 0.290128 0.647075 0.518494
O O9 0.215861 0.617860 0.652007
O O10 0.500000 0.398209 0.966457
O O11 0.291892 0.299978 0.889973
O O12 0.225226 0.460542 0.898205
O O13 0.250000 0.731043 0.250000
O O14 0.000000 0.754001 0.158870
O O15 0.750000 0.504992 0.250000
O O16 0.000000 0.510135 0.335367
#
# Coordination Sequence:
#
# PCOD9419710 Si02
#       6
#     8   8   8   8   8   8
#     4   8  14  28  53  83 109 141 183 227 273 326
#     4   8  14  28  51  78 110 144 184 227 271 328
#     4  11  21  36  62  92 117 148 190 235 284 340
#     4  11  23  39  59  84 115 150 191 239 287 339
#     4  11  21  34  54  82 115 152 190 235 290 346
#     4  11  25  43  60  81 112 152 192 236 290 343
#
# _framework density 21.698588000000001
#
# number of rings (size 3 to 8) (size 9 to 14) (size 15 to 20)
#    0.000    2.000    1.667    4.000    0.000    6.000 
#    0.000    0.833    0.000    7.000    0.000    0.000 
#    0.000    0.000    0.000    0.000    0.000    0.000 
#
# Total GULP energy -268009.346899 kJ/mol
# GULP energy per Si atom -5583.528060 kJ/mol
# Density = 2.164920 g / cm^3
# Si number density = 21.698588 Si / 1000 Ang^3
#
#
#
# Elastic Constant Matrix: (Units=GPa)
#
#
# Indices 1 2 3 4 5 6 
#
# 1 30.5997 -3.1378 -6.6147 0.0000 0.0000 0.0000
# 2 -3.1378 138.2559 10.3207 0.0000 0.0000 0.0000
# 3 -6.6147 10.3207 29.9941 0.0000 0.0000 0.0000
# 4 0.0000 0.0000 0.0000 1.7053 0.0000 0.0000
# 5 0.0000 0.0000 0.0000 0.0000 -2.3953 0.0000
# 6 0.0000 0.0000 0.0000 0.0000 0.0000 -4.6922
#
#
#
# Elastic Compliance Matrix: (Units=1/GPa)
#
#
# Indices 1 2 3 4 5 6 
#
# 1 0.034323 0.000220 0.007494 0.000000 0.000000 0.000000
# 2 0.000220 0.007425 -0.002506 0.000000 0.000000 0.000000
# 3 0.007494 -0.002506 0.035855 0.000000 0.000000 0.000000
# 4 0.000000 0.000000 0.000000 0.586400 0.000000 0.000000
# 5 0.000000 0.000000 0.000000 0.000000 -0.417479 0.000000
# 6 0.000000 0.000000 0.000000 0.000000 0.000000 -0.213122
#
#
# Mechanical properties :
#
#
# Convention : Reuss Voigt Hill
#
# Bulk Modulus (GPa) = 11.36155 22.22067 16.79111
# Shear Modulus (GPa) = 95.55242 12.14234 53.84738
#
# Velocity S-wave (km/s) = 6.64318 2.36813 4.98698
# Velocity P-wave (km/s) = 8.00562 4.21192 6.39649
#
# Compressibility (1/GPa) = 0.08801616
#
# Stress axis : x y z
#
# Youngs Moduli (GPa) = 29.13539 134.67916 27.89015
#
# Poissons Ratio (x) = -0.02957 -0.20900
# Poissons Ratio (y) = -0.00640 0.06991
# Poissons Ratio (z) = -0.21833 0.33757
#
# Static dielectric constant tensor:
#      x y z
#    x 1.791360 0.000000 0.000000 
#    y 0.000000 1.838540 0.000000 
#    z 0.000000 0.000000 1.750940 
# 
# From -- ./inp_files/26159.got.cif
#   From: 2010.05.17/outbox.cif.g08.bks.cpg/sg53_14_cif.got.tgz:26159.got - 2010.06.03 12:45:16.
