data_PCOD9419631
_publ_section_title
;
Structure prediction by ZEFSAII (Michael W. Deem and Ramdas Pophale) SiO2 
 PCOD9419631
Probable space group: P M N A
;
_chemical_formula_sum "Si O2"
_cell_formula_units_Z 48
_cell_length_a 15.029314
_cell_length_b 9.604953
_cell_length_c 13.382336
_cell_angle_alpha 90.000000
_cell_angle_beta 90.000000
_cell_angle_gamma 90.000000
_cell_volume 1931.818550
_symmetry_space_group_name_H-M "P M N A"
_symmetry_group_IT_number 53
_symmetry_cell_setting 'orthorhombic'
loop_
_space_group_symop_operation_xyz
x,y,z
1/2-x,-y,1/2+z
x,-y,-z
1/2-x,y,1/2-z
-x,-y,-z
1/2+x,y,1/2-z
-x,y,z
1/2+x,-y,1/2+z
loop_
_atom_site_type_symbol
_atom_site_label
_atom_site_fract_x
_atom_site_fract_y
_atom_site_fract_z
Si Si1 0.854012 0.999291 0.776580
Si Si2 0.399431 0.692607 0.781650
Si Si3 0.853317 0.584302 0.219089
Si Si4 0.736827 0.337451 0.036900
Si Si5 0.602754 0.802995 0.454047
Si Si6 0.594245 0.228255 0.885743
O O1 0.750000 0.997392 0.750000
O O2 0.892179 0.847659 0.758603
O O3 0.873507 0.061547 0.886582
O O4 0.893812 0.104147 0.693302
O O5 0.500000 0.671983 0.819873
O O6 0.378171 0.573944 0.700453
O O7 0.321805 0.666792 0.863107
O O8 0.750000 0.604552 0.250000
O O9 0.882404 0.680076 0.128158
O O10 0.905162 0.635243 0.316618
O O11 0.825973 0.244977 0.035825
O O12 0.675482 0.251920 0.958740
O O13 0.747747 0.500000 0.000000
O O14 0.500000 0.809187 0.485478
O O15 0.500000 0.211953 0.939179
#
# Coordination Sequence:
#
# PCOD9419631 Si02
#       6
#     8   8   8   8   8   8
#     4  11  22  43  68  96 129 173 225 273 328 396
#     4  12  25  39  64 103 139 170 217 280 341 396
#     4  11  19  38  64  98 131 170 221 275 327 389
#     4  12  24  41  64 101 140 176 216 274 344 397
#     4  11  22  43  72  95 126 178 231 274 327 400
#     4  11  20  37  64  93 131 172 211 258 326 396
#
# _framework density 24.847052999999999
#
# number of rings (size 3 to 8) (size 9 to 14) (size 15 to 20)
#    0.000    0.667    5.000    6.000    0.000    1.667 
#    0.000    1.667    0.000    4.000    0.000    0.000 
#    0.000    0.000    0.000    0.000    0.000    0.000 
#
# Total GULP energy -268934.740356 kJ/mol
# GULP energy per Si atom -5602.807091 kJ/mol
# Density = 2.479050 g / cm^3
# Si number density = 24.847053 Si / 1000 Ang^3
#
#
#
# Elastic Constant Matrix: (Units=GPa)
#
#
# Indices 1 2 3 4 5 6 
#
# 1 211.3092 30.7583 12.3564 0.0000 0.0000 0.0000
# 2 30.7583 171.2494 19.8132 0.0000 0.0000 0.0000
# 3 12.3564 19.8132 56.0052 0.0000 0.0000 0.0000
# 4 0.0000 0.0000 0.0000 25.8998 0.0000 0.0000
# 5 0.0000 0.0000 0.0000 0.0000 7.0117 0.0000
# 6 0.0000 0.0000 0.0000 0.0000 0.0000 27.6650
#
#
#
# Elastic Compliance Matrix: (Units=1/GPa)
#
#
# Indices 1 2 3 4 5 6 
#
# 1 0.004894 -0.000786 -0.000802 0.000000 0.000000 0.000000
# 2 -0.000786 0.006215 -0.002025 0.000000 0.000000 0.000000
# 3 -0.000802 -0.002025 0.018749 0.000000 0.000000 0.000000
# 4 0.000000 0.000000 0.000000 0.038610 0.000000 0.000000
# 5 0.000000 0.000000 0.000000 0.000000 0.142619 0.000000
# 6 0.000000 0.000000 0.000000 0.000000 0.000000 0.036147
#
#
# Mechanical properties :
#
#
# Convention : Reuss Voigt Hill
#
# Bulk Modulus (GPa) = 44.18624 62.71328 53.44976
# Shear Modulus (GPa) = 19.08373 37.15769 28.12071
#
# Velocity S-wave (km/s) = 2.77437 3.87131 3.36780
# Velocity P-wave (km/s) = 5.29951 6.72884 6.05648
#
# Compressibility (1/GPa) = 0.02263148
#
# Stress axis : x y z
#
# Youngs Moduli (GPa) = 204.34366 160.90192 53.33670
#
# Poissons Ratio (x) = 0.12651 0.04275
# Poissons Ratio (y) = 0.16066 0.10802
# Poissons Ratio (z) = 0.16379 0.32586
#
# Static dielectric constant tensor:
#      x y z
#    x 1.964120 0.000000 0.000000 
#    y 0.000000 1.951790 0.000000 
#    z 0.000000 0.000000 1.968470 
# 
# From -- ./inp_files/28276.got.cif
#   From: 2010.05.17/outbox.cif.g08.bks.cpg/sg53_15_cif.got.tgz:28276.got - 2010.06.03 12:45:16.
