data_PCOD9419598
_publ_section_title
;
Structure prediction by ZEFSAII (Michael W. Deem and Ramdas Pophale) SiO2 
 PCOD9419598
Probable space group: P M N A
;
_chemical_formula_sum "Si O2"
_cell_formula_units_Z 16
_cell_length_a 10.737073
_cell_length_b 12.889451
_cell_length_c 4.861023
_cell_angle_alpha 90.000000
_cell_angle_beta 90.000000
_cell_angle_gamma 90.000000
_cell_volume 672.741163
_symmetry_space_group_name_H-M "P M N A"
_symmetry_group_IT_number 53
_symmetry_cell_setting 'orthorhombic'
loop_
_space_group_symop_operation_xyz
x,y,z
1/2-x,-y,1/2+z
x,-y,-z
1/2-x,y,1/2-z
-x,-y,-z
1/2+x,y,1/2-z
-x,y,z
1/2+x,-y,1/2+z
loop_
_atom_site_type_symbol
_atom_site_label
_atom_site_fract_x
_atom_site_fract_y
_atom_site_fract_z
Si Si1 0.750000 0.930117 0.250000
Si Si2 0.500000 0.578463 0.250356
Si Si3 0.635581 0.257992 0.455522
O O1 0.654068 0.851954 0.395583
O O2 0.800789 0.000000 0.500000
O O3 0.500000 0.500000 0.500000
O O4 0.615603 0.655394 0.308115
O O5 0.500000 0.500000 0.000000
O O6 0.750000 0.275011 0.250000
O O7 0.500000 0.259650 0.307250
#
# Coordination Sequence:
#
# PCOD9419598 Si02
#       3
#     4   4   8
#     4  12  26  48  76 122 168 222 270 348 420 484
#     4  10  26  50  82 117 154 221 270 342 418 488
#     4  10  26  50  84 121 168 209 289 342 407 504
#
# _framework density 23.783291999999999
#
# number of rings (size 3 to 8) (size 9 to 14) (size 15 to 20)
#    1.500    0.000    2.500    0.000    7.000    4.000 
#    4.500    0.000    0.000    1.500    0.000    0.000 
#    0.000    0.000    0.000    0.000    0.000    0.000 
#
# Total GULP energy -89266.275341 kJ/mol
# GULP energy per Si atom -5579.142209 kJ/mol
# Density = 2.372916 g / cm^3
# Si number density = 23.783292 Si / 1000 Ang^3
#
#
#
# Elastic Constant Matrix: (Units=GPa)
#
#
# Indices 1 2 3 4 5 6 
#
# 1 201.8376 51.1508 78.0534 0.0000 0.0000 0.0000
# 2 51.1508 182.6431 91.9661 0.0000 0.0000 0.0000
# 3 78.0534 91.9661 198.4926 0.0000 0.0000 0.0000
# 4 0.0000 0.0000 0.0000 58.2478 0.0000 0.0000
# 5 0.0000 0.0000 0.0000 0.0000 44.5425 0.0000
# 6 0.0000 0.0000 0.0000 0.0000 0.0000 25.6608
#
#
#
# Elastic Compliance Matrix: (Units=1/GPa)
#
#
# Indices 1 2 3 4 5 6 
#
# 1 0.005898 -0.000631 -0.002027 0.000000 0.000000 0.000000
# 2 -0.000631 0.007209 -0.003092 0.000000 0.000000 0.000000
# 3 -0.002027 -0.003092 0.007267 0.000000 0.000000 0.000000
# 4 0.000000 0.000000 0.000000 0.017168 0.000000 0.000000
# 5 0.000000 0.000000 0.000000 0.000000 0.022450 0.000000
# 6 0.000000 0.000000 0.000000 0.000000 0.000000 0.038970
#
#
# Mechanical properties :
#
#
# Convention : Reuss Voigt Hill
#
# Bulk Modulus (GPa) = 112.67999 113.92377 113.30188
# Shear Modulus (GPa) = 44.08353 49.81040 46.94697
#
# Velocity S-wave (km/s) = 4.30996 4.58137 4.44773
# Velocity P-wave (km/s) = 8.49990 8.71722 8.60925
#
# Compressibility (1/GPa) = 0.00887469
#
# Stress axis : x y z
#
# Youngs Moduli (GPa) = 169.54063 138.72076 137.59914
#
# Poissons Ratio (x) = 0.08757 0.27890
# Poissons Ratio (y) = 0.10702 0.42542
# Poissons Ratio (z) = 0.34364 0.42889
#
# Static dielectric constant tensor:
#      x y z
#    x 1.934020 0.000000 0.000000 
#    y 0.000000 1.864600 0.000000 
#    z 0.000000 0.000000 1.938040 
# 
# From -- ./inp_files/306.got.cif
#   From: 2010.05.17/outbox.cif.g08.bks.cpg/sg53_1_cif.got.tgz:306.got - 2010.06.03 12:45:16.
