data_PCOD9419768
_publ_section_title
;
Structure prediction by ZEFSAII (Michael W. Deem and Ramdas Pophale) SiO2 
 PCOD9419768
Probable space group: P M N A
;
_chemical_formula_sum "Si O2"
_cell_formula_units_Z 34
_cell_length_a 26.573945
_cell_length_b 11.683201
_cell_length_c 4.812315
_cell_angle_alpha 90.000000
_cell_angle_beta 90.000000
_cell_angle_gamma 90.000000
_cell_volume 1494.073378
_symmetry_space_group_name_H-M "P M N A"
_symmetry_group_IT_number 53
_symmetry_cell_setting 'orthorhombic'
loop_
_space_group_symop_operation_xyz
x,y,z
1/2-x,-y,1/2+z
x,-y,-z
1/2-x,y,1/2-z
-x,-y,-z
1/2+x,y,1/2-z
-x,y,z
1/2+x,-y,1/2+z
loop_
_atom_site_type_symbol
_atom_site_label
_atom_site_fract_x
_atom_site_fract_y
_atom_site_fract_z
Si Si1 0.341945 0.388839 0.670246
Si Si2 0.611292 0.077445 0.267205
Si Si3 0.284092 0.832277 0.484393
Si Si4 0.500000 0.500000 0.000000
Si Si5 0.408569 0.666005 0.822244
O O1 0.322786 0.500000 0.500000
O O2 0.302045 0.288288 0.638901
O O3 0.392342 0.359320 0.493476
O O4 0.362067 0.377727 0.985086
O O5 0.663910 0.112804 0.412286
O O6 0.586567 0.196579 0.166592
O O7 0.583642 0.000000 0.500000
O O8 0.620786 0.000000 0.000000
O O9 0.250000 0.814632 0.750000
O O10 0.250000 0.893811 0.250000
O O11 0.456215 0.407545 0.094503
#
# Coordination Sequence:
#
# PCOD9419768 Si02
#       5
#     8   8   8   2   8
#     4  11  21  41  61  91 138 174 207 268 339 393
#     4  11  23  44  66  90 136 182 214 269 334 390
#     4  11  23  38  61  96 127 171 232 269 306 373
#     4  12  24  46  76 106 124 158 216 288 316 410
#     4  11  24  41  68 101 128 164 218 267 337 397
#
# _framework density 22.756578999999999
#
# number of rings (size 3 to 8) (size 9 to 14) (size 15 to 20)
#    0.000    0.941    2.353    7.059    0.000    4.706 
#    0.000    3.529    0.000    0.000    0.000    0.000 
#    0.000    0.000    0.000    0.000    0.000    0.000 
#
# Total GULP energy -189425.067332 kJ/mol
# GULP energy per Si atom -5571.325510 kJ/mol
# Density = 2.270478 g / cm^3
# Si number density = 22.756579 Si / 1000 Ang^3
#
#
#
# Elastic Constant Matrix: (Units=GPa)
#
#
# Indices 1 2 3 4 5 6 
#
# 1 85.6636 41.0924 16.2965 0.0000 0.0000 0.0000
# 2 41.0924 157.8009 15.4898 0.0000 0.0000 0.0000
# 3 16.2965 15.4898 111.9991 0.0000 0.0000 0.0000
# 4 0.0000 0.0000 0.0000 35.2449 0.0000 0.0000
# 5 0.0000 0.0000 0.0000 0.0000 -29.5832 0.0000
# 6 0.0000 0.0000 0.0000 0.0000 0.0000 9.9889
#
#
#
# Elastic Compliance Matrix: (Units=1/GPa)
#
#
# Indices 1 2 3 4 5 6 
#
# 1 0.013587 -0.003390 -0.001508 0.000000 0.000000 0.000000
# 2 -0.003390 0.007270 -0.000512 0.000000 0.000000 0.000000
# 3 -0.001508 -0.000512 0.009219 0.000000 0.000000 0.000000
# 4 0.000000 0.000000 0.000000 0.028373 0.000000 0.000000
# 5 0.000000 0.000000 0.000000 0.000000 -0.033803 0.000000
# 6 0.000000 0.000000 0.000000 0.000000 0.000000 0.100111
#
#
# Mechanical properties :
#
#
# Convention : Reuss Voigt Hill
#
# Bulk Modulus (GPa) = 51.93434 55.69123 53.81278
# Shear Modulus (GPa) = 35.21231 21.96911 28.59071
#
# Velocity S-wave (km/s) = 3.93790 3.11045 3.54838
# Velocity P-wave (km/s) = 6.59904 6.11765 6.36290
#
# Compressibility (1/GPa) = 0.01925508
#
# Stress axis : x y z
#
# Youngs Moduli (GPa) = 73.60176 137.54858 108.47255
#
# Poissons Ratio (x) = 0.46629 0.16359
# Poissons Ratio (y) = 0.24951 0.05556
# Poissons Ratio (z) = 0.11100 0.07045
#
# Static dielectric constant tensor:
#      x y z
#    x 1.778750 0.000000 0.000000 
#    y 0.000000 1.960200 0.000000 
#    z 0.000000 0.000000 1.862390 
# 
# From -- ./inp_files/3477.got.cif
#   From: 2010.05.17/outbox.cif.g08.bks.cpg/sg53_2_cif.got.tgz:3477.got - 2010.06.03 12:45:16.
