data_PCOD9419823
_publ_section_title
;
Structure prediction by ZEFSAII (Michael W. Deem and Ramdas Pophale) SiO2 
 PCOD9419823
Probable space group: P M N A
;
_chemical_formula_sum "Si O2"
_cell_formula_units_Z 24
_cell_length_a 15.233407
_cell_length_b 13.708216
_cell_length_c 5.071777
_cell_angle_alpha 90.000000
_cell_angle_beta 90.000000
_cell_angle_gamma 90.000000
_cell_volume 1059.102844
_symmetry_space_group_name_H-M "P M N A"
_symmetry_group_IT_number 53
_symmetry_cell_setting 'orthorhombic'
loop_
_space_group_symop_operation_xyz
x,y,z
1/2-x,-y,1/2+z
x,-y,-z
1/2-x,y,1/2-z
-x,-y,-z
1/2+x,y,1/2-z
-x,y,z
1/2+x,-y,1/2+z
loop_
_atom_site_type_symbol
_atom_site_label
_atom_site_fract_x
_atom_site_fract_y
_atom_site_fract_z
Si Si1 0.401325 0.591658 0.845090
Si Si2 0.142915 0.062036 0.756439
Si Si3 0.147482 0.713311 0.175007
O O1 0.500000 0.560016 0.770149
O O2 0.363649 0.647519 0.588889
O O3 0.356284 0.500000 0.000000
O O4 0.403369 0.667818 0.080993
O O5 0.250000 0.062617 0.750000
O O6 0.119103 0.173716 0.822352
O O7 0.115231 0.000000 0.500000
O O8 0.111826 0.000000 0.000000
O O9 0.250000 0.710994 0.250000
#
# Coordination Sequence:
#
# PCOD9419823 Si02
#       3
#     8   8   8
#     4  11  24  42  62  85 121 167 204 242 307 379
#     4   9  17  31  54  85 119 153 191 240 300 362
#     4  11  22  38  64  94 120 153 205 261 302 348
#
# _framework density 22.660692000000001
#
# number of rings (size 3 to 8) (size 9 to 14) (size 15 to 20)
#    0.000    1.667    0.000    5.000    0.000   10.667 
#    0.000    0.000    0.000   20.000    0.000    0.000 
#    0.000    0.000    0.000    0.000    0.000    0.000 
#
# Total GULP energy -133788.115639 kJ/mol
# GULP energy per Si atom -5574.504818 kJ/mol
# Density = 2.260912 g / cm^3
# Si number density = 22.660692 Si / 1000 Ang^3
#
#
#
# Elastic Constant Matrix: (Units=GPa)
#
#
# Indices 1 2 3 4 5 6 
#
# 1 51.5786 20.5753 21.9457 0.0000 0.0000 0.0000
# 2 20.5753 175.8580 108.5239 0.0000 0.0000 0.0000
# 3 21.9457 108.5239 238.9741 0.0000 0.0000 0.0000
# 4 0.0000 0.0000 0.0000 50.4635 0.0000 0.0000
# 5 0.0000 0.0000 0.0000 0.0000 -10.7148 0.0000
# 6 0.0000 0.0000 0.0000 0.0000 0.0000 50.9691
#
#
#
# Elastic Compliance Matrix: (Units=1/GPa)
#
#
# Indices 1 2 3 4 5 6 
#
# 1 0.020545 -0.001722 -0.001105 0.000000 0.000000 0.000000
# 2 -0.001722 0.008045 -0.003495 0.000000 0.000000 0.000000
# 3 -0.001105 -0.003495 0.005873 0.000000 0.000000 0.000000
# 4 0.000000 0.000000 0.000000 0.019816 0.000000 0.000000
# 5 0.000000 0.000000 0.000000 0.000000 -0.093329 0.000000
# 6 0.000000 0.000000 0.000000 0.000000 0.000000 0.019620
#
#
# Mechanical properties :
#
#
# Convention : Reuss Voigt Hill
#
# Bulk Modulus (GPa) = 45.83146 85.38896 65.61021
# Shear Modulus (GPa) = 10277.29739 39.16796 5158.23267
#
# Velocity S-wave (km/s) = 67.41768 4.16198 47.76225
# Velocity P-wave (km/s) = 77.97730 7.80124 55.41353
#
# Compressibility (1/GPa) = 0.02181907
#
# Stress axis : x y z
#
# Youngs Moduli (GPa) = 48.67405 124.30380 170.26336
#
# Poissons Ratio (x) = 0.21405 0.18809
# Poissons Ratio (y) = 0.08382 0.59510
# Poissons Ratio (z) = 0.05377 0.43447
#
# Static dielectric constant tensor:
#      x y z
#    x 1.884400 0.000000 0.000000 
#    y 0.000000 2.301840 0.000000 
#    z 0.000000 0.000000 1.761810 
# 
# From -- ./inp_files/1060.got.cif
#   From: 2010.05.17/outbox.cif.g08.bks.cpg/sg53_1_cif.got.tgz:1060.got - 2010.06.03 12:45:16.
