data_PCOD9419157
_publ_section_title
;
Structure prediction by ZEFSAII (Michael W. Deem and Ramdas Pophale) SiO2 
 PCOD9419157
Probable space group: P M N A
;
_chemical_formula_sum "Si O2"
_cell_formula_units_Z 48
_cell_length_a 8.579751
_cell_length_b 32.237869
_cell_length_c 9.198151
_cell_angle_alpha 90.000000
_cell_angle_beta 90.000000
_cell_angle_gamma 90.000000
_cell_volume 2544.143157
_symmetry_space_group_name_H-M "P M N A"
_symmetry_group_IT_number 53
_symmetry_cell_setting 'orthorhombic'
loop_
_space_group_symop_operation_xyz
x,y,z
1/2-x,-y,1/2+z
x,-y,-z
1/2-x,y,1/2-z
-x,-y,-z
1/2+x,y,1/2-z
-x,y,z
1/2+x,-y,1/2+z
loop_
_atom_site_type_symbol
_atom_site_label
_atom_site_fract_x
_atom_site_fract_y
_atom_site_fract_z
Si Si1 0.811868 0.540999 0.086483
Si Si2 0.811847 0.040243 0.413658
Si Si3 0.686275 0.703371 0.086546
Si Si4 0.312407 0.376047 0.413724
Si Si5 0.687247 0.869127 0.915636
Si Si6 0.185987 0.217508 0.084597
O O1 0.750000 0.541249 0.250000
O O2 0.000000 0.540336 0.091395
O O3 0.759193 0.500000 0.000000
O O4 0.764683 0.582433 0.000306
O O5 0.750000 0.038180 0.250000
O O6 0.769227 0.085605 0.478238
O O7 0.000000 0.039153 0.409398
O O8 0.755445 0.000000 0.500000
O O9 0.750000 0.700890 0.250000
O O10 0.500000 0.703457 0.088219
O O11 0.746784 0.664038 0.995762
O O12 0.747546 0.744950 0.009355
O O13 0.250000 0.377503 0.250000
O O14 0.500000 0.373926 0.411614
O O15 0.750000 0.870428 0.750000
O O16 0.500000 0.865271 0.914340
O O17 0.759841 0.827119 0.977922
O O18 0.250000 0.220883 0.250000
O O19 0.000000 0.219177 0.089446
#
# Coordination Sequence:
#
# PCOD9419157 Si02
#       6
#     8   8   8   8   8   8
#     4  10  22  39  60  88 121 157 197 240 287 339
#     4   9  18  32  50  74 104 138 177 222 270 322
#     4  12  25  42  61  84 115 149 186 229 281 337
#     4  11  23  40  62  89 119 153 195 239 285 335
#     4   9  16  29  50  75 104 138 178 224 272 322
#     4  11  21  36  58  84 111 142 183 228 276 329
#
# _framework density 18.866865000000001
#
# number of rings (size 3 to 8) (size 9 to 14) (size 15 to 20)
#    0.000    1.667    0.000    6.500    0.000    4.000 
#    0.000    0.833    0.000    2.000    0.000    0.000 
#    0.000    0.000    0.000    0.000    0.000    0.000 
#
# Total GULP energy -268096.519994 kJ/mol
# GULP energy per Si atom -5585.344167 kJ/mol
# Density = 1.882392 g / cm^3
# Si number density = 18.866865 Si / 1000 Ang^3
#
#
#
# Elastic Constant Matrix: (Units=GPa)
#
#
# Indices 1 2 3 4 5 6 
#
# 1 98.3516 66.4227 41.5356 0.0000 0.0000 0.0000
# 2 66.4227 235.5952 103.0785 0.0000 0.0000 0.0000
# 3 41.5356 103.0785 128.6340 0.0000 0.0000 0.0000
# 4 0.0000 0.0000 0.0000 32.2416 0.0000 0.0000
# 5 0.0000 0.0000 0.0000 0.0000 30.3110 0.0000
# 6 0.0000 0.0000 0.0000 0.0000 0.0000 28.0725
#
#
#
# Elastic Compliance Matrix: (Units=1/GPa)
#
#
# Indices 1 2 3 4 5 6 
#
# 1 0.012860 -0.002785 -0.001920 0.000000 0.000000 0.000000
# 2 -0.002785 0.007139 -0.004822 0.000000 0.000000 0.000000
# 3 -0.001920 -0.004822 0.012258 0.000000 0.000000 0.000000
# 4 0.000000 0.000000 0.000000 0.031016 0.000000 0.000000
# 5 0.000000 0.000000 0.000000 0.000000 0.032991 0.000000
# 6 0.000000 0.000000 0.000000 0.000000 0.000000 0.035622
#
#
# Mechanical properties :
#
#
# Convention : Reuss Voigt Hill
#
# Bulk Modulus (GPa) = 75.74507 98.29492 87.02000
# Shear Modulus (GPa) = 32.18706 34.89462 33.54084
#
# Velocity S-wave (km/s) = 4.13487 4.30527 4.22093
# Velocity P-wave (km/s) = 7.93917 8.77075 8.36530
#
# Compressibility (1/GPa) = 0.01320218
#
# Stress axis : x y z
#
# Youngs Moduli (GPa) = 77.76194 140.06618 81.58049
#
# Poissons Ratio (x) = 0.39015 0.15666
# Poissons Ratio (y) = 0.21660 0.39336
# Poissons Ratio (z) = 0.14933 0.67535
#
# Static dielectric constant tensor:
#      x y z
#    x 1.637040 0.000000 0.000000 
#    y 0.000000 1.684090 0.000000 
#    z 0.000000 0.000000 1.606900 
# 
# From -- ./inp_files/6687.got.cif
#   From: 2010.05.17/outbox.cif.g08.bks.cpg/sg53_4_cif.got.tgz:6687.got - 2010.06.03 12:45:16.
