data_PCOD9419662
_publ_section_title
;
Structure prediction by ZEFSAII (Michael W. Deem and Ramdas Pophale) SiO2 
 PCOD9419662
Probable space group: P M N A
;
_chemical_formula_sum "Si O2"
_cell_formula_units_Z 48
_cell_length_a 17.624024
_cell_length_b 12.105650
_cell_length_c 11.161052
_cell_angle_alpha 90.000000
_cell_angle_beta 90.000000
_cell_angle_gamma 90.000000
_cell_volume 2381.213415
_symmetry_space_group_name_H-M "P M N A"
_symmetry_group_IT_number 53
_symmetry_cell_setting 'orthorhombic'
loop_
_space_group_symop_operation_xyz
x,y,z
1/2-x,-y,1/2+z
x,-y,-z
1/2-x,y,1/2-z
-x,-y,-z
1/2+x,y,1/2-z
-x,y,z
1/2+x,-y,1/2+z
loop_
_atom_site_type_symbol
_atom_site_label
_atom_site_fract_x
_atom_site_fract_y
_atom_site_fract_z
Si Si1 0.325942 0.571390 0.676011
Si Si2 0.216860 0.075343 0.380501
Si Si3 0.373101 0.374825 0.944493
Si Si4 0.784655 0.271217 0.969536
Si Si5 0.914097 0.757184 0.672863
Si Si6 0.584766 0.648116 0.322434
O O1 0.250000 0.537615 0.750000
O O2 0.299328 0.626510 0.555871
O O3 0.370470 0.667767 0.745821
O O4 0.381088 0.471564 0.648167
O O5 0.250000 0.033482 0.250000
O O6 0.271530 0.169018 0.440010
O O7 0.138728 0.135898 0.343300
O O8 0.204690 0.000000 0.500000
O O9 0.294793 0.309941 0.913774
O O10 0.416750 0.364791 0.820726
O O11 0.364526 0.500000 0.000000
O O12 0.413811 0.303671 0.045342
O O13 0.854168 0.265569 0.876961
O O14 0.000000 0.778980 0.713000
O O15 0.500000 0.667482 0.368772
#
# Coordination Sequence:
#
# PCOD9419662 Si02
#       6
#     8   8   8   8   8   8
#     4  12  19  38  62  89 128 170 221 248 300 386
#     4  11  24  47  73  98 121 165 229 282 334 398
#     4  11  20  36  58  84 127 175 220 257 303 382
#     4  11  22  40  62  88 124 168 218 264 319 385
#     4  11  22  37  65  96 126 165 207 267 327 381
#     4  12  25  34  54  96 138 176 214 260 319 380
#
# _framework density 20.157788
#
# number of rings (size 3 to 8) (size 9 to 14) (size 15 to 20)
#    0.000    0.667    6.667    4.000    0.000    5.667 
#    0.000    0.000    0.000    2.000    0.000    0.000 
#    0.000    0.000    0.000    0.000    0.000    0.000 
#
# Total GULP energy -267547.818658 kJ/mol
# GULP energy per Si atom -5573.912889 kJ/mol
# Density = 2.011191 g / cm^3
# Si number density = 20.157788 Si / 1000 Ang^3
#
#
#
# Elastic Constant Matrix: (Units=GPa)
#
#
# Indices 1 2 3 4 5 6 
#
# 1 138.6939 16.5520 18.5074 0.0000 0.0000 0.0000
# 2 16.5520 34.0081 14.1938 0.0000 0.0000 0.0000
# 3 18.5074 14.1938 62.7148 0.0000 0.0000 0.0000
# 4 0.0000 0.0000 0.0000 38.6778 0.0000 0.0000
# 5 0.0000 0.0000 0.0000 0.0000 15.8323 0.0000
# 6 0.0000 0.0000 0.0000 0.0000 0.0000 13.4324
#
#
#
# Elastic Compliance Matrix: (Units=1/GPa)
#
#
# Indices 1 2 3 4 5 6 
#
# 1 0.007796 -0.003130 -0.001592 0.000000 0.000000 0.000000
# 2 -0.003130 0.033729 -0.006710 0.000000 0.000000 0.000000
# 3 -0.001592 -0.006710 0.017934 0.000000 0.000000 0.000000
# 4 0.000000 0.000000 0.000000 0.025855 0.000000 0.000000
# 5 0.000000 0.000000 0.000000 0.000000 0.063162 0.000000
# 6 0.000000 0.000000 0.000000 0.000000 0.000000 0.074447
#
#
# Mechanical properties :
#
#
# Convention : Reuss Voigt Hill
#
# Bulk Modulus (GPa) = 27.32671 37.10259 32.21465
# Shear Modulus (GPa) = 19.38101 25.99938 22.69020
#
# Velocity S-wave (km/s) = 3.10411 3.59527 3.35868
# Velocity P-wave (km/s) = 5.14132 5.97333 5.57287
#
# Compressibility (1/GPa) = 0.03659424
#
# Stress axis : x y z
#
# Youngs Moduli (GPa) = 128.26879 29.64848 55.76096
#
# Poissons Ratio (x) = 0.09280 0.08879
# Poissons Ratio (y) = 0.40146 0.37415
# Poissons Ratio (z) = 0.20424 0.19894
#
# Static dielectric constant tensor:
#      x y z
#    x 1.829910 0.000000 0.000000 
#    y 0.000000 1.744410 0.000000 
#    z 0.000000 0.000000 1.836420 
# 
# From -- ./inp_files/16922.got.cif
#   From: 2010.05.17/outbox.cif.g08.bks.cpg/sg53_9_cif.got.tgz:16922.got - 2010.06.03 12:45:16.
