data_PCOD9419360
_publ_section_title
;
Structure prediction by ZEFSAII (Michael W. Deem and Ramdas Pophale) SiO2 
 PCOD9419360
Probable space group: P M N A
;
_chemical_formula_sum "Si O2"
_cell_formula_units_Z 48
_cell_length_a 15.167234
_cell_length_b 8.072699
_cell_length_c 16.666834
_cell_angle_alpha 90.000000
_cell_angle_beta 90.000000
_cell_angle_gamma 90.000000
_cell_volume 2040.695734
_symmetry_space_group_name_H-M "P M N A"
_symmetry_group_IT_number 53
_symmetry_cell_setting 'orthorhombic'
loop_
_space_group_symop_operation_xyz
x,y,z
1/2-x,-y,1/2+z
x,-y,-z
1/2-x,y,1/2-z
-x,-y,-z
1/2+x,y,1/2-z
-x,y,z
1/2+x,-y,1/2+z
loop_
_atom_site_type_symbol
_atom_site_label
_atom_site_fract_x
_atom_site_fract_y
_atom_site_fract_z
Si Si1 0.398095 0.702328 0.813797
Si Si2 0.095666 0.873036 0.929372
Si Si3 0.147305 0.044528 0.766748
Si Si4 0.400552 0.303206 0.005294
Si Si5 0.777964 0.329245 0.958348
Si Si6 0.397019 0.598918 0.301234
O O1 0.500000 0.654393 0.823875
O O2 0.364185 0.718170 0.904084
O O3 0.364805 0.558133 0.752752
O O4 0.390233 0.886409 0.779696
O O5 0.000000 0.799194 0.905442
O O6 0.133063 0.981783 0.857524
O O7 0.162325 0.751101 0.972204
O O8 0.081332 0.000000 0.000000
O O9 0.250000 0.059247 0.750000
O O10 0.105705 0.225375 0.754399
O O11 0.500000 0.229218 0.993892
O O12 0.414260 0.500000 0.000000
O O13 0.319227 0.246076 0.948129
O O14 0.833844 0.365030 0.877773
O O15 0.755605 0.500000 0.000000
O O16 0.500000 0.571451 0.325204
#
# Coordination Sequence:
#
# PCOD9419360 Si02
#       6
#     8   8   8   8   8   8
#     4  10  22  43  70  95 129 176 228 287 346 407
#     4  11  22  40  63  90 135 176 211 272 345 404
#     4  12  25  40  64  99 137 180 226 278 337 415
#     4   9  20  41  68  96 132 179 227 283 347 408
#     4  11  22  37  65 100 130 171 225 279 338 417
#     4  11  24  43  69 102 137 174 226 287 348 411
#
# _framework density 23.521391000000001
#
# number of rings (size 3 to 8) (size 9 to 14) (size 15 to 20)
#    0.000    1.333    1.667    4.000    0.000    7.333 
#    0.000    0.000    0.000    2.500    0.000    1.167 
#    0.000    0.000    0.000    0.000    0.000    0.000 
#
# Total GULP energy -267714.467254 kJ/mol
# GULP energy per Si atom -5577.384734 kJ/mol
# Density = 2.346786 g / cm^3
# Si number density = 23.521391 Si / 1000 Ang^3
#
#
#
# Elastic Constant Matrix: (Units=GPa)
#
#
# Indices 1 2 3 4 5 6 
#
# 1 180.8052 13.3686 29.2898 0.0000 0.0000 0.0000
# 2 13.3686 98.7229 9.0852 0.0000 0.0000 0.0000
# 3 29.2898 9.0852 70.5332 0.0000 0.0000 0.0000
# 4 0.0000 0.0000 0.0000 22.5346 0.0000 0.0000
# 5 0.0000 0.0000 0.0000 0.0000 36.7238 0.0000
# 6 0.0000 0.0000 0.0000 0.0000 0.0000 33.1957
#
#
#
# Elastic Compliance Matrix: (Units=1/GPa)
#
#
# Indices 1 2 3 4 5 6 
#
# 1 0.005963 -0.000587 -0.002401 0.000000 0.000000 0.000000
# 2 -0.000587 0.010309 -0.001084 0.000000 0.000000 0.000000
# 3 -0.002401 -0.001084 0.015314 0.000000 0.000000 0.000000
# 4 0.000000 0.000000 0.000000 0.044376 0.000000 0.000000
# 5 0.000000 0.000000 0.000000 0.000000 0.027230 0.000000
# 6 0.000000 0.000000 0.000000 0.000000 0.000000 0.030124
#
#
# Mechanical properties :
#
#
# Convention : Reuss Voigt Hill
#
# Bulk Modulus (GPa) = 42.65674 50.39428 46.52551
# Shear Modulus (GPa) = 33.49542 38.37867 35.93704
#
# Velocity S-wave (km/s) = 3.77774 4.04375 3.91301
# Velocity P-wave (km/s) = 6.09943 6.57829 6.34338
#
# Compressibility (1/GPa) = 0.02344295
#
# Stress axis : x y z
#
# Youngs Moduli (GPa) = 167.69834 97.00668 65.29848
#
# Poissons Ratio (x) = 0.05690 0.15676
# Poissons Ratio (y) = 0.09837 0.07080
# Poissons Ratio (z) = 0.40259 0.10518
#
# Static dielectric constant tensor:
#      x y z
#    x 2.337670 0.000000 0.000000 
#    y 0.000000 1.817850 0.000000 
#    z 0.000000 0.000000 1.915750 
# 
# From -- ./inp_files/28288.got.cif
#   From: 2010.05.17/outbox.cif.g08.bks.cpg/sg53_15_cif.got.tgz:28288.got - 2010.06.03 12:45:16.
