data_PCOD9419645
_publ_section_title
;
Structure prediction by ZEFSAII (Michael W. Deem and Ramdas Pophale) SiO2 
 PCOD9419645
Probable space group: P M N A
;
_chemical_formula_sum "Si O2"
_cell_formula_units_Z 54
_cell_length_a 14.857631
_cell_length_b 14.346347
_cell_length_c 13.628390
_cell_angle_alpha 90.000000
_cell_angle_beta 90.000000
_cell_angle_gamma 90.000000
_cell_volume 2904.928533
_symmetry_space_group_name_H-M "P M N A"
_symmetry_group_IT_number 53
_symmetry_cell_setting 'orthorhombic'
loop_
_space_group_symop_operation_xyz
x,y,z
1/2-x,-y,1/2+z
x,-y,-z
1/2-x,y,1/2-z
-x,-y,-z
1/2+x,y,1/2-z
-x,y,z
1/2+x,-y,1/2+z
loop_
_atom_site_type_symbol
_atom_site_label
_atom_site_fract_x
_atom_site_fract_y
_atom_site_fract_z
Si Si1 0.605384 0.287917 0.276448
Si Si2 0.601883 0.700069 0.328106
Si Si3 0.327231 0.592255 0.897193
Si Si4 0.750000 0.560302 0.250000
Si Si5 0.500000 0.500000 0.000000
Si Si6 0.609525 0.896233 0.386743
Si Si7 0.109657 0.103480 0.114629
Si Si8 0.357562 0.606993 0.525466
O O1 0.500000 0.278348 0.251830
O O2 0.656676 0.327299 0.182677
O O3 0.639587 0.189654 0.319181
O O4 0.612596 0.361807 0.366243
O O5 0.500000 0.693747 0.288931
O O6 0.667195 0.625734 0.279383
O O7 0.636677 0.806177 0.324540
O O8 0.600298 0.672413 0.443086
O O9 0.283082 0.506389 0.837185
O O10 0.420096 0.560816 0.944563
O O11 0.250571 0.619419 0.974813
O O12 0.500000 0.894124 0.387003
O O13 0.637562 0.885667 0.500776
O O14 0.636868 0.999449 0.352654
O O15 0.000000 0.106087 0.114393
O O16 0.380099 0.500000 0.500000
#
# Coordination Sequence:
#
# PCOD9419645 Si02
#       8
#     8   8   8   4   2   8   8   8
#     4  11  20  32  55  83 111 146 188 226 279 344
#     4  11  22  36  59  81 108 147 190 226 287 344
#     4  12  23  39  53  76 112 152 193 242 281 328
#     4  12  24  40  52  80 118 148 188 246 274 326
#     4  12  24  40  60  72 104 160 208 222 280 372
#     4   8  14  28  50  80 108 138 176 222 283 343
#     4   8  14  26  50  80 110 136 173 227 280 332
#     4  12  21  36  51  78 111 143 181 235 290 322
#
# _framework density 18.589099000000001
#
# number of rings (size 3 to 8) (size 9 to 14) (size 15 to 20)
#    0.000    1.481    5.926    1.333    1.037    2.370 
#    0.000    0.000    3.259    0.000    0.000    0.000 
#    0.000    1.185    0.000    0.000    0.000    0.000 
#
# Total GULP energy -300884.560558 kJ/mol
# GULP energy per Si atom -5571.936307 kJ/mol
# Density = 1.854679 g / cm^3
# Si number density = 18.589099 Si / 1000 Ang^3
#
#
#
# Elastic Constant Matrix: (Units=GPa)
#
#
# Indices 1 2 3 4 5 6 
#
# 1 83.6632 25.2695 7.4062 0.0000 0.0000 0.0000
# 2 25.2695 144.8230 23.5581 0.0000 0.0000 0.0000
# 3 7.4062 23.5581 31.2697 0.0000 0.0000 0.0000
# 4 0.0000 0.0000 0.0000 29.8130 0.0000 0.0000
# 5 0.0000 0.0000 0.0000 0.0000 26.6037 0.0000
# 6 0.0000 0.0000 0.0000 0.0000 0.0000 4.4779
#
#
#
# Elastic Compliance Matrix: (Units=1/GPa)
#
#
# Indices 1 2 3 4 5 6 
#
# 1 0.012681 -0.001965 -0.001523 0.000000 0.000000 0.000000
# 2 -0.001965 0.008174 -0.005693 0.000000 0.000000 0.000000
# 3 -0.001523 -0.005693 0.036629 0.000000 0.000000 0.000000
# 4 0.000000 0.000000 0.000000 0.033542 0.000000 0.000000
# 5 0.000000 0.000000 0.000000 0.000000 0.037589 0.000000
# 6 0.000000 0.000000 0.000000 0.000000 0.000000 0.223317
#
#
# Mechanical properties :
#
#
# Convention : Reuss Voigt Hill
#
# Bulk Modulus (GPa) = 25.56057 41.35816 33.45937
# Shear Modulus (GPa) = 13.04345 25.74708 19.39526
#
# Velocity S-wave (km/s) = 2.65178 3.72568 3.23362
# Velocity P-wave (km/s) = 4.81208 6.38784 5.65511
#
# Compressibility (1/GPa) = 0.03912276
#
# Stress axis : x y z
#
# Youngs Moduli (GPa) = 78.85817 122.34149 27.30051
#
# Poissons Ratio (x) = 0.24039 0.04158
# Poissons Ratio (y) = 0.15495 0.15541
# Poissons Ratio (z) = 0.12011 0.69645
#
# Static dielectric constant tensor:
#      x y z
#    x 1.645190 0.000000 0.000000 
#    y 0.000000 1.685570 0.000000 
#    z 0.000000 0.000000 1.638930 
# 
# From -- ./inp_files/22976.got.cif
#   From: 2010.05.17/outbox.cif.g08.bks.cpg/sg53_12_cif.got.tgz:22976.got - 2010.06.03 12:45:16.
