data_PCOD9419475
_publ_section_title
;
Structure prediction by ZEFSAII (Michael W. Deem and Ramdas Pophale) SiO2 
 PCOD9419475
Probable space group: P M N A
;
_chemical_formula_sum "Si O2"
_cell_formula_units_Z 32
_cell_length_a 14.131186
_cell_length_b 19.985495
_cell_length_c 5.250535
_cell_angle_alpha 90.000000
_cell_angle_beta 90.000000
_cell_angle_gamma 90.000000
_cell_volume 1482.849517
_symmetry_space_group_name_H-M "P M N A"
_symmetry_group_IT_number 53
_symmetry_cell_setting 'orthorhombic'
loop_
_space_group_symop_operation_xyz
x,y,z
1/2-x,-y,1/2+z
x,-y,-z
1/2-x,y,1/2-z
-x,-y,-z
1/2+x,y,1/2-z
-x,y,z
1/2+x,-y,1/2+z
loop_
_atom_site_type_symbol
_atom_site_label
_atom_site_fract_x
_atom_site_fract_y
_atom_site_fract_z
Si Si1 0.883942 0.730810 0.545929
Si Si2 0.392616 0.956150 0.753513
Si Si3 0.250000 0.840206 0.750000
Si Si4 0.689667 0.500000 0.500000
Si Si5 0.111874 0.647154 0.051519
O O1 0.812212 0.793350 0.562966
O O2 0.857700 0.686184 0.303414
O O3 0.000000 0.745663 0.541882
O O4 0.862281 0.686856 0.796598
O O5 0.500000 0.935338 0.822248
O O6 0.331056 0.892526 0.669781
O O7 0.395973 0.000000 0.500000
O O8 0.357374 0.000000 0.000000
O O9 0.750000 0.513328 0.750000
O O10 0.636647 0.569291 0.449489
O O11 0.000000 0.650407 0.059027
#
# Coordination Sequence:
#
# PCOD9419475 Si02
#       5
#     8   8   4   4   8
#     4  10  24  41  63  92 129 169 215 263 319 391
#     4  10  23  43  66  95 131 168 214 265 314 379
#     4  12  24  40  68  96 132 170 216 258 332 376
#     4  12  25  38  67  98 124 160 220 276 327 386
#     4  10  23  45  63  88 126 171 212 264 326 385
#
# _framework density 21.580072000000001
#
# number of rings (size 3 to 8) (size 9 to 14) (size 15 to 20)
#    0.000    1.500    0.000    3.375    5.250    4.000 
#    0.000   12.500    0.000    0.000    0.000    0.000 
#    0.000    0.000    0.000    0.000    0.000    0.000 
#
# Total GULP energy -178536.218174 kJ/mol
# GULP energy per Si atom -5579.256818 kJ/mol
# Density = 2.153095 g / cm^3
# Si number density = 21.580072 Si / 1000 Ang^3
#
#
#
# Elastic Constant Matrix: (Units=GPa)
#
#
# Indices 1 2 3 4 5 6 
#
# 1 124.8168 58.6857 30.0335 0.0000 0.0000 0.0000
# 2 58.6857 159.3833 64.1956 0.0000 0.0000 0.0000
# 3 30.0335 64.1956 162.5513 0.0000 0.0000 0.0000
# 4 0.0000 0.0000 0.0000 23.5408 0.0000 0.0000
# 5 0.0000 0.0000 0.0000 0.0000 8.4532 0.0000
# 6 0.0000 0.0000 0.0000 0.0000 0.0000 62.3836
#
#
#
# Elastic Compliance Matrix: (Units=1/GPa)
#
#
# Indices 1 2 3 4 5 6 
#
# 1 0.009717 -0.003395 -0.000455 0.000000 0.000000 0.000000
# 2 -0.003395 0.008647 -0.002788 0.000000 0.000000 0.000000
# 3 -0.000455 -0.002788 0.007337 0.000000 0.000000 0.000000
# 4 0.000000 0.000000 0.000000 0.042479 0.000000 0.000000
# 5 0.000000 0.000000 0.000000 0.000000 0.118299 0.000000
# 6 0.000000 0.000000 0.000000 0.000000 0.000000 0.016030
#
#
# Mechanical properties :
#
#
# Convention : Reuss Voigt Hill
#
# Bulk Modulus (GPa) = 80.47161 83.62011 82.04586
# Shear Modulus (GPa) = 22.73495 38.46463 30.59979
#
# Velocity S-wave (km/s) = 3.24931 4.22644 3.76967
# Velocity P-wave (km/s) = 7.17273 7.91518 7.55308
#
# Compressibility (1/GPa) = 0.01242674
#
# Stress axis : x y z
#
# Youngs Moduli (GPa) = 102.90909 115.64738 136.29859
#
# Poissons Ratio (x) = 0.39260 0.06197
# Poissons Ratio (y) = 0.34936 0.37996
# Poissons Ratio (z) = 0.04679 0.32239
#
# Static dielectric constant tensor:
#      x y z
#    x 1.845590 0.000000 0.000000 
#    y 0.000000 1.989150 0.000000 
#    z 0.000000 0.000000 1.803390 
# 
# From -- ./inp_files/1336.got.cif
#   From: 2010.05.17/outbox.cif.g08.bks.cpg/sg53_1_cif.got.tgz:1336.got - 2010.06.03 12:45:16.
