data_PCOD9419053
_publ_section_title
;
Structure prediction by ZEFSAII (Michael W. Deem and Ramdas Pophale) SiO2 
 PCOD9419053
Probable space group: P M N A
;
_chemical_formula_sum "Si O2"
_cell_formula_units_Z 48
_cell_length_a 21.626404
_cell_length_b 5.300226
_cell_length_c 20.844542
_cell_angle_alpha 90.000000
_cell_angle_beta 90.000000
_cell_angle_gamma 90.000000
_cell_volume 2389.302057
_symmetry_space_group_name_H-M "P M N A"
_symmetry_group_IT_number 53
_symmetry_cell_setting 'orthorhombic'
loop_
_space_group_symop_operation_xyz
x,y,z
1/2-x,-y,1/2+z
x,-y,-z
1/2-x,y,1/2-z
-x,-y,-z
1/2+x,y,1/2-z
-x,y,z
1/2+x,-y,1/2+z
loop_
_atom_site_type_symbol
_atom_site_label
_atom_site_fract_x
_atom_site_fract_y
_atom_site_fract_z
Si Si1 0.785989 0.429398 0.317531
Si Si2 0.000000 0.970572 0.293297
Si Si3 0.500000 0.528215 0.705683
Si Si4 0.607764 0.779190 0.343201
Si Si5 0.191995 0.514619 0.928804
Si Si6 0.136428 0.077484 0.697520
Si Si7 0.433852 0.823396 0.562294
O O1 0.750000 0.466889 0.250000
O O2 0.738779 0.382424 0.375806
O O3 0.826989 0.680447 0.329548
O O4 0.827547 0.182089 0.310678
O O5 0.000000 0.214009 0.245820
O O6 0.000000 0.708131 0.254578
O O7 0.066381 0.963103 0.327839
O O8 0.563982 0.466684 0.668031
O O9 0.664030 0.729740 0.392176
O O10 0.630771 0.866379 0.273937
O O11 0.567679 0.993145 0.376617
O O12 0.129315 0.671533 0.939457
O O13 0.220177 0.500000 0.000000
O O14 0.500000 0.683684 0.560574
O O15 0.433268 0.000000 0.500000
#
# Coordination Sequence:
#
# PCOD9419053 Si02
#       7
#     8   4   4   8   8   8   8
#     4  12  25  43  66  93 131 174 221 264 331 394
#     4  10  22  40  64  99 129 154 212 274 340 389
#     4  10  22  34  58  91 130 166 209 268 316 371
#     4  11  22  38  57  88 124 171 220 264 323 377
#     4  12  27  41  61  90 130 181 227 279 323 393
#     4  11  24  42  67  97 124 168 211 275 332 398
#     4  11  24  39  58  86 126 182 234 274 313 370
#
# _framework density 20.089547
#
# number of rings (size 3 to 8) (size 9 to 14) (size 15 to 20)
#    0.000    0.833    4.167    3.500    8.167    0.333 
#    0.000    0.000    0.000    0.000    0.000    3.500 
#    0.000    0.000    0.000    0.000    0.000    0.000 
#
# Total GULP energy -268135.083802 kJ/mol
# GULP energy per Si atom -5586.147579 kJ/mol
# Density = 2.004382 g / cm^3
# Si number density = 20.089547 Si / 1000 Ang^3
#
#
#
# Elastic Constant Matrix: (Units=GPa)
#
#
# Indices 1 2 3 4 5 6 
#
# 1 131.5796 46.5033 41.4162 0.0000 0.0000 0.0000
# 2 46.5033 94.8708 -6.7717 0.0000 0.0000 0.0000
# 3 41.4162 -6.7717 69.4375 0.0000 0.0000 0.0000
# 4 0.0000 0.0000 0.0000 25.4895 0.0000 0.0000
# 5 0.0000 0.0000 0.0000 0.0000 17.7515 0.0000
# 6 0.0000 0.0000 0.0000 0.0000 0.0000 45.8362
#
#
#
# Elastic Compliance Matrix: (Units=1/GPa)
#
#
# Indices 1 2 3 4 5 6 
#
# 1 0.012537 -0.006726 -0.008134 0.000000 0.000000 0.000000
# 2 -0.006726 0.014223 0.005399 0.000000 0.000000 0.000000
# 3 -0.008134 0.005399 0.019779 0.000000 0.000000 0.000000
# 4 0.000000 0.000000 0.000000 0.039232 0.000000 0.000000
# 5 0.000000 0.000000 0.000000 0.000000 0.056333 0.000000
# 6 0.000000 0.000000 0.000000 0.000000 0.000000 0.021817
#
#
# Mechanical properties :
#
#
# Convention : Reuss Voigt Hill
#
# Bulk Modulus (GPa) = 36.20890 50.90928 43.55909
# Shear Modulus (GPa) = 26.03490 32.13144 29.08317
#
# Velocity S-wave (km/s) = 3.60383 4.00360 3.80896
# Velocity P-wave (km/s) = 5.94808 6.83871 6.40888
#
# Compressibility (1/GPa) = 0.02761752
#
# Stress axis : x y z
#
# Youngs Moduli (GPa) = 79.76164 70.30883 50.55756
#
# Poissons Ratio (x) = 0.47290 0.41123
# Poissons Ratio (y) = 0.53648 -0.27295
# Poissons Ratio (z) = 0.64877 -0.37959
#
# Static dielectric constant tensor:
#      x y z
#    x 1.776450 0.000000 0.000000 
#    y 0.000000 1.782330 0.000000 
#    z 0.000000 0.000000 1.734910 
# 
# From -- ./inp_files/32984.got.cif
#   From: 2010.05.17/outbox.cif.g08.bks.cpg/sg53_17_cif.got.tgz:32984.got - 2010.06.03 12:45:16.
