data_PCOD9419553
_publ_section_title
;
Structure prediction by ZEFSAII (Michael W. Deem and Ramdas Pophale) SiO2 
 PCOD9419553
Probable space group: P M N A
;
_chemical_formula_sum "Si O2"
_cell_formula_units_Z 56
_cell_length_a 22.009595
_cell_length_b 8.396674
_cell_length_c 13.789276
_cell_angle_alpha 90.000000
_cell_angle_beta 90.000000
_cell_angle_gamma 90.000000
_cell_volume 2548.360164
_symmetry_space_group_name_H-M "P M N A"
_symmetry_group_IT_number 53
_symmetry_cell_setting 'orthorhombic'
loop_
_space_group_symop_operation_xyz
x,y,z
1/2-x,-y,1/2+z
x,-y,-z
1/2-x,y,1/2-z
-x,-y,-z
1/2+x,y,1/2-z
-x,y,z
1/2+x,-y,1/2+z
loop_
_atom_site_type_symbol
_atom_site_label
_atom_site_fract_x
_atom_site_fract_y
_atom_site_fract_z
Si Si1 0.432702 0.384361 0.725017
Si Si2 0.685470 0.392735 0.279158
Si Si3 0.705083 0.317329 0.492481
Si Si4 0.567300 0.674925 0.043950
Si Si5 0.395313 0.902061 0.409512
Si Si6 0.318085 0.149258 0.943978
Si Si7 0.677555 0.941918 0.761281
O O1 0.500000 0.461424 0.709990
O O2 0.372402 0.492811 0.708415
O O3 0.429908 0.339554 0.838992
O O4 0.430242 0.231259 0.653841
O O5 0.750000 0.473306 0.250000
O O6 0.704670 0.299534 0.377235
O O7 0.667610 0.243541 0.210660
O O8 0.685879 0.500000 0.500000
O O9 0.658428 0.197854 0.540273
O O10 0.769095 0.288729 0.545863
O O11 0.500000 0.728570 0.015899
O O12 0.619663 0.791794 0.009974
O O13 0.577173 0.500000 0.000000
O O14 0.424395 0.000000 0.500000
O O15 0.364210 0.017059 0.330655
O O16 0.335059 0.077604 0.840502
O O17 0.289403 0.000000 0.000000
O O18 0.750000 0.960135 0.750000
#
# Coordination Sequence:
#
# PCOD9419553 Si02
#       7
#     8   8   8   8   8   8   8
#     4  11  26  48  70  99 140 188 238 294 360 437
#     4  11  25  42  68 105 137 179 233 295 358 428
#     4  12  24  40  65 101 137 173 229 286 352 425
#     4  10  24  44  66  94 134 180 230 283 352 435
#     4  12  23  43  70  97 138 184 236 295 352 422
#     4  12  24  38  65 100 134 176 222 284 352 420
#     4  11  22  40  65  99 142 178 222 289 360 420
#
# _framework density 21.974917999999999
#
# number of rings (size 3 to 8) (size 9 to 14) (size 15 to 20)
#    0.000    0.714    5.714    2.571    6.000    1.143 
#    0.000    2.857    0.000    0.000    0.000    0.000 
#    0.000    0.000    0.000    0.000    0.000    0.000 
#
# Total GULP energy -312427.988973 kJ/mol
# GULP energy per Si atom -5579.071232 kJ/mol
# Density = 2.192490 g / cm^3
# Si number density = 21.974918 Si / 1000 Ang^3
#
#
#
# Elastic Constant Matrix: (Units=GPa)
#
#
# Indices 1 2 3 4 5 6 
#
# 1 120.8177 54.7769 17.6242 0.0000 0.0000 0.0000
# 2 54.7769 75.5494 11.4365 0.0000 0.0000 0.0000
# 3 17.6242 11.4365 96.9987 0.0000 0.0000 0.0000
# 4 0.0000 0.0000 0.0000 40.0470 0.0000 0.0000
# 5 0.0000 0.0000 0.0000 0.0000 16.3574 0.0000
# 6 0.0000 0.0000 0.0000 0.0000 0.0000 20.7436
#
#
#
# Elastic Compliance Matrix: (Units=1/GPa)
#
#
# Indices 1 2 3 4 5 6 
#
# 1 0.012471 -0.008857 -0.001222 0.000000 0.000000 0.000000
# 2 -0.008857 0.019767 -0.000721 0.000000 0.000000 0.000000
# 3 -0.001222 -0.000721 0.010616 0.000000 0.000000 0.000000
# 4 0.000000 0.000000 0.000000 0.024971 0.000000 0.000000
# 5 0.000000 0.000000 0.000000 0.000000 0.061134 0.000000
# 6 0.000000 0.000000 0.000000 0.000000 0.000000 0.048208
#
#
# Mechanical properties :
#
#
# Convention : Reuss Voigt Hill
#
# Bulk Modulus (GPa) = 47.04866 51.22678 49.13772
# Shear Modulus (GPa) = 24.28934 29.39817 26.84375
#
# Velocity S-wave (km/s) = 3.32824 3.66157 3.49888
# Velocity P-wave (km/s) = 6.01882 6.42170 6.22352
#
# Compressibility (1/GPa) = 0.02125459
#
# Stress axis : x y z
#
# Youngs Moduli (GPa) = 80.18779 50.58869 94.19366
#
# Poissons Ratio (x) = 0.44806 0.11507
# Poissons Ratio (y) = 0.71022 0.06795
# Poissons Ratio (z) = 0.09796 0.03649
#
# Static dielectric constant tensor:
#      x y z
#    x 1.781420 0.000000 0.000000 
#    y 0.000000 1.844440 0.000000 
#    z 0.000000 0.000000 1.954690 
# 
# From -- ./inp_files/24324.got.cif
#   From: 2010.05.17/outbox.cif.g08.bks.cpg/sg53_13_cif.got.tgz:24324.got - 2010.06.03 12:45:16.
