data_PCOD9419647
_publ_section_title
;
Structure prediction by ZEFSAII (Michael W. Deem and Ramdas Pophale) SiO2 
 PCOD9419647
Probable space group: P M N A
;
_chemical_formula_sum "Si O2"
_cell_formula_units_Z 40
_cell_length_a 28.630635
_cell_length_b 8.227762
_cell_length_c 7.292336
_cell_angle_alpha 90.000000
_cell_angle_beta 90.000000
_cell_angle_gamma 90.000000
_cell_volume 1717.826792
_symmetry_space_group_name_H-M "P M N A"
_symmetry_group_IT_number 53
_symmetry_cell_setting 'orthorhombic'
loop_
_space_group_symop_operation_xyz
x,y,z
1/2-x,-y,1/2+z
x,-y,-z
1/2-x,y,1/2-z
-x,-y,-z
1/2+x,y,1/2-z
-x,y,z
1/2+x,-y,1/2+z
loop_
_atom_site_type_symbol
_atom_site_label
_atom_site_fract_x
_atom_site_fract_y
_atom_site_fract_z
Si Si1 0.887846 0.298721 0.211253
Si Si2 0.792688 0.617021 0.153498
Si Si3 0.793452 0.133740 0.129673
Si Si4 0.109346 0.668895 0.230073
Si Si5 0.945917 0.011286 0.776058
O O1 0.834183 0.233637 0.233090
O O2 0.899723 0.480095 0.283384
O O3 0.920111 0.153798 0.283739
O O4 0.895294 0.314443 0.991353
O O5 0.750000 0.530056 0.250000
O O6 0.835140 0.684320 0.271419
O O7 0.814150 0.500000 0.000000
O O8 0.770651 0.756210 0.029649
O O9 0.750000 0.076526 0.250000
O O10 0.818366 0.000000 0.000000
O O11 0.079641 0.823933 0.291778
O O12 0.000000 0.014396 0.723313
O O13 0.944394 0.000000 0.000000
#
# Coordination Sequence:
#
# PCOD9419647 Si02
#       5
#     8   8   8   8   8
#     4   9  16  29  46  65  97 136 171 207 265 311
#     4  11  20  33  52  75 105 143 176 213 263 314
#     4  11  21  34  51  75 105 143 181 216 258 315
#     4   9  16  29  46  67  98 136 170 207 263 316
#     4   9  17  27  42  66  96 132 173 213 257 317
#
# _framework density 23.285236000000001
#
# number of rings (size 3 to 8) (size 9 to 14) (size 15 to 20)
#    0.000    2.200    4.000    4.200    0.000    0.800 
#    0.000    4.000    0.000    0.000    0.000    0.000 
#    0.000    8.000    0.000    0.600    0.000    0.000 
#
# Total GULP energy -222754.795139 kJ/mol
# GULP energy per Si atom -5568.869878 kJ/mol
# Density = 2.323224 g / cm^3
# Si number density = 23.285236 Si / 1000 Ang^3
#
#
#
# Elastic Constant Matrix: (Units=GPa)
#
#
# Indices 1 2 3 4 5 6 
#
# 1 181.1782 108.7356 18.9188 0.0000 0.0000 0.0000
# 2 108.7356 193.4841 25.3363 0.0000 0.0000 0.0000
# 3 18.9188 25.3363 52.0694 0.0000 0.0000 0.0000
# 4 0.0000 0.0000 0.0000 -1.8415 0.0000 0.0000
# 5 0.0000 0.0000 0.0000 0.0000 4.4515 0.0000
# 6 0.0000 0.0000 0.0000 0.0000 0.0000 33.6895
#
#
#
# Elastic Compliance Matrix: (Units=1/GPa)
#
#
# Indices 1 2 3 4 5 6 
#
# 1 0.008360 -0.004593 -0.000803 0.000000 0.000000 0.000000
# 2 -0.004593 0.008044 -0.002245 0.000000 0.000000 0.000000
# 3 -0.000803 -0.002245 0.020589 0.000000 0.000000 0.000000
# 4 0.000000 0.000000 0.000000 -0.543027 0.000000 0.000000
# 5 0.000000 0.000000 0.000000 0.000000 0.224643 0.000000
# 6 0.000000 0.000000 0.000000 0.000000 0.000000 0.029683
#
#
# Mechanical properties :
#
#
# Convention : Reuss Voigt Hill
#
# Bulk Modulus (GPa) = 46.05899 81.41255 63.73577
# Shear Modulus (GPa) = -21.81589 25.50930 1.84670
#
# Velocity S-wave (km/s) = -3.06420 3.31345 0.89152
# Velocity P-wave (km/s) = 2.70263 7.04824 5.33769
#
# Compressibility (1/GPa) = 0.02171129
#
# Stress axis : x y z
#
# Youngs Moduli (GPa) = 119.62078 124.32281 48.56922
#
# Poissons Ratio (x) = 0.57101 0.03898
# Poissons Ratio (y) = 0.54942 0.10904
# Poissons Ratio (z) = 0.09600 0.27912
#
# Static dielectric constant tensor:
#      x y z
#    x 1.805860 0.000000 0.000000 
#    y 0.000000 2.038150 0.000000 
#    z 0.000000 0.000000 2.020860 
# 
# From -- ./inp_files/12299.got.cif
#   From: 2010.05.17/outbox.cif.g08.bks.cpg/sg53_7_cif.got.tgz:12299.got - 2010.06.03 12:45:16.
