data_PCOD9419478
_publ_section_title
;
Structure prediction by ZEFSAII (Michael W. Deem and Ramdas Pophale) SiO2 
 PCOD9419478
Probable space group: P M N A
;
_chemical_formula_sum "Si O2"
_cell_formula_units_Z 40
_cell_length_a 10.255101
_cell_length_b 22.823585
_cell_length_c 8.487658
_cell_angle_alpha 90.000000
_cell_angle_beta 90.000000
_cell_angle_gamma 90.000000
_cell_volume 1986.605694
_symmetry_space_group_name_H-M "P M N A"
_symmetry_group_IT_number 53
_symmetry_cell_setting 'orthorhombic'
loop_
_space_group_symop_operation_xyz
x,y,z
1/2-x,-y,1/2+z
x,-y,-z
1/2-x,y,1/2-z
-x,-y,-z
1/2+x,y,1/2-z
-x,y,z
1/2+x,-y,1/2+z
loop_
_atom_site_type_symbol
_atom_site_label
_atom_site_fract_x
_atom_site_fract_y
_atom_site_fract_z
Si Si1 0.269343 0.937516 0.062870
Si Si2 0.648067 0.556524 0.610042
Si Si3 0.000000 0.761035 0.070278
Si Si4 0.767184 0.683151 0.939120
Si Si5 0.500000 0.268508 0.938420
Si Si6 0.500000 0.890546 0.565751
Si Si7 0.000000 0.859936 0.565982
O O1 0.250000 0.939011 0.250000
O O2 0.372578 0.887907 0.014910
O O3 0.130583 0.924769 0.981519
O O4 0.319008 0.000000 0.000000
O O5 0.655358 0.500000 0.500000
O O6 0.750000 0.549804 0.750000
O O7 0.500000 0.561783 0.671011
O O8 0.682145 0.617710 0.525108
O O9 0.000000 0.750706 0.256910
O O10 0.873124 0.729962 0.996616
O O11 0.000000 0.829261 0.028177
O O12 0.750000 0.687291 0.750000
O O13 0.629506 0.695690 0.020087
O O14 0.500000 0.209551 0.042837
O O15 0.500000 0.876802 0.750843
#
# Coordination Sequence:
#
# PCOD9419478 Si02
#       7
#     8   8   4   8   4   4   4
#     4  12  25  44  67  96 131 170 217 270 328 391
#     4  10  23  43  67  98 134 175 222 273 327 387
#     4  12  24  43  64  95 132 166 215 274 325 394
#     4  11  23  43  66  94 128 174 216 269 323 394
#     4  12  26  41  66  97 130 168 219 266 335 384
#     4  12  25  43  68  93 130 172 217 268 330 390
#     4  12  25  45  66  97 128 174 217 270 324 398
#
# _framework density 20.134846
#
# number of rings (size 3 to 8) (size 9 to 14) (size 15 to 20)
#    0.000    0.600    1.000    7.800    4.200    2.000 
#    0.000    0.000    0.000    0.000    0.000    0.000 
#    0.000    0.000    0.000    0.000    0.000    0.000 
#
# Total GULP energy -224000.603123 kJ/mol
# GULP energy per Si atom -5600.015078 kJ/mol
# Density = 2.008902 g / cm^3
# Si number density = 20.134846 Si / 1000 Ang^3
#
#
#
# Elastic Constant Matrix: (Units=GPa)
#
#
# Indices 1 2 3 4 5 6 
#
# 1 139.9414 22.0665 9.7142 0.0000 0.0000 0.0000
# 2 22.0665 79.8137 -0.8594 0.0000 0.0000 0.0000
# 3 9.7142 -0.8594 114.5275 0.0000 0.0000 0.0000
# 4 0.0000 0.0000 0.0000 20.2134 0.0000 0.0000
# 5 0.0000 0.0000 0.0000 0.0000 36.6727 0.0000
# 6 0.0000 0.0000 0.0000 0.0000 0.0000 33.0968
#
#
#
# Elastic Compliance Matrix: (Units=1/GPa)
#
#
# Indices 1 2 3 4 5 6 
#
# 1 0.007520 -0.002086 -0.000654 0.000000 0.000000 0.000000
# 2 -0.002086 0.013109 0.000275 0.000000 0.000000 0.000000
# 3 -0.000654 0.000275 0.008789 0.000000 0.000000 0.000000
# 4 0.000000 0.000000 0.000000 0.049472 0.000000 0.000000
# 5 0.000000 0.000000 0.000000 0.000000 0.027268 0.000000
# 6 0.000000 0.000000 0.000000 0.000000 0.000000 0.030214
#
#
# Mechanical properties :
#
#
# Convention : Reuss Voigt Hill
#
# Bulk Modulus (GPa) = 40.83404 44.01391 42.42397
# Shear Modulus (GPa) = 33.45271 38.22067 35.83669
#
# Velocity S-wave (km/s) = 4.08049 4.36160 4.22339
# Velocity P-wave (km/s) = 6.52111 6.87545 6.70062
#
# Compressibility (1/GPa) = 0.02448937
#
# Stress axis : x y z
#
# Youngs Moduli (GPa) = 132.97571 76.28395 113.77826
#
# Poissons Ratio (x) = 0.15914 0.07436
# Poissons Ratio (y) = 0.27741 -0.03133
# Poissons Ratio (z) = 0.08690 -0.02100
#
# Static dielectric constant tensor:
#      x y z
#    x 1.682530 0.000000 0.000000 
#    y 0.000000 1.694780 0.000000 
#    z 0.000000 0.000000 1.675680 
# 
# From -- ./inp_files/6388.got.cif
#   From: 2010.05.17/outbox.cif.g08.bks.cpg/sg53_4_cif.got.tgz:6388.got - 2010.06.03 12:45:16.
