data_PCOD9419745
_publ_section_title
;
Structure prediction by ZEFSAII (Michael W. Deem and Ramdas Pophale) SiO2 
 PCOD9419745
Probable space group: P M N A
;
_chemical_formula_sum "Si O2"
_cell_formula_units_Z 24
_cell_length_a 15.938013
_cell_length_b 14.326968
_cell_length_c 5.011215
_cell_angle_alpha 90.000000
_cell_angle_beta 90.000000
_cell_angle_gamma 90.000000
_cell_volume 1144.277882
_symmetry_space_group_name_H-M "P M N A"
_symmetry_group_IT_number 53
_symmetry_cell_setting 'orthorhombic'
loop_
_space_group_symop_operation_xyz
x,y,z
1/2-x,-y,1/2+z
x,-y,-z
1/2-x,y,1/2-z
-x,-y,-z
1/2+x,y,1/2-z
-x,y,z
1/2+x,-y,1/2+z
loop_
_atom_site_type_symbol
_atom_site_label
_atom_site_fract_x
_atom_site_fract_y
_atom_site_fract_z
Si Si1 0.812414 0.601055 0.999501
Si Si2 0.345488 0.799195 0.644541
Si Si3 0.903233 0.905830 0.364661
O O1 0.750000 0.594676 0.750000
O O2 0.865047 0.694998 0.960326
O O3 0.856953 0.500000 0.000000
O O4 0.750000 0.613471 0.250000
O O5 0.250000 0.800181 0.750000
O O6 0.356968 0.869360 0.397657
O O7 0.398813 0.830048 0.899259
O O8 0.000000 0.923647 0.288832
O O9 0.868269 0.000000 0.500000
#
# Coordination Sequence:
#
# PCOD9419745 Si02
#       3
#     8   8   8
#     4   9  17  31  53  82 114 145 179 226 285 340
#     4  11  21  37  61  89 114 142 192 246 280 317
#     4  11  24  41  59  80 115 160 192 223 284 353
#
# _framework density 20.973927
#
# number of rings (size 3 to 8) (size 9 to 14) (size 15 to 20)
#    0.000    1.667    0.000    7.000    0.000    5.333 
#    0.000    1.667    0.000    6.000    0.000    0.000 
#    0.000    0.000    0.000    0.000    0.000    0.000 
#
# Total GULP energy -133993.773931 kJ/mol
# GULP energy per Si atom -5583.073914 kJ/mol
# Density = 2.092619 g / cm^3
# Si number density = 20.973927 Si / 1000 Ang^3
#
#
#
# Elastic Constant Matrix: (Units=GPa)
#
#
# Indices 1 2 3 4 5 6 
#
# 1 30.3320 24.4567 13.4166 0.0000 0.0000 0.0000
# 2 24.4567 122.2628 38.0124 0.0000 0.0000 0.0000
# 3 13.4166 38.0124 151.2066 0.0000 0.0000 0.0000
# 4 0.0000 0.0000 0.0000 35.7496 0.0000 0.0000
# 5 0.0000 0.0000 0.0000 0.0000 7.0577 0.0000
# 6 0.0000 0.0000 0.0000 0.0000 0.0000 -46.5248
#
#
#
# Elastic Compliance Matrix: (Units=1/GPa)
#
#
# Indices 1 2 3 4 5 6 
#
# 1 0.039687 -0.007424 -0.001655 0.000000 0.000000 0.000000
# 2 -0.007424 0.010261 -0.001921 0.000000 0.000000 0.000000
# 3 -0.001655 -0.001921 0.007243 0.000000 0.000000 0.000000
# 4 0.000000 0.000000 0.000000 0.027972 0.000000 0.000000
# 5 0.000000 0.000000 0.000000 0.000000 0.141689 0.000000
# 6 0.000000 0.000000 0.000000 0.000000 0.000000 -0.021494
#
#
# Mechanical properties :
#
#
# Convention : Reuss Voigt Hill
#
# Bulk Modulus (GPa) = 28.41626 50.61920 39.51773
# Shear Modulus (GPa) = 20.91274 14.45089 17.68182
#
# Velocity S-wave (km/s) = 3.16109 2.62772 2.90666
# Velocity P-wave (km/s) = 5.18663 5.77869 5.49064
#
# Compressibility (1/GPa) = 0.03519112
#
# Stress axis : x y z
#
# Youngs Moduli (GPa) = 25.19746 97.45264 138.06010
#
# Poissons Ratio (x) = 0.72350 0.22849
# Poissons Ratio (y) = 0.18707 0.26520
# Poissons Ratio (z) = 0.04170 0.18720
#
# Static dielectric constant tensor:
#      x y z
#    x 1.740990 0.000000 0.000000 
#    y 0.000000 1.869750 0.000000 
#    z 0.000000 0.000000 1.719540 
# 
# From -- ./inp_files/1053.got.cif
#   From: 2010.05.17/outbox.cif.g08.bks.cpg/sg53_1_cif.got.tgz:1053.got - 2010.06.03 12:45:16.
