data_PCOD9419972
_publ_section_title
;
Structure prediction by ZEFSAII (Michael W. Deem and Ramdas Pophale) SiO2 
 PCOD9419972
Probable space group: P M N A
;
_chemical_formula_sum "Si O2"
_cell_formula_units_Z 28
_cell_length_a 13.299762
_cell_length_b 6.698708
_cell_length_c 11.267699
_cell_angle_alpha 90.000000
_cell_angle_beta 90.000000
_cell_angle_gamma 90.000000
_cell_volume 1003.853074
_symmetry_space_group_name_H-M "P M N A"
_symmetry_group_IT_number 53
_symmetry_cell_setting 'orthorhombic'
loop_
_space_group_symop_operation_xyz
x,y,z
1/2-x,-y,1/2+z
x,-y,-z
1/2-x,y,1/2-z
-x,-y,-z
1/2+x,y,1/2-z
-x,y,z
1/2+x,-y,1/2+z
loop_
_atom_site_type_symbol
_atom_site_label
_atom_site_fract_x
_atom_site_fract_y
_atom_site_fract_z
Si Si1 0.886199 0.229111 0.042631
Si Si2 0.634593 0.677761 0.275432
Si Si3 0.338420 0.337220 0.104166
Si Si4 0.000000 0.992396 0.647204
O O1 0.886851 0.340453 0.914786
O O2 0.000000 0.242822 0.097164
O O3 0.779346 0.272548 0.107520
O O4 0.877982 0.000000 0.000000
O O5 0.750000 0.712593 0.250000
O O6 0.616529 0.466982 0.212065
O O7 0.583034 0.864427 0.213947
O O8 0.344617 0.500000 0.000000
O O9 0.412009 0.152087 0.089563
#
# Coordination Sequence:
#
# PCOD9419972 Si02
#       4
#     8   8   8   4
#     4  11  26  56  87 125 174 226 287 362 432 508
#     4  12  26  54  81 126 173 220 287 354 422 522
#     4  12  28  51  86 124 172 226 288 358 430 513
#     4  12  29  53  88 117 174 232 280 354 440 513
#
# _framework density 27.892527999999999
#
# number of rings (size 3 to 8) (size 9 to 14) (size 15 to 20)
#    0.000    0.286    4.286    3.000    0.000    5.143 
#    2.571    0.000    0.000    0.000    0.000    0.000 
#    0.000    0.000    0.000    0.000    0.000    0.000 
#
# Total GULP energy -156074.718124 kJ/mol
# GULP energy per Si atom -5574.097076 kJ/mol
# Density = 2.782904 g / cm^3
# Si number density = 27.892528 Si / 1000 Ang^3
#
#
#
# Elastic Constant Matrix: (Units=GPa)
#
#
# Indices 1 2 3 4 5 6 
#
# 1 292.8962 99.7260 42.1234 0.0000 0.0000 0.0000
# 2 99.7260 153.0553 66.3763 0.0000 0.0000 0.0000
# 3 42.1234 66.3763 97.5804 0.0000 0.0000 0.0000
# 4 0.0000 0.0000 0.0000 46.1159 0.0000 0.0000
# 5 0.0000 0.0000 0.0000 0.0000 59.9802 0.0000
# 6 0.0000 0.0000 0.0000 0.0000 0.0000 627.1226
#
#
#
# Elastic Compliance Matrix: (Units=1/GPa)
#
#
# Indices 1 2 3 4 5 6 
#
# 1 0.004388 -0.002890 0.000072 0.000000 0.000000 0.000000
# 2 -0.002890 0.011171 -0.006351 0.000000 0.000000 0.000000
# 3 0.000072 -0.006351 0.014537 0.000000 0.000000 0.000000
# 4 0.000000 0.000000 0.000000 0.021685 0.000000 0.000000
# 5 0.000000 0.000000 0.000000 0.000000 0.016672 0.000000
# 6 0.000000 0.000000 0.000000 0.000000 0.000000 0.001595
#
#
# Mechanical properties :
#
#
# Convention : Reuss Voigt Hill
#
# Bulk Modulus (GPa) = 85.05540 106.66481 95.86010
# Shear Modulus (GPa) = 54.16793 168.99749 111.58271
#
# Velocity S-wave (km/s) = 4.41162 7.79233 6.33177
# Velocity P-wave (km/s) = 7.51731 10.92176 9.37536
#
# Compressibility (1/GPa) = 0.01175704
#
# Stress axis : x y z
#
# Youngs Moduli (GPa) = 227.89955 89.51696 68.78907
#
# Poissons Ratio (x) = 0.25872 -0.00494
# Poissons Ratio (y) = 0.65866 0.43689
# Poissons Ratio (z) = -0.01636 0.56854
#
# Static dielectric constant tensor:
#      x y z
#    x 1.766000 0.000000 0.000000 
#    y 0.000000 2.338280 0.000000 
#    z 0.000000 0.000000 2.487030 
# 
# From -- ./inp_files/15280.got.cif
#   From: 2010.05.17/outbox.cif.g08.bks.cpg/sg53_8_cif.got.tgz:15280.got - 2010.06.03 12:45:16.
