data_PCOD9419961
_publ_section_title
;
Structure prediction by ZEFSAII (Michael W. Deem and Ramdas Pophale) SiO2 
 PCOD9419961
Probable space group: P M N A
;
_chemical_formula_sum "Si O2"
_cell_formula_units_Z 38
_cell_length_a 27.659739
_cell_length_b 11.841572
_cell_length_c 4.917234
_cell_angle_alpha 90.000000
_cell_angle_beta 90.000000
_cell_angle_gamma 90.000000
_cell_volume 1610.565210
_symmetry_space_group_name_H-M "P M N A"
_symmetry_group_IT_number 53
_symmetry_cell_setting 'orthorhombic'
loop_
_space_group_symop_operation_xyz
x,y,z
1/2-x,-y,1/2+z
x,-y,-z
1/2-x,y,1/2-z
-x,-y,-z
1/2+x,y,1/2-z
-x,y,z
1/2+x,-y,1/2+z
loop_
_atom_site_type_symbol
_atom_site_label
_atom_site_fract_x
_atom_site_fract_y
_atom_site_fract_z
Si Si1 0.052854 0.113033 0.327908
Si Si2 0.637902 0.000000 0.500000
Si Si3 0.084943 0.665811 0.356967
Si Si4 0.717289 0.822228 0.503272
Si Si5 0.000000 0.500000 0.500000
Si Si6 0.148577 0.377620 0.134649
O O1 0.100607 0.079876 0.161253
O O2 0.064797 0.217595 0.522499
O O3 0.000000 0.134200 0.188453
O O4 0.046962 0.000000 0.500000
O O5 0.676138 0.092342 0.610323
O O6 0.042103 0.576723 0.357163
O O7 0.106196 0.672650 0.057159
O O8 0.127066 0.624836 0.562777
O O9 0.750000 0.792138 0.250000
O O10 0.692290 0.709610 0.617070
O O11 0.750000 0.872015 0.750000
O O12 0.159046 0.500000 0.000000
#
# Coordination Sequence:
#
# PCOD9419961 Si02
#       6
#     8   4   8   8   2   8
#     4  11  25  44  70 108 145 198 240 292 362 442
#     4  12  25  46  74  96 150 186 237 308 368 438
#     4  12  25  45  71 109 150 195 240 298 354 438
#     4  12  28  47  74 106 138 186 248 305 374 439
#     4  12  24  46  74 112 150 200 254 290 350 454
#     4  12  25  47  74 103 147 192 239 301 378 424
#
# _framework density 23.594201000000002
#
# number of rings (size 3 to 8) (size 9 to 14) (size 15 to 20)
#    0.000    0.211    5.263    3.474    2.947    2.526 
#    0.000    0.000    0.000    0.000    0.000    0.000 
#    0.000    0.000    0.000    0.000    0.000    0.000 
#
# Total GULP energy -211965.010097 kJ/mol
# GULP energy per Si atom -5578.026582 kJ/mol
# Density = 2.354050 g / cm^3
# Si number density = 23.594201 Si / 1000 Ang^3
#
#
#
# Elastic Constant Matrix: (Units=GPa)
#
#
# Indices 1 2 3 4 5 6 
#
# 1 134.7089 19.5537 13.1252 0.0000 0.0000 0.0000
# 2 19.5537 88.1240 -11.9576 0.0000 0.0000 0.0000
# 3 13.1252 -11.9576 55.0791 0.0000 0.0000 0.0000
# 4 0.0000 0.0000 0.0000 25.8685 0.0000 0.0000
# 5 0.0000 0.0000 0.0000 0.0000 7.0901 0.0000
# 6 0.0000 0.0000 0.0000 0.0000 0.0000 36.9474
#
#
#
# Elastic Compliance Matrix: (Units=1/GPa)
#
#
# Indices 1 2 3 4 5 6 
#
# 1 0.007955 -0.002084 -0.002348 0.000000 0.000000 0.000000
# 2 -0.002084 0.012238 0.003153 0.000000 0.000000 0.000000
# 3 -0.002348 0.003153 0.019400 0.000000 0.000000 0.000000
# 4 0.000000 0.000000 0.000000 0.038657 0.000000 0.000000
# 5 0.000000 0.000000 0.000000 0.000000 0.141042 0.000000
# 6 0.000000 0.000000 0.000000 0.000000 0.000000 0.027065
#
#
# Mechanical properties :
#
#
# Convention : Reuss Voigt Hill
#
# Bulk Modulus (GPa) = 27.00083 35.48382 31.24232
# Shear Modulus (GPa) = 19.13813 31.12726 25.13270
#
# Velocity S-wave (km/s) = 2.85114 3.63612 3.26729
# Velocity P-wave (km/s) = 4.72306 5.71843 5.24441
#
# Compressibility (1/GPa) = 0.03703590
#
# Stress axis : x y z
#
# Youngs Moduli (GPa) = 125.71293 81.71360 51.54695
#
# Poissons Ratio (x) = 0.17026 0.12103
# Poissons Ratio (y) = 0.26194 -0.16255
# Poissons Ratio (z) = 0.29516 -0.25767
#
# Static dielectric constant tensor:
#      x y z
#    x 1.907390 0.000000 0.000000 
#    y 0.000000 1.910450 0.000000 
#    z 0.000000 0.000000 1.881840 
# 
# From -- ./inp_files/4333.got.cif
#   From: 2010.05.17/outbox.cif.g08.bks.cpg/sg53_3_cif.got.tgz:4333.got - 2010.06.03 12:45:16.
