data_PCOD9419289
_publ_section_title
;
Structure prediction by ZEFSAII (Michael W. Deem and Ramdas Pophale) SiO2 
 PCOD9419289
Probable space group: P M N A
;
_chemical_formula_sum "Si O2"
_cell_formula_units_Z 24
_cell_length_a 11.456169
_cell_length_b 4.846492
_cell_length_c 17.872844
_cell_angle_alpha 90.000000
_cell_angle_beta 90.000000
_cell_angle_gamma 90.000000
_cell_volume 992.340181
_symmetry_space_group_name_H-M "P M N A"
_symmetry_group_IT_number 53
_symmetry_cell_setting 'orthorhombic'
loop_
_space_group_symop_operation_xyz
x,y,z
1/2-x,-y,1/2+z
x,-y,-z
1/2-x,y,1/2-z
-x,-y,-z
1/2+x,y,1/2-z
-x,y,z
1/2+x,-y,1/2+z
loop_
_atom_site_type_symbol
_atom_site_label
_atom_site_fract_x
_atom_site_fract_y
_atom_site_fract_z
Si Si1 0.126146 0.867100 0.734000
Si Si2 0.281297 0.954652 0.919323
Si Si3 0.867883 0.520862 0.124631
O O1 0.250000 0.012935 0.750000
O O2 0.135502 0.829555 0.645005
O O3 0.367466 0.605911 0.709608
O O4 0.000000 0.999576 0.750684
O O5 0.175031 0.737708 0.924707
O O6 0.223002 0.762105 0.108531
O O7 0.336454 0.000000 0.000000
O O8 0.000000 0.603498 0.107425
#
# Coordination Sequence:
#
# PCOD9419289 Si02
#       3
#     8   8   8
#     4   9  21  42  66  93 127 171 221 268 321 390
#     4  11  23  39  63  99 136 170 216 277 340 396
#     4  10  22  41  65  94 132 179 227 273 326 397
#
# _framework density 24.185257
#
# number of rings (size 3 to 8) (size 9 to 14) (size 15 to 20)
#    0.000    2.000    0.000    2.000    0.000   18.000 
#    0.000   20.000    0.000   10.000    0.000    0.000 
#    0.000    0.000    0.000    0.000    0.000    0.000 
#
# Total GULP energy -133808.098143 kJ/mol
# GULP energy per Si atom -5575.337423 kJ/mol
# Density = 2.413021 g / cm^3
# Si number density = 24.185257 Si / 1000 Ang^3
#
#
#
# Elastic Constant Matrix: (Units=GPa)
#
#
# Indices 1 2 3 4 5 6 
#
# 1 139.2610 -3.9152 18.8896 0.0000 0.0000 0.0000
# 2 -3.9152 98.2846 19.3109 0.0000 0.0000 0.0000
# 3 18.8896 19.3109 124.9859 0.0000 0.0000 0.0000
# 4 0.0000 0.0000 0.0000 18.7662 0.0000 0.0000
# 5 0.0000 0.0000 0.0000 0.0000 3.5441 0.0000
# 6 0.0000 0.0000 0.0000 0.0000 0.0000 -13.3221
#
#
#
# Elastic Compliance Matrix: (Units=1/GPa)
#
#
# Indices 1 2 3 4 5 6 
#
# 1 0.007357 0.000528 -0.001193 0.000000 0.000000 0.000000
# 2 0.000528 0.010531 -0.001707 0.000000 0.000000 0.000000
# 3 -0.001193 -0.001707 0.008445 0.000000 0.000000 0.000000
# 4 0.000000 0.000000 0.000000 0.053287 0.000000 0.000000
# 5 0.000000 0.000000 0.000000 0.000000 0.282158 0.000000
# 6 0.000000 0.000000 0.000000 0.000000 0.000000 -0.075064
#
#
# Mechanical properties :
#
#
# Convention : Reuss Voigt Hill
#
# Bulk Modulus (GPa) = 46.32211 47.90023 47.11117
# Shear Modulus (GPa) = 16.74164 23.68073 20.21118
#
# Velocity S-wave (km/s) = 2.63387 3.13251 2.89395
# Velocity P-wave (km/s) = 5.33332 5.73865 5.53969
#
# Compressibility (1/GPa) = 0.02158796
#
# Stress axis : x y z
#
# Youngs Moduli (GPa) = 135.91613 94.95856 118.41342
#
# Poissons Ratio (x) = -0.05010 0.14132
# Poissons Ratio (y) = -0.07171 0.20211
# Poissons Ratio (z) = 0.16221 0.16208
#
# Static dielectric constant tensor:
#      x y z
#    x 1.940750 0.000000 0.000000 
#    y 0.000000 1.897240 0.000000 
#    z 0.000000 0.000000 2.041600 
# 
# From -- ./inp_files/27127.got.cif
#   From: 2010.05.17/outbox.cif.g08.bks.cpg/sg53_14_cif.got.tgz:27127.got - 2010.06.03 12:45:16.
