data_PCOD9419136
_publ_section_title
;
Structure prediction by ZEFSAII (Michael W. Deem and Ramdas Pophale) SiO2 
 PCOD9419136
Probable space group: P M N A
;
_chemical_formula_sum "Si O2"
_cell_formula_units_Z 56
_cell_length_a 23.035236
_cell_length_b 14.297861
_cell_length_c 9.726611
_cell_angle_alpha 90.000000
_cell_angle_beta 90.000000
_cell_angle_gamma 90.000000
_cell_volume 3203.504099
_symmetry_space_group_name_H-M "P M N A"
_symmetry_group_IT_number 53
_symmetry_cell_setting 'orthorhombic'
loop_
_space_group_symop_operation_xyz
x,y,z
1/2-x,-y,1/2+z
x,-y,-z
1/2-x,y,1/2-z
-x,-y,-z
1/2+x,y,1/2-z
-x,y,z
1/2+x,-y,1/2+z
loop_
_atom_site_type_symbol
_atom_site_label
_atom_site_fract_x
_atom_site_fract_y
_atom_site_fract_z
Si Si1 0.626920 0.610714 0.028095
Si Si2 0.068150 0.296784 0.289225
Si Si3 0.377930 0.390865 0.460617
Si Si4 0.931155 0.306122 0.777449
Si Si5 0.929417 0.102766 0.163655
Si Si6 0.249916 0.402153 0.082949
Si Si7 0.929739 0.102910 0.842703
O O1 0.611269 0.631401 0.184944
O O2 0.620846 0.500000 0.000000
O O3 0.581267 0.671819 0.942622
O O4 0.690233 0.641518 0.972175
O O5 0.098819 0.371988 0.191318
O O6 0.089822 0.192950 0.249356
O O7 0.000000 0.299465 0.262054
O O8 0.379836 0.500000 0.500000
O O9 0.418311 0.334890 0.565783
O O10 0.311116 0.356617 0.460310
O O11 0.914424 0.196953 0.762479
O O12 0.000000 0.319152 0.748604
O O13 0.000000 0.102573 0.167838
O O14 0.910211 0.998933 0.209693
O O15 0.912571 0.112387 0.003224
O O16 0.250000 0.413501 0.250000
O O17 0.249220 0.500000 0.000000
O O18 0.000000 0.101506 0.843558
#
# Coordination Sequence:
#
# PCOD9419136 Si02
#       7
#     8   8   8   8   8   8   8
#     4  11  24  38  53  73 111 150 182 221 269 316
#     4  11  20  33  52  80 110 143 178 213 270 337
#     4  11  22  34  54  77 106 140 184 229 258 309
#     4  11  22  35  52  82 115 145 178 216 270 335
#     4   8  14  27  50  76 103 137 178 221 263 311
#     4  10  22  39  58  77  99 137 194 240 265 299
#     4   8  14  28  49  75 106 137 174 222 264 309
#
# _framework density 17.480858999999999
#
# number of rings (size 3 to 8) (size 9 to 14) (size 15 to 20)
#    0.000    2.000    2.857    2.571    6.000    3.429 
#    0.000    0.714    0.000    3.429    0.000    6.000 
#    0.000    0.000    0.000    0.000    0.000    0.000 
#
# Total GULP energy -311855.192824 kJ/mol
# GULP energy per Si atom -5568.842729 kJ/mol
# Density = 1.744107 g / cm^3
# Si number density = 17.480859 Si / 1000 Ang^3
#
#
#
# Elastic Constant Matrix: (Units=GPa)
#
#
# Indices 1 2 3 4 5 6 
#
# 1 62.3097 13.7795 2.9089 0.0000 0.0000 0.0000
# 2 13.7795 70.8570 -14.7661 0.0000 0.0000 0.0000
# 3 2.9089 -14.7661 24.5097 0.0000 0.0000 0.0000
# 4 0.0000 0.0000 0.0000 24.5599 0.0000 0.0000
# 5 0.0000 0.0000 0.0000 0.0000 23.2761 0.0000
# 6 0.0000 0.0000 0.0000 0.0000 0.0000 -4.3582
#
#
#
# Elastic Compliance Matrix: (Units=1/GPa)
#
#
# Indices 1 2 3 4 5 6 
#
# 1 0.017220 -0.004317 -0.004644 0.000000 0.000000 0.000000
# 2 -0.004317 0.017221 0.010887 0.000000 0.000000 0.000000
# 3 -0.004644 0.010887 0.047910 0.000000 0.000000 0.000000
# 4 0.000000 0.000000 0.000000 0.040717 0.000000 0.000000
# 5 0.000000 0.000000 0.000000 0.000000 0.042963 0.000000
# 6 0.000000 0.000000 0.000000 0.000000 0.000000 -0.229452
#
#
# Mechanical properties :
#
#
# Convention : Reuss Voigt Hill
#
# Bulk Modulus (GPa) = 11.60029 17.94679 14.77354
# Shear Modulus (GPa) = -129.73963 19.07916 -55.33023
#
# Velocity S-wave (km/s) = -8.62434 3.30727 -5.63211
# Velocity P-wave (km/s) = 9.61883 4.98727 5.81589
#
# Compressibility (1/GPa) = 0.08620470
#
# Stress axis : x y z
#
# Youngs Moduli (GPa) = 58.07100 58.06781 20.87226
#
# Poissons Ratio (x) = 0.25066 0.09694
# Poissons Ratio (y) = 0.25067 -0.22724
# Poissons Ratio (z) = 0.26970 -0.63221
#
# Static dielectric constant tensor:
#      x y z
#    x 1.604570 0.000000 0.000000 
#    y 0.000000 1.626260 0.000000 
#    z 0.000000 0.000000 1.581830 
# 
# From -- ./inp_files/11078.got.cif
#   From: 2010.05.17/outbox.cif.g08.bks.cpg/sg53_6_cif.got.tgz:11078.got - 2010.06.03 12:45:16.
