data_PCOD9419417
_publ_section_title
;
Structure prediction by ZEFSAII (Michael W. Deem and Ramdas Pophale) SiO2 
 PCOD9419417
Probable space group: P M N A
;
_chemical_formula_sum "Si O2"
_cell_formula_units_Z 64
_cell_length_a 8.549543
_cell_length_b 15.220910
_cell_length_c 24.030839
_cell_angle_alpha 90.000000
_cell_angle_beta 90.000000
_cell_angle_gamma 90.000000
_cell_volume 3127.176924
_symmetry_space_group_name_H-M "P M N A"
_symmetry_group_IT_number 53
_symmetry_cell_setting 'orthorhombic'
loop_
_space_group_symop_operation_xyz
x,y,z
1/2-x,-y,1/2+z
x,-y,-z
1/2-x,y,1/2-z
-x,-y,-z
1/2+x,y,1/2-z
-x,y,z
1/2+x,-y,1/2+z
loop_
_atom_site_type_symbol
_atom_site_label
_atom_site_fract_x
_atom_site_fract_y
_atom_site_fract_z
Si Si1 0.323568 0.397774 0.981071
Si Si2 0.815169 0.997249 0.311592
Si Si3 0.184903 0.838825 0.870637
Si Si4 0.310772 0.350591 0.403476
Si Si5 0.811517 0.703745 0.191430
Si Si6 0.685636 0.541933 0.369739
Si Si7 0.682601 0.103767 0.012181
Si Si8 0.187179 0.851375 0.105057
O O1 0.500000 0.368759 0.968321
O O2 0.218395 0.403923 0.926408
O O3 0.330110 0.500000 0.000000
O O4 0.254523 0.346596 0.033665
O O5 0.750000 0.978603 0.250000
O O6 0.775704 0.096893 0.329397
O O7 0.000000 0.982493 0.312439
O O8 0.737284 0.936034 0.358747
O O9 0.232162 0.736415 0.869675
O O10 0.000000 0.846128 0.859413
O O11 0.219475 0.869727 0.933829
O O12 0.500000 0.353449 0.407344
O O13 0.253301 0.442825 0.377098
O O14 0.750000 0.736358 0.250000
O O15 0.752667 0.605147 0.178526
O O16 0.763477 0.768790 0.142344
O O17 0.000000 0.703111 0.192604
O O18 0.500000 0.533724 0.362784
O O19 0.500000 0.121103 0.023774
O O20 0.735872 0.149930 0.955443
O O21 0.700940 0.000000 0.000000
O O22 0.000000 0.851699 0.098553
#
# Coordination Sequence:
#
# PCOD9419417 Si02
#       8
#     8   8   8   8   8   8   8   8
#     4   9  17  29  48  78 111 143 184 233 283 337
#     4  12  25  43  65  89 117 155 199 246 299 356
#     4  11  23  39  61  90 123 161 203 249 299 357
#     4   9  19  35  57  82 114 155 195 236 289 349
#     4  10  23  40  60  86 116 153 199 247 298 356
#     4   9  18  36  57  79 111 151 194 238 286 348
#     4  11  23  39  60  90 125 162 200 244 302 363
#     4  11  23  40  63  91 121 157 199 246 298 359
#
# _framework density 20.465744000000001
#
# number of rings (size 3 to 8) (size 9 to 14) (size 15 to 20)
#    0.000    1.750    1.250    3.000    1.750    5.500 
#    0.000    0.625    0.000    1.500    0.000    0.000 
#    0.000    0.000    0.000    0.000    0.000    0.000 
#
# Total GULP energy -357552.424587 kJ/mol
# GULP energy per Si atom -5586.756634 kJ/mol
# Density = 2.041916 g / cm^3
# Si number density = 20.465744 Si / 1000 Ang^3
#
#
#
# Elastic Constant Matrix: (Units=GPa)
#
#
# Indices 1 2 3 4 5 6 
#
# 1 12.9375 8.3795 -7.7446 0.0000 0.0000 0.0000
# 2 8.3795 78.6283 3.3320 0.0000 0.0000 0.0000
# 3 -7.7446 3.3320 53.2070 0.0000 0.0000 0.0000
# 4 0.0000 0.0000 0.0000 23.7170 0.0000 0.0000
# 5 0.0000 0.0000 0.0000 0.0000 21.8233 0.0000
# 6 0.0000 0.0000 0.0000 0.0000 0.0000 11.5058
#
#
#
# Elastic Compliance Matrix: (Units=1/GPa)
#
#
# Indices 1 2 3 4 5 6 
#
# 1 0.092523 -0.010459 0.014122 0.000000 0.000000 0.000000
# 2 -0.010459 0.013934 -0.002395 0.000000 0.000000 0.000000
# 3 0.014122 -0.002395 0.021000 0.000000 0.000000 0.000000
# 4 0.000000 0.000000 0.000000 0.042164 0.000000 0.000000
# 5 0.000000 0.000000 0.000000 0.000000 0.045823 0.000000
# 6 0.000000 0.000000 0.000000 0.000000 0.000000 0.086913
#
#
# Mechanical properties :
#
#
# Convention : Reuss Voigt Hill
#
# Bulk Modulus (GPa) = 7.69266 16.96740 12.33003
# Shear Modulus (GPa) = 14.57088 20.79627 17.68358
#
# Velocity S-wave (km/s) = 2.67116 3.19117 2.94267
# Velocity P-wave (km/s) = 3.64423 4.67832 4.19328
#
# Compressibility (1/GPa) = 0.12999406
#
# Stress axis : x y z
#
# Youngs Moduli (GPa) = 10.80818 71.76619 47.61886
#
# Poissons Ratio (x) = 0.75058 -0.67249
# Poissons Ratio (y) = 0.11304 0.11404
# Poissons Ratio (z) = -0.15264 0.17188
#
# Static dielectric constant tensor:
#      x y z
#    x 1.696050 0.000000 0.000000 
#    y 0.000000 1.786530 0.000000 
#    z 0.000000 0.000000 1.696230 
# 
# From -- ./inp_files/34250.got.cif
#   From: 2010.05.17/outbox.cif.g08.bks.cpg/sg53_18_cif.got.tgz:34250.got - 2010.06.03 12:45:16.
