data_PCOD9419134
_publ_section_title
;
Structure prediction by ZEFSAII (Michael W. Deem and Ramdas Pophale) SiO2 
 PCOD9419134
Probable space group: P M N A
;
_chemical_formula_sum "Si O2"
_cell_formula_units_Z 64
_cell_length_a 8.734847
_cell_length_b 12.336021
_cell_length_c 31.635186
_cell_angle_alpha 90.000000
_cell_angle_beta 90.000000
_cell_angle_gamma 90.000000
_cell_volume 3408.794296
_symmetry_space_group_name_H-M "P M N A"
_symmetry_group_IT_number 53
_symmetry_cell_setting 'orthorhombic'
loop_
_space_group_symop_operation_xyz
x,y,z
1/2-x,-y,1/2+z
x,-y,-z
1/2-x,y,1/2-z
-x,-y,-z
1/2+x,y,1/2-z
-x,y,z
1/2+x,-y,1/2+z
loop_
_atom_site_type_symbol
_atom_site_label
_atom_site_fract_x
_atom_site_fract_y
_atom_site_fract_z
Si Si1 0.818092 0.749335 0.946512
Si Si2 0.818559 0.242484 0.295316
Si Si3 0.317197 0.993688 0.703571
Si Si4 0.822592 0.381839 0.521319
Si Si5 0.684711 0.018729 0.049084
Si Si6 0.319258 0.363033 0.611703
Si Si7 0.182493 0.867535 0.372809
Si Si8 0.816883 0.396627 0.135467
O O1 0.759218 0.869029 0.935687
O O2 0.787871 0.664486 0.908859
O O3 0.000000 0.751072 0.954250
O O4 0.729392 0.707111 0.987566
O O5 0.750000 0.273466 0.250000
O O6 0.742833 0.127178 0.306679
O O7 0.773451 0.332019 0.329147
O O8 0.000000 0.228146 0.292395
O O9 0.250000 0.021845 0.750000
O O10 0.500000 0.993292 0.706019
O O11 0.260445 0.071378 0.666324
O O12 0.809281 0.500000 0.500000
O O13 0.717567 0.376126 0.562220
O O14 0.000000 0.364322 0.533371
O O15 0.500000 0.028944 0.049592
O O16 0.726602 0.924029 0.082282
O O17 0.730700 0.000000 0.000000
O O18 0.500000 0.347689 0.618052
O O19 0.230990 0.257396 0.627136
O O20 0.273721 0.477373 0.632523
O O21 0.000000 0.877962 0.368884
O O22 0.000000 0.389604 0.143244
#
# Coordination Sequence:
#
# PCOD9419134 Si02
#       8
#     8   8   8   8   8   8   8   8
#     4  11  22  36  58  85 114 149 193 246 295 347
#     4  11  22  38  63  92 122 154 190 238 296 355
#     4  11  22  40  66  94 124 157 199 249 305 365
#     4  11  22  36  56  82 115 156 201 247 295 351
#     4  10  22  39  57  81 118 159 199 246 298 356
#     4  11  23  40  61  85 119 160 202 249 299 354
#     4  11  23  40  62  90 124 162 205 252 306 365
#     4  10  22  39  58  85 119 152 191 240 293 350
#
# _framework density 18.774967
#
# number of rings (size 3 to 8) (size 9 to 14) (size 15 to 20)
#    0.000    1.250    1.250    6.000    0.000    6.750 
#    0.000    0.625    0.000    3.000    0.000    0.000 
#    0.000    0.000    0.000    0.000    0.000    0.000 
#
# Total GULP energy -357864.900759 kJ/mol
# GULP energy per Si atom -5591.639074 kJ/mol
# Density = 1.873223 g / cm^3
# Si number density = 18.774967 Si / 1000 Ang^3
#
#
#
# Elastic Constant Matrix: (Units=GPa)
#
#
# Indices 1 2 3 4 5 6 
#
# 1 75.7740 48.3147 49.3681 0.0000 0.0000 0.0000
# 2 48.3147 102.3548 58.3667 0.0000 0.0000 0.0000
# 3 49.3681 58.3667 87.4270 0.0000 0.0000 0.0000
# 4 0.0000 0.0000 0.0000 30.9458 0.0000 0.0000
# 5 0.0000 0.0000 0.0000 0.0000 25.3268 0.0000
# 6 0.0000 0.0000 0.0000 0.0000 0.0000 32.9930
#
#
#
# Elastic Compliance Matrix: (Units=1/GPa)
#
#
# Indices 1 2 3 4 5 6 
#
# 1 0.022636 -0.005484 -0.009121 0.000000 0.000000 0.000000
# 2 -0.005484 0.017104 -0.008322 0.000000 0.000000 0.000000
# 3 -0.009121 -0.008322 0.022145 0.000000 0.000000 0.000000
# 4 0.000000 0.000000 0.000000 0.032315 0.000000 0.000000
# 5 0.000000 0.000000 0.000000 0.000000 0.039484 0.000000
# 6 0.000000 0.000000 0.000000 0.000000 0.000000 0.030309
#
#
# Mechanical properties :
#
#
# Convention : Reuss Voigt Hill
#
# Bulk Modulus (GPa) = 62.38070 64.18386 63.28228
# Shear Modulus (GPa) = 23.23519 25.15354 24.19436
#
# Velocity S-wave (km/s) = 3.52172 3.66421 3.59367
# Velocity P-wave (km/s) = 7.05934 7.22233 7.14130
#
# Compressibility (1/GPa) = 0.01603060
#
# Stress axis : x y z
#
# Youngs Moduli (GPa) = 44.17684 58.46552 45.15770
#
# Poissons Ratio (x) = 0.32061 0.41189
# Poissons Ratio (y) = 0.24226 0.37581
# Poissons Ratio (z) = 0.40295 0.48656
#
# Static dielectric constant tensor:
#      x y z
#    x 1.625980 0.000000 0.000000 
#    y 0.000000 1.644010 0.000000 
#    z 0.000000 0.000000 1.645100 
# 
# From -- ./inp_files/38109.got.cif
#   From: 2010.05.17/outbox.cif.g08.bks.cpg/sg53_20_cif.got.tgz:38109.got - 2010.06.03 12:45:16.
