data_PCOD9419097
_publ_section_title
;
Structure prediction by ZEFSAII (Michael W. Deem and Ramdas Pophale) SiO2 
 PCOD9419097
Probable space group: P M N A
;
_chemical_formula_sum "Si O2"
_cell_formula_units_Z 48
_cell_length_a 8.419612
_cell_length_b 10.547735
_cell_length_c 29.115104
_cell_angle_alpha 90.000000
_cell_angle_beta 90.000000
_cell_angle_gamma 90.000000
_cell_volume 2585.649386
_symmetry_space_group_name_H-M "P M N A"
_symmetry_group_IT_number 53
_symmetry_cell_setting 'orthorhombic'
loop_
_space_group_symop_operation_xyz
x,y,z
1/2-x,-y,1/2+z
x,-y,-z
1/2-x,y,1/2-z
-x,-y,-z
1/2+x,y,1/2-z
-x,y,z
1/2+x,-y,1/2+z
loop_
_atom_site_type_symbol
_atom_site_label
_atom_site_fract_x
_atom_site_fract_y
_atom_site_fract_z
Si Si1 0.190228 0.731541 0.642680
Si Si2 0.693322 0.849149 0.950507
Si Si3 0.308307 0.857063 0.053703
Si Si4 0.810116 0.510216 0.198022
Si Si5 0.308741 0.024229 0.302098
Si Si6 0.191199 0.234762 0.851828
O O1 0.246066 0.757805 0.590416
O O2 0.259178 0.608126 0.666977
O O3 0.000000 0.721343 0.642505
O O4 0.239359 0.855414 0.671367
O O5 0.500000 0.849225 0.950503
O O6 0.741160 0.995094 0.940437
O O7 0.743326 0.817190 0.002420
O O8 0.500000 0.854577 0.054907
O O9 0.244593 0.774860 0.095512
O O10 0.750000 0.496614 0.250000
O O11 0.750733 0.640813 0.174855
O O12 0.000000 0.514694 0.199621
O O13 0.250000 0.025198 0.250000
O O14 0.500000 0.030509 0.303268
O O15 0.255741 0.893940 0.326476
O O16 0.000000 0.236274 0.850687
#
# Coordination Sequence:
#
# PCOD9419097 Si02
#       6
#     8   8   8   8   8   8
#     4  11  21  37  59  84 112 146 186 229 278 331
#     4   8  16  31  55  86 115 144 182 228 274 325
#     4   9  16  32  58  85 113 146 184 228 275 325
#     4  11  24  42  59  79 111 151 191 233 279 334
#     4  11  22  36  55  81 110 141 182 232 281 331
#     4  10  22  38  56  82 114 145 184 231 281 332
#
# _framework density 18.564004000000001
#
# number of rings (size 3 to 8) (size 9 to 14) (size 15 to 20)
#    0.000    2.000    1.667    3.500    0.000    2.000 
#    0.000    4.167    0.000    5.000    0.000    0.000 
#    0.000    0.000    0.000    0.000    0.000    0.000 
#
# Total GULP energy -267986.661615 kJ/mol
# GULP energy per Si atom -5583.055450 kJ/mol
# Density = 1.852175 g / cm^3
# Si number density = 18.564004 Si / 1000 Ang^3
#
#
#
# Elastic Constant Matrix: (Units=GPa)
#
#
# Indices 1 2 3 4 5 6 
#
# 1 8.0097 -39.7593 -52.6727 0.0000 0.0000 0.0000
# 2 -39.7593 -88.3727 -178.4234 0.0000 0.0000 0.0000
# 3 -52.6727 -178.4234 -128.0891 0.0000 0.0000 0.0000
# 4 0.0000 0.0000 0.0000 33.9130 0.0000 0.0000
# 5 0.0000 0.0000 0.0000 0.0000 27.6563 0.0000
# 6 0.0000 0.0000 0.0000 0.0000 0.0000 17.6549
#
#
#
# Elastic Compliance Matrix: (Units=1/GPa)
#
#
# Indices 1 2 3 4 5 6 
#
# 1 0.044217 -0.009279 -0.005257 0.000000 0.000000 0.000000
# 2 -0.009279 0.008191 -0.007594 0.000000 0.000000 0.000000
# 3 -0.005257 -0.007594 0.004933 0.000000 0.000000 0.000000
# 4 0.000000 0.000000 0.000000 0.029487 0.000000 0.000000
# 5 0.000000 0.000000 0.000000 0.000000 0.036158 0.000000
# 6 0.000000 0.000000 0.000000 0.000000 0.000000 0.056641
#
#
# Mechanical properties :
#
#
# Convention : Reuss Voigt Hill
#
# Bulk Modulus (GPa) = 76.45361 -83.35146 -3.44892
# Shear Modulus (GPa) = 21.90609 20.00506 20.95557
#
# Velocity S-wave (km/s) = 3.43888 3.28628 3.36345
# Velocity P-wave (km/s) = 7.55256 5.53149 3.63618
#
# Compressibility (1/GPa) = 0.01307983
#
# Stress axis : x y z
#
# Youngs Moduli (GPa) = 22.61598 122.08668 202.72933
#
# Poissons Ratio (x) = 1.13287 1.06577
# Poissons Ratio (y) = 0.20986 1.53949
# Poissons Ratio (z) = 0.11889 0.92711
#
# Static dielectric constant tensor:
#      x y z
#    x 1.639990 0.000000 0.000000 
#    y 0.000000 1.621210 0.000000 
#    z 0.000000 0.000000 1.630960 
# 
# From -- ./inp_files/37695.got.cif
#   From: 2010.05.17/outbox.cif.g08.bks.cpg/sg53_19_cif.got.tgz:37695.got - 2010.06.03 12:45:16.
