data_PCOD9419250
_publ_section_title
;
Structure prediction by ZEFSAII (Michael W. Deem and Ramdas Pophale) SiO2 
 PCOD9419250
Probable space group: P M N A
;
_chemical_formula_sum "Si O2"
_cell_formula_units_Z 34
_cell_length_a 19.829960
_cell_length_b 8.917230
_cell_length_c 9.955772
_cell_angle_alpha 90.000000
_cell_angle_beta 90.000000
_cell_angle_gamma 90.000000
_cell_volume 1760.462379
_symmetry_space_group_name_H-M "P M N A"
_symmetry_group_IT_number 53
_symmetry_cell_setting 'orthorhombic'
loop_
_space_group_symop_operation_xyz
x,y,z
1/2-x,-y,1/2+z
x,-y,-z
1/2-x,y,1/2-z
-x,-y,-z
1/2+x,y,1/2-z
-x,y,z
1/2+x,-y,1/2+z
loop_
_atom_site_type_symbol
_atom_site_label
_atom_site_fract_x
_atom_site_fract_y
_atom_site_fract_z
Si Si1 0.000000 0.000000 0.500000
Si Si2 0.897767 0.780840 0.351449
Si Si3 0.500000 0.520929 0.159367
Si Si4 0.625373 0.834820 0.448946
Si Si5 0.741687 0.642012 0.094147
Si Si6 0.000000 0.339841 0.078267
O O1 0.941939 0.120873 0.549189
O O2 0.895700 0.856977 0.206024
O O3 0.823805 0.747896 0.407443
O O4 0.934148 0.622725 0.317318
O O5 0.500000 0.382546 0.263087
O O6 0.500000 0.500000 0.000000
O O7 0.691088 0.729754 0.448889
O O8 0.565330 0.754451 0.531586
O O9 0.640663 0.000000 0.500000
O O10 0.750000 0.595264 0.250000
O O11 0.731008 0.500000 0.000000
O O12 0.000000 0.500000 0.000000
#
# Coordination Sequence:
#
# PCOD9419250 Si02
#       6
#     2   8   4   8   8   4
#     4  10  22  40  66  88 136 180 204 256 348 386
#     4  10  22  42  63  93 138 171 216 274 324 395
#     4  11  23  38  67 101 129 170 214 276 326 386
#     4  11  24  41  66  96 130 174 226 272 328 393
#     4  10  23  44  67  93 134 172 220 276 329 391
#     4  12  21  41  73  94 132 172 222 274 329 388
#
# _framework density 19.313109000000001
#
# number of rings (size 3 to 8) (size 9 to 14) (size 15 to 20)
#    0.000    1.412    2.353    2.471    4.941    3.765 
#    4.235    0.000    0.000    0.000    0.000    0.000 
#    0.000    0.000    0.000    0.000    0.000    0.000 
#
# Total GULP energy -189375.802640 kJ/mol
# GULP energy per Si atom -5569.876548 kJ/mol
# Density = 1.926915 g / cm^3
# Si number density = 19.313109 Si / 1000 Ang^3
#
#
#
# Elastic Constant Matrix: (Units=GPa)
#
#
# Indices 1 2 3 4 5 6 
#
# 1 127.6109 21.2765 59.1038 0.0000 0.0000 0.0000
# 2 21.2765 73.6089 68.0132 0.0000 0.0000 0.0000
# 3 59.1038 68.0132 111.0433 0.0000 0.0000 0.0000
# 4 0.0000 0.0000 0.0000 36.7416 0.0000 0.0000
# 5 0.0000 0.0000 0.0000 0.0000 9.7878 0.0000
# 6 0.0000 0.0000 0.0000 0.0000 0.0000 -15.9114
#
#
#
# Elastic Compliance Matrix: (Units=1/GPa)
#
#
# Indices 1 2 3 4 5 6 
#
# 1 0.011213 0.005238 -0.009176 0.000000 0.000000 0.000000
# 2 0.005238 0.033744 -0.023456 0.000000 0.000000 0.000000
# 3 -0.009176 -0.023456 0.028256 0.000000 0.000000 0.000000
# 4 0.000000 0.000000 0.000000 0.027217 0.000000 0.000000
# 5 0.000000 0.000000 0.000000 0.000000 0.102168 0.000000
# 6 0.000000 0.000000 0.000000 0.000000 0.000000 -0.062848
#
#
# Mechanical properties :
#
#
# Convention : Reuss Voigt Hill
#
# Bulk Modulus (GPa) = 54.27578 67.67225 60.97402
# Shear Modulus (GPa) = 24.91529 17.04826 20.98177
#
# Velocity S-wave (km/s) = 3.59565 2.97430 3.29963
# Velocity P-wave (km/s) = 6.73813 6.84915 6.79387
#
# Compressibility (1/GPa) = 0.01842442
#
# Stress axis : x y z
#
# Youngs Moduli (GPa) = 89.18140 29.63484 35.39061
#
# Poissons Ratio (x) = -0.15521 0.32475
# Poissons Ratio (y) = -0.46709 0.83011
# Poissons Ratio (z) = 0.81835 0.69511
#
# Static dielectric constant tensor:
#      x y z
#    x 1.676950 0.000000 0.000000 
#    y 0.000000 1.690140 0.000000 
#    z 0.000000 0.000000 1.811790 
# 
# From -- ./inp_files/10619.got.cif
#   From: 2010.05.17/outbox.cif.g08.bks.cpg/sg53_6_cif.got.tgz:10619.got - 2010.06.03 12:45:16.
