data_PCOD9419249
_publ_section_title
;
Structure prediction by ZEFSAII (Michael W. Deem and Ramdas Pophale) SiO2 
 PCOD9419249
Probable space group: P M N A
;
_chemical_formula_sum "Si O2"
_cell_formula_units_Z 40
_cell_length_a 18.664827
_cell_length_b 8.103853
_cell_length_c 11.754919
_cell_angle_alpha 90.000000
_cell_angle_beta 90.000000
_cell_angle_gamma 90.000000
_cell_volume 1778.013951
_symmetry_space_group_name_H-M "P M N A"
_symmetry_group_IT_number 53
_symmetry_cell_setting 'orthorhombic'
loop_
_space_group_symop_operation_xyz
x,y,z
1/2-x,-y,1/2+z
x,-y,-z
1/2-x,y,1/2-z
-x,-y,-z
1/2+x,y,1/2-z
-x,y,z
1/2+x,-y,1/2+z
loop_
_atom_site_type_symbol
_atom_site_label
_atom_site_fract_x
_atom_site_fract_y
_atom_site_fract_z
Si Si1 0.580986 0.350760 0.256545
Si Si2 0.420810 0.726197 0.175875
Si Si3 0.348465 0.814795 0.959813
Si Si4 0.919664 0.149199 0.909248
Si Si5 0.802785 0.322383 0.044720
O O1 0.500000 0.300133 0.292218
O O2 0.579327 0.547050 0.234185
O O3 0.603509 0.255443 0.141956
O O4 0.642087 0.324059 0.350205
O O5 0.500000 0.751533 0.124425
O O6 0.411230 0.867111 0.272685
O O7 0.363884 0.718036 0.076372
O O8 0.265425 0.789913 0.928825
O O9 0.364594 0.000000 0.000000
O O10 0.000000 0.223433 0.921557
O O11 0.852323 0.256436 0.943771
O O12 0.917946 0.000000 0.000000
O O13 0.777559 0.500000 0.000000
#
# Coordination Sequence:
#
# PCOD9419249 Si02
#       5
#     8   8   8   8   8
#     4  11  24  45  73 101 133 177 237 293 345 422
#     4  10  22  44  71 100 135 182 232 284 344 416
#     4  12  28  45  65  99 141 185 231 288 355 421
#     4  10  22  40  66 102 141 178 221 278 343 410
#     4  12  24  44  70 101 136 179 230 285 351 418
#
# _framework density 22.497011000000001
#
# number of rings (size 3 to 8) (size 9 to 14) (size 15 to 20)
#    0.000    1.000    2.000    4.200    2.800    4.800 
#    3.600    0.000    0.000    0.000    0.000    0.000 
#    0.000    0.000    0.000    0.000    0.000    0.000 
#
# Total GULP energy -223415.477324 kJ/mol
# GULP energy per Si atom -5585.386933 kJ/mol
# Density = 2.244581 g / cm^3
# Si number density = 22.497011 Si / 1000 Ang^3
#
#
#
# Elastic Constant Matrix: (Units=GPa)
#
#
# Indices 1 2 3 4 5 6 
#
# 1 92.0734 10.5390 48.6012 0.0000 0.0000 0.0000
# 2 10.5390 55.4130 18.5478 0.0000 0.0000 0.0000
# 3 48.6012 18.5478 116.7603 0.0000 0.0000 0.0000
# 4 0.0000 0.0000 0.0000 36.5759 0.0000 0.0000
# 5 0.0000 0.0000 0.0000 0.0000 55.6932 0.0000
# 6 0.0000 0.0000 0.0000 0.0000 0.0000 27.5589
#
#
#
# Elastic Compliance Matrix: (Units=1/GPa)
#
#
# Indices 1 2 3 4 5 6 
#
# 1 0.013949 -0.000749 -0.005687 0.000000 0.000000 0.000000
# 2 -0.000749 0.019100 -0.002722 0.000000 0.000000 0.000000
# 3 -0.005687 -0.002722 0.011364 0.000000 0.000000 0.000000
# 4 0.000000 0.000000 0.000000 0.027340 0.000000 0.000000
# 5 0.000000 0.000000 0.000000 0.000000 0.017956 0.000000
# 6 0.000000 0.000000 0.000000 0.000000 0.000000 0.036286
#
#
# Mechanical properties :
#
#
# Convention : Reuss Voigt Hill
#
# Bulk Modulus (GPa) = 38.32055 46.62475 42.47265
# Shear Modulus (GPa) = 32.67754 36.40284 34.54019
#
# Velocity S-wave (km/s) = 3.81534 4.02695 3.92257
# Velocity P-wave (km/s) = 6.03984 6.51088 6.27978
#
# Compressibility (1/GPa) = 0.02609566
#
# Stress axis : x y z
#
# Youngs Moduli (GPa) = 71.69182 52.35606 87.99564
#
# Poissons Ratio (x) = 0.03923 0.50043
# Poissons Ratio (y) = 0.05372 0.23954
# Poissons Ratio (z) = 0.40771 0.14252
#
# Static dielectric constant tensor:
#      x y z
#    x 1.778280 0.000000 0.000000 
#    y 0.000000 1.898440 0.000000 
#    z 0.000000 0.000000 1.858600 
# 
# From -- ./inp_files/16674.got.cif
#   From: 2010.05.17/outbox.cif.g08.bks.cpg/sg53_9_cif.got.tgz:16674.got - 2010.06.03 12:45:16.
