data_PCOD9419165
_publ_section_title
;
Structure prediction by ZEFSAII (Michael W. Deem and Ramdas Pophale) SiO2 
 PCOD9419165
Probable space group: P M N A
;
_chemical_formula_sum "Si O2"
_cell_formula_units_Z 48
_cell_length_a 28.490135
_cell_length_b 13.774646
_cell_length_c 5.847102
_cell_angle_alpha 90.000000
_cell_angle_beta 90.000000
_cell_angle_gamma 90.000000
_cell_volume 2294.645621
_symmetry_space_group_name_H-M "P M N A"
_symmetry_group_IT_number 53
_symmetry_cell_setting 'orthorhombic'
loop_
_space_group_symop_operation_xyz
x,y,z
1/2-x,-y,1/2+z
x,-y,-z
1/2-x,y,1/2-z
-x,-y,-z
1/2+x,y,1/2-z
-x,y,z
1/2+x,-y,1/2+z
loop_
_atom_site_type_symbol
_atom_site_label
_atom_site_fract_x
_atom_site_fract_y
_atom_site_fract_z
Si Si1 0.447998 0.609616 0.083202
Si Si2 0.052833 0.786042 0.762427
Si Si3 0.293737 0.909323 0.621613
Si Si4 0.272019 0.701367 0.496270
Si Si5 0.625909 0.275362 0.636494
Si Si6 0.131605 0.115275 0.484496
O O1 0.500000 0.620428 0.197224
O O2 0.404039 0.643118 0.232475
O O3 0.443712 0.500000 0.000000
O O4 0.448278 0.683664 0.870613
O O5 0.078871 0.860593 0.594329
O O6 0.000000 0.813998 0.823201
O O7 0.087649 0.772770 0.971873
O O8 0.250000 0.958713 0.750000
O O9 0.270433 0.819278 0.492706
O O10 0.330700 0.859489 0.789838
O O11 0.318112 0.000000 0.500000
O O12 0.250000 0.667186 0.250000
O O13 0.327865 0.680396 0.480544
O O14 0.250000 0.673593 0.750000
O O15 0.641443 0.187481 0.805297
O O16 0.137128 0.000000 0.500000
#
# Coordination Sequence:
#
# PCOD9419165 Si02
#       6
#     8   8   8   8   8   8
#     4   9  20  39  66 100 129 155 202 270 339 402
#     4  10  22  39  61  89 120 161 209 257 317 389
#     4  11  20  34  55  86 117 157 208 270 327 370
#     4  11  23  37  60  91 125 168 219 265 321 388
#     4  11  21  39  61  89 127 168 209 267 324 389
#     4  11  23  37  57  83 123 171 215 263 311 373
#
# _framework density 20.918263
#
# number of rings (size 3 to 8) (size 9 to 14) (size 15 to 20)
#    0.000    1.500    1.667    4.500    2.333    1.667 
#    0.000    3.333    0.000    0.000    4.333    0.000 
#    0.000    0.000    0.000    0.000    0.000    0.000 
#
# Total GULP energy -267550.376721 kJ/mol
# GULP energy per Si atom -5573.966182 kJ/mol
# Density = 2.087065 g / cm^3
# Si number density = 20.918263 Si / 1000 Ang^3
#
#
#
# Elastic Constant Matrix: (Units=GPa)
#
#
# Indices 1 2 3 4 5 6 
#
# 1 146.9333 14.1926 65.4709 0.0000 0.0000 0.0000
# 2 14.1926 44.3854 1.4325 0.0000 0.0000 0.0000
# 3 65.4709 1.4325 95.9920 0.0000 0.0000 0.0000
# 4 0.0000 0.0000 0.0000 4.9568 0.0000 0.0000
# 5 0.0000 0.0000 0.0000 0.0000 42.6650 0.0000
# 6 0.0000 0.0000 0.0000 0.0000 0.0000 9.5076
#
#
#
# Elastic Compliance Matrix: (Units=1/GPa)
#
#
# Indices 1 2 3 4 5 6 
#
# 1 0.010169 -0.003029 -0.006890 0.000000 0.000000 0.000000
# 2 -0.003029 0.023443 0.001716 0.000000 0.000000 0.000000
# 3 -0.006890 0.001716 0.015091 0.000000 0.000000 0.000000
# 4 0.000000 0.000000 0.000000 0.201743 0.000000 0.000000
# 5 0.000000 0.000000 0.000000 0.000000 0.023438 0.000000
# 6 0.000000 0.000000 0.000000 0.000000 0.000000 0.105179
#
#
# Mechanical properties :
#
#
# Convention : Reuss Voigt Hill
#
# Bulk Modulus (GPa) = 30.96292 49.94475 40.45383
# Shear Modulus (GPa) = 12.30815 25.17354 18.74085
#
# Velocity S-wave (km/s) = 2.42831 3.47280 2.99642
# Velocity P-wave (km/s) = 4.76406 6.32523 5.59932
#
# Compressibility (1/GPa) = 0.03229670
#
# Stress axis : x y z
#
# Youngs Moduli (GPa) = 98.34241 42.65642 66.26310
#
# Poissons Ratio (x) = 0.12921 0.45657
# Poissons Ratio (y) = 0.29789 -0.11372
# Poissons Ratio (z) = 0.67760 -0.07321
#
# Static dielectric constant tensor:
#      x y z
#    x 1.789600 0.000000 0.000000 
#    y 0.000000 1.706090 0.000000 
#    z 0.000000 0.000000 1.915070 
# 
# From -- ./inp_files/4468.got.cif
#   From: 2010.05.17/outbox.cif.g08.bks.cpg/sg53_3_cif.got.tgz:4468.got - 2010.06.03 12:45:16.
