data_PCOD9419337
_publ_section_title
;
Structure prediction by ZEFSAII (Michael W. Deem and Ramdas Pophale) SiO2 
 PCOD9419337
Probable space group: P M N A
;
_chemical_formula_sum "Si O2"
_cell_formula_units_Z 36
_cell_length_a 25.511724
_cell_length_b 5.309828
_cell_length_c 11.553577
_cell_angle_alpha 90.000000
_cell_angle_beta 90.000000
_cell_angle_gamma 90.000000
_cell_volume 1565.080658
_symmetry_space_group_name_H-M "P M N A"
_symmetry_group_IT_number 53
_symmetry_cell_setting 'orthorhombic'
loop_
_space_group_symop_operation_xyz
x,y,z
1/2-x,-y,1/2+z
x,-y,-z
1/2-x,y,1/2-z
-x,-y,-z
1/2+x,y,1/2-z
-x,y,z
1/2+x,-y,1/2+z
loop_
_atom_site_type_symbol
_atom_site_label
_atom_site_fract_x
_atom_site_fract_y
_atom_site_fract_z
Si Si1 0.056504 0.239022 0.248973
Si Si2 0.844979 0.000000 0.000000
Si Si3 0.144456 0.238581 0.431538
Si Si4 0.941815 0.735943 0.101887
Si Si5 0.259134 0.318581 0.383475
O O1 0.106819 0.279062 0.325195
O O2 0.058603 0.460524 0.155362
O O3 0.000000 0.266947 0.310409
O O4 0.058148 0.961347 0.195365
O O5 0.886622 0.789000 0.040081
O O6 0.807217 0.123511 0.097617
O O7 0.145494 0.500000 0.500000
O O8 0.203975 0.177144 0.398399
O O9 0.122718 0.000000 0.500000
O O10 0.000000 0.760601 0.044938
O O11 0.263876 0.500000 0.500000
O O12 0.250000 0.426183 0.250000
#
# Coordination Sequence:
#
# PCOD9419337 Si02
#       5
#     8   4   8   8   8
#     4  10  22  42  68  99 139 190 237 301 373 441
#     4  12  25  42  72 100 141 200 242 308 382 442
#     4  11  23  42  63  98 141 186 244 310 353 433
#     4  10  23  41  67 103 140 180 241 305 373 442
#     4  11  27  47  70 106 147 198 255 306 373 444
#
# _framework density 23.002009000000001
#
# number of rings (size 3 to 8) (size 9 to 14) (size 15 to 20)
#    0.000    1.333    1.111    3.000    6.222    1.778 
#    0.000    3.333    0.000    0.000    0.000    0.000 
#    0.000    0.000    0.000    0.000    0.000    0.000 
#
# Total GULP energy -200766.037986 kJ/mol
# GULP energy per Si atom -5576.834389 kJ/mol
# Density = 2.294966 g / cm^3
# Si number density = 23.002009 Si / 1000 Ang^3
#
#
#
# Elastic Constant Matrix: (Units=GPa)
#
#
# Indices 1 2 3 4 5 6 
#
# 1 216.2347 27.3109 64.0470 0.0000 0.0000 0.0000
# 2 27.3109 50.4992 25.9598 0.0000 0.0000 0.0000
# 3 64.0470 25.9598 98.8343 0.0000 0.0000 0.0000
# 4 0.0000 0.0000 0.0000 28.1399 0.0000 0.0000
# 5 0.0000 0.0000 0.0000 0.0000 49.9159 0.0000
# 6 0.0000 0.0000 0.0000 0.0000 0.0000 96.6449
#
#
#
# Elastic Compliance Matrix: (Units=1/GPa)
#
#
# Indices 1 2 3 4 5 6 
#
# 1 0.005807 -0.001394 -0.003397 0.000000 0.000000 0.000000
# 2 -0.001394 0.023228 -0.005198 0.000000 0.000000 0.000000
# 3 -0.003397 -0.005198 0.013684 0.000000 0.000000 0.000000
# 4 0.000000 0.000000 0.000000 0.035537 0.000000 0.000000
# 5 0.000000 0.000000 0.000000 0.000000 0.020034 0.000000
# 6 0.000000 0.000000 0.000000 0.000000 0.000000 0.010347
#
#
# Mechanical properties :
#
#
# Convention : Reuss Voigt Hill
#
# Bulk Modulus (GPa) = 43.97125 66.68929 55.33027
# Shear Modulus (GPa) = 36.71209 51.49017 44.10113
#
# Velocity S-wave (km/s) = 3.99938 4.73642 4.38342
# Velocity P-wave (km/s) = 6.36274 7.67902 7.05166
#
# Compressibility (1/GPa) = 0.02274213
#
# Stress axis : x y z
#
# Youngs Moduli (GPa) = 172.21232 43.05099 73.07644
#
# Poissons Ratio (x) = 0.06003 0.24822
# Poissons Ratio (y) = 0.24011 0.37982
# Poissons Ratio (z) = 0.58496 0.22376
#
# Static dielectric constant tensor:
#      x y z
#    x 1.817580 0.000000 0.000000 
#    y 0.000000 1.830080 0.000000 
#    z 0.000000 0.000000 1.967980 
# 
# From -- ./inp_files/18093.got.cif
#   From: 2010.05.17/outbox.cif.g08.bks.cpg/sg53_10_cif.got.tgz:18093.got - 2010.06.03 12:45:16.
