data_PCOD9419261
_publ_section_title
;
Structure prediction by ZEFSAII (Michael W. Deem and Ramdas Pophale) SiO2 
 PCOD9419261
Probable space group: P M N A
;
_chemical_formula_sum "Si O2"
_cell_formula_units_Z 32
_cell_length_a 18.597058
_cell_length_b 7.061835
_cell_length_c 12.164977
_cell_angle_alpha 90.000000
_cell_angle_beta 90.000000
_cell_angle_gamma 90.000000
_cell_volume 1597.618584
_symmetry_space_group_name_H-M "P M N A"
_symmetry_group_IT_number 53
_symmetry_cell_setting 'orthorhombic'
loop_
_space_group_symop_operation_xyz
x,y,z
1/2-x,-y,1/2+z
x,-y,-z
1/2-x,y,1/2-z
-x,-y,-z
1/2+x,y,1/2-z
-x,y,z
1/2+x,-y,1/2+z
loop_
_atom_site_type_symbol
_atom_site_label
_atom_site_fract_x
_atom_site_fract_y
_atom_site_fract_z
Si Si1 0.418542 0.222158 0.536866
Si Si2 0.084548 0.272778 0.203958
Si Si3 0.084453 0.597165 0.385009
Si Si4 0.835351 0.115843 0.752844
O O1 0.500000 0.275567 0.571627
O O2 0.399227 0.325597 0.422932
O O3 0.364949 0.224495 0.638649
O O4 0.420731 0.000000 0.500000
O O5 0.093149 0.441353 0.289415
O O6 0.000000 0.215783 0.204496
O O7 0.132292 0.094570 0.238636
O O8 0.103863 0.500000 0.500000
O O9 0.131800 0.775944 0.351521
O O10 0.000000 0.650879 0.389862
O O11 0.750000 0.113383 0.750000
#
# Coordination Sequence:
#
# PCOD9419261 Si02
#       4
#     8   8   8   8
#     4   8  15  33  60  85 108 141 195 246 282 335
#     4   9  19  39  65  87 111 152 201 249 290 335
#     4  10  22  41  61  85 117 158 208 243 276 346
#     4  11  22  37  55  89 122 157 187 241 307 353
#
# _framework density 20.029813000000001
#
# number of rings (size 3 to 8) (size 9 to 14) (size 15 to 20)
#    0.000    2.500    0.000    3.750    0.000    3.000 
#   18.000    7.500    0.000    0.000    0.000    0.000 
#    0.000    0.000    0.000    0.000    0.000    0.000 
#
# Total GULP energy -178794.677841 kJ/mol
# GULP energy per Si atom -5587.333683 kJ/mol
# Density = 1.998422 g / cm^3
# Si number density = 20.029813 Si / 1000 Ang^3
#
#
#
# Elastic Constant Matrix: (Units=GPa)
#
#
# Indices 1 2 3 4 5 6 
#
# 1 107.6724 51.5061 43.6365 0.0000 0.0000 0.0000
# 2 51.5061 54.2993 23.9476 0.0000 0.0000 0.0000
# 3 43.6365 23.9476 86.0517 0.0000 0.0000 0.0000
# 4 0.0000 0.0000 0.0000 22.9900 0.0000 0.0000
# 5 0.0000 0.0000 0.0000 0.0000 -2.3241 0.0000
# 6 0.0000 0.0000 0.0000 0.0000 0.0000 7.9775
#
#
#
# Elastic Compliance Matrix: (Units=1/GPa)
#
#
# Indices 1 2 3 4 5 6 
#
# 1 0.018862 -0.015586 -0.005227 0.000000 0.000000 0.000000
# 2 -0.015586 0.033872 -0.001523 0.000000 0.000000 0.000000
# 3 -0.005227 -0.001523 0.014695 0.000000 0.000000 0.000000
# 4 0.000000 0.000000 0.000000 0.043497 0.000000 0.000000
# 5 0.000000 0.000000 0.000000 0.000000 -0.430276 0.000000
# 6 0.000000 0.000000 0.000000 0.000000 0.000000 0.125353
#
#
# Mechanical properties :
#
#
# Convention : Reuss Voigt Hill
#
# Bulk Modulus (GPa) = 43.94193 54.02264 48.98228
# Shear Modulus (GPa) = -35.27629 14.32421 -10.47604
#
# Velocity S-wave (km/s) = -4.20121 2.67712 -2.28945
# Velocity P-wave (km/s) = 1.24403 6.04861 4.18557
#
# Compressibility (1/GPa) = 0.02275731
#
# Stress axis : x y z
#
# Youngs Moduli (GPa) = 53.01788 29.52267 68.04853
#
# Poissons Ratio (x) = 0.46014 0.35570
# Poissons Ratio (y) = 0.82634 0.10362
# Poissons Ratio (z) = 0.27713 0.04496
#
# Static dielectric constant tensor:
#      x y z
#    x 1.656530 0.000000 0.000000 
#    y 0.000000 1.759850 0.000000 
#    z 0.000000 0.000000 1.733730 
# 
# From -- ./inp_files/15389.got.cif
#   From: 2010.05.17/outbox.cif.g08.bks.cpg/sg53_8_cif.got.tgz:15389.got - 2010.06.03 12:45:16.
