data_PCOD9419500
_publ_section_title
;
Structure prediction by ZEFSAII (Michael W. Deem and Ramdas Pophale) SiO2 
 PCOD9419500
Probable space group: P M N A
;
_chemical_formula_sum "Si O2"
_cell_formula_units_Z 32
_cell_length_a 15.901014
_cell_length_b 5.222202
_cell_length_c 16.961939
_cell_angle_alpha 90.000000
_cell_angle_beta 90.000000
_cell_angle_gamma 90.000000
_cell_volume 1408.490700
_symmetry_space_group_name_H-M "P M N A"
_symmetry_group_IT_number 53
_symmetry_cell_setting 'orthorhombic'
loop_
_space_group_symop_operation_xyz
x,y,z
1/2-x,-y,1/2+z
x,-y,-z
1/2-x,y,1/2-z
-x,-y,-z
1/2+x,y,1/2-z
-x,y,z
1/2+x,-y,1/2+z
loop_
_atom_site_type_symbol
_atom_site_label
_atom_site_fract_x
_atom_site_fract_y
_atom_site_fract_z
Si Si1 0.405396 0.965213 0.905389
Si Si2 0.259439 0.252810 0.445996
Si Si3 0.349520 0.303856 0.769736
Si Si4 0.095111 0.791262 0.820618
O O1 0.500000 0.894718 0.878993
O O2 0.326516 0.775725 0.896137
O O3 0.375136 0.216033 0.857805
O O4 0.410536 0.000000 0.000000
O O5 0.255100 0.500000 0.500000
O O6 0.338263 0.263860 0.388757
O O7 0.267217 0.000000 0.500000
O O8 0.250000 0.324674 0.750000
O O9 0.393570 0.561705 0.741428
O O10 0.382424 0.062260 0.718560
O O11 0.000000 0.796366 0.850011
#
# Coordination Sequence:
#
# PCOD9419500 Si02
#       4
#     8   8   8   8
#     4  10  23  44  70 103 140 184 236 295 360 431
#     4  11  25  44  70 103 143 192 240 293 363 434
#     4  12  25  46  73 104 141 190 237 301 367 434
#     4  12  26  45  72 106 142 188 242 301 361 432
#
# _framework density 22.719355
#
# number of rings (size 3 to 8) (size 9 to 14) (size 15 to 20)
#    0.000    0.750    2.500    4.500    3.500    1.500 
#    0.000    5.000    0.000    0.000    0.000    0.000 
#    0.000    0.000    0.000    0.000    0.000    0.000 
#
# Total GULP energy -179209.955345 kJ/mol
# GULP energy per Si atom -5600.311105 kJ/mol
# Density = 2.266764 g / cm^3
# Si number density = 22.719355 Si / 1000 Ang^3
#
#
#
# Elastic Constant Matrix: (Units=GPa)
#
#
# Indices 1 2 3 4 5 6 
#
# 1 227.9292 31.8802 41.6910 0.0000 0.0000 0.0000
# 2 31.8802 120.2146 25.5678 0.0000 0.0000 0.0000
# 3 41.6910 25.5678 74.6895 0.0000 0.0000 0.0000
# 4 0.0000 0.0000 0.0000 47.2882 0.0000 0.0000
# 5 0.0000 0.0000 0.0000 0.0000 34.8790 0.0000
# 6 0.0000 0.0000 0.0000 0.0000 0.0000 12.9268
#
#
#
# Elastic Compliance Matrix: (Units=1/GPa)
#
#
# Indices 1 2 3 4 5 6 
#
# 1 0.004954 -0.000783 -0.002497 0.000000 0.000000 0.000000
# 2 -0.000783 0.009095 -0.002677 0.000000 0.000000 0.000000
# 3 -0.002497 -0.002677 0.015699 0.000000 0.000000 0.000000
# 4 0.000000 0.000000 0.000000 0.021147 0.000000 0.000000
# 5 0.000000 0.000000 0.000000 0.000000 0.028671 0.000000
# 6 0.000000 0.000000 0.000000 0.000000 0.000000 0.077359
#
#
# Mechanical properties :
#
#
# Convention : Reuss Voigt Hill
#
# Bulk Modulus (GPa) = 56.06959 69.01237 62.54098
# Shear Modulus (GPa) = 28.60709 40.59840 34.60275
#
# Velocity S-wave (km/s) = 3.55230 4.23182 3.90686
# Velocity P-wave (km/s) = 6.44654 7.37019 6.92379
#
# Compressibility (1/GPa) = 0.01783498
#
# Stress axis : x y z
#
# Youngs Moduli (GPa) = 201.87592 109.94720 63.69865
#
# Poissons Ratio (x) = 0.08604 0.15906
# Poissons Ratio (y) = 0.15798 0.17050
# Poissons Ratio (z) = 0.50411 0.29430
#
# Static dielectric constant tensor:
#      x y z
#    x 1.829150 0.000000 0.000000 
#    y 0.000000 1.805240 0.000000 
#    z 0.000000 0.000000 1.890960 
# 
# From -- ./inp_files/23248.got.cif
#   From: 2010.05.17/outbox.cif.g08.bks.cpg/sg53_12_cif.got.tgz:23248.got - 2010.06.03 12:45:16.
