data_PCOD9419898
_publ_section_title
;
Structure prediction by ZEFSAII (Michael W. Deem and Ramdas Pophale) SiO2 
 PCOD9419898
Probable space group: P M N A
;
_chemical_formula_sum "Si O2"
_cell_formula_units_Z 48
_cell_length_a 15.125529
_cell_length_b 16.928499
_cell_length_c 8.965475
_cell_angle_alpha 90.000000
_cell_angle_beta 90.000000
_cell_angle_gamma 90.000000
_cell_volume 2295.632310
_symmetry_space_group_name_H-M "P M N A"
_symmetry_group_IT_number 53
_symmetry_cell_setting 'orthorhombic'
loop_
_space_group_symop_operation_xyz
x,y,z
1/2-x,-y,1/2+z
x,-y,-z
1/2-x,y,1/2-z
-x,-y,-z
1/2+x,y,1/2-z
-x,y,z
1/2+x,-y,1/2+z
loop_
_atom_site_type_symbol
_atom_site_label
_atom_site_fract_x
_atom_site_fract_y
_atom_site_fract_z
Si Si1 0.604716 0.331460 0.712567
Si Si2 0.825101 0.926358 0.621264
Si Si3 0.107597 0.412133 0.065638
Si Si4 0.105772 0.492570 0.340660
Si Si5 0.500000 0.920563 0.682953
Si Si6 0.665575 0.825641 0.160377
Si Si7 0.000000 0.107717 0.846043
O O1 0.500000 0.311212 0.710984
O O2 0.638545 0.342469 0.542533
O O3 0.612636 0.419958 0.773885
O O4 0.652893 0.267517 0.812328
O O5 0.750000 0.936294 0.750000
O O6 0.913847 0.910707 0.715152
O O7 0.819830 0.852287 0.508469
O O8 0.828254 0.000000 0.500000
O O9 0.139432 0.423265 0.234006
O O10 0.000000 0.405442 0.065420
O O11 0.124981 0.500000 0.000000
O O12 0.149618 0.500000 0.500000
O O13 0.000000 0.477046 0.356149
O O14 0.500000 0.872783 0.524675
O O15 0.500000 0.013774 0.651425
O O16 0.750000 0.854192 0.250000
O O17 0.583203 0.863583 0.249181
#
# Coordination Sequence:
#
# PCOD9419898 Si02
#       7
#     8   8   8   8   4   8   4
#     4   9  17  31  54  78 113 155 203 249 303 372
#     4  12  25  42  66  95 126 166 209 260 318 380
#     4   7  11  22  43  72 101 139 185 237 287 350
#     4   8  13  24  46  78 111 147 195 251 309 360
#     4  11  24  41  70  97 122 151 208 269 313 372
#     4  12  24  41  62  89 126 168 207 254 314 377
#     4  11  23  42  67  96 122 157 205 257 317 383
#
# _framework density 20.909272000000001
#
# number of rings (size 3 to 8) (size 9 to 14) (size 15 to 20)
#    0.000    2.167    2.500    4.250    2.333    0.000 
#    0.000    3.333    0.000    3.000    0.000    0.000 
#    0.000    0.000    0.000    0.000    0.000    0.000 
#
# Total GULP energy -267240.797923 kJ/mol
# GULP energy per Si atom -5567.516623 kJ/mol
# Density = 2.086168 g / cm^3
# Si number density = 20.909272 Si / 1000 Ang^3
#
#
#
# Elastic Constant Matrix: (Units=GPa)
#
#
# Indices 1 2 3 4 5 6 
#
# 1 103.4699 0.7566 38.1992 0.0000 0.0000 0.0000
# 2 0.7566 23.3533 17.8886 0.0000 0.0000 0.0000
# 3 38.1992 17.8886 154.8133 0.0000 0.0000 0.0000
# 4 0.0000 0.0000 0.0000 40.9031 0.0000 0.0000
# 5 0.0000 0.0000 0.0000 0.0000 133.1614 0.0000
# 6 0.0000 0.0000 0.0000 0.0000 0.0000 -57.0847
#
#
#
# Elastic Compliance Matrix: (Units=1/GPa)
#
#
# Indices 1 2 3 4 5 6 
#
# 1 0.010705 0.001839 -0.002854 0.000000 0.000000 0.000000
# 2 0.001839 0.047294 -0.005919 0.000000 0.000000 0.000000
# 3 -0.002854 -0.005919 0.007847 0.000000 0.000000 0.000000
# 4 0.000000 0.000000 0.000000 0.024448 0.000000 0.000000
# 5 0.000000 0.000000 0.000000 0.000000 0.007510 0.000000
# 6 0.000000 0.000000 0.000000 0.000000 0.000000 -0.017518
#
#
# Mechanical properties :
#
#
# Convention : Reuss Voigt Hill
#
# Bulk Modulus (GPa) = 19.23812 43.92504 31.58158
# Shear Modulus (GPa) = 44.85112 38.38211 41.61662
#
# Velocity S-wave (km/s) = 4.63648 4.28910 4.46617
# Velocity P-wave (km/s) = 6.15494 6.75141 6.46006
#
# Compressibility (1/GPa) = 0.05198013
#
# Stress axis : x y z
#
# Youngs Moduli (GPa) = 93.41612 21.14411 127.42972
#
# Poissons Ratio (x) = -0.03889 0.36367
# Poissons Ratio (y) = -0.17181 0.75421
# Poissons Ratio (z) = 0.26660 0.12514
#
# Static dielectric constant tensor:
#      x y z
#    x 1.739460 0.000000 0.000000 
#    y 0.000000 1.674260 0.000000 
#    z 0.000000 0.000000 1.920820 
# 
# From -- ./inp_files/8706.got.cif
#   From: 2010.05.17/outbox.cif.g08.bks.cpg/sg53_5_cif.got.tgz:8706.got - 2010.06.03 12:45:16.
