data_PCOD9419155
_publ_section_title
;
Structure prediction by ZEFSAII (Michael W. Deem and Ramdas Pophale) SiO2 
 PCOD9419155
Probable space group: P M N A
;
_chemical_formula_sum "Si O2"
_cell_formula_units_Z 48
_cell_length_a 8.521380
_cell_length_b 31.921834
_cell_length_c 9.251368
_cell_angle_alpha 90.000000
_cell_angle_beta 90.000000
_cell_angle_gamma 90.000000
_cell_volume 2516.539340
_symmetry_space_group_name_H-M "P M N A"
_symmetry_group_IT_number 53
_symmetry_cell_setting 'orthorhombic'
loop_
_space_group_symop_operation_xyz
x,y,z
1/2-x,-y,1/2+z
x,-y,-z
1/2-x,y,1/2-z
-x,-y,-z
1/2+x,y,1/2-z
-x,y,z
1/2+x,-y,1/2+z
loop_
_atom_site_type_symbol
_atom_site_label
_atom_site_fract_x
_atom_site_fract_y
_atom_site_fract_z
Si Si1 0.688794 0.875248 0.586429
Si Si2 0.189441 0.366839 0.913633
Si Si3 0.811203 0.285046 0.087269
Si Si4 0.810391 0.540301 0.087454
Si Si5 0.812618 0.794905 0.413265
Si Si6 0.310480 0.041336 0.586554
O O1 0.750000 0.876465 0.750000
O O2 0.500000 0.873545 0.588225
O O3 0.752972 0.834725 0.503716
O O4 0.738227 0.916993 0.499762
O O5 0.250000 0.361118 0.750000
O O6 0.238364 0.413337 0.966012
O O7 0.000000 0.366100 0.908609
O O8 0.241284 0.328933 0.015444
O O9 0.750000 0.281203 0.250000
O O10 0.000000 0.283833 0.088139
O O11 0.749073 0.246936 0.990680
O O12 0.750000 0.537061 0.250000
O O13 0.000000 0.539447 0.087004
O O14 0.753008 0.500000 0.000000
O O15 0.750000 0.797166 0.250000
O O16 0.000000 0.794605 0.411388
O O17 0.250000 0.041530 0.750000
O O18 0.500000 0.040828 0.590586
O O19 0.257553 0.000000 0.500000
#
# Coordination Sequence:
#
# PCOD9419155 Si02
#       6
#     8   8   8   8   8   8
#     4  11  23  40  62  89 121 156 195 238 287 339
#     4   9  19  35  55  78 106 142 182 225 273 328
#     4  11  23  39  58  83 114 147 186 231 282 335
#     4   9  18  33  52  76 107 141 179 223 271 325
#     4  12  25  42  63  87 116 150 190 234 283 338
#     4  10  22  39  60  88 120 155 196 240 287 340
#
# _framework density 19.073813999999999
#
# number of rings (size 3 to 8) (size 9 to 14) (size 15 to 20)
#    0.000    1.667    0.000    4.500    0.000    6.667 
#    0.000    0.000    0.000    0.000    0.000    0.000 
#    0.000    0.000    0.000    0.000    0.000    0.000 
#
# Total GULP energy -268249.040931 kJ/mol
# GULP energy per Si atom -5588.521686 kJ/mol
# Density = 1.903040 g / cm^3
# Si number density = 19.073814 Si / 1000 Ang^3
#
#
#
# Elastic Constant Matrix: (Units=GPa)
#
#
# Indices 1 2 3 4 5 6 
#
# 1 53.5704 47.7323 37.6542 0.0000 0.0000 0.0000
# 2 47.7323 216.4999 120.9051 0.0000 0.0000 0.0000
# 3 37.6542 120.9051 173.0921 0.0000 0.0000 0.0000
# 4 0.0000 0.0000 0.0000 55.7373 0.0000 0.0000
# 5 0.0000 0.0000 0.0000 0.0000 38.0212 0.0000
# 6 0.0000 0.0000 0.0000 0.0000 0.0000 -29.3671
#
#
#
# Elastic Compliance Matrix: (Units=1/GPa)
#
#
# Indices 1 2 3 4 5 6 
#
# 1 0.023866 -0.003873 -0.002486 0.000000 0.000000 0.000000
# 2 -0.003873 0.008202 -0.004886 0.000000 0.000000 0.000000
# 3 -0.002486 -0.004886 0.009731 0.000000 0.000000 0.000000
# 4 0.000000 0.000000 0.000000 0.017941 0.000000 0.000000
# 5 0.000000 0.000000 0.000000 0.000000 0.026301 0.000000
# 6 0.000000 0.000000 0.000000 0.000000 0.000000 -0.034052
#
#
# Mechanical properties :
#
#
# Convention : Reuss Voigt Hill
#
# Bulk Modulus (GPa) = 51.79464 95.08284 73.43874
# Shear Modulus (GPa) = 61.79201 28.66967 45.23084
#
# Velocity S-wave (km/s) = 5.69795 3.88118 4.87494
# Velocity P-wave (km/s) = 8.39658 8.36916 8.38288
#
# Compressibility (1/GPa) = 0.01930702
#
# Stress axis : x y z
#
# Youngs Moduli (GPa) = 41.90100 121.92668 102.76236
#
# Poissons Ratio (x) = 0.47226 0.25549
# Poissons Ratio (y) = 0.16230 0.50212
# Poissons Ratio (z) = 0.10418 0.59577
#
# Static dielectric constant tensor:
#      x y z
#    x 1.645080 0.000000 0.000000 
#    y 0.000000 1.673120 0.000000 
#    z 0.000000 0.000000 1.597240 
# 
# From -- ./inp_files/6565.got.cif
#   From: 2010.05.17/outbox.cif.g08.bks.cpg/sg53_4_cif.got.tgz:6565.got - 2010.06.03 12:45:16.
