data_PCOD9419657
_publ_section_title
;
Structure prediction by ZEFSAII (Michael W. Deem and Ramdas Pophale) SiO2 
 PCOD9419657
Probable space group: P M N A
;
_chemical_formula_sum "Si O2"
_cell_formula_units_Z 40
_cell_length_a 10.303213
_cell_length_b 11.345084
_cell_length_c 19.116481
_cell_angle_alpha 90.000000
_cell_angle_beta 90.000000
_cell_angle_gamma 90.000000
_cell_volume 2234.541081
_symmetry_space_group_name_H-M "P M N A"
_symmetry_group_IT_number 53
_symmetry_cell_setting 'orthorhombic'
loop_
_space_group_symop_operation_xyz
x,y,z
1/2-x,-y,1/2+z
x,-y,-z
1/2-x,y,1/2-z
-x,-y,-z
1/2+x,y,1/2-z
-x,y,z
1/2+x,-y,1/2+z
loop_
_atom_site_type_symbol
_atom_site_label
_atom_site_fract_x
_atom_site_fract_y
_atom_site_fract_z
Si Si1 0.749044 0.725557 0.390944
Si Si2 0.500000 0.912227 0.934290
Si Si3 0.000000 0.162850 0.822816
Si Si4 0.349635 0.526714 0.916343
Si Si5 0.000000 0.870279 0.342385
Si Si6 0.000000 0.937302 0.923455
Si Si7 0.236526 0.767007 0.945162
O O1 0.627905 0.765247 0.344926
O O2 0.792398 0.590382 0.381463
O O3 0.873084 0.806559 0.373782
O O4 0.711826 0.743901 0.472411
O O5 0.373058 0.833236 0.938903
O O6 0.500000 0.994862 0.866699
O O7 0.500000 0.000000 0.000000
O O8 0.000000 0.140632 0.740606
O O9 0.000000 0.040937 0.866554
O O10 0.500000 0.547362 0.895269
O O11 0.259356 0.641201 0.908183
O O12 0.353299 0.500000 0.000000
O O13 0.124764 0.852712 0.917881
O O14 0.000000 0.000000 0.000000
#
# Coordination Sequence:
#
# PCOD9419657 Si02
#       7
#     8   4   4   8   4   4   8
#     4  11  20  38  60  85 121 150 192 249 304 349
#     4  12  20  33  61  88 115 149 207 247 290 348
#     4  12  26  39  55  85 125 161 198 237 295 366
#     4   9  18  33  58  90 115 137 184 246 294 339
#     4  12  24  37  59  85 117 161 200 245 295 352
#     4  12  22  39  57  82 131 163 191 243 296 358
#     4  11  20  35  61  91 116 152 192 253 301 342
#
# _framework density 17.900766999999998
#
# number of rings (size 3 to 8) (size 9 to 14) (size 15 to 20)
#    0.000    1.000    6.000    2.400    0.000    0.800 
#    0.000    3.000    0.000    7.200    0.000    0.000 
#    0.000    0.000    0.000    0.000    0.000    0.000 
#
# Total GULP energy -223459.949790 kJ/mol
# GULP energy per Si atom -5586.498745 kJ/mol
# Density = 1.786002 g / cm^3
# Si number density = 17.900767 Si / 1000 Ang^3
#
#
#
# Elastic Constant Matrix: (Units=GPa)
#
#
# Indices 1 2 3 4 5 6 
#
# 1 80.8713 12.4495 -8.1695 0.0000 0.0000 0.0000
# 2 12.4495 94.0449 8.9811 0.0000 0.0000 0.0000
# 3 -8.1695 8.9811 51.1470 0.0000 0.0000 0.0000
# 4 0.0000 0.0000 0.0000 16.3935 0.0000 0.0000
# 5 0.0000 0.0000 0.0000 0.0000 6.6255 0.0000
# 6 0.0000 0.0000 0.0000 0.0000 0.0000 40.4935
#
#
#
# Elastic Compliance Matrix: (Units=1/GPa)
#
#
# Indices 1 2 3 4 5 6 
#
# 1 0.012906 -0.001938 0.002402 0.000000 0.000000 0.000000
# 2 -0.001938 0.011106 -0.002260 0.000000 0.000000 0.000000
# 3 0.002402 -0.002260 0.020332 0.000000 0.000000 0.000000
# 4 0.000000 0.000000 0.000000 0.061000 0.000000 0.000000
# 5 0.000000 0.000000 0.000000 0.000000 0.150931 0.000000
# 6 0.000000 0.000000 0.000000 0.000000 0.000000 0.024695
#
#
# Mechanical properties :
#
#
# Convention : Reuss Voigt Hill
#
# Bulk Modulus (GPa) = 24.53853 28.06503 26.30178
# Shear Modulus (GPa) = 16.77035 26.88934 21.82984
#
# Velocity S-wave (km/s) = 3.06412 3.87994 3.49591
# Velocity P-wave (km/s) = 5.12409 5.98198 5.56958
#
# Compressibility (1/GPa) = 0.04075224
#
# Stress axis : x y z
#
# Youngs Moduli (GPa) = 77.48180 90.04516 49.18388
#
# Poissons Ratio (x) = 0.17450 -0.11813
# Poissons Ratio (y) = 0.15015 0.11114
# Poissons Ratio (z) = -0.18609 0.20346
#
# Static dielectric constant tensor:
#      x y z
#    x 1.553340 0.000000 0.000000 
#    y 0.000000 1.622680 0.000000 
#    z 0.000000 0.000000 1.602740 
# 
# From -- ./inp_files/30420.got.cif
#   From: 2010.05.17/outbox.cif.g08.bks.cpg/sg53_16_cif.got.tgz:30420.got - 2010.06.03 12:45:16.
