data_PCOD9419148
_publ_section_title
;
Structure prediction by ZEFSAII (Michael W. Deem and Ramdas Pophale) SiO2 
 PCOD9419148
Probable space group: P M N A
;
_chemical_formula_sum "Si O2"
_cell_formula_units_Z 48
_cell_length_a 8.657558
_cell_length_b 31.682082
_cell_length_c 9.137940
_cell_angle_alpha 90.000000
_cell_angle_beta 90.000000
_cell_angle_gamma 90.000000
_cell_volume 2506.440651
_symmetry_space_group_name_H-M "P M N A"
_symmetry_group_IT_number 53
_symmetry_cell_setting 'orthorhombic'
loop_
_space_group_symop_operation_xyz
x,y,z
1/2-x,-y,1/2+z
x,-y,-z
1/2-x,y,1/2-z
-x,-y,-z
1/2+x,y,1/2-z
-x,y,z
1/2+x,-y,1/2+z
loop_
_atom_site_type_symbol
_atom_site_label
_atom_site_fract_x
_atom_site_fract_y
_atom_site_fract_z
Si Si1 0.685370 0.542812 0.413934
Si Si2 0.685751 0.623398 0.914059
Si Si3 0.314180 0.873240 0.414086
Si Si4 0.814110 0.207474 0.414104
Si Si5 0.686399 0.041918 0.413774
Si Si6 0.313840 0.707886 0.086250
O O1 0.727162 0.500000 0.500000
O O2 0.750000 0.541442 0.250000
O O3 0.500000 0.545931 0.409387
O O4 0.752577 0.582932 0.499040
O O5 0.750000 0.623486 0.750000
O O6 0.500000 0.622117 0.909679
O O7 0.734506 0.666001 0.998572
O O8 0.250000 0.873628 0.250000
O O9 0.500000 0.871213 0.410358
O O10 0.249563 0.833032 0.500518
O O11 0.267666 0.916058 0.498295
O O12 0.750000 0.208100 0.250000
O O13 0.766337 0.250007 0.499505
O O14 0.000000 0.205776 0.410297
O O15 0.750000 0.042526 0.250000
O O16 0.500000 0.041219 0.407114
O O17 0.737884 0.000000 0.500000
O O18 0.250000 0.707784 0.250000
O O19 0.500000 0.707766 0.093319
#
# Coordination Sequence:
#
# PCOD9419148 Si02
#       6
#     8   8   8   8   8   8
#     4  11  24  41  62  89 121 157 197 242 292 347
#     4  11  23  40  62  89 120 155 197 243 293 347
#     4  11  23  39  60  87 118 153 195 241 291 347
#     4  11  23  40  61  87 119 155 196 241 292 347
#     4  10  22  39  59  85 116 151 192 238 289 345
#     4  10  23  40  60  87 118 154 195 241 291 346
#
# _framework density 19.150663999999999
#
# number of rings (size 3 to 8) (size 9 to 14) (size 15 to 20)
#    0.000    1.333    0.000    5.000    0.000   11.000 
#    0.000    0.000    0.000    0.000    0.000    0.000 
#    0.000    0.000    0.000    0.000    0.000    0.000 
#
# Total GULP energy -268548.412247 kJ/mol
# GULP energy per Si atom -5594.758588 kJ/mol
# Density = 1.910708 g / cm^3
# Si number density = 19.150664 Si / 1000 Ang^3
#
#
#
# Elastic Constant Matrix: (Units=GPa)
#
#
# Indices 1 2 3 4 5 6 
#
# 1 47.3472 64.2903 57.0540 0.0000 0.0000 0.0000
# 2 64.2903 241.9523 148.8392 0.0000 0.0000 0.0000
# 3 57.0540 148.8392 244.6506 0.0000 0.0000 0.0000
# 4 0.0000 0.0000 0.0000 43.2531 0.0000 0.0000
# 5 0.0000 0.0000 0.0000 0.0000 44.3036 0.0000
# 6 0.0000 0.0000 0.0000 0.0000 0.0000 29.7486
#
#
#
# Elastic Compliance Matrix: (Units=1/GPa)
#
#
# Indices 1 2 3 4 5 6 
#
# 1 0.035382 -0.006913 -0.004046 0.000000 0.000000 0.000000
# 2 -0.006913 0.007955 -0.003228 0.000000 0.000000 0.000000
# 3 -0.004046 -0.003228 0.006995 0.000000 0.000000 0.000000
# 4 0.000000 0.000000 0.000000 0.023120 0.000000 0.000000
# 5 0.000000 0.000000 0.000000 0.000000 0.022572 0.000000
# 6 0.000000 0.000000 0.000000 0.000000 0.000000 0.033615
#
#
# Mechanical properties :
#
#
# Convention : Reuss Voigt Hill
#
# Bulk Modulus (GPa) = 45.53795 119.36855 82.45325
# Shear Modulus (GPa) = 30.24225 41.04550 35.64387
#
# Velocity S-wave (km/s) = 3.97819 4.63459 4.31888
# Velocity P-wave (km/s) = 6.70312 9.54494 8.24735
#
# Compressibility (1/GPa) = 0.02195971
#
# Stress axis : x y z
#
# Youngs Moduli (GPa) = 28.26267 125.69931 142.96566
#
# Poissons Ratio (x) = 0.86893 0.57841
# Poissons Ratio (y) = 0.19537 0.46147
# Poissons Ratio (z) = 0.11435 0.40573
#
# Static dielectric constant tensor:
#      x y z
#    x 1.651060 0.000000 0.000000 
#    y 0.000000 1.648480 0.000000 
#    z 0.000000 0.000000 1.610240 
# 
# From -- ./inp_files/6685.got.cif
#   From: 2010.05.17/outbox.cif.g08.bks.cpg/sg53_4_cif.got.tgz:6685.got - 2010.06.03 12:45:16.
