data_PCOD9419652
_publ_section_title
;
Structure prediction by ZEFSAII (Michael W. Deem and Ramdas Pophale) SiO2 
 PCOD9419652
Probable space group: P M N A
;
_chemical_formula_sum "Si O2"
_cell_formula_units_Z 48
_cell_length_a 10.191475
_cell_length_b 10.091762
_cell_length_c 27.202843
_cell_angle_alpha 90.000000
_cell_angle_beta 90.000000
_cell_angle_gamma 90.000000
_cell_volume 2797.810774
_symmetry_space_group_name_H-M "P M N A"
_symmetry_group_IT_number 53
_symmetry_cell_setting 'orthorhombic'
loop_
_space_group_symop_operation_xyz
x,y,z
1/2-x,-y,1/2+z
x,-y,-z
1/2-x,y,1/2-z
-x,-y,-z
1/2+x,y,1/2-z
-x,y,z
1/2+x,-y,1/2+z
loop_
_atom_site_type_symbol
_atom_site_label
_atom_site_fract_x
_atom_site_fract_y
_atom_site_fract_z
Si Si1 0.747476 0.291507 0.405114
Si Si2 0.500000 0.640002 0.527034
Si Si3 0.653415 0.700258 0.705539
Si Si4 0.253600 0.971140 0.099865
Si Si5 0.500000 0.889131 0.458695
Si Si6 0.000000 0.631028 0.533407
Si Si7 0.000000 0.118564 0.539383
Si Si8 0.346955 0.021863 0.707130
O O1 0.625122 0.334459 0.438476
O O2 0.715483 0.328738 0.348342
O O3 0.874730 0.354502 0.430690
O O4 0.762981 0.130929 0.406798
O O5 0.500000 0.500000 0.500000
O O6 0.500000 0.748874 0.484448
O O7 0.750000 0.655692 0.750000
O O8 0.500000 0.654982 0.708845
O O9 0.647644 0.860946 0.708920
O O10 0.126967 0.916157 0.072898
O O11 0.375784 0.900842 0.074579
O O12 0.226349 0.944031 0.156712
O O13 0.500000 0.000000 0.500000
O O14 0.000000 0.500000 0.500000
O O15 0.000000 0.750438 0.493681
O O16 0.000000 0.000000 0.500000
O O17 0.250000 0.068116 0.750000
O O18 0.500000 0.066456 0.709126
#
# Coordination Sequence:
#
# PCOD9419652 Si02
#       8
#     8   4   8   8   4   4   4   8
#     4  11  20  37  56  81 117 149 186 232 283 333
#     4  12  24  36  55  83 113 151 188 234 282 334
#     4   9  18  31  52  82 113 144 181 227 282 337
#     4  11  20  34  57  85 110 148 191 235 276 334
#     4  12  20  34  59  79 109 147 188 228 278 325
#     4  12  26  40  55  81 117 157 188 232 286 338
#     4  12  22  38  55  83 111 147 196 226 270 333
#     4   9  18  31  49  80 117 146 176 224 289 339
#
# _framework density 17.156271
#
# number of rings (size 3 to 8) (size 9 to 14) (size 15 to 20)
#    0.000    1.333    5.000    2.000    2.333    0.000 
#    0.000    0.000    0.000    0.000    0.000    7.000 
#    0.000    0.000    0.000    0.000    0.000    0.000 
#
# Total GULP energy -267712.865455 kJ/mol
# GULP energy per Si atom -5577.351364 kJ/mol
# Density = 1.711722 g / cm^3
# Si number density = 17.156271 Si / 1000 Ang^3
#
#
#
# Elastic Constant Matrix: (Units=GPa)
#
#
# Indices 1 2 3 4 5 6 
#
# 1 176.2283 16.5057 95.2761 0.0000 0.0000 0.0000
# 2 16.5057 63.8079 41.8210 0.0000 0.0000 0.0000
# 3 95.2761 41.8210 173.1445 0.0000 0.0000 0.0000
# 4 0.0000 0.0000 0.0000 15.2887 0.0000 0.0000
# 5 0.0000 0.0000 0.0000 0.0000 31.7793 0.0000
# 6 0.0000 0.0000 0.0000 0.0000 0.0000 241.5915
#
#
#
# Elastic Compliance Matrix: (Units=1/GPa)
#
#
# Indices 1 2 3 4 5 6 
#
# 1 0.008129 0.000985 -0.004711 0.000000 0.000000 0.000000
# 2 0.000985 0.018739 -0.005068 0.000000 0.000000 0.000000
# 3 -0.004711 -0.005068 0.009592 0.000000 0.000000 0.000000
# 4 0.000000 0.000000 0.000000 0.065408 0.000000 0.000000
# 5 0.000000 0.000000 0.000000 0.000000 0.031467 0.000000
# 6 0.000000 0.000000 0.000000 0.000000 0.000000 0.004139
#
#
# Mechanical properties :
#
#
# Convention : Reuss Voigt Hill
#
# Bulk Modulus (GPa) = 52.98976 80.04292 66.51634
# Shear Modulus (GPa) = 30.98784 75.03709 53.01247
#
# Velocity S-wave (km/s) = 4.25456 6.62060 5.56479
# Velocity P-wave (km/s) = 7.42217 10.25669 8.95233
#
# Compressibility (1/GPa) = 0.01887157
#
# Stress axis : x y z
#
# Youngs Moduli (GPa) = 123.01239 53.36452 104.25245
#
# Poissons Ratio (x) = -0.05256 0.49115
# Poissons Ratio (y) = -0.12116 0.52837
# Poissons Ratio (z) = 0.57953 0.27046
#
# Static dielectric constant tensor:
#      x y z
#    x 1.585300 0.000000 0.000000 
#    y 0.000000 1.548200 0.000000 
#    z 0.000000 0.000000 1.559610 
# 
# From -- ./inp_files/37876.got.cif
#   From: 2010.05.17/outbox.cif.g08.bks.cpg/sg53_19_cif.got.tgz:37876.got - 2010.06.03 12:45:16.
