data_PCOD9419158
_publ_section_title
;
Structure prediction by ZEFSAII (Michael W. Deem and Ramdas Pophale) SiO2 
 PCOD9419158
Probable space group: P M N A
;
_chemical_formula_sum "Si O2"
_cell_formula_units_Z 48
_cell_length_a 8.606443
_cell_length_b 31.378186
_cell_length_c 9.280073
_cell_angle_alpha 90.000000
_cell_angle_beta 90.000000
_cell_angle_gamma 90.000000
_cell_volume 2506.126117
_symmetry_space_group_name_H-M "P M N A"
_symmetry_group_IT_number 53
_symmetry_cell_setting 'orthorhombic'
loop_
_space_group_symop_operation_xyz
x,y,z
1/2-x,-y,1/2+z
x,-y,-z
1/2-x,y,1/2-z
-x,-y,-z
1/2+x,y,1/2-z
-x,y,z
1/2+x,-y,1/2+z
loop_
_atom_site_type_symbol
_atom_site_label
_atom_site_fract_x
_atom_site_fract_y
_atom_site_fract_z
Si Si1 0.813922 0.285997 0.588392
Si Si2 0.685677 0.378817 0.589693
Si Si3 0.187125 0.873532 0.412102
Si Si4 0.812548 0.041746 0.412012
Si Si5 0.314102 0.206850 0.411402
Si Si6 0.686280 0.542478 0.910494
O O1 0.750000 0.277951 0.750000
O O2 0.755137 0.333020 0.545822
O O3 0.749320 0.250159 0.482450
O O4 0.000000 0.285124 0.591456
O O5 0.750000 0.387796 0.750000
O O6 0.500000 0.375962 0.594868
O O7 0.739902 0.416374 0.485897
O O8 0.250000 0.876078 0.250000
O O9 0.232800 0.915691 0.501662
O O10 0.254582 0.832322 0.491985
O O11 0.000000 0.870834 0.409289
O O12 0.750000 0.041896 0.250000
O O13 0.000000 0.040798 0.405745
O O14 0.760044 0.000000 0.500000
O O15 0.250000 0.202134 0.250000
O O16 0.500000 0.207389 0.409356
O O17 0.750000 0.538154 0.750000
O O18 0.500000 0.546964 0.908986
O O19 0.725776 0.500000 0.000000
#
# Coordination Sequence:
#
# PCOD9419158 Si02
#       6
#     8   8   8   8   8   8
#     4  11  22  40  64  91 122 158 200 244 295 353
#     4  11  22  39  63  91 123 159 200 246 298 354
#     4  11  23  40  62  89 120 157 201 247 299 356
#     4  10  22  39  60  88 121 157 199 246 297 354
#     4  12  25  42  62  88 121 157 199 247 300 355
#     4  11  24  41  62  89 121 158 201 248 299 355
#
# _framework density 19.153065999999999
#
# number of rings (size 3 to 8) (size 9 to 14) (size 15 to 20)
#    0.000    1.000    0.000    8.500    0.000    6.333 
#    0.000    3.333    0.000    0.000    0.000    0.000 
#    0.000    0.000    0.000    0.000    0.000    0.000 
#
# Total GULP energy -268651.947559 kJ/mol
# GULP energy per Si atom -5596.915574 kJ/mol
# Density = 1.910947 g / cm^3
# Si number density = 19.153066 Si / 1000 Ang^3
#
#
#
# Elastic Constant Matrix: (Units=GPa)
#
#
# Indices 1 2 3 4 5 6 
#
# 1 142.1113 75.4851 72.0749 0.0000 0.0000 0.0000
# 2 75.4851 159.8179 127.8440 0.0000 0.0000 0.0000
# 3 72.0749 127.8440 182.9072 0.0000 0.0000 0.0000
# 4 0.0000 0.0000 0.0000 66.3661 0.0000 0.0000
# 5 0.0000 0.0000 0.0000 0.0000 39.5909 0.0000
# 6 0.0000 0.0000 0.0000 0.0000 0.0000 111.3903
#
#
#
# Elastic Compliance Matrix: (Units=1/GPa)
#
#
# Indices 1 2 3 4 5 6 
#
# 1 0.009545 -0.003401 -0.001384 0.000000 0.000000 0.000000
# 2 -0.003401 0.015404 -0.009427 0.000000 0.000000 0.000000
# 3 -0.001384 -0.009427 0.012601 0.000000 0.000000 0.000000
# 4 0.000000 0.000000 0.000000 0.015068 0.000000 0.000000
# 5 0.000000 0.000000 0.000000 0.000000 0.025258 0.000000
# 6 0.000000 0.000000 0.000000 0.000000 0.000000 0.008977
#
#
# Mechanical properties :
#
#
# Convention : Reuss Voigt Hill
#
# Bulk Modulus (GPa) = 109.56299 115.07158 112.31729
# Shear Modulus (GPa) = 42.25785 57.43159 49.84472
#
# Velocity S-wave (km/s) = 4.70225 5.48185 5.10695
# Velocity P-wave (km/s) = 9.31717 10.01389 9.67180
#
# Compressibility (1/GPa) = 0.00912717
#
# Stress axis : x y z
#
# Youngs Moduli (GPa) = 104.76306 64.91662 79.35624
#
# Poissons Ratio (x) = 0.22081 0.10982
# Poissons Ratio (y) = 0.35634 0.74806
# Poissons Ratio (z) = 0.14499 0.61195
#
# Static dielectric constant tensor:
#      x y z
#    x 1.642720 0.000000 0.000000 
#    y 0.000000 1.645570 0.000000 
#    z 0.000000 0.000000 1.628920 
# 
# From -- ./inp_files/6713.got.cif
#   From: 2010.05.17/outbox.cif.g08.bks.cpg/sg53_4_cif.got.tgz:6713.got - 2010.06.03 12:45:16.
