data_PCOD9419274
_publ_section_title
;
Structure prediction by ZEFSAII (Michael W. Deem and Ramdas Pophale) SiO2 
 PCOD9419274
Probable space group: P M N A
;
_chemical_formula_sum "Si O2"
_cell_formula_units_Z 40
_cell_length_a 18.265725
_cell_length_b 10.602935
_cell_length_c 9.138984
_cell_angle_alpha 90.000000
_cell_angle_beta 90.000000
_cell_angle_gamma 90.000000
_cell_volume 1769.949726
_symmetry_space_group_name_H-M "P M N A"
_symmetry_group_IT_number 53
_symmetry_cell_setting 'orthorhombic'
loop_
_space_group_symop_operation_xyz
x,y,z
1/2-x,-y,1/2+z
x,-y,-z
1/2-x,y,1/2-z
-x,-y,-z
1/2+x,y,1/2-z
-x,y,z
1/2+x,-y,1/2+z
loop_
_atom_site_type_symbol
_atom_site_label
_atom_site_fract_x
_atom_site_fract_y
_atom_site_fract_z
Si Si1 0.832467 0.820210 0.790618
Si Si2 0.183106 0.694999 0.081489
Si Si3 0.157774 0.394350 0.625199
Si Si4 0.412526 0.071717 0.697957
Si Si5 0.080687 0.816262 0.499544
O O1 0.750000 0.860129 0.750000
O O2 0.868903 0.790090 0.636876
O O3 0.880042 0.937743 0.849715
O O4 0.830966 0.706707 0.907903
O O5 0.270947 0.695367 0.099120
O O6 0.160551 0.584887 0.198190
O O7 0.138621 0.816412 0.138788
O O8 0.164882 0.500000 0.500000
O O9 0.085941 0.314083 0.591255
O O10 0.500000 0.085413 0.668060
O O11 0.402326 0.081131 0.874667
O O12 0.000000 0.840745 0.556515
#
# Coordination Sequence:
#
# PCOD9419274 Si02
#       5
#     8   8   8   8   8
#     4  12  23  34  62  98 139 176 216 265 325 396
#     4  10  23  40  64  94 127 167 221 276 331 392
#     4  10  22  43  67  89 119 167 224 286 340 394
#     4  10  23  41  63  95 139 185 218 260 321 399
#     4  10  22  41  63  92 133 175 219 263 326 399
#
# _framework density 22.599511
#
# number of rings (size 3 to 8) (size 9 to 14) (size 15 to 20)
#    0.000    1.600    2.000    1.800    5.600    9.200 
#    0.000    0.000    0.000    1.800    0.000    0.000 
#    0.000    0.000    0.000    0.000    0.000    0.000 
#
# Total GULP energy -222799.259492 kJ/mol
# GULP energy per Si atom -5569.981487 kJ/mol
# Density = 2.254807 g / cm^3
# Si number density = 22.599511 Si / 1000 Ang^3
#
#
#
# Elastic Constant Matrix: (Units=GPa)
#
#
# Indices 1 2 3 4 5 6 
#
# 1 73.0697 35.9739 43.2273 0.0000 0.0000 0.0000
# 2 35.9739 77.6261 41.0566 0.0000 0.0000 0.0000
# 3 43.2273 41.0566 129.0018 0.0000 0.0000 0.0000
# 4 0.0000 0.0000 0.0000 52.5594 0.0000 0.0000
# 5 0.0000 0.0000 0.0000 0.0000 31.7572 0.0000
# 6 0.0000 0.0000 0.0000 0.0000 0.0000 2.6970
#
#
#
# Elastic Compliance Matrix: (Units=1/GPa)
#
#
# Indices 1 2 3 4 5 6 
#
# 1 0.019631 -0.006755 -0.004428 0.000000 0.000000 0.000000
# 2 -0.006755 0.017814 -0.003406 0.000000 0.000000 0.000000
# 3 -0.004428 -0.003406 0.010320 0.000000 0.000000 0.000000
# 4 0.000000 0.000000 0.000000 0.019026 0.000000 0.000000
# 5 0.000000 0.000000 0.000000 0.000000 0.031489 0.000000
# 6 0.000000 0.000000 0.000000 0.000000 0.000000 0.370783
#
#
# Mechanical properties :
#
#
# Convention : Reuss Voigt Hill
#
# Bulk Modulus (GPa) = 53.80429 57.80147 55.80288
# Shear Modulus (GPa) = 9.91202 28.03204 18.97203
#
# Velocity S-wave (km/s) = 2.09654 3.52573 2.90054
# Velocity P-wave (km/s) = 5.45161 6.49664 5.99693
#
# Compressibility (1/GPa) = 0.01858588
#
# Stress axis : x y z
#
# Youngs Moduli (GPa) = 50.93959 56.13449 96.90231
#
# Poissons Ratio (x) = 0.37922 0.42910
# Poissons Ratio (y) = 0.34412 0.33005
# Poissons Ratio (z) = 0.22557 0.19119
#
# Static dielectric constant tensor:
#      x y z
#    x 1.783880 0.000000 0.000000 
#    y 0.000000 1.883460 0.000000 
#    z 0.000000 0.000000 1.960750 
# 
# From -- ./inp_files/9643.got.cif
#   From: 2010.05.17/outbox.cif.g08.bks.cpg/sg53_5_cif.got.tgz:9643.got - 2010.06.03 12:45:16.
