data_PCOD9419286
_publ_section_title
;
Structure prediction by ZEFSAII (Michael W. Deem and Ramdas Pophale) SiO2 
 PCOD9419286
Probable space group: P M N A
;
_chemical_formula_sum "Si O2"
_cell_formula_units_Z 32
_cell_length_a 17.919886
_cell_length_b 11.325441
_cell_length_c 7.441729
_cell_angle_alpha 90.000000
_cell_angle_beta 90.000000
_cell_angle_gamma 90.000000
_cell_volume 1510.303452
_symmetry_space_group_name_H-M "P M N A"
_symmetry_group_IT_number 53
_symmetry_cell_setting 'orthorhombic'
loop_
_space_group_symop_operation_xyz
x,y,z
1/2-x,-y,1/2+z
x,-y,-z
1/2-x,y,1/2-z
-x,-y,-z
1/2+x,y,1/2-z
-x,y,z
1/2+x,-y,1/2+z
loop_
_atom_site_type_symbol
_atom_site_label
_atom_site_fract_x
_atom_site_fract_y
_atom_site_fract_z
Si Si1 0.345445 0.259397 0.371868
Si Si2 0.808396 0.366611 0.472009
Si Si3 0.084462 0.975075 0.785881
Si Si4 0.913072 0.239975 0.745912
O O1 0.352881 0.356306 0.216140
O O2 0.262897 0.281016 0.450589
O O3 0.360388 0.134857 0.271971
O O4 0.399689 0.263003 0.542318
O O5 0.782247 0.500000 0.500000
O O6 0.860386 0.323329 0.631383
O O7 0.000000 0.943919 0.726030
O O8 0.106108 0.101885 0.705648
O O9 0.080506 0.000000 0.000000
O O10 0.000000 0.255516 0.704054
#
# Coordination Sequence:
#
# PCOD9419286 Si02
#       4
#     8   8   8   8
#     4  10  22  41  65  92 124 172 208 263 326 372
#     4  11  26  42  62  91 132 173 223 264 303 378
#     4   8  16  37  65  95 128 157 199 258 322 388
#     4  10  22  42  69  98 130 166 206 264 327 384
#
# _framework density 21.187794
#
# number of rings (size 3 to 8) (size 9 to 14) (size 15 to 20)
#    0.000    2.250    0.000    3.000    7.000    3.500 
#   27.000    3.750    0.000    0.000    0.000    0.000 
#    0.000    0.000    0.000    0.000    0.000    0.000 
#
# Total GULP energy -178598.342159 kJ/mol
# GULP energy per Si atom -5581.198192 kJ/mol
# Density = 2.113957 g / cm^3
# Si number density = 21.187794 Si / 1000 Ang^3
#
#
#
# Elastic Constant Matrix: (Units=GPa)
#
#
# Indices 1 2 3 4 5 6 
#
# 1 58.0082 54.3217 -1.5241 0.0000 0.0000 0.0000
# 2 54.3217 84.9611 1.2358 0.0000 0.0000 0.0000
# 3 -1.5241 1.2358 46.3522 0.0000 0.0000 0.0000
# 4 0.0000 0.0000 0.0000 28.2766 0.0000 0.0000
# 5 0.0000 0.0000 0.0000 0.0000 5.0001 0.0000
# 6 0.0000 0.0000 0.0000 0.0000 0.0000 30.2753
#
#
#
# Elastic Compliance Matrix: (Units=1/GPa)
#
#
# Indices 1 2 3 4 5 6 
#
# 1 0.043176 -0.027637 0.002157 0.000000 0.000000 0.000000
# 2 -0.027637 0.029465 -0.001694 0.000000 0.000000 0.000000
# 3 0.002157 -0.001694 0.021690 0.000000 0.000000 0.000000
# 4 0.000000 0.000000 0.000000 0.035365 0.000000 0.000000
# 5 0.000000 0.000000 0.000000 0.000000 0.199998 0.000000
# 6 0.000000 0.000000 0.000000 0.000000 0.000000 0.033030
#
#
# Mechanical properties :
#
#
# Convention : Reuss Voigt Hill
#
# Bulk Modulus (GPa) = 25.01145 33.04316 29.02730
# Shear Modulus (GPa) = 11.61706 21.72959 16.67332
#
# Velocity S-wave (km/s) = 2.34410 3.20593 2.80827
# Velocity P-wave (km/s) = 4.37683 5.41601 4.92392
#
# Compressibility (1/GPa) = 0.03998170
#
# Stress axis : x y z
#
# Youngs Moduli (GPa) = 23.16083 33.93843 46.10414
#
# Poissons Ratio (x) = 0.93796 -0.09943
# Poissons Ratio (y) = 0.64010 0.07812
# Poissons Ratio (z) = -0.04995 0.05750
#
# Static dielectric constant tensor:
#      x y z
#    x 1.739550 0.000000 0.000000 
#    y 0.000000 1.784730 0.000000 
#    z 0.000000 0.000000 1.817980 
# 
# From -- ./inp_files/8020.got.cif
#   From: 2010.05.17/outbox.cif.g08.bks.cpg/sg53_5_cif.got.tgz:8020.got - 2010.06.03 12:45:16.
