data_PCOD9419050
_publ_section_title
;
Structure prediction by ZEFSAII (Michael W. Deem and Ramdas Pophale) SiO2 
 PCOD9419050
Probable space group: P M N A
;
_chemical_formula_sum "Si O2"
_cell_formula_units_Z 44
_cell_length_a 17.906933
_cell_length_b 4.989656
_cell_length_c 27.815433
_cell_angle_alpha 90.000000
_cell_angle_beta 90.000000
_cell_angle_gamma 90.000000
_cell_volume 2485.293242
_symmetry_space_group_name_H-M "P M N A"
_symmetry_group_IT_number 53
_symmetry_cell_setting 'orthorhombic'
loop_
_space_group_symop_operation_xyz
x,y,z
1/2-x,-y,1/2+z
x,-y,-z
1/2-x,y,1/2-z
-x,-y,-z
1/2+x,y,1/2-z
-x,y,z
1/2+x,-y,1/2+z
loop_
_atom_site_type_symbol
_atom_site_label
_atom_site_fract_x
_atom_site_fract_y
_atom_site_fract_z
Si Si1 0.209501 0.746285 0.135326
Si Si2 0.352192 0.242036 0.533297
Si Si3 0.585705 0.055953 0.236828
Si Si4 0.380481 0.243843 0.343181
Si Si5 0.681664 0.543045 0.212345
Si Si6 0.500000 0.995487 0.582396
O O1 0.202874 0.715128 0.078237
O O2 0.142352 0.553296 0.154400
O O3 0.281882 0.643703 0.162877
O O4 0.191356 0.051959 0.149315
O O5 0.359971 0.500000 0.500000
O O6 0.433377 0.159093 0.553914
O O7 0.325503 0.000000 0.500000
O O8 0.500000 0.032896 0.221274
O O9 0.587182 0.162613 0.291745
O O10 0.633728 0.274888 0.208089
O O11 0.628569 0.775654 0.232950
O O12 0.435589 0.166355 0.386077
O O13 0.750000 0.498687 0.250000
#
# Coordination Sequence:
#
# PCOD9419050 Si02
#       6
#     8   8   8   8   8   4
#     4  11  23  36  56  79 103 146 196 236 278 326
#     4  11  23  39  54  77 111 149 198 247 289 330
#     4  12  23  37  55  85 122 151 191 237 289 340
#     4  11  20  34  51  79 109 147 194 233 261 328
#     4  12  22  38  60  82 114 153 200 237 285 353
#     4  10  22  34  54  76 112 156 194 232 280 322
#
# _framework density 17.704149999999998
#
# number of rings (size 3 to 8) (size 9 to 14) (size 15 to 20)
#    0.000    0.727    4.545    4.909    0.000    5.818 
#    0.000    0.000    0.000    0.000    0.000    0.000 
#    0.000   14.545    0.000    0.000    0.000    0.000 
#
# Total GULP energy -244938.545903 kJ/mol
# GULP energy per Si atom -5566.785134 kJ/mol
# Density = 1.766385 g / cm^3
# Si number density = 17.704150 Si / 1000 Ang^3
#
#
#
# Elastic Constant Matrix: (Units=GPa)
#
#
# Indices 1 2 3 4 5 6 
#
# 1 83.4124 13.0121 27.4671 0.0000 0.0000 0.0000
# 2 13.0121 60.7511 8.1782 0.0000 0.0000 0.0000
# 3 27.4671 8.1782 85.7789 0.0000 0.0000 0.0000
# 4 0.0000 0.0000 0.0000 30.6612 0.0000 0.0000
# 5 0.0000 0.0000 0.0000 0.0000 12.3851 0.0000
# 6 0.0000 0.0000 0.0000 0.0000 0.0000 5.7300
#
#
#
# Elastic Compliance Matrix: (Units=1/GPa)
#
#
# Indices 1 2 3 4 5 6 
#
# 1 0.013733 -0.002380 -0.004171 0.000000 0.000000 0.000000
# 2 -0.002380 0.017087 -0.000867 0.000000 0.000000 0.000000
# 3 -0.004171 -0.000867 0.013076 0.000000 0.000000 0.000000
# 4 0.000000 0.000000 0.000000 0.032615 0.000000 0.000000
# 5 0.000000 0.000000 0.000000 0.000000 0.080742 0.000000
# 6 0.000000 0.000000 0.000000 0.000000 0.000000 0.174521
#
#
# Mechanical properties :
#
#
# Convention : Reuss Voigt Hill
#
# Bulk Modulus (GPa) = 34.41027 36.36193 35.38610
# Shear Modulus (GPa) = 14.03327 21.84092 17.93710
#
# Velocity S-wave (km/s) = 2.81847 3.51616 3.18647
# Velocity P-wave (km/s) = 5.48362 6.08833 5.79387
#
# Compressibility (1/GPa) = 0.02906109
#
# Stress axis : x y z
#
# Youngs Moduli (GPa) = 72.81604 58.52375 76.47606
#
# Poissons Ratio (x) = 0.13929 0.31895
# Poissons Ratio (y) = 0.17330 0.06630
# Poissons Ratio (z) = 0.30369 0.05074
#
# Static dielectric constant tensor:
#      x y z
#    x 1.595820 0.000000 0.000000 
#    y 0.000000 1.659450 0.000000 
#    z 0.000000 0.000000 1.650410 
# 
# From -- ./inp_files/36947.got.cif
#   From: 2010.05.17/outbox.cif.g08.bks.cpg/sg53_19_cif.got.tgz:36947.got - 2010.06.03 12:45:16.
