data_PCOD9419421
_publ_section_title
;
Structure prediction by ZEFSAII (Michael W. Deem and Ramdas Pophale) SiO2 
 PCOD9419421
Probable space group: P M N A
;
_chemical_formula_sum "Si O2"
_cell_formula_units_Z 40
_cell_length_a 14.258523
_cell_length_b 10.020735
_cell_length_c 11.374515
_cell_angle_alpha 90.000000
_cell_angle_beta 90.000000
_cell_angle_gamma 90.000000
_cell_volume 1625.200718
_symmetry_space_group_name_H-M "P M N A"
_symmetry_group_IT_number 53
_symmetry_cell_setting 'orthorhombic'
loop_
_space_group_symop_operation_xyz
x,y,z
1/2-x,-y,1/2+z
x,-y,-z
1/2-x,y,1/2-z
-x,-y,-z
1/2+x,y,1/2-z
-x,y,z
1/2+x,-y,1/2+z
loop_
_atom_site_type_symbol
_atom_site_label
_atom_site_fract_x
_atom_site_fract_y
_atom_site_fract_z
Si Si1 0.849807 0.417668 0.313319
Si Si2 0.603848 0.836108 0.674644
Si Si3 0.241796 0.745228 0.492312
Si Si4 0.893330 0.083991 0.665924
Si Si5 0.101499 0.662636 0.175516
O O1 0.750000 0.423214 0.250000
O O2 0.902811 0.305994 0.238443
O O3 0.828740 0.353720 0.439341
O O4 0.892297 0.561658 0.285789
O O5 0.500000 0.872654 0.627629
O O6 0.684950 0.819409 0.578793
O O7 0.629360 0.942654 0.775579
O O8 0.181326 0.854935 0.423404
O O9 0.309415 0.655708 0.409430
O O10 0.894672 0.189224 0.772959
O O11 0.000000 0.080000 0.617987
O O12 0.000000 0.640508 0.116483
#
# Coordination Sequence:
#
# PCOD9419421 Si02
#       5
#     8   8   8   8   8
#     4  10  23  40  63  99 137 175 224 278 335 406
#     4  10  23  44  68 101 138 176 229 288 342 407
#     4  11  24  44  74 102 135 188 234 280 345 413
#     4  10  24  43  66 100 141 180 227 284 343 408
#     4  11  24  43  67 100 139 179 227 286 343 406
#
# _framework density 24.612342999999999
#
# number of rings (size 3 to 8) (size 9 to 14) (size 15 to 20)
#    0.000    1.600    0.000    3.000    0.000   16.800 
#    0.000   12.000    0.000    3.600    0.000    0.000 
#    0.000    0.000    0.000    0.000    0.000    0.000 
#
# Total GULP energy -223885.668873 kJ/mol
# GULP energy per Si atom -5597.141722 kJ/mol
# Density = 2.455632 g / cm^3
# Si number density = 24.612343 Si / 1000 Ang^3
#
#
#
# Elastic Constant Matrix: (Units=GPa)
#
#
# Indices 1 2 3 4 5 6 
#
# 1 165.5177 23.8857 64.6918 0.0000 0.0000 0.0000
# 2 23.8857 90.5312 14.1175 0.0000 0.0000 0.0000
# 3 64.6918 14.1175 89.3300 0.0000 0.0000 0.0000
# 4 0.0000 0.0000 0.0000 37.9836 0.0000 0.0000
# 5 0.0000 0.0000 0.0000 0.0000 -111.8902 0.0000
# 6 0.0000 0.0000 0.0000 0.0000 0.0000 14.4630
#
#
#
# Elastic Compliance Matrix: (Units=1/GPa)
#
#
# Indices 1 2 3 4 5 6 
#
# 1 0.008580 -0.001327 -0.006004 0.000000 0.000000 0.000000
# 2 -0.001327 0.011530 -0.000861 0.000000 0.000000 0.000000
# 3 -0.006004 -0.000861 0.015678 0.000000 0.000000 0.000000
# 4 0.000000 0.000000 0.000000 0.026327 0.000000 0.000000
# 5 0.000000 0.000000 0.000000 0.000000 -0.008937 0.000000
# 6 0.000000 0.000000 0.000000 0.000000 0.000000 0.069142
#
#
# Mechanical properties :
#
#
# Convention : Reuss Voigt Hill
#
# Bulk Modulus (GPa) = 51.53448 61.19656 56.36552
# Shear Modulus (GPa) = 34.44189 4.29020 19.36604
#
# Velocity S-wave (km/s) = 3.74488 1.32170 2.80811
# Velocity P-wave (km/s) = 6.29943 5.21990 5.78490
#
# Compressibility (1/GPa) = 0.01940448
#
# Stress axis : x y z
#
# Youngs Moduli (GPa) = 116.55485 86.72729 63.78294
#
# Poissons Ratio (x) = 0.11513 0.38292
# Poissons Ratio (y) = 0.15472 0.05491
# Poissons Ratio (z) = 0.69974 0.07466
#
# Static dielectric constant tensor:
#      x y z
#    x 2.083000 0.000000 0.000000 
#    y 0.000000 1.913630 0.000000 
#    z 0.000000 0.000000 1.980210 
# 
# From -- ./inp_files/16676.got.cif
#   From: 2010.05.17/outbox.cif.g08.bks.cpg/sg53_9_cif.got.tgz:16676.got - 2010.06.03 12:45:16.
