data_PCOD9419495
_publ_section_title
;
Structure prediction by ZEFSAII (Michael W. Deem and Ramdas Pophale) SiO2 
 PCOD9419495
Probable space group: P M N A
;
_chemical_formula_sum "Si O2"
_cell_formula_units_Z 24
_cell_length_a 12.155205
_cell_length_b 7.193383
_cell_length_c 9.864884
_cell_angle_alpha 90.000000
_cell_angle_beta 90.000000
_cell_angle_gamma 90.000000
_cell_volume 862.556306
_symmetry_space_group_name_H-M "P M N A"
_symmetry_group_IT_number 53
_symmetry_cell_setting 'orthorhombic'
loop_
_space_group_symop_operation_xyz
x,y,z
1/2-x,-y,1/2+z
x,-y,-z
1/2-x,y,1/2-z
-x,-y,-z
1/2+x,y,1/2-z
-x,y,z
1/2+x,-y,1/2+z
loop_
_atom_site_type_symbol
_atom_site_label
_atom_site_fract_x
_atom_site_fract_y
_atom_site_fract_z
Si Si1 0.158346 0.793096 0.545478
Si Si2 0.617245 0.324637 0.349892
Si Si3 0.875039 0.733414 0.256574
O O1 0.288352 0.770745 0.565627
O O2 0.117218 0.748851 0.695340
O O3 0.121669 0.676448 0.415515
O O4 0.128415 0.000000 0.500000
O O5 0.500000 0.288544 0.412712
O O6 0.634611 0.545124 0.330695
O O7 0.750000 0.827580 0.250000
O O8 0.000000 0.814446 0.229615
#
# Coordination Sequence:
#
# PCOD9419495 Si02
#       3
#     8   8   8
#     4  11  24  42  65 101 138 172 223 281 344 398
#     4  10  23  44  67  95 133 179 230 277 334 405
#     4  11  24  44  71  98 132 179 229 278 331 401
#
# _framework density 27.824272000000001
#
# number of rings (size 3 to 8) (size 9 to 14) (size 15 to 20)
#    0.000    1.333    3.333    2.000    4.667    7.333 
#    0.000    3.333    0.000    0.000    0.000    0.000 
#    0.000    0.000    0.000    0.000    0.000    0.000 
#
# Total GULP energy -134258.288862 kJ/mol
# GULP energy per Si atom -5594.095369 kJ/mol
# Density = 2.776094 g / cm^3
# Si number density = 27.824272 Si / 1000 Ang^3
#
#
#
# Elastic Constant Matrix: (Units=GPa)
#
#
# Indices 1 2 3 4 5 6 
#
# 1 295.1966 16.4933 17.6228 0.0000 0.0000 0.0000
# 2 16.4933 71.9155 22.1131 0.0000 0.0000 0.0000
# 3 17.6228 22.1131 136.4626 0.0000 0.0000 0.0000
# 4 0.0000 0.0000 0.0000 38.8797 0.0000 0.0000
# 5 0.0000 0.0000 0.0000 0.0000 -33.4159 0.0000
# 6 0.0000 0.0000 0.0000 0.0000 0.0000 -33.0831
#
#
#
# Elastic Compliance Matrix: (Units=1/GPa)
#
#
# Indices 1 2 3 4 5 6 
#
# 1 0.003446 -0.000688 -0.000334 0.000000 0.000000 0.000000
# 2 -0.000688 0.014772 -0.002305 0.000000 0.000000 0.000000
# 3 -0.000334 -0.002305 0.007745 0.000000 0.000000 0.000000
# 4 0.000000 0.000000 0.000000 0.025720 0.000000 0.000000
# 5 0.000000 0.000000 0.000000 0.000000 -0.029926 0.000000
# 6 0.000000 0.000000 0.000000 0.000000 0.000000 -0.030227
#
#
# Mechanical properties :
#
#
# Convention : Reuss Voigt Hill
#
# Bulk Modulus (GPa) = 51.78707 68.44812 60.11759
# Shear Modulus (GPa) = 1082.55822 24.29916 553.42869
#
# Velocity S-wave (km/s) = 19.74625 2.95838 14.11854
# Velocity P-wave (km/s) = 23.20643 6.02685 16.95378
#
# Compressibility (1/GPa) = 0.01930984
#
# Stress axis : x y z
#
# Youngs Moduli (GPa) = 290.19906 67.69724 129.12246
#
# Poissons Ratio (x) = 0.04656 0.04307
# Poissons Ratio (y) = 0.19958 0.29761
# Poissons Ratio (z) = 0.09680 0.15603
#
# Static dielectric constant tensor:
#      x y z
#    x 2.231280 0.000000 0.000000 
#    y 0.000000 2.147580 0.000000 
#    z 0.000000 0.000000 2.175090 
# 
# From -- ./inp_files/7702.got.cif
#   From: 2010.05.17/outbox.cif.g08.bks.cpg/sg53_4_cif.got.tgz:7702.got - 2010.06.03 12:45:16.
