data_PCOD9419254
_publ_section_title
;
Structure prediction by ZEFSAII (Michael W. Deem and Ramdas Pophale) SiO2 
 PCOD9419254
Probable space group: P M N A
;
_chemical_formula_sum "Si O2"
_cell_formula_units_Z 28
_cell_length_a 19.762880
_cell_length_b 5.882820
_cell_length_c 10.749498
_cell_angle_alpha 90.000000
_cell_angle_beta 90.000000
_cell_angle_gamma 90.000000
_cell_volume 1249.752393
_symmetry_space_group_name_H-M "P M N A"
_symmetry_group_IT_number 53
_symmetry_cell_setting 'orthorhombic'
loop_
_space_group_symop_operation_xyz
x,y,z
1/2-x,-y,1/2+z
x,-y,-z
1/2-x,y,1/2-z
-x,-y,-z
1/2+x,y,1/2-z
-x,y,z
1/2+x,-y,1/2+z
loop_
_atom_site_type_symbol
_atom_site_label
_atom_site_fract_x
_atom_site_fract_y
_atom_site_fract_z
Si Si1 0.793915 0.880809 0.368315
Si Si2 0.923065 0.850231 0.671311
Si Si3 0.654540 0.500000 0.000000
Si Si4 0.579027 0.252260 0.458805
O O1 0.750000 0.945217 0.250000
O O2 0.796640 0.616651 0.399613
O O3 0.775626 0.000000 0.500000
O O4 0.871161 0.942911 0.335501
O O5 0.893010 0.674507 0.572389
O O6 0.920209 0.749840 0.809698
O O7 0.000000 0.913673 0.644600
O O8 0.608005 0.500000 0.500000
O O9 0.500000 0.251425 0.503305
O O10 0.606483 0.000000 0.500000
#
# Coordination Sequence:
#
# PCOD9419254 Si02
#       4
#     8   8   4   8
#     4  10  24  46  68  95 133 179 233 286 346 422
#     4  10  22  40  67  99 136 175 223 286 351 417
#     4  10  23  40  66 100 133 170 230 282 353 418
#     4   9  19  35  57  91 135 178 220 271 337 411
#
# _framework density 22.404437000000001
#
# number of rings (size 3 to 8) (size 9 to 14) (size 15 to 20)
#    0.000    2.286    0.000    0.429    4.000   12.000 
#    0.000    0.000    0.000    0.000    0.000    0.000 
#    0.000    0.000    0.000    0.000    0.000    0.000 
#
# Total GULP energy -156187.835874 kJ/mol
# GULP energy per Si atom -5578.136996 kJ/mol
# Density = 2.235344 g / cm^3
# Si number density = 22.404437 Si / 1000 Ang^3
#
#
#
# Elastic Constant Matrix: (Units=GPa)
#
#
# Indices 1 2 3 4 5 6 
#
# 1 49.6776 19.3232 43.6871 0.0000 0.0000 0.0000
# 2 19.3232 103.4677 30.0746 0.0000 0.0000 0.0000
# 3 43.6871 30.0746 129.7359 0.0000 0.0000 0.0000
# 4 0.0000 0.0000 0.0000 28.6897 0.0000 0.0000
# 5 0.0000 0.0000 0.0000 0.0000 28.2810 0.0000
# 6 0.0000 0.0000 0.0000 0.0000 0.0000 9.1156
#
#
#
# Elastic Compliance Matrix: (Units=1/GPa)
#
#
# Indices 1 2 3 4 5 6 
#
# 1 0.029334 -0.002795 -0.009230 0.000000 0.000000 0.000000
# 2 -0.002795 0.010630 -0.001523 0.000000 0.000000 0.000000
# 3 -0.009230 -0.001523 0.011169 0.000000 0.000000 0.000000
# 4 0.000000 0.000000 0.000000 0.034856 0.000000 0.000000
# 5 0.000000 0.000000 0.000000 0.000000 0.035359 0.000000
# 6 0.000000 0.000000 0.000000 0.000000 0.000000 0.109702
#
#
# Mechanical properties :
#
#
# Convention : Reuss Voigt Hill
#
# Bulk Modulus (GPa) = 41.60352 52.11676 46.86014
# Shear Modulus (GPa) = 18.78586 25.87036 22.32811
#
# Velocity S-wave (km/s) = 2.89881 3.40177 3.16031
# Velocity P-wave (km/s) = 5.46020 6.22428 5.85472
#
# Compressibility (1/GPa) = 0.02403643
#
# Stress axis : x y z
#
# Youngs Moduli (GPa) = 34.09005 94.07754 89.53338
#
# Poissons Ratio (x) = 0.26299 0.82638
# Poissons Ratio (y) = 0.09530 0.13633
# Poissons Ratio (z) = 0.31465 0.14325
#
# Static dielectric constant tensor:
#      x y z
#    x 1.824400 0.000000 0.000000 
#    y 0.000000 1.907400 0.000000 
#    z 0.000000 0.000000 1.819810 
# 
# From -- ./inp_files/17291.got.cif
#   From: 2010.05.17/outbox.cif.g08.bks.cpg/sg53_9_cif.got.tgz:17291.got - 2010.06.03 12:45:16.
