data_PCOD9419287
_publ_section_title
;
Structure prediction by ZEFSAII (Michael W. Deem and Ramdas Pophale) SiO2 
 PCOD9419287
Probable space group: P M N A
;
_chemical_formula_sum "Si O2"
_cell_formula_units_Z 48
_cell_length_a 9.823883
_cell_length_b 14.587186
_cell_length_c 15.970962
_cell_angle_alpha 90.000000
_cell_angle_beta 90.000000
_cell_angle_gamma 90.000000
_cell_volume 2288.683710
_symmetry_space_group_name_H-M "P M N A"
_symmetry_group_IT_number 53
_symmetry_cell_setting 'orthorhombic'
loop_
_space_group_symop_operation_xyz
x,y,z
1/2-x,-y,1/2+z
x,-y,-z
1/2-x,y,1/2-z
-x,-y,-z
1/2+x,y,1/2-z
-x,y,z
1/2+x,-y,1/2+z
loop_
_atom_site_type_symbol
_atom_site_label
_atom_site_fract_x
_atom_site_fract_y
_atom_site_fract_z
Si Si1 0.848847 0.141082 0.889916
Si Si2 0.656087 0.554343 0.666259
Si Si3 0.283335 0.654215 0.348853
Si Si4 0.647162 0.856808 0.967973
Si Si5 0.848787 0.355892 0.470948
Si Si6 0.153681 0.004522 0.315809
O O1 0.852062 0.249040 0.870479
O O2 0.737159 0.087450 0.835957
O O3 0.000000 0.103244 0.883280
O O4 0.783526 0.128910 0.980594
O O5 0.750000 0.569238 0.750000
O O6 0.500000 0.588908 0.676049
O O7 0.647288 0.444984 0.651167
O O8 0.734533 0.595051 0.585213
O O9 0.250000 0.665290 0.250000
O O10 0.178445 0.644913 0.428256
O O11 0.500000 0.868253 0.015188
O O12 0.649743 0.750495 0.942578
O O13 0.645907 0.930719 0.895761
O O14 0.000000 0.394834 0.455096
O O15 0.250000 0.055257 0.250000
O O16 0.000000 0.986170 0.287752
#
# Coordination Sequence:
#
# PCOD9419287 Si02
#       6
#     8   8   8   8   8   8
#     4  11  22  37  60  89 120 155 198 245 294 354
#     4  11  24  42  64  90 123 162 205 255 309 367
#     4  10  23  40  62  90 126 165 204 249 302 362
#     4   9  21  41  61  83 116 157 197 241 297 357
#     4  10  22  41  65  93 124 162 207 254 308 367
#     4  11  23  39  59  84 116 153 194 243 298 356
#
# _framework density 20.972752
#
# number of rings (size 3 to 8) (size 9 to 14) (size 15 to 20)
#    0.000    1.667    0.000    3.500    0.000   13.333 
#    0.000    1.667    0.000    0.000    0.000    0.000 
#    0.000    0.000    0.000    0.000    0.000    0.000 
#
# Total GULP energy -267335.966463 kJ/mol
# GULP energy per Si atom -5569.499301 kJ/mol
# Density = 2.092502 g / cm^3
# Si number density = 20.972752 Si / 1000 Ang^3
#
#
#
# Elastic Constant Matrix: (Units=GPa)
#
#
# Indices 1 2 3 4 5 6 
#
# 1 201.3853 46.8404 79.2210 0.0000 0.0000 0.0000
# 2 46.8404 66.3346 37.7343 0.0000 0.0000 0.0000
# 3 79.2210 37.7343 106.4136 0.0000 0.0000 0.0000
# 4 0.0000 0.0000 0.0000 -1.0878 0.0000 0.0000
# 5 0.0000 0.0000 0.0000 0.0000 -33.9219 0.0000
# 6 0.0000 0.0000 0.0000 0.0000 0.0000 26.4664
#
#
#
# Elastic Compliance Matrix: (Units=1/GPa)
#
#
# Indices 1 2 3 4 5 6 
#
# 1 0.007365 -0.002608 -0.004559 0.000000 0.000000 0.000000
# 2 -0.002608 0.019808 -0.005082 0.000000 0.000000 0.000000
# 3 -0.004559 -0.005082 0.014593 0.000000 0.000000 0.000000
# 4 0.000000 0.000000 0.000000 -0.919258 0.000000 0.000000
# 5 0.000000 0.000000 0.000000 0.000000 -0.029480 0.000000
# 6 0.000000 0.000000 0.000000 0.000000 0.000000 0.037784
#
#
# Mechanical properties :
#
#
# Convention : Reuss Voigt Hill
#
# Bulk Modulus (GPa) = 57.90804 77.96946 67.93875
# Shear Modulus (GPa) = -5.95995 12.31385 3.17695
#
# Velocity S-wave (km/s) = -1.68758 2.42572 1.23211
# Velocity P-wave (km/s) = 4.88608 6.71586 5.87267
#
# Compressibility (1/GPa) = 0.01726876
#
# Stress axis : x y z
#
# Youngs Moduli (GPa) = 135.77014 50.48563 68.52511
#
# Poissons Ratio (x) = 0.13165 0.31238
# Poissons Ratio (y) = 0.35406 0.34827
# Poissons Ratio (z) = 0.61891 0.25659
#
# Static dielectric constant tensor:
#      x y z
#    x 1.818810 0.000000 0.000000 
#    y 0.000000 1.741760 0.000000 
#    z 0.000000 0.000000 2.708410 
# 
# From -- ./inp_files/20221.got.cif
#   From: 2010.05.17/outbox.cif.g08.bks.cpg/sg53_11_cif.got.tgz:20221.got - 2010.06.03 12:45:16.
