data_PCOD9419984
_publ_section_title
;
Structure prediction by ZEFSAII (Michael W. Deem and Ramdas Pophale) SiO2 
 PCOD9419984
Probable space group: P M N A
;
_chemical_formula_sum "Si O2"
_cell_formula_units_Z 32
_cell_length_a 20.152848
_cell_length_b 7.566315
_cell_length_c 8.545146
_cell_angle_alpha 90.000000
_cell_angle_beta 90.000000
_cell_angle_gamma 90.000000
_cell_volume 1302.987755
_symmetry_space_group_name_H-M "P M N A"
_symmetry_group_IT_number 53
_symmetry_cell_setting 'orthorhombic'
loop_
_space_group_symop_operation_xyz
x,y,z
1/2-x,-y,1/2+z
x,-y,-z
1/2-x,y,1/2-z
-x,-y,-z
1/2+x,y,1/2-z
-x,y,z
1/2+x,-y,1/2+z
loop_
_atom_site_type_symbol
_atom_site_label
_atom_site_fract_x
_atom_site_fract_y
_atom_site_fract_z
Si Si1 0.929025 0.174057 0.722358
Si Si2 0.570936 0.238092 0.147852
Si Si3 0.207031 0.840177 0.605647
Si Si4 0.804326 0.364561 0.875883
O O1 0.932245 0.233280 0.541013
O O2 0.863825 0.256007 0.797888
O O3 0.000000 0.226823 0.796439
O O4 0.928361 0.960356 0.719166
O O5 0.500000 0.321414 0.198853
O O6 0.648134 0.288164 0.169021
O O7 0.250000 0.909625 0.750000
O O8 0.257527 0.750422 0.488249
O O9 0.178390 0.000000 0.500000
O O10 0.750000 0.433927 0.750000
O O11 0.834898 0.500000 0.000000
#
# Coordination Sequence:
#
# PCOD9419984 Si02
#       4
#     8   8   8   8
#     4   9  17  34  62  91 120 162 209 266 325 371
#     4   9  16  32  62  93 121 157 209 266 320 378
#     4  12  22  36  61  92 121 159 212 264 320 374
#     4  12  24  41  59  87 130 171 210 260 318 388
#
# _framework density 24.558941999999998
#
# number of rings (size 3 to 8) (size 9 to 14) (size 15 to 20)
#    0.000    1.500    5.000    4.500    0.000    0.500 
#    0.000    1.250    0.000   10.500    0.000    0.000 
#    0.000    0.000    0.000    0.000    0.000    0.000 
#
# Total GULP energy -178522.421210 kJ/mol
# GULP energy per Si atom -5578.825663 kJ/mol
# Density = 2.450304 g / cm^3
# Si number density = 24.558942 Si / 1000 Ang^3
#
#
#
# Elastic Constant Matrix: (Units=GPa)
#
#
# Indices 1 2 3 4 5 6 
#
# 1 258.5517 38.9755 58.9998 0.0000 0.0000 0.0000
# 2 38.9755 32.8390 31.0558 0.0000 0.0000 0.0000
# 3 58.9998 31.0558 93.6482 0.0000 0.0000 0.0000
# 4 0.0000 0.0000 0.0000 23.7670 0.0000 0.0000
# 5 0.0000 0.0000 0.0000 0.0000 6.9331 0.0000
# 6 0.0000 0.0000 0.0000 0.0000 0.0000 13.7056
#
#
#
# Elastic Compliance Matrix: (Units=1/GPa)
#
#
# Indices 1 2 3 4 5 6 
#
# 1 0.004886 -0.004207 -0.001683 0.000000 0.000000 0.000000
# 2 -0.004207 0.047988 -0.013263 0.000000 0.000000 0.000000
# 3 -0.001683 -0.013263 0.016137 0.000000 0.000000 0.000000
# 4 0.000000 0.000000 0.000000 0.042075 0.000000 0.000000
# 5 0.000000 0.000000 0.000000 0.000000 0.144236 0.000000
# 6 0.000000 0.000000 0.000000 0.000000 0.000000 0.072963
#
#
# Mechanical properties :
#
#
# Convention : Reuss Voigt Hill
#
# Bulk Modulus (GPa) = 32.56909 71.45567 52.01238
# Shear Modulus (GPa) = 13.26869 25.94832 19.60851
#
# Velocity S-wave (km/s) = 2.32691 3.25402 2.82871
# Velocity P-wave (km/s) = 4.52877 6.57852 5.64742
#
# Compressibility (1/GPa) = 0.03070396
#
# Stress axis : x y z
#
# Youngs Moduli (GPa) = 204.66662 20.83843 61.96962
#
# Poissons Ratio (x) = 0.08768 0.10429
# Poissons Ratio (y) = 0.86112 0.82192
# Poissons Ratio (z) = 0.34445 0.27638
#
# Static dielectric constant tensor:
#      x y z
#    x 2.043330 0.000000 0.000000 
#    y 0.000000 2.078840 0.000000 
#    z 0.000000 0.000000 1.911620 
# 
# From -- ./inp_files/10467.got.cif
#   From: 2010.05.17/outbox.cif.g08.bks.cpg/sg53_6_cif.got.tgz:10467.got - 2010.06.03 12:45:16.
