data_PCOD9419218
_publ_section_title
;
Structure prediction by ZEFSAII (Michael W. Deem and Ramdas Pophale) SiO2 
 PCOD9419218
Probable space group: P M N A
;
_chemical_formula_sum "Si O2"
_cell_formula_units_Z 28
_cell_length_a 23.894891
_cell_length_b 12.138356
_cell_length_c 5.068783
_cell_angle_alpha 90.000000
_cell_angle_beta 90.000000
_cell_angle_gamma 90.000000
_cell_volume 1470.173612
_symmetry_space_group_name_H-M "P M N A"
_symmetry_group_IT_number 53
_symmetry_cell_setting 'orthorhombic'
loop_
_space_group_symop_operation_xyz
x,y,z
1/2-x,-y,1/2+z
x,-y,-z
1/2-x,y,1/2-z
-x,-y,-z
1/2+x,y,1/2-z
-x,y,z
1/2+x,-y,1/2+z
loop_
_atom_site_type_symbol
_atom_site_label
_atom_site_fract_x
_atom_site_fract_y
_atom_site_fract_z
Si Si1 0.816523 0.923526 0.246228
Si Si2 0.625652 0.300005 0.557537
Si Si3 0.435114 0.372291 0.041781
Si Si4 0.211153 0.500000 0.000000
O O1 0.750000 0.899782 0.250000
O O2 0.847545 0.810490 0.176211
O O3 0.830213 0.000000 0.500000
O O4 0.828464 0.000000 0.000000
O O5 0.602456 0.309435 0.258799
O O6 0.671875 0.396807 0.573398
O O7 0.574405 0.323522 0.753199
O O8 0.500000 0.370101 0.121590
O O9 0.417890 0.500000 0.000000
O O10 0.250000 0.472184 0.250000
#
# Coordination Sequence:
#
# PCOD9419218 Si02
#       4
#     8   8   8   4
#     4  10  22  40  62  88 118 164 213 247 293 367
#     4  12  22  40  62  89 125 160 199 255 311 364
#     4  11  22  39  62  90 122 159 207 251 304 376
#     4  12  24  36  55  92 131 158 190 244 322 382
#
# _framework density 19.045370999999999
#
# number of rings (size 3 to 8) (size 9 to 14) (size 15 to 20)
#    0.000    0.857    2.857    5.143    0.000    5.714 
#    0.000    0.000    0.000   17.143    0.000    0.000 
#    0.000    0.000    0.000    0.000    0.000    0.000 
#
# Total GULP energy -156203.386474 kJ/mol
# GULP energy per Si atom -5578.692374 kJ/mol
# Density = 1.900202 g / cm^3
# Si number density = 19.045371 Si / 1000 Ang^3
#
#
#
# Elastic Constant Matrix: (Units=GPa)
#
#
# Indices 1 2 3 4 5 6 
#
# 1 59.8193 42.8377 31.7456 0.0000 0.0000 0.0000
# 2 42.8377 118.2321 34.1791 0.0000 0.0000 0.0000
# 3 31.7456 34.1791 133.1986 0.0000 0.0000 0.0000
# 4 0.0000 0.0000 0.0000 40.5406 0.0000 0.0000
# 5 0.0000 0.0000 0.0000 0.0000 47.0414 0.0000
# 6 0.0000 0.0000 0.0000 0.0000 0.0000 5.5837
#
#
#
# Elastic Compliance Matrix: (Units=1/GPa)
#
#
# Indices 1 2 3 4 5 6 
#
# 1 0.024237 -0.007682 -0.003805 0.000000 0.000000 0.000000
# 2 -0.007682 0.011570 -0.001138 0.000000 0.000000 0.000000
# 3 -0.003805 -0.001138 0.008707 0.000000 0.000000 0.000000
# 4 0.000000 0.000000 0.000000 0.024667 0.000000 0.000000
# 5 0.000000 0.000000 0.000000 0.000000 0.021258 0.000000
# 6 0.000000 0.000000 0.000000 0.000000 0.000000 0.179092
#
#
# Mechanical properties :
#
#
# Convention : Reuss Voigt Hill
#
# Bulk Modulus (GPa) = 51.91084 58.75274 55.33179
# Shear Modulus (GPa) = 16.60015 32.13231 24.36623
#
# Velocity S-wave (km/s) = 2.95551 4.11194 3.58072
# Velocity P-wave (km/s) = 6.24198 7.31163 6.79787
#
# Compressibility (1/GPa) = 0.01926380
#
# Stress axis : x y z
#
# Youngs Moduli (GPa) = 41.25847 86.42941 114.85527
#
# Poissons Ratio (x) = 0.66391 0.43708
# Poissons Ratio (y) = 0.31693 0.13072
# Poissons Ratio (z) = 0.15701 0.09837
#
# Static dielectric constant tensor:
#      x y z
#    x 1.585510 0.000000 0.000000 
#    y 0.000000 1.575010 0.000000 
#    z 0.000000 0.000000 1.646410 
# 
# From -- ./inp_files/2552.got.cif
#   From: 2010.05.17/outbox.cif.g08.bks.cpg/sg53_2_cif.got.tgz:2552.got - 2010.06.03 12:45:16.
