data_PCOD9419727
_publ_section_title
;
Structure prediction by ZEFSAII (Michael W. Deem and Ramdas Pophale) SiO2 
 PCOD9419727
Probable space group: P M N A
;
_chemical_formula_sum "Si O2"
_cell_formula_units_Z 56
_cell_length_a 8.777351
_cell_length_b 23.429283
_cell_length_c 14.593545
_cell_angle_alpha 90.000000
_cell_angle_beta 90.000000
_cell_angle_gamma 90.000000
_cell_volume 3001.119341
_symmetry_space_group_name_H-M "P M N A"
_symmetry_group_IT_number 53
_symmetry_cell_setting 'orthorhombic'
loop_
_space_group_symop_operation_xyz
x,y,z
1/2-x,-y,1/2+z
x,-y,-z
1/2-x,y,1/2-z
-x,-y,-z
1/2+x,y,1/2-z
-x,y,z
1/2+x,-y,1/2+z
loop_
_atom_site_type_symbol
_atom_site_label
_atom_site_fract_x
_atom_site_fract_y
_atom_site_fract_z
Si Si1 0.325816 0.480224 0.605489
Si Si2 0.816359 0.195028 0.352785
Si Si3 0.183238 0.032364 0.852234
Si Si4 0.818876 0.403093 0.340570
Si Si5 0.315244 0.696303 0.971280
Si Si6 0.182814 0.357950 0.651430
Si Si7 0.315903 0.085894 0.456137
O O1 0.327583 0.500000 0.500000
O O2 0.500000 0.474930 0.638177
O O3 0.242845 0.533239 0.652071
O O4 0.241876 0.420691 0.621983
O O5 0.750000 0.194989 0.250000
O O6 0.763558 0.250483 0.410866
O O7 0.761610 0.139974 0.409411
O O8 0.000000 0.195600 0.346827
O O9 0.250000 0.041157 0.750000
O O10 0.000000 0.035597 0.844744
O O11 0.221009 0.969725 0.893847
O O12 0.228705 0.074046 0.937303
O O13 0.750000 0.375583 0.250000
O O14 0.769872 0.363164 0.423871
O O15 0.000000 0.404253 0.336397
O O16 0.500000 0.698451 0.970155
O O17 0.267906 0.688948 0.076261
O O18 0.250000 0.344918 0.750000
O O19 0.000000 0.359859 0.654252
O O20 0.500000 0.091906 0.454627
#
# Coordination Sequence:
#
# PCOD9419727 Si02
#       7
#     8   8   8   8   8   8   8
#     4  11  22  36  55  82 110 137 174 220 269 328
#     4  11  22  38  59  85 113 147 186 230 278 330
#     4   9  18  33  55  82 118 155 193 235 281 329
#     4  11  21  36  56  79 106 140 174 214 268 324
#     4   9  21  39  58  78 107 142 180 223 271 322
#     4  11  22  40  61  81 106 141 182 224 274 331
#     4   9  19  36  55  82 117 155 192 234 280 331
#
# _framework density 18.659704000000001
#
# number of rings (size 3 to 8) (size 9 to 14) (size 15 to 20)
#    0.000    1.857    1.429    3.857    0.000    2.857 
#    0.000    7.143    0.000    3.429    0.000    0.000 
#    0.000    0.000    0.000    0.000    0.000    0.000 
#
# Total GULP energy -312431.901933 kJ/mol
# GULP energy per Si atom -5579.141106 kJ/mol
# Density = 1.861723 g / cm^3
# Si number density = 18.659704 Si / 1000 Ang^3
#
#
#
# Elastic Constant Matrix: (Units=GPa)
#
#
# Indices 1 2 3 4 5 6 
#
# 1 60.8949 33.3178 48.3290 0.0000 0.0000 0.0000
# 2 33.3178 109.0561 79.1572 0.0000 0.0000 0.0000
# 3 48.3290 79.1572 191.0152 0.0000 0.0000 0.0000
# 4 0.0000 0.0000 0.0000 26.5332 0.0000 0.0000
# 5 0.0000 0.0000 0.0000 0.0000 29.2772 0.0000
# 6 0.0000 0.0000 0.0000 0.0000 0.0000 7.1449
#
#
#
# Elastic Compliance Matrix: (Units=1/GPa)
#
#
# Indices 1 2 3 4 5 6 
#
# 1 0.021575 -0.003760 -0.003900 0.000000 0.000000 0.000000
# 2 -0.003760 0.013770 -0.004755 0.000000 0.000000 0.000000
# 3 -0.003900 -0.004755 0.008192 0.000000 0.000000 0.000000
# 4 0.000000 0.000000 0.000000 0.037689 0.000000 0.000000
# 5 0.000000 0.000000 0.000000 0.000000 0.034156 0.000000
# 6 0.000000 0.000000 0.000000 0.000000 0.000000 0.139961
#
#
# Mechanical properties :
#
#
# Convention : Reuss Voigt Hill
#
# Bulk Modulus (GPa) = 53.45919 75.84159 64.65039
# Shear Modulus (GPa) = 17.45761 25.93520 21.69640
#
# Velocity S-wave (km/s) = 3.06204 3.73219 3.41360
# Velocity P-wave (km/s) = 6.41975 7.70098 7.08937
#
# Compressibility (1/GPa) = 0.01870586
#
# Stress axis : x y z
#
# Youngs Moduli (GPa) = 46.35074 72.62382 122.06417
#
# Poissons Ratio (x) = 0.27308 0.47610
# Poissons Ratio (y) = 0.17429 0.58039
# Poissons Ratio (z) = 0.18079 0.34531
#
# Static dielectric constant tensor:
#      x y z
#    x 1.633390 0.000000 0.000000 
#    y 0.000000 1.623190 0.000000 
#    z 0.000000 0.000000 1.693990 
# 
# From -- ./inp_files/20495.got.cif
#   From: 2010.05.17/outbox.cif.g08.bks.cpg/sg53_11_cif.got.tgz:20495.got - 2010.06.03 12:45:16.
