data_PCOD9419288
_publ_section_title
;
Structure prediction by ZEFSAII (Michael W. Deem and Ramdas Pophale) SiO2 
 PCOD9419288
Probable space group: P M N A
;
_chemical_formula_sum "Si O2"
_cell_formula_units_Z 56
_cell_length_a 7.280410
_cell_length_b 22.272435
_cell_length_c 12.615231
_cell_angle_alpha 90.000000
_cell_angle_beta 90.000000
_cell_angle_gamma 90.000000
_cell_volume 2045.590721
_symmetry_space_group_name_H-M "P M N A"
_symmetry_group_IT_number 53
_symmetry_cell_setting 'orthorhombic'
loop_
_space_group_symop_operation_xyz
x,y,z
1/2-x,-y,1/2+z
x,-y,-z
1/2-x,y,1/2-z
-x,-y,-z
1/2+x,y,1/2-z
-x,y,z
1/2+x,-y,1/2+z
loop_
_atom_site_type_symbol
_atom_site_label
_atom_site_fract_x
_atom_site_fract_y
_atom_site_fract_z
Si Si1 0.720123 0.667405 0.622714
Si Si2 0.219583 0.598421 0.123173
Si Si3 0.219722 0.533718 0.876647
Si Si4 0.281906 0.271368 0.626362
Si Si5 0.222885 0.138902 0.929992
Si Si6 0.718731 0.987739 0.372935
Si Si7 0.782410 0.198374 0.127332
O O1 0.750000 0.668904 0.750000
O O2 0.500000 0.666781 0.605634
O O3 0.787206 0.600344 0.591611
O O4 0.787267 0.735083 0.592560
O O5 0.250000 0.598093 0.250000
O O6 0.286784 0.532563 0.087443
O O7 0.285704 0.663945 0.082980
O O8 0.000000 0.598659 0.107634
O O9 0.250000 0.532729 0.750000
O O10 0.000000 0.533782 0.893966
O O11 0.250000 0.278614 0.750000
O O12 0.500000 0.269529 0.604741
O O13 0.212348 0.204491 0.605442
O O14 0.287146 0.081382 0.867743
O O15 0.000000 0.136929 0.921936
O O16 0.276334 0.142949 0.054312
O O17 0.750000 0.012925 0.250000
O O18 0.500000 0.993955 0.381577
O O19 0.777910 0.000000 0.500000
O O20 0.750000 0.188932 0.250000
O O21 0.000000 0.202455 0.113642
#
# Coordination Sequence:
#
# PCOD9419288 Si02
#       7
#     8   8   8   8   8   8   8
#     4   8  13  21  35  54  78 112 154 201 254 312
#     4   8  13  20  32  52  78 108 145 191 242 298
#     4   8  12  18  29  48  74 104 143 192 245 301
#     4   9  16  27  44  65  90 122 159 199 247 304
#     4   9  18  33  53  76 105 141 176 214 266 327
#     4  10  22  41  65  94 128 165 205 248 295 350
#     4   9  17  30  47  68  96 131 173 220 271 327
#
# _framework density 27.375955000000001
#
# number of rings (size 3 to 8) (size 9 to 14) (size 15 to 20)
#    0.000    3.286    0.000    0.429    0.000    0.857 
#    0.000    1.429    0.000    0.857    0.000    6.000 
#    0.000    0.000    0.000   86.429    0.000   28.857 
#
# Total GULP energy -312081.972334 kJ/mol
# GULP energy per Si atom -5572.892363 kJ/mol
# Density = 2.731365 g / cm^3
# Si number density = 27.375955 Si / 1000 Ang^3
#
#
#
# Elastic Constant Matrix: (Units=GPa)
#
#
# Indices 1 2 3 4 5 6 
#
# 1 122.6105 -4.4450 4.9070 0.0000 0.0000 0.0000
# 2 -4.4450 67.9814 50.6588 0.0000 0.0000 0.0000
# 3 4.9070 50.6588 140.7152 0.0000 0.0000 0.0000
# 4 0.0000 0.0000 0.0000 55.5581 0.0000 0.0000
# 5 0.0000 0.0000 0.0000 0.0000 -17.7096 0.0000
# 6 0.0000 0.0000 0.0000 0.0000 0.0000 -3.2281
#
#
#
# Elastic Compliance Matrix: (Units=1/GPa)
#
#
# Indices 1 2 3 4 5 6 
#
# 1 0.008219 0.001026 -0.000656 0.000000 0.000000 0.000000
# 2 0.001026 0.020231 -0.007319 0.000000 0.000000 0.000000
# 3 -0.000656 -0.007319 0.009764 0.000000 0.000000 0.000000
# 4 0.000000 0.000000 0.000000 0.017999 0.000000 0.000000
# 5 0.000000 0.000000 0.000000 0.000000 -0.056467 0.000000
# 6 0.000000 0.000000 0.000000 0.000000 0.000000 -0.309776
#
#
# Mechanical properties :
#
#
# Convention : Reuss Voigt Hill
#
# Bulk Modulus (GPa) = 41.12341 48.17208 44.64775
# Shear Modulus (GPa) = -17.35961 25.60317 4.12178
#
# Velocity S-wave (km/s) = -2.52090 3.06149 1.22837
# Velocity P-wave (km/s) = 2.56536 5.48923 4.28443
#
# Compressibility (1/GPa) = 0.02431705
#
# Stress axis : x y z
#
# Youngs Moduli (GPa) = 121.66372 49.42863 102.41265
#
# Poissons Ratio (x) = -0.05073 0.06720
# Poissons Ratio (y) = -0.12487 0.74958
# Poissons Ratio (z) = 0.07983 0.36178
#
# Static dielectric constant tensor:
#      x y z
#    x 1.965530 0.000000 0.000000 
#    y 0.000000 2.136270 0.000000 
#    z 0.000000 0.000000 0.471680 
# 
# From -- ./inp_files/14994.got.cif
#   From: 2010.05.17/outbox.cif.g08.bks.cpg/sg53_8_cif.got.tgz:14994.got - 2010.06.03 12:45:16.
