data_PCOD9419918
_publ_section_title
;
Structure prediction by ZEFSAII (Michael W. Deem and Ramdas Pophale) SiO2 
 PCOD9419918
Probable space group: P M N A
;
_chemical_formula_sum "Si O2"
_cell_formula_units_Z 48
_cell_length_a 8.788429
_cell_length_b 15.511569
_cell_length_c 17.911893
_cell_angle_alpha 90.000000
_cell_angle_beta 90.000000
_cell_angle_gamma 90.000000
_cell_volume 2441.790860
_symmetry_space_group_name_H-M "P M N A"
_symmetry_group_IT_number 53
_symmetry_cell_setting 'orthorhombic'
loop_
_space_group_symop_operation_xyz
x,y,z
1/2-x,-y,1/2+z
x,-y,-z
1/2-x,y,1/2-z
-x,-y,-z
1/2+x,y,1/2-z
-x,y,z
1/2+x,-y,1/2+z
loop_
_atom_site_type_symbol
_atom_site_label
_atom_site_fract_x
_atom_site_fract_y
_atom_site_fract_z
Si Si1 0.682469 0.852950 0.668203
Si Si2 0.182311 0.318543 0.075588
Si Si3 0.682271 0.477041 0.167530
Si Si4 0.681806 0.341894 0.911202
Si Si5 0.318961 0.018766 0.912931
Si Si6 0.681250 0.179094 0.669136
O O1 0.750000 0.836015 0.750000
O O2 0.500000 0.860932 0.672973
O O3 0.718973 0.773198 0.613532
O O4 0.752800 0.940240 0.635290
O O5 0.244943 0.394378 0.127956
O O6 0.000000 0.324981 0.069258
O O7 0.256166 0.328242 0.994397
O O8 0.750000 0.487443 0.250000
O O9 0.500000 0.466749 0.171759
O O10 0.715094 0.562384 0.118927
O O11 0.500000 0.329906 0.910318
O O12 0.758284 0.271337 0.858025
O O13 0.500000 0.025862 0.900843
O O14 0.239405 0.106719 0.887946
O O15 0.291531 0.000000 0.000000
O O16 0.750000 0.158695 0.750000
O O17 0.500000 0.179141 0.672591
#
# Coordination Sequence:
#
# PCOD9419918 Si02
#       6
#     8   8   8   8   8   8
#     4  11  24  41  62  90 123 160 203 251 303 360
#     4  11  24  41  64  93 125 163 206 254 308 366
#     4  11  24  41  63  91 124 163 206 255 308 364
#     4  11  24  42  64  92 126 163 206 255 308 366
#     4  11  24  42  65  92 123 161 203 250 305 364
#     4  12  25  42  65  92 125 163 205 254 307 365
#
# _framework density 19.657703000000001
#
# number of rings (size 3 to 8) (size 9 to 14) (size 15 to 20)
#    0.000    0.833    0.000    7.000    0.000   14.000 
#    0.000    0.000    0.000    0.000    0.000    0.000 
#    0.000    0.000    0.000    0.000    0.000    0.000 
#
# Total GULP energy -268798.563671 kJ/mol
# GULP energy per Si atom -5599.970076 kJ/mol
# Density = 1.961296 g / cm^3
# Si number density = 19.657703 Si / 1000 Ang^3
#
#
#
# Elastic Constant Matrix: (Units=GPa)
#
#
# Indices 1 2 3 4 5 6 
#
# 1 56.8105 13.5236 7.6539 0.0000 0.0000 0.0000
# 2 13.5236 52.5270 -32.0261 0.0000 0.0000 0.0000
# 3 7.6539 -32.0261 44.9628 0.0000 0.0000 0.0000
# 4 0.0000 0.0000 0.0000 141.7797 0.0000 0.0000
# 5 0.0000 0.0000 0.0000 0.0000 87.2914 0.0000
# 6 0.0000 0.0000 0.0000 0.0000 0.0000 40.8385
#
#
#
# Elastic Compliance Matrix: (Units=1/GPa)
#
#
# Indices 1 2 3 4 5 6 
#
# 1 0.023046 -0.014717 -0.014406 0.000000 0.000000 0.000000
# 2 -0.014717 0.043050 0.033169 0.000000 0.000000 0.000000
# 3 -0.014406 0.033169 0.048318 0.000000 0.000000 0.000000
# 4 0.000000 0.000000 0.000000 0.007053 0.000000 0.000000
# 5 0.000000 0.000000 0.000000 0.000000 0.011456 0.000000
# 6 0.000000 0.000000 0.000000 0.000000 0.000000 0.024487
#
#
# Mechanical properties :
#
#
# Convention : Reuss Voigt Hill
#
# Bulk Modulus (GPa) = 8.16272 14.73368 11.44820
# Shear Modulus (GPa) = 26.29456 64.99185 45.64320
#
# Velocity S-wave (km/s) = 3.66132 5.75617 4.82384
# Velocity P-wave (km/s) = 4.69416 7.18954 6.07143
#
# Compressibility (1/GPa) = 0.12250819
#
# Stress axis : x y z
#
# Youngs Moduli (GPa) = 43.39063 23.22874 20.69609
#
# Poissons Ratio (x) = 0.34185 0.29814
# Poissons Ratio (y) = 0.63857 -0.68647
# Poissons Ratio (z) = 0.62507 -0.77047
#
# Static dielectric constant tensor:
#      x y z
#    x 1.654600 0.000000 0.000000 
#    y 0.000000 1.656770 0.000000 
#    z 0.000000 0.000000 1.661420 
# 
# From -- ./inp_files/26147.got.cif
#   From: 2010.05.17/outbox.cif.g08.bks.cpg/sg53_14_cif.got.tgz:26147.got - 2010.06.03 12:45:16.
