data_PCOD9419470
_publ_section_title
;
Structure prediction by ZEFSAII (Michael W. Deem and Ramdas Pophale) SiO2 
 PCOD9419470
Probable space group: P M N A
;
_chemical_formula_sum "Si O2"
_cell_formula_units_Z 40
_cell_length_a 19.162536
_cell_length_b 5.588560
_cell_length_c 16.964078
_cell_angle_alpha 90.000000
_cell_angle_beta 90.000000
_cell_angle_gamma 90.000000
_cell_volume 1816.699775
_symmetry_space_group_name_H-M "P M N A"
_symmetry_group_IT_number 53
_symmetry_cell_setting 'orthorhombic'
loop_
_space_group_symop_operation_xyz
x,y,z
1/2-x,-y,1/2+z
x,-y,-z
1/2-x,y,1/2-z
-x,-y,-z
1/2+x,y,1/2-z
-x,y,z
1/2+x,-y,1/2+z
loop_
_atom_site_type_symbol
_atom_site_label
_atom_site_fract_x
_atom_site_fract_y
_atom_site_fract_z
Si Si1 0.420504 0.592078 0.146424
Si Si2 0.576283 0.077568 0.697321
Si Si3 0.142283 0.741264 0.046485
Si Si4 0.819232 0.783255 0.719804
Si Si5 0.704884 0.147927 0.920037
O O1 0.500000 0.550520 0.120492
O O2 0.423053 0.764985 0.223098
O O3 0.378855 0.360838 0.174976
O O4 0.367278 0.708040 0.084813
O O5 0.500000 0.961565 0.691336
O O6 0.592272 0.234269 0.621426
O O7 0.639809 0.894850 0.706636
O O8 0.222599 0.709187 0.075575
O O9 0.124108 0.500000 0.000000
O O10 0.138489 0.000000 0.000000
O O11 0.750000 0.648231 0.750000
O O12 0.793285 0.983685 0.658232
O O13 0.702970 0.000000 0.000000
#
# Coordination Sequence:
#
# PCOD9419470 Si02
#       5
#     8   8   8   8   8
#     4  10  24  40  64  95 128 174 224 283 347 412
#     4  10  23  43  64  96 136 174 221 282 342 407
#     4  11  26  43  68 102 137 181 233 279 338 408
#     4  11  22  39  68  97 127 175 228 279 342 408
#     4  10  24  41  63  94 132 174 225 287 339 407
#
# _framework density 22.017948000000001
#
# number of rings (size 3 to 8) (size 9 to 14) (size 15 to 20)
#    0.000    1.600    2.000    0.600   11.200    2.000 
#    0.000    1.000    0.000    0.000    0.000    0.000 
#    0.000    0.000    0.000    0.000    0.000    0.000 
#
# Total GULP energy -223377.561975 kJ/mol
# GULP energy per Si atom -5584.439049 kJ/mol
# Density = 2.196783 g / cm^3
# Si number density = 22.017948 Si / 1000 Ang^3
#
#
#
# Elastic Constant Matrix: (Units=GPa)
#
#
# Indices 1 2 3 4 5 6 
#
# 1 123.5948 10.6985 22.9366 0.0000 0.0000 0.0000
# 2 10.6985 41.7430 -0.3540 0.0000 0.0000 0.0000
# 3 22.9366 -0.3540 56.6091 0.0000 0.0000 0.0000
# 4 0.0000 0.0000 0.0000 22.7861 0.0000 0.0000
# 5 0.0000 0.0000 0.0000 0.0000 -31.5561 0.0000
# 6 0.0000 0.0000 0.0000 0.0000 0.0000 20.6349
#
#
#
# Elastic Compliance Matrix: (Units=1/GPa)
#
#
# Indices 1 2 3 4 5 6 
#
# 1 0.008970 -0.002330 -0.003649 0.000000 0.000000 0.000000
# 2 -0.002330 0.024563 0.001098 0.000000 0.000000 0.000000
# 3 -0.003649 0.001098 0.019150 0.000000 0.000000 0.000000
# 4 0.000000 0.000000 0.000000 0.043886 0.000000 0.000000
# 5 0.000000 0.000000 0.000000 0.000000 -0.031690 0.000000
# 6 0.000000 0.000000 0.000000 0.000000 0.000000 0.048462
#
#
# Mechanical properties :
#
#
# Convention : Reuss Voigt Hill
#
# Bulk Modulus (GPa) = 23.29898 32.05658 27.67778
# Shear Modulus (GPa) = 36.38735 14.95067 25.66901
#
# Velocity S-wave (km/s) = 4.06966 2.60863 3.41812
# Velocity P-wave (km/s) = 5.71731 4.86458 5.30810
#
# Compressibility (1/GPa) = 0.04292034
#
# Stress axis : x y z
#
# Youngs Moduli (GPa) = 111.48532 40.71237 52.21843
#
# Poissons Ratio (x) = 0.09485 0.19054
# Poissons Ratio (y) = 0.25974 -0.05731
# Poissons Ratio (z) = 0.40680 -0.04469
#
# Static dielectric constant tensor:
#      x y z
#    x 1.797090 0.000000 0.000000 
#    y 0.000000 1.918310 0.000000 
#    z 0.000000 0.000000 1.853740 
# 
# From -- ./inp_files/28731.got.cif
#   From: 2010.05.17/outbox.cif.g08.bks.cpg/sg53_15_cif.got.tgz:28731.got - 2010.06.03 12:45:16.
