data_PCOD9419815
_publ_section_title
;
Structure prediction by ZEFSAII (Michael W. Deem and Ramdas Pophale) SiO2 
 PCOD9419815
Probable space group: P M N A
;
_chemical_formula_sum "Si O2"
_cell_formula_units_Z 64
_cell_length_a 15.913560
_cell_length_b 8.579160
_cell_length_c 22.550119
_cell_angle_alpha 90.000000
_cell_angle_beta 90.000000
_cell_angle_gamma 90.000000
_cell_volume 3078.654487
_symmetry_space_group_name_H-M "P M N A"
_symmetry_group_IT_number 53
_symmetry_cell_setting 'orthorhombic'
loop_
_space_group_symop_operation_xyz
x,y,z
1/2-x,-y,1/2+z
x,-y,-z
1/2-x,y,1/2-z
-x,-y,-z
1/2+x,y,1/2-z
-x,y,z
1/2+x,-y,1/2+z
loop_
_atom_site_type_symbol
_atom_site_label
_atom_site_fract_x
_atom_site_fract_y
_atom_site_fract_z
Si Si1 0.181652 0.833330 0.982324
Si Si2 0.096998 0.921911 0.861925
Si Si3 0.266437 0.442958 0.650675
Si Si4 0.658741 0.304120 0.262431
Si Si5 0.592156 0.384965 0.556524
Si Si6 0.164434 0.379334 0.448899
Si Si7 0.760096 0.905632 0.320363
Si Si8 0.404042 0.841235 0.854262
O O1 0.130558 0.841437 0.921533
O O2 0.256034 0.708919 0.978418
O O3 0.114579 0.783853 0.031383
O O4 0.217723 0.000000 0.000000
O O5 0.106935 0.794293 0.809946
O O6 0.000000 0.972926 0.865857
O O7 0.169190 0.047374 0.847135
O O8 0.309818 0.536774 0.705372
O O9 0.342319 0.423523 0.605712
O O10 0.200037 0.534562 0.609732
O O11 0.226652 0.276408 0.665650
O O12 0.750000 0.228528 0.250000
O O13 0.611829 0.282843 0.199842
O O14 0.598276 0.500000 0.500000
O O15 0.500000 0.395602 0.581279
O O16 0.132640 0.500000 0.500000
O O17 0.107987 0.245894 0.417574
O O18 0.750000 0.912683 0.250000
O O19 0.833216 0.022508 0.344851
O O20 0.500000 0.899337 0.849082
#
# Coordination Sequence:
#
# PCOD9419815 Si02
#       8
#     8   8   8   8   8   8   8   8
#     4  12  22  38  64  98 135 183 227 278 338 412
#     4  12  23  39  66 100 139 182 228 275 338 428
#     4  12  23  40  70  99 140 184 223 283 345 420
#     4  12  20  43  71  99 130 180 231 276 351 416
#     4  11  22  38  59  96 143 182 220 269 334 419
#     4  12  24  45  71 103 131 181 242 286 355 419
#     4  12  25  43  67 103 138 182 230 287 347 418
#     4  12  26  48  74  98 137 186 237 301 359 412
#
# _framework density 20.788302000000002
#
# number of rings (size 3 to 8) (size 9 to 14) (size 15 to 20)
#    0.000    0.125    8.750    1.875    0.000    4.750 
#    0.000    0.625    0.000    2.625    0.000    0.000 
#    0.000    0.000    0.000    0.000    0.000    0.000 
#
# Total GULP energy -357088.130800 kJ/mol
# GULP energy per Si atom -5579.502044 kJ/mol
# Density = 2.074099 g / cm^3
# Si number density = 20.788302 Si / 1000 Ang^3
#
#
#
# Elastic Constant Matrix: (Units=GPa)
#
#
# Indices 1 2 3 4 5 6 
#
# 1 86.7110 13.7295 27.4237 0.0000 0.0000 0.0000
# 2 13.7295 105.2207 24.6521 0.0000 0.0000 0.0000
# 3 27.4237 24.6521 72.2764 0.0000 0.0000 0.0000
# 4 0.0000 0.0000 0.0000 27.6666 0.0000 0.0000
# 5 0.0000 0.0000 0.0000 0.0000 5.9657 0.0000
# 6 0.0000 0.0000 0.0000 0.0000 0.0000 2.5159
#
#
#
# Elastic Compliance Matrix: (Units=1/GPa)
#
#
# Indices 1 2 3 4 5 6 
#
# 1 0.013139 -0.000594 -0.004783 0.000000 0.000000 0.000000
# 2 -0.000594 0.010356 -0.003307 0.000000 0.000000 0.000000
# 3 -0.004783 -0.003307 0.016778 0.000000 0.000000 0.000000
# 4 0.000000 0.000000 0.000000 0.036145 0.000000 0.000000
# 5 0.000000 0.000000 0.000000 0.000000 0.167625 0.000000
# 6 0.000000 0.000000 0.000000 0.000000 0.000000 0.397466
#
#
# Mechanical properties :
#
#
# Convention : Reuss Voigt Hill
#
# Bulk Modulus (GPa) = 43.65573 43.97985 43.81779
# Shear Modulus (GPa) = 7.50174 20.45651 13.97913
#
# Velocity S-wave (km/s) = 1.90170 3.14034 2.59598
# Velocity P-wave (km/s) = 5.08603 5.86097 5.48720
#
# Compressibility (1/GPa) = 0.02290650
#
# Stress axis : x y z
#
# Youngs Moduli (GPa) = 76.10790 96.56144 59.60026
#
# Poissons Ratio (x) = 0.05735 0.28506
# Poissons Ratio (y) = 0.04520 0.19709
# Poissons Ratio (z) = 0.36401 0.31932
#
# Static dielectric constant tensor:
#      x y z
#    x 1.787000 0.000000 0.000000 
#    y 0.000000 1.883860 0.000000 
#    z 0.000000 0.000000 1.781570 
# 
# From -- ./inp_files/35323.got.cif
#   From: 2010.05.17/outbox.cif.g08.bks.cpg/sg53_18_cif.got.tgz:35323.got - 2010.06.03 12:45:16.
