data_PCOD9419264
_publ_section_title
;
Structure prediction by ZEFSAII (Michael W. Deem and Ramdas Pophale) SiO2 
 PCOD9419264
Probable space group: P M N A
;
_chemical_formula_sum "Si O2"
_cell_formula_units_Z 32
_cell_length_a 14.069841
_cell_length_b 9.469545
_cell_length_c 10.302249
_cell_angle_alpha 90.000000
_cell_angle_beta 90.000000
_cell_angle_gamma 90.000000
_cell_volume 1372.620068
_symmetry_space_group_name_H-M "P M N A"
_symmetry_group_IT_number 53
_symmetry_cell_setting 'orthorhombic'
loop_
_space_group_symop_operation_xyz
x,y,z
1/2-x,-y,1/2+z
x,-y,-z
1/2-x,y,1/2-z
-x,-y,-z
1/2+x,y,1/2-z
-x,y,z
1/2+x,-y,1/2+z
loop_
_atom_site_type_symbol
_atom_site_label
_atom_site_fract_x
_atom_site_fract_y
_atom_site_fract_z
Si Si1 0.605808 0.947040 0.671586
Si Si2 0.357738 0.763427 0.211836
Si Si3 0.600883 0.454383 0.149224
Si Si4 0.196507 0.814398 0.582699
O O1 0.500000 0.902204 0.629085
O O2 0.631454 0.900614 0.817979
O O3 0.696625 0.880390 0.593185
O O4 0.603737 0.116570 0.692050
O O5 0.250000 0.752499 0.250000
O O6 0.393678 0.603075 0.223152
O O7 0.351403 0.809186 0.059524
O O8 0.500000 0.384015 0.185992
O O9 0.686519 0.343579 0.141706
O O10 0.594546 0.500000 0.000000
#
# Coordination Sequence:
#
# PCOD9419264 Si02
#       4
#     8   8   8   8
#     4  11  23  39  64  91 122 168 211 250 308 378
#     4  11  22  38  63  90 129 163 204 258 312 367
#     4   9  19  37  63  91 118 157 208 260 308 363
#     4  10  22  41  62  91 127 162 204 261 316 361
#
# _framework density 23.313079999999999
#
# number of rings (size 3 to 8) (size 9 to 14) (size 15 to 20)
#    0.000    1.750    2.500    2.250    3.500    4.000 
#    0.000    3.750    0.000    6.750    0.000    0.000 
#    0.000    0.000    0.000    0.000    0.000    0.000 
#
# Total GULP energy -178142.647263 kJ/mol
# GULP energy per Si atom -5566.957727 kJ/mol
# Density = 2.326002 g / cm^3
# Si number density = 23.313080 Si / 1000 Ang^3
#
#
#
# Elastic Constant Matrix: (Units=GPa)
#
#
# Indices 1 2 3 4 5 6 
#
# 1 162.5064 56.9503 6.3709 0.0000 0.0000 0.0000
# 2 56.9503 164.6547 14.8768 0.0000 0.0000 0.0000
# 3 6.3709 14.8768 65.0372 0.0000 0.0000 0.0000
# 4 0.0000 0.0000 0.0000 21.4690 0.0000 0.0000
# 5 0.0000 0.0000 0.0000 0.0000 -2.3683 0.0000
# 6 0.0000 0.0000 0.0000 0.0000 0.0000 24.2791
#
#
#
# Elastic Compliance Matrix: (Units=1/GPa)
#
#
# Indices 1 2 3 4 5 6 
#
# 1 0.007004 -0.002410 -0.000135 0.000000 0.000000 0.000000
# 2 -0.002410 0.007031 -0.001372 0.000000 0.000000 0.000000
# 3 -0.000135 -0.001372 0.015703 0.000000 0.000000 0.000000
# 4 0.000000 0.000000 0.000000 0.046579 0.000000 0.000000
# 5 0.000000 0.000000 0.000000 0.000000 -0.422244 0.000000
# 6 0.000000 0.000000 0.000000 0.000000 0.000000 0.041188
#
#
# Mechanical properties :
#
#
# Convention : Reuss Voigt Hill
#
# Bulk Modulus (GPa) = 45.65554 60.95493 53.30523
# Shear Modulus (GPa) = -17.26487 29.60932 6.17222
#
# Velocity S-wave (km/s) = -2.72429 3.56767 1.62889
# Velocity P-wave (km/s) = 3.11938 6.57070 5.14318
#
# Compressibility (1/GPa) = 0.02190315
#
# Stress axis : x y z
#
# Youngs Moduli (GPa) = 142.78507 142.22885 63.68252
#
# Poissons Ratio (x) = 0.34280 0.00858
# Poissons Ratio (y) = 0.34414 0.08738
# Poissons Ratio (z) = 0.01924 0.19516
#
# Static dielectric constant tensor:
#      x y z
#    x 2.041330 0.000000 0.000000 
#    y 0.000000 2.030600 0.000000 
#    z 0.000000 0.000000 1.974580 
# 
# From -- ./inp_files/15399.got.cif
#   From: 2010.05.17/outbox.cif.g08.bks.cpg/sg53_8_cif.got.tgz:15399.got - 2010.06.03 12:45:16.
