data_PCOD9419572
_publ_section_title
;
Structure prediction by ZEFSAII (Michael W. Deem and Ramdas Pophale) SiO2 
 PCOD9419572
Probable space group: P M N A
;
_chemical_formula_sum "Si O2"
_cell_formula_units_Z 22
_cell_length_a 32.168406
_cell_length_b 5.058492
_cell_length_c 5.390218
_cell_angle_alpha 90.000000
_cell_angle_beta 90.000000
_cell_angle_gamma 90.000000
_cell_volume 877.115809
_symmetry_space_group_name_H-M "P M N A"
_symmetry_group_IT_number 53
_symmetry_cell_setting 'orthorhombic'
loop_
_space_group_symop_operation_xyz
x,y,z
1/2-x,-y,1/2+z
x,-y,-z
1/2-x,y,1/2-z
-x,-y,-z
1/2+x,y,1/2-z
-x,y,z
1/2+x,-y,1/2+z
loop_
_atom_site_type_symbol
_atom_site_label
_atom_site_fract_x
_atom_site_fract_y
_atom_site_fract_z
Si Si1 0.431749 0.260548 0.676100
Si Si2 0.640139 0.500000 0.000000
Si Si3 0.500000 0.500000 0.000000
Si Si4 0.703624 0.763797 0.662603
O O1 0.446746 0.500000 0.500000
O O2 0.463781 0.289128 0.902542
O O3 0.430781 0.000000 0.500000
O O4 0.388138 0.352093 0.795721
O O5 0.671068 0.706590 0.875690
O O6 0.707530 0.500000 0.500000
O O7 0.750000 0.832436 0.750000
O O8 0.687142 0.000000 0.500000
#
# Coordination Sequence:
#
# PCOD9419572 Si02
#       4
#     8   4   2   8
#     4  11  26  48  75 115 154 201 251 312 386 463
#     4  11  28  49  74 108 156 202 252 323 384 453
#     4  10  24  46  84 112 156 198 254 314 380 462
#     4  12  27  49  75 108 146 201 266 325 386 456
#
# _framework density 25.082208000000001
#
# number of rings (size 3 to 8) (size 9 to 14) (size 15 to 20)
#    0.000    0.727    1.818    3.273    0.000   16.000 
#    0.000    0.000    0.000    2.182    0.000    0.000 
#    0.000    0.000    0.000    0.000    0.000    0.000 
#
# Total GULP energy -122800.706804 kJ/mol
# GULP energy per Si atom -5581.850309 kJ/mol
# Density = 2.502512 g / cm^3
# Si number density = 25.082208 Si / 1000 Ang^3
#
#
#
# Elastic Constant Matrix: (Units=GPa)
#
#
# Indices 1 2 3 4 5 6 
#
# 1 167.5662 29.3829 33.4655 0.0000 0.0000 0.0000
# 2 29.3829 186.4472 72.7275 0.0000 0.0000 0.0000
# 3 33.4655 72.7275 80.0081 0.0000 0.0000 0.0000
# 4 0.0000 0.0000 0.0000 80.2533 0.0000 0.0000
# 5 0.0000 0.0000 0.0000 0.0000 -111.7738 0.0000
# 6 0.0000 0.0000 0.0000 0.0000 0.0000 17.6553
#
#
#
# Elastic Compliance Matrix: (Units=1/GPa)
#
#
# Indices 1 2 3 4 5 6 
#
# 1 0.006512 0.000056 -0.002775 0.000000 0.000000 0.000000
# 2 0.000056 0.008310 -0.007578 0.000000 0.000000 0.000000
# 3 -0.002775 -0.007578 0.020548 0.000000 0.000000 0.000000
# 4 0.000000 0.000000 0.000000 0.012461 0.000000 0.000000
# 5 0.000000 0.000000 0.000000 0.000000 -0.008947 0.000000
# 6 0.000000 0.000000 0.000000 0.000000 0.000000 0.056640
#
#
# Mechanical properties :
#
#
# Convention : Reuss Voigt Hill
#
# Bulk Modulus (GPa) = 67.67175 78.35259 73.01217
# Shear Modulus (GPa) = 41.30771 17.12335 29.21553
#
# Velocity S-wave (km/s) = 4.06260 2.61567 3.41661
# Velocity P-wave (km/s) = 7.00320 6.35833 6.68854
#
# Compressibility (1/GPa) = 0.01477721
#
# Stress axis : x y z
#
# Youngs Moduli (GPa) = 153.55947 120.33082 48.66769
#
# Poissons Ratio (x) = -0.00675 0.13505
# Poissons Ratio (y) = -0.00862 0.36879
# Poissons Ratio (z) = 0.42611 0.91183
#
# Static dielectric constant tensor:
#      x y z
#    x 1.963020 0.000000 0.000000 
#    y 0.000000 1.949520 0.000000 
#    z 0.000000 0.000000 2.150320 
# 
# From -- ./inp_files/4803.got.cif
#   From: 2010.05.17/outbox.cif.g08.bks.cpg/sg53_3_cif.got.tgz:4803.got - 2010.06.03 12:45:16.
