data_PCOD9419156
_publ_section_title
;
Structure prediction by ZEFSAII (Michael W. Deem and Ramdas Pophale) SiO2 
 PCOD9419156
Probable space group: P M N A
;
_chemical_formula_sum "Si O2"
_cell_formula_units_Z 32
_cell_length_a 8.657138
_cell_length_b 21.035401
_cell_length_c 9.117445
_cell_angle_alpha 90.000000
_cell_angle_beta 90.000000
_cell_angle_gamma 90.000000
_cell_volume 1660.344807
_symmetry_space_group_name_H-M "P M N A"
_symmetry_group_IT_number 53
_symmetry_cell_setting 'orthorhombic'
loop_
_space_group_symop_operation_xyz
x,y,z
1/2-x,-y,1/2+z
x,-y,-z
1/2-x,y,1/2-z
-x,-y,-z
1/2+x,y,1/2-z
-x,y,z
1/2+x,-y,1/2+z
loop_
_atom_site_type_symbol
_atom_site_label
_atom_site_fract_x
_atom_site_fract_y
_atom_site_fract_z
Si Si1 0.185952 0.808521 0.585436
Si Si2 0.184696 0.313377 0.914469
Si Si3 0.185117 0.565152 0.585805
Si Si4 0.813652 0.063213 0.585876
O O1 0.250000 0.808619 0.750000
O O2 0.252138 0.748568 0.497768
O O3 0.231420 0.873537 0.502772
O O4 0.000000 0.804689 0.588688
O O5 0.250000 0.314681 0.750000
O O6 0.000000 0.311863 0.910675
O O7 0.241731 0.375560 0.000795
O O8 0.220843 0.500000 0.500000
O O9 0.250000 0.562131 0.750000
O O10 0.000000 0.572789 0.590134
O O11 0.750000 0.064472 0.750000
O O12 0.000000 0.061929 0.592715
O O13 0.761676 0.000000 0.500000
#
# Coordination Sequence:
#
# PCOD9419156 Si02
#       4
#     8   8   8   8
#     4  11  23  40  62  89 122 159 202 249 301 359
#     4  12  25  42  64  90 123 160 202 250 301 358
#     4  11  24  42  65  93 125 161 202 248 300 357
#     4  10  22  39  60  88 120 156 199 247 300 358
#
# _framework density 19.273105000000001
#
# number of rings (size 3 to 8) (size 9 to 14) (size 15 to 20)
#    0.000    1.000    0.000    6.750    0.000    8.500 
#    0.000    0.000    0.000    0.000    0.000    0.000 
#    0.000    0.000    0.000    0.000    0.000    0.000 
#
# Total GULP energy -179134.574322 kJ/mol
# GULP energy per Si atom -5597.955448 kJ/mol
# Density = 1.922924 g / cm^3
# Si number density = 19.273105 Si / 1000 Ang^3
#
#
#
# Elastic Constant Matrix: (Units=GPa)
#
#
# Indices 1 2 3 4 5 6 
#
# 1 97.0791 93.9314 80.9453 0.0000 0.0000 0.0000
# 2 93.9314 226.4031 140.7343 0.0000 0.0000 0.0000
# 3 80.9453 140.7343 242.7203 0.0000 0.0000 0.0000
# 4 0.0000 0.0000 0.0000 38.5285 0.0000 0.0000
# 5 0.0000 0.0000 0.0000 0.0000 43.1748 0.0000
# 6 0.0000 0.0000 0.0000 0.0000 0.0000 -36.2281
#
#
#
# Elastic Compliance Matrix: (Units=1/GPa)
#
#
# Indices 1 2 3 4 5 6 
#
# 1 0.018238 -0.005919 -0.002650 0.000000 0.000000 0.000000
# 2 -0.005919 0.008827 -0.003144 0.000000 0.000000 0.000000
# 3 -0.002650 -0.003144 0.006827 0.000000 0.000000 0.000000
# 4 0.000000 0.000000 0.000000 0.025955 0.000000 0.000000
# 5 0.000000 0.000000 0.000000 0.000000 0.023162 0.000000
# 6 0.000000 0.000000 0.000000 0.000000 0.000000 -0.027603
#
#
# Mechanical properties :
#
#
# Convention : Reuss Voigt Hill
#
# Bulk Modulus (GPa) = 95.55815 133.04714 114.30265
# Shear Modulus (GPa) = 60.73800 25.80115 43.26957
#
# Velocity S-wave (km/s) = 5.61986 3.66281 4.74336
# Velocity P-wave (km/s) = 9.58119 9.33117 9.45700
#
# Compressibility (1/GPa) = 0.01046483
#
# Stress axis : x y z
#
# Youngs Moduli (GPa) = 54.83073 113.28649 146.48248
#
# Poissons Ratio (x) = 0.67059 0.38818
# Poissons Ratio (y) = 0.32456 0.46056
# Poissons Ratio (z) = 0.14530 0.35619
#
# Static dielectric constant tensor:
#      x y z
#    x 1.648390 0.000000 0.000000 
#    y 0.000000 1.646420 0.000000 
#    z 0.000000 0.000000 1.617400 
# 
# From -- ./inp_files/6021.got.cif
#   From: 2010.05.17/outbox.cif.g08.bks.cpg/sg53_4_cif.got.tgz:6021.got - 2010.06.03 12:45:16.
