data_PCOD9419587
_publ_section_title
;
Structure prediction by ZEFSAII (Michael W. Deem and Ramdas Pophale) SiO2 
 PCOD9419587
Probable space group: P M N A
;
_chemical_formula_sum "Si O2"
_cell_formula_units_Z 26
_cell_length_a 25.326516
_cell_length_b 5.190067
_cell_length_c 8.157412
_cell_angle_alpha 90.000000
_cell_angle_beta 90.000000
_cell_angle_gamma 90.000000
_cell_volume 1072.261747
_symmetry_space_group_name_H-M "P M N A"
_symmetry_group_IT_number 53
_symmetry_cell_setting 'orthorhombic'
loop_
_space_group_symop_operation_xyz
x,y,z
1/2-x,-y,1/2+z
x,-y,-z
1/2-x,y,1/2-z
-x,-y,-z
1/2+x,y,1/2-z
-x,y,z
1/2+x,-y,1/2+z
loop_
_atom_site_type_symbol
_atom_site_label
_atom_site_fract_x
_atom_site_fract_y
_atom_site_fract_z
Si Si1 0.402697 0.500000 0.000000
Si Si2 0.669633 0.000000 0.000000
Si Si3 0.318053 0.500000 0.500000
Si Si4 0.750000 0.841944 0.250000
Si Si5 0.077662 0.668325 0.847618
Si Si6 0.500000 0.000000 0.500000
O O1 0.431915 0.455801 0.171582
O O2 0.366033 0.249884 0.980897
O O3 0.708202 0.013122 0.154142
O O4 0.281778 0.332512 0.619569
O O5 0.360125 0.333225 0.391665
O O6 0.046885 0.932821 0.864970
O O7 0.054719 0.500000 0.000000
#
# Coordination Sequence:
#
# PCOD9419587 Si02
#       6
#     4   4   4   4   8   2
#     4  12  27  51  76 111 163 198 262 328 418 458
#     4  12  28  45  70 117 152 217 255 322 374 498
#     4  10  25  47  72 113 161 207 256 333 384 492
#     4  12  26  40  80 104 164 210 272 306 412 478
#     4  10  26  49  76 112 152 207 256 349 390 494
#     4  12  26  48  90 106 154 204 286 332 436 460
#
# _framework density 24.247810999999999
#
# number of rings (size 3 to 8) (size 9 to 14) (size 15 to 20)
#    0.923    0.000    3.077    1.385   12.923    1.846 
#    0.000    1.538    0.000    0.000    0.000    0.000 
#    0.000    0.000    0.000    0.000    0.000    0.000 
#
# Total GULP energy -144958.933081 kJ/mol
# GULP energy per Si atom -5575.343580 kJ/mol
# Density = 2.419262 g / cm^3
# Si number density = 24.247811 Si / 1000 Ang^3
#
#
#
# Elastic Constant Matrix: (Units=GPa)
#
#
# Indices 1 2 3 4 5 6 
#
# 1 125.3453 42.6627 59.2217 0.0000 0.0000 0.0000
# 2 42.6627 80.1856 39.7004 0.0000 0.0000 0.0000
# 3 59.2217 39.7004 212.5929 0.0000 0.0000 0.0000
# 4 0.0000 0.0000 0.0000 56.2945 0.0000 0.0000
# 5 0.0000 0.0000 0.0000 0.0000 -23.6540 0.0000
# 6 0.0000 0.0000 0.0000 0.0000 0.0000 -103.4791
#
#
#
# Elastic Compliance Matrix: (Units=1/GPa)
#
#
# Indices 1 2 3 4 5 6 
#
# 1 0.010513 -0.004565 -0.002076 0.000000 0.000000 0.000000
# 2 -0.004565 0.015724 -0.001665 0.000000 0.000000 0.000000
# 3 -0.002076 -0.001665 0.005593 0.000000 0.000000 0.000000
# 4 0.000000 0.000000 0.000000 0.017764 0.000000 0.000000
# 5 0.000000 0.000000 0.000000 0.000000 -0.042276 0.000000
# 6 0.000000 0.000000 0.000000 0.000000 0.000000 -0.009664
#
#
# Mechanical properties :
#
#
# Convention : Reuss Voigt Hill
#
# Bulk Modulus (GPa) = 65.71202 77.92148 71.81675
# Shear Modulus (GPa) = 258.55423 4.26821 131.41122
#
# Velocity S-wave (km/s) = 10.33738 1.32818 7.36972
# Velocity P-wave (km/s) = 13.02463 5.87855 10.10441
#
# Compressibility (1/GPa) = 0.01521792
#
# Stress axis : x y z
#
# Youngs Moduli (GPa) = 95.12324 63.59599 178.79575
#
# Poissons Ratio (x) = 0.29034 0.37117
# Poissons Ratio (y) = 0.43428 0.29763
# Poissons Ratio (z) = 0.19747 0.10586
#
# Static dielectric constant tensor:
#      x y z
#    x 1.918420 0.000000 0.000000 
#    y 0.000000 2.129770 0.000000 
#    z 0.000000 0.000000 1.955370 
# 
# From -- ./inp_files/11372.got.cif
#   From: 2010.05.17/outbox.cif.g08.bks.cpg/sg53_6_cif.got.tgz:11372.got - 2010.06.03 12:45:16.
