data_PCOD9419864
_publ_section_title
;
Structure prediction by ZEFSAII (Michael W. Deem and Ramdas Pophale) SiO2 
 PCOD9419864
Probable space group: P M N A
;
_chemical_formula_sum "Si O2"
_cell_formula_units_Z 48
_cell_length_a 7.940096
_cell_length_b 33.205564
_cell_length_c 9.223419
_cell_angle_alpha 90.000000
_cell_angle_beta 90.000000
_cell_angle_gamma 90.000000
_cell_volume 2431.803911
_symmetry_space_group_name_H-M "P M N A"
_symmetry_group_IT_number 53
_symmetry_cell_setting 'orthorhombic'
loop_
_space_group_symop_operation_xyz
x,y,z
1/2-x,-y,1/2+z
x,-y,-z
1/2-x,y,1/2-z
-x,-y,-z
1/2+x,y,1/2-z
-x,y,z
1/2+x,-y,1/2+z
loop_
_atom_site_type_symbol
_atom_site_label
_atom_site_fract_x
_atom_site_fract_y
_atom_site_fract_z
Si Si1 0.703456 0.039551 0.418852
Si Si2 0.703061 0.786728 0.579502
Si Si3 0.799937 0.379708 0.916894
Si Si4 0.799620 0.539309 0.582515
Si Si5 0.796828 0.873187 0.920701
Si Si6 0.703769 0.699067 0.580588
O O1 0.750000 0.037058 0.250000
O O2 0.500000 0.039572 0.429739
O O3 0.763732 0.083322 0.477129
O O4 0.768415 0.000000 0.500000
O O5 0.750000 0.786733 0.750000
O O6 0.500000 0.786891 0.567876
O O7 0.764911 0.829945 0.519293
O O8 0.763880 0.743105 0.525235
O O9 0.750000 0.383026 0.750000
O O10 0.000000 0.376799 0.923407
O O11 0.750744 0.419503 0.004387
O O12 0.730288 0.339018 0.991034
O O13 0.728754 0.500000 0.500000
O O14 0.750000 0.539347 0.750000
O O15 0.000000 0.537038 0.575884
O O16 0.750000 0.873251 0.750000
O O17 0.000000 0.873056 0.931622
O O18 0.750000 0.694857 0.750000
O O19 0.500000 0.699352 0.572853
#
# Coordination Sequence:
#
# PCOD9419864 Si02
#       6
#     8   8   8   8   8   8
#     4   9  17  28  42  62  87 115 150 190 233 282
#     4   8  13  23  40  63  89 115 147 188 235 283
#     4  11  23  38  56  78 106 140 177 214 253 297
#     4  11  24  41  62  87 114 143 175 212 253 297
#     4   8  13  22  38  59  83 112 145 185 231 278
#     4   9  18  31  49  74 100 126 158 199 245 293
#
# _framework density 19.738434000000002
#
# number of rings (size 3 to 8) (size 9 to 14) (size 15 to 20)
#    0.000    2.667    0.000    2.000    0.000    5.667 
#    0.000    0.000    0.000    1.000    0.000    0.000 
#    0.000    0.000    0.000    0.000    0.000    0.000 
#
# Total GULP energy -267389.158798 kJ/mol
# GULP energy per Si atom -5570.607475 kJ/mol
# Density = 1.969351 g / cm^3
# Si number density = 19.738434 Si / 1000 Ang^3
#
#
#
# Elastic Constant Matrix: (Units=GPa)
#
#
# Indices 1 2 3 4 5 6 
#
# 1 26.4660 16.8250 2.9516 0.0000 0.0000 0.0000
# 2 16.8250 274.1530 88.6662 0.0000 0.0000 0.0000
# 3 2.9516 88.6662 78.5206 0.0000 0.0000 0.0000
# 4 0.0000 0.0000 0.0000 24.0342 0.0000 0.0000
# 5 0.0000 0.0000 0.0000 0.0000 20.3931 0.0000
# 6 0.0000 0.0000 0.0000 0.0000 0.0000 29.0645
#
#
#
# Elastic Compliance Matrix: (Units=1/GPa)
#
#
# Indices 1 2 3 4 5 6 
#
# 1 0.039512 -0.003063 0.001974 0.000000 0.000000 0.000000
# 2 -0.003063 0.005984 -0.006642 0.000000 0.000000 0.000000
# 3 0.001974 -0.006642 0.020161 0.000000 0.000000 0.000000
# 4 0.000000 0.000000 0.000000 0.041607 0.000000 0.000000
# 5 0.000000 0.000000 0.000000 0.000000 0.049036 0.000000
# 6 0.000000 0.000000 0.000000 0.000000 0.000000 0.034406
#
#
# Mechanical properties :
#
#
# Convention : Reuss Voigt Hill
#
# Bulk Modulus (GPa) = 19.92260 66.22501 43.07381
# Shear Modulus (GPa) = 22.43162 32.74481 27.58822
#
# Velocity S-wave (km/s) = 3.37478 4.07742 3.74263
# Velocity P-wave (km/s) = 5.02998 7.46936 6.36757
#
# Compressibility (1/GPa) = 0.05019424
#
# Stress axis : x y z
#
# Youngs Moduli (GPa) = 25.30901 167.12324 49.60056
#
# Poissons Ratio (x) = 0.51194 -0.09790
# Poissons Ratio (y) = 0.07753 0.32943
# Poissons Ratio (z) = -0.04995 1.10997
#
# Static dielectric constant tensor:
#      x y z
#    x 1.696860 0.000000 0.000000 
#    y 0.000000 1.803380 0.000000 
#    z 0.000000 0.000000 1.637180 
# 
# From -- ./inp_files/6727.got.cif
#   From: 2010.05.17/outbox.cif.g08.bks.cpg/sg53_4_cif.got.tgz:6727.got - 2010.06.03 12:45:16.
