data_PCOD9419071
_publ_section_title
;
Structure prediction by ZEFSAII (Michael W. Deem and Ramdas Pophale) SiO2 
 PCOD9419071
Probable space group: P M N A
;
_chemical_formula_sum "Si O2"
_cell_formula_units_Z 48
_cell_length_a 8.315121
_cell_length_b 32.101107
_cell_length_c 9.280625
_cell_angle_alpha 90.000000
_cell_angle_beta 90.000000
_cell_angle_gamma 90.000000
_cell_volume 2477.227013
_symmetry_space_group_name_H-M "P M N A"
_symmetry_group_IT_number 53
_symmetry_cell_setting 'orthorhombic'
loop_
_space_group_symop_operation_xyz
x,y,z
1/2-x,-y,1/2+z
x,-y,-z
1/2-x,y,1/2-z
-x,-y,-z
1/2+x,y,1/2-z
-x,y,z
1/2+x,-y,1/2+z
loop_
_atom_site_type_symbol
_atom_site_label
_atom_site_fract_x
_atom_site_fract_y
_atom_site_fract_z
Si Si1 0.307344 0.123510 0.085416
Si Si2 0.694540 0.713435 0.586109
Si Si3 0.805688 0.459856 0.913973
Si Si4 0.194464 0.041249 0.585129
Si Si5 0.305613 0.367671 0.585042
Si Si6 0.307411 0.795321 0.414287
O O1 0.250000 0.122851 0.250000
O O2 0.500000 0.123084 0.085122
O O3 0.249867 0.082613 0.998813
O O4 0.250067 0.164804 0.003836
O O5 0.750000 0.717075 0.750000
O O6 0.500000 0.713299 0.584172
O O7 0.751390 0.670391 0.513255
O O8 0.749827 0.753006 0.492294
O O9 0.750000 0.463273 0.750000
O O10 0.752956 0.413831 0.965834
O O11 0.000000 0.460358 0.918738
O O12 0.745319 0.500000 0.000000
O O13 0.250000 0.041073 0.750000
O O14 0.000000 0.041299 0.584445
O O15 0.249148 0.000000 0.500000
O O16 0.250000 0.362158 0.750000
O O17 0.500000 0.367167 0.584875
O O18 0.250000 0.797297 0.250000
O O19 0.500000 0.795009 0.414650
#
# Coordination Sequence:
#
# PCOD9419071 Si02
#       6
#     8   8   8   8   8   8
#     4  11  23  39  60  86 116 149 186 228 275 325
#     4  10  22  37  54  78 107 139 175 218 266 316
#     4   9  18  32  50  73 102 134 169 212 259 309
#     4  10  22  39  59  85 115 148 187 229 274 325
#     4   9  18  34  53  74 101 134 173 214 259 311
#     4  11  23  39  59  83 111 144 183 225 271 323
#
# _framework density 19.376505000000002
#
# number of rings (size 3 to 8) (size 9 to 14) (size 15 to 20)
#    0.000    2.000    0.000    3.000    0.000    7.333 
#    0.000    0.000    0.000    0.000    0.000    0.000 
#    0.000    0.000    0.000    0.000    0.000    0.000 
#
# Total GULP energy -268108.312060 kJ/mol
# GULP energy per Si atom -5585.589835 kJ/mol
# Density = 1.933240 g / cm^3
# Si number density = 19.376505 Si / 1000 Ang^3
#
#
#
# Elastic Constant Matrix: (Units=GPa)
#
#
# Indices 1 2 3 4 5 6 
#
# 1 15.9059 29.0809 17.5545 0.0000 0.0000 0.0000
# 2 29.0809 230.8455 129.1617 0.0000 0.0000 0.0000
# 3 17.5545 129.1617 174.5831 0.0000 0.0000 0.0000
# 4 0.0000 0.0000 0.0000 42.2200 0.0000 0.0000
# 5 0.0000 0.0000 0.0000 0.0000 37.6601 0.0000
# 6 0.0000 0.0000 0.0000 0.0000 0.0000 28.6823
#
#
#
# Elastic Compliance Matrix: (Units=1/GPa)
#
#
# Indices 1 2 3 4 5 6 
#
# 1 0.081791 -0.009730 -0.001026 0.000000 0.000000 0.000000
# 2 -0.009730 0.008549 -0.005347 0.000000 0.000000 0.000000
# 3 -0.001026 -0.005347 0.009787 0.000000 0.000000 0.000000
# 4 0.000000 0.000000 0.000000 0.023685 0.000000 0.000000
# 5 0.000000 0.000000 0.000000 0.000000 0.026553 0.000000
# 6 0.000000 0.000000 0.000000 0.000000 0.000000 0.034865
#
#
# Mechanical properties :
#
#
# Convention : Reuss Voigt Hill
#
# Bulk Modulus (GPa) = 14.72265 85.88098 50.30181
# Shear Modulus (GPa) = 20.82680 38.08163 29.45422
#
# Velocity S-wave (km/s) = 3.28204 4.43804 3.90308
# Velocity P-wave (km/s) = 4.68798 8.40714 6.80651
#
# Compressibility (1/GPa) = 0.06792255
#
# Stress axis : x y z
#
# Youngs Moduli (GPa) = 12.22627 116.97180 102.18061
#
# Poissons Ratio (x) = 1.13810 0.10482
# Poissons Ratio (y) = 0.11896 0.54631
# Poissons Ratio (z) = 0.01254 0.62539
#
# Static dielectric constant tensor:
#      x y z
#    x 1.676320 0.000000 0.000000 
#    y 0.000000 1.697210 0.000000 
#    z 0.000000 0.000000 1.616120 
# 
# From -- ./inp_files/6569.got.cif
#   From: 2010.05.17/outbox.cif.g08.bks.cpg/sg53_4_cif.got.tgz:6569.got - 2010.06.03 12:45:16.
