data_PCOD9419577
_publ_section_title
;
Structure prediction by ZEFSAII (Michael W. Deem and Ramdas Pophale) SiO2 
 PCOD9419577
Probable space group: P M N A
;
_chemical_formula_sum "Si O2"
_cell_formula_units_Z 48
_cell_length_a 17.598918
_cell_length_b 8.952695
_cell_length_c 15.192602
_cell_angle_alpha 90.000000
_cell_angle_beta 90.000000
_cell_angle_gamma 90.000000
_cell_volume 2393.712115
_symmetry_space_group_name_H-M "P M N A"
_symmetry_group_IT_number 53
_symmetry_cell_setting 'orthorhombic'
loop_
_space_group_symop_operation_xyz
x,y,z
1/2-x,-y,1/2+z
x,-y,-z
1/2-x,y,1/2-z
-x,-y,-z
1/2+x,y,1/2-z
-x,y,z
1/2+x,-y,1/2+z
loop_
_atom_site_type_symbol
_atom_site_label
_atom_site_fract_x
_atom_site_fract_y
_atom_site_fract_z
Si Si1 0.409600 0.572767 0.726976
Si Si2 0.722467 0.821344 0.987898
Si Si3 0.086379 0.626053 0.574049
Si Si4 0.331383 0.382307 0.579674
Si Si5 0.681217 0.858272 0.681015
Si Si6 0.915323 0.089083 0.908193
O O1 0.500000 0.549592 0.707817
O O2 0.396211 0.554024 0.831099
O O3 0.353572 0.470691 0.668339
O O4 0.384222 0.743254 0.708701
O O5 0.644223 0.754596 0.953047
O O6 0.782796 0.799086 0.909536
O O7 0.755627 0.720912 0.068162
O O8 0.718059 0.000000 0.000000
O O9 0.090978 0.500000 0.500000
O O10 0.000000 0.682759 0.579032
O O11 0.330206 0.500000 0.500000
O O12 0.397545 0.259644 0.571100
O O13 0.750000 0.865187 0.750000
O O14 0.644091 0.017525 0.659335
O O15 0.000000 0.070521 0.873746
O O16 0.908907 0.000000 0.000000
#
# Coordination Sequence:
#
# PCOD9419577 Si02
#       6
#     8   8   8   8   8   8
#     4  11  24  41  66 100 135 176 224 271 336 403
#     4  12  23  44  66  96 135 173 224 270 331 402
#     4  10  24  48  72  94 130 179 228 284 332 385
#     4  12  22  39  66 100 139 172 214 268 334 406
#     4  12  22  41  64  94 132 177 222 268 329 396
#     4  11  22  40  63  91 134 178 218 269 336 401
#
# _framework density 20.052536
#
# number of rings (size 3 to 8) (size 9 to 14) (size 15 to 20)
#    0.000    0.667    6.667    1.500    0.000    3.000 
#    3.000    0.833    0.000    0.000    0.000    0.000 
#    0.000    0.000    0.000    0.000    0.000    0.000 
#
# Total GULP energy -267964.518756 kJ/mol
# GULP energy per Si atom -5582.594141 kJ/mol
# Density = 2.000690 g / cm^3
# Si number density = 20.052536 Si / 1000 Ang^3
#
#
#
# Elastic Constant Matrix: (Units=GPa)
#
#
# Indices 1 2 3 4 5 6 
#
# 1 105.6563 48.8832 50.9958 0.0000 0.0000 0.0000
# 2 48.8832 121.1553 50.9900 0.0000 0.0000 0.0000
# 3 50.9958 50.9900 98.5803 0.0000 0.0000 0.0000
# 4 0.0000 0.0000 0.0000 21.7471 0.0000 0.0000
# 5 0.0000 0.0000 0.0000 0.0000 24.5379 0.0000
# 6 0.0000 0.0000 0.0000 0.0000 0.0000 23.6054
#
#
#
# Elastic Compliance Matrix: (Units=1/GPa)
#
#
# Indices 1 2 3 4 5 6 
#
# 1 0.013526 -0.003212 -0.005336 0.000000 0.000000 0.000000
# 2 -0.003212 0.011313 -0.004190 0.000000 0.000000 0.000000
# 3 -0.005336 -0.004190 0.015072 0.000000 0.000000 0.000000
# 4 0.000000 0.000000 0.000000 0.045983 0.000000 0.000000
# 5 0.000000 0.000000 0.000000 0.000000 0.040753 0.000000
# 6 0.000000 0.000000 0.000000 0.000000 0.000000 0.042363
#
#
# Mechanical properties :
#
#
# Convention : Reuss Voigt Hill
#
# Bulk Modulus (GPa) = 69.27474 69.68111 69.47792
# Shear Modulus (GPa) = 25.08809 25.61293 25.35051
#
# Velocity S-wave (km/s) = 3.54095 3.57780 3.55942
# Velocity P-wave (km/s) = 7.16515 7.20363 7.18442
#
# Compressibility (1/GPa) = 0.01443528
#
# Stress axis : x y z
#
# Youngs Moduli (GPa) = 73.93193 88.39174 66.34997
#
# Poissons Ratio (x) = 0.28389 0.35403
# Poissons Ratio (y) = 0.23745 0.27802
# Poissons Ratio (z) = 0.39448 0.37038
#
# Static dielectric constant tensor:
#      x y z
#    x 1.723130 0.000000 0.000000 
#    y 0.000000 1.712780 0.000000 
#    z 0.000000 0.000000 1.731430 
# 
# From -- ./inp_files/23628.got.cif
#   From: 2010.05.17/outbox.cif.g08.bks.cpg/sg53_12_cif.got.tgz:23628.got - 2010.06.03 12:45:16.
