data_PCOD9419706
_publ_section_title
;
Structure prediction by ZEFSAII (Michael W. Deem and Ramdas Pophale) SiO2 
 PCOD9419706
Probable space group: P M N A
;
_chemical_formula_sum "Si O2"
_cell_formula_units_Z 56
_cell_length_a 8.494725
_cell_length_b 19.919535
_cell_length_c 18.757217
_cell_angle_alpha 90.000000
_cell_angle_beta 90.000000
_cell_angle_gamma 90.000000
_cell_volume 3173.926920
_symmetry_space_group_name_H-M "P M N A"
_symmetry_group_IT_number 53
_symmetry_cell_setting 'orthorhombic'
loop_
_space_group_symop_operation_xyz
x,y,z
1/2-x,-y,1/2+z
x,-y,-z
1/2-x,y,1/2-z
-x,-y,-z
1/2+x,y,1/2-z
-x,y,z
1/2+x,-y,1/2+z
loop_
_atom_site_type_symbol
_atom_site_label
_atom_site_fract_x
_atom_site_fract_y
_atom_site_fract_z
Si Si1 0.188520 0.938445 0.831401
Si Si2 0.810230 0.358717 0.827827
Si Si3 0.809425 0.914655 0.168799
Si Si4 0.808312 0.222053 0.901775
Si Si5 0.192046 0.572256 0.026926
Si Si6 0.690058 0.708715 0.547465
Si Si7 0.813999 0.201953 0.330385
O O1 0.250000 0.939089 0.750000
O O2 0.252781 0.869054 0.862383
O O3 0.000000 0.934660 0.831503
O O4 0.236567 0.011612 0.860765
O O5 0.750000 0.377071 0.750000
O O6 0.759773 0.282943 0.849538
O O7 0.759099 0.406786 0.893015
O O8 0.000000 0.359204 0.826937
O O9 0.750000 0.908904 0.250000
O O10 0.753250 0.850464 0.124357
O O11 0.000000 0.913340 0.170444
O O12 0.000000 0.221232 0.901203
O O13 0.761297 0.243813 0.981157
O O14 0.000000 0.571179 0.027512
O O15 0.247224 0.500000 0.000000
O O16 0.237685 0.633444 0.974852
O O17 0.500000 0.710097 0.551582
O O18 0.758587 0.737768 0.619720
O O19 0.750000 0.208761 0.250000
O O20 0.000000 0.198939 0.326637
#
# Coordination Sequence:
#
# PCOD9419706 Si02
#       7
#     8   8   8   8   8   8   8
#     4   9  16  27  44  65  89 119 155 193 234 276
#     4   9  16  27  46  71  97 126 159 193 228 271
#     4   9  16  26  42  65  92 122 157 195 231 272
#     4   8  15  28  45  66  93 125 158 188 225 276
#     4   8  15  30  52  74  97 129 163 191 228 281
#     4   9  17  32  53  72  92 121 157 194 230 275
#     4  11  21  34  52  71  92 118 153 197 241 284
#
# _framework density 17.643757999999998
#
# number of rings (size 3 to 8) (size 9 to 14) (size 15 to 20)
#    0.000    3.000    0.000    4.714    0.000    0.571 
#    0.000    5.000    0.000    7.714    0.000    0.000 
#    0.000    0.000    0.000    0.000    0.000    0.000 
#
# Total GULP energy -311909.073742 kJ/mol
# GULP energy per Si atom -5569.804888 kJ/mol
# Density = 1.760360 g / cm^3
# Si number density = 17.643758 Si / 1000 Ang^3
#
#
#
# Elastic Constant Matrix: (Units=GPa)
#
#
# Indices 1 2 3 4 5 6 
#
# 1 30.9887 31.6378 21.6589 0.0000 0.0000 0.0000
# 2 31.6378 159.8080 86.0020 0.0000 0.0000 0.0000
# 3 21.6589 86.0020 92.5627 0.0000 0.0000 0.0000
# 4 0.0000 0.0000 0.0000 23.2168 0.0000 0.0000
# 5 0.0000 0.0000 0.0000 0.0000 21.1228 0.0000
# 6 0.0000 0.0000 0.0000 0.0000 0.0000 11.5074
#
#
#
# Elastic Compliance Matrix: (Units=1/GPa)
#
#
# Indices 1 2 3 4 5 6 
#
# 1 0.041218 -0.005940 -0.004126 0.000000 0.000000 0.000000
# 2 -0.005940 0.013371 -0.011034 0.000000 0.000000 0.000000
# 3 -0.004126 -0.011034 0.022021 0.000000 0.000000 0.000000
# 4 0.000000 0.000000 0.000000 0.043072 0.000000 0.000000
# 5 0.000000 0.000000 0.000000 0.000000 0.047342 0.000000
# 6 0.000000 0.000000 0.000000 0.000000 0.000000 0.086901
#
#
# Mechanical properties :
#
#
# Convention : Reuss Voigt Hill
#
# Bulk Modulus (GPa) = 29.06054 62.43966 45.75010
# Shear Modulus (GPa) = 16.25521 20.77345 18.51433
#
# Velocity S-wave (km/s) = 3.03859 3.43502 3.24287
# Velocity P-wave (km/s) = 5.36816 7.15531 6.32517
#
# Compressibility (1/GPa) = 0.03441093
#
# Stress axis : x y z
#
# Youngs Moduli (GPa) = 24.26144 74.78704 45.41197
#
# Poissons Ratio (x) = 0.44420 0.18737
# Poissons Ratio (y) = 0.14410 0.50106
# Poissons Ratio (z) = 0.10010 0.82518
#
# Static dielectric constant tensor:
#      x y z
#    x 1.603860 0.000000 0.000000 
#    y 0.000000 1.631160 0.000000 
#    z 0.000000 0.000000 1.579420 
# 
# From -- ./inp_files/26704.got.cif
#   From: 2010.05.17/outbox.cif.g08.bks.cpg/sg53_14_cif.got.tgz:26704.got - 2010.06.03 12:45:16.
