data_PCOD9419663
_publ_section_title
;
Structure prediction by ZEFSAII (Michael W. Deem and Ramdas Pophale) SiO2 
 PCOD9419663
Probable space group: P M N A
;
_chemical_formula_sum "Si O2"
_cell_formula_units_Z 56
_cell_length_a 21.456457
_cell_length_b 9.660825
_cell_length_c 14.050994
_cell_angle_alpha 90.000000
_cell_angle_beta 90.000000
_cell_angle_gamma 90.000000
_cell_volume 2912.589464
_symmetry_space_group_name_H-M "P M N A"
_symmetry_group_IT_number 53
_symmetry_cell_setting 'orthorhombic'
loop_
_space_group_symop_operation_xyz
x,y,z
1/2-x,-y,1/2+z
x,-y,-z
1/2-x,y,1/2-z
-x,-y,-z
1/2+x,y,1/2-z
-x,y,z
1/2+x,-y,1/2+z
loop_
_atom_site_type_symbol
_atom_site_label
_atom_site_fract_x
_atom_site_fract_y
_atom_site_fract_z
Si Si1 0.074866 0.726949 0.726374
Si Si2 0.850606 0.986947 0.755683
Si Si3 0.353559 0.458149 0.731423
Si Si4 0.074974 0.340108 0.487941
Si Si5 0.427579 0.782134 0.187177
Si Si6 0.757688 0.583456 0.402922
Si Si7 0.250482 0.918848 0.400823
O O1 0.123894 0.833580 0.771815
O O2 0.094815 0.576581 0.763618
O O3 0.091192 0.723810 0.613378
O O4 0.000000 0.750714 0.737754
O O5 0.912315 0.064857 0.719276
O O6 0.801440 0.016229 0.670410
O O7 0.815926 0.049220 0.847484
O O8 0.388846 0.314160 0.742914
O O9 0.309151 0.458552 0.640814
O O10 0.308091 0.463010 0.823683
O O11 0.094825 0.500000 0.500000
O O12 0.094144 0.251848 0.579541
O O13 0.000000 0.343736 0.488351
O O14 0.500000 0.749466 0.191786
O O15 0.767304 0.500000 0.500000
O O16 0.758553 0.752089 0.410612
O O17 0.247483 0.000000 0.500000
#
# Coordination Sequence:
#
# PCOD9419663 Si02
#       7
#     8   8   8   8   8   8   8
#     4  11  24  38  60  96 132 164 204 253 306 374
#     4  11  24  42  62  90 128 163 208 250 309 377
#     4  11  22  40  64  91 128 161 207 253 308 369
#     4   9  18  31  50  84 123 160 195 234 291 356
#     4  11  20  36  63  88 122 170 201 245 311 374
#     4  11  25  42  66  95 120 159 214 263 308 363
#     4  11  25  44  65  90 123 164 209 263 312 358
#
# _framework density 19.226877999999999
#
# number of rings (size 3 to 8) (size 9 to 14) (size 15 to 20)
#    0.000    1.286    4.286    1.714    8.000    1.143 
#    0.000    2.143    0.000    5.143    0.000    0.000 
#    0.000    0.000    0.000    0.000    0.000    0.000 
#
# Total GULP energy -312492.662752 kJ/mol
# GULP energy per Si atom -5580.226121 kJ/mol
# Density = 1.918312 g / cm^3
# Si number density = 19.226878 Si / 1000 Ang^3
#
#
#
# Elastic Constant Matrix: (Units=GPa)
#
#
# Indices 1 2 3 4 5 6 
#
# 1 85.2031 6.5693 26.3429 0.0000 0.0000 0.0000
# 2 6.5693 56.6607 21.5975 0.0000 0.0000 0.0000
# 3 26.3429 21.5975 72.5354 0.0000 0.0000 0.0000
# 4 0.0000 0.0000 0.0000 19.1474 0.0000 0.0000
# 5 0.0000 0.0000 0.0000 0.0000 23.3031 0.0000
# 6 0.0000 0.0000 0.0000 0.0000 0.0000 34.2878
#
#
#
# Elastic Compliance Matrix: (Units=1/GPa)
#
#
# Indices 1 2 3 4 5 6 
#
# 1 0.013227 0.000336 -0.004904 0.000000 0.000000 0.000000
# 2 0.000336 0.019917 -0.006052 0.000000 0.000000 0.000000
# 3 -0.004904 -0.006052 0.017369 0.000000 0.000000 0.000000
# 4 0.000000 0.000000 0.000000 0.052226 0.000000 0.000000
# 5 0.000000 0.000000 0.000000 0.000000 0.042913 0.000000
# 6 0.000000 0.000000 0.000000 0.000000 0.000000 0.029165
#
#
# Mechanical properties :
#
#
# Convention : Reuss Voigt Hill
#
# Bulk Modulus (GPa) = 34.16150 35.93542 35.04846
# Shear Modulus (GPa) = 24.29366 26.00696 25.15031
#
# Velocity S-wave (km/s) = 3.55847 3.68181 3.62066
# Velocity P-wave (km/s) = 5.88980 6.06672 5.97891
#
# Compressibility (1/GPa) = 0.02927272
#
# Stress axis : x y z
#
# Youngs Moduli (GPa) = 75.60373 50.20855 57.57294
#
# Poissons Ratio (x) = -0.01685 0.28231
# Poissons Ratio (y) = -0.02537 0.34844
# Poissons Ratio (z) = 0.37073 0.30387
#
# Static dielectric constant tensor:
#      x y z
#    x 1.682630 0.000000 0.000000 
#    y 0.000000 1.661370 0.000000 
#    z 0.000000 0.000000 1.643030 
# 
# From -- ./inp_files/24346.got.cif
#   From: 2010.05.17/outbox.cif.g08.bks.cpg/sg53_13_cif.got.tgz:24346.got - 2010.06.03 12:45:16.
