data_PCOD9419100
_publ_section_title
;
Structure prediction by ZEFSAII (Michael W. Deem and Ramdas Pophale) SiO2 
 PCOD9419100
Probable space group: P M N A
;
_chemical_formula_sum "Si O2"
_cell_formula_units_Z 48
_cell_length_a 18.059700
_cell_length_b 9.715242
_cell_length_c 14.423264
_cell_angle_alpha 90.000000
_cell_angle_beta 90.000000
_cell_angle_gamma 90.000000
_cell_volume 2530.624496
_symmetry_space_group_name_H-M "P M N A"
_symmetry_group_IT_number 53
_symmetry_cell_setting 'orthorhombic'
loop_
_space_group_symop_operation_xyz
x,y,z
1/2-x,-y,1/2+z
x,-y,-z
1/2-x,y,1/2-z
-x,-y,-z
1/2+x,y,1/2-z
-x,y,z
1/2+x,-y,1/2+z
loop_
_atom_site_type_symbol
_atom_site_label
_atom_site_fract_x
_atom_site_fract_y
_atom_site_fract_z
Si Si1 0.632666 0.638718 0.050397
Si Si2 0.731861 0.952994 0.857955
Si Si3 0.085303 0.801975 0.615110
Si Si4 0.780840 0.781660 0.028470
Si Si5 0.088844 0.519200 0.719761
Si Si6 0.414867 0.603025 0.413861
O O1 0.719593 0.662343 0.035668
O O2 0.615633 0.607416 0.156268
O O3 0.606536 0.500000 0.000000
O O4 0.592763 0.758396 0.992972
O O5 0.750000 0.943233 0.750000
O O6 0.644793 0.920449 0.868807
O O7 0.753034 0.099251 0.901967
O O8 0.774653 0.843763 0.924638
O O9 0.111110 0.667275 0.675834
O O10 0.000000 0.832959 0.637068
O O11 0.859753 0.725774 0.060163
O O12 0.111292 0.483697 0.824179
O O13 0.000000 0.522606 0.716070
O O14 0.415125 0.500000 0.500000
O O15 0.500000 0.648784 0.397353
#
# Coordination Sequence:
#
# PCOD9419100 Si02
#       6
#     8   8   8   8   8   8
#     4   9  17  32  56  89 116 143 178 230 295 351
#     4  10  23  40  58  81 114 155 197 238 274 338
#     4   9  18  36  59  85 117 149 185 232 288 345
#     4  10  22  40  57  81 116 150 194 237 286 336
#     4   9  18  32  55  88 117 146 183 229 289 345
#     4  10  22  38  58  86 117 151 194 243 287 338
#
# _framework density 18.967649999999999
#
# number of rings (size 3 to 8) (size 9 to 14) (size 15 to 20)
#    0.000    2.500    0.000    1.000    4.667    2.000 
#    0.000   10.000    0.000    0.000    0.000    0.000 
#    0.000    0.000    0.000    0.000    0.000    0.000 
#
# Total GULP energy -267559.699091 kJ/mol
# GULP energy per Si atom -5574.160398 kJ/mol
# Density = 1.892448 g / cm^3
# Si number density = 18.967650 Si / 1000 Ang^3
#
#
#
# Elastic Constant Matrix: (Units=GPa)
#
#
# Indices 1 2 3 4 5 6 
#
# 1 88.9733 42.3071 22.9502 0.0000 0.0000 0.0000
# 2 42.3071 60.5554 29.9457 0.0000 0.0000 0.0000
# 3 22.9502 29.9457 139.7418 0.0000 0.0000 0.0000
# 4 0.0000 0.0000 0.0000 7.5505 0.0000 0.0000
# 5 0.0000 0.0000 0.0000 0.0000 17.1363 0.0000
# 6 0.0000 0.0000 0.0000 0.0000 0.0000 28.5299
#
#
#
# Elastic Compliance Matrix: (Units=1/GPa)
#
#
# Indices 1 2 3 4 5 6 
#
# 1 0.016840 -0.011630 -0.000273 0.000000 0.000000 0.000000
# 2 -0.011630 0.026503 -0.003769 0.000000 0.000000 0.000000
# 3 -0.000273 -0.003769 0.008009 0.000000 0.000000 0.000000
# 4 0.000000 0.000000 0.000000 0.132441 0.000000 0.000000
# 5 0.000000 0.000000 0.000000 0.000000 0.058356 0.000000
# 6 0.000000 0.000000 0.000000 0.000000 0.000000 0.035051
#
#
# Mechanical properties :
#
#
# Convention : Reuss Voigt Hill
#
# Bulk Modulus (GPa) = 49.98477 53.29737 51.64107
# Shear Modulus (GPa) = 15.86225 23.58119 19.72172
#
# Velocity S-wave (km/s) = 2.89499 3.52977 3.22802
# Velocity P-wave (km/s) = 6.13062 6.69123 6.41705
#
# Compressibility (1/GPa) = 0.02000609
#
# Stress axis : x y z
#
# Youngs Moduli (GPa) = 59.38244 37.73130 124.86387
#
# Poissons Ratio (x) = 0.43882 0.03414
# Poissons Ratio (y) = 0.69062 0.47066
# Poissons Ratio (z) = 0.01624 0.14222
#
# Static dielectric constant tensor:
#      x y z
#    x 1.663600 0.000000 0.000000 
#    y 0.000000 1.676210 0.000000 
#    z 0.000000 0.000000 1.696330 
# 
# From -- ./inp_files/23617.got.cif
#   From: 2010.05.17/outbox.cif.g08.bks.cpg/sg53_12_cif.got.tgz:23617.got - 2010.06.03 12:45:16.
