data_PCOD9419028
_publ_section_title
;
Structure prediction by ZEFSAII (Michael W. Deem and Ramdas Pophale) SiO2 
 PCOD9419028
Probable space group: P M N A
;
_chemical_formula_sum "Si O2"
_cell_formula_units_Z 48
_cell_length_a 15.235540
_cell_length_b 16.539520
_cell_length_c 8.704658
_cell_angle_alpha 90.000000
_cell_angle_beta 90.000000
_cell_angle_gamma 90.000000
_cell_volume 2193.473874
_symmetry_space_group_name_H-M "P M N A"
_symmetry_group_IT_number 53
_symmetry_cell_setting 'orthorhombic'
loop_
_space_group_symop_operation_xyz
x,y,z
1/2-x,-y,1/2+z
x,-y,-z
1/2-x,y,1/2-z
-x,-y,-z
1/2+x,y,1/2-z
-x,y,z
1/2+x,-y,1/2+z
loop_
_atom_site_type_symbol
_atom_site_label
_atom_site_fract_x
_atom_site_fract_y
_atom_site_fract_z
Si Si1 0.406159 0.216874 0.987652
Si Si2 0.500000 0.188539 0.493745
Si Si3 0.500000 0.023267 0.320380
Si Si4 0.000000 0.306159 0.265508
Si Si5 0.848142 0.260611 0.814940
Si Si6 0.832865 0.056410 0.640876
Si Si7 0.000000 0.504372 0.683535
Si Si8 0.333219 0.437733 0.639245
O O1 0.500000 0.173406 0.980448
O O2 0.398440 0.277482 0.845015
O O3 0.345094 0.143065 0.943115
O O4 0.415609 0.267995 0.142603
O O5 0.500000 0.120748 0.356444
O O6 0.500000 0.272452 0.403760
O O7 0.589697 0.193860 0.598284
O O8 0.500000 0.000000 0.500000
O O9 0.584063 0.984416 0.232039
O O10 0.000000 0.401072 0.274378
O O11 0.750000 0.242654 0.750000
O O12 0.841327 0.343483 0.909640
O O13 0.750000 0.060294 0.750000
O O14 0.811774 0.000000 0.500000
O O15 0.000000 0.500000 0.500000
O O16 0.916436 0.463282 0.760908
O O17 0.324754 0.500000 0.500000
O O18 0.250000 0.442331 0.750000
#
# Coordination Sequence:
#
# PCOD9419028 Si02
#       8
#     8   4   4   4   8   8   4   8
#     4  10  21  43  67  88 126 175 213 252 321 393
#     4  12  22  42  66  96 130 162 214 276 322 374
#     4  12  24  42  70 100 130 176 214 274 326 392
#     4  10  22  38  66  98 124 170 212 266 330 376
#     4  11  23  41  66  91 126 177 221 259 318 398
#     4  12  25  44  68  99 136 175 220 272 327 389
#     4  12  22  38  66  96 132 168 212 270 326 392
#     4  11  24  42  63  94 131 173 220 272 327 386
#
# _framework density 21.883095999999998
#
# number of rings (size 3 to 8) (size 9 to 14) (size 15 to 20)
#    0.500    0.333    1.667    6.500    0.000    2.667 
#    0.000    0.833    0.000    0.000    0.000    0.000 
#    0.000    0.000    0.000    0.000    0.000    0.000 
#
# Total GULP energy -267397.522171 kJ/mol
# GULP energy per Si atom -5570.781712 kJ/mol
# Density = 2.183329 g / cm^3
# Si number density = 21.883096 Si / 1000 Ang^3
#
#
#
# Elastic Constant Matrix: (Units=GPa)
#
#
# Indices 1 2 3 4 5 6 
#
# 1 140.6316 34.9448 12.2114 0.0000 0.0000 0.0000
# 2 34.9448 133.5600 2.2233 0.0000 0.0000 0.0000
# 3 12.2114 2.2233 34.3439 0.0000 0.0000 0.0000
# 4 0.0000 0.0000 0.0000 37.1441 0.0000 0.0000
# 5 0.0000 0.0000 0.0000 0.0000 17.5406 0.0000
# 6 0.0000 0.0000 0.0000 0.0000 0.0000 78.8806
#
#
#
# Elastic Compliance Matrix: (Units=1/GPa)
#
#
# Indices 1 2 3 4 5 6 
#
# 1 0.007840 -0.002007 -0.002658 0.000000 0.000000 0.000000
# 2 -0.002007 0.008009 0.000195 0.000000 0.000000 0.000000
# 3 -0.002658 0.000195 0.030050 0.000000 0.000000 0.000000
# 4 0.000000 0.000000 0.000000 0.026922 0.000000 0.000000
# 5 0.000000 0.000000 0.000000 0.000000 0.057010 0.000000
# 6 0.000000 0.000000 0.000000 0.000000 0.000000 0.012677
#
#
# Mechanical properties :
#
#
# Convention : Reuss Voigt Hill
#
# Bulk Modulus (GPa) = 27.05652 45.25494 36.15573
# Shear Modulus (GPa) = 30.53092 43.99014 37.26053
#
# Velocity S-wave (km/s) = 3.73927 4.48843 4.13087
# Velocity P-wave (km/s) = 5.57080 6.89830 6.26978
#
# Compressibility (1/GPa) = 0.03695967
#
# Stress axis : x y z
#
# Youngs Moduli (GPa) = 127.54629 124.85703 33.27826
#
# Poissons Ratio (x) = 0.25060 0.08845
# Poissons Ratio (y) = 0.25600 -0.00649
# Poissons Ratio (z) = 0.33899 -0.02437
#
# Static dielectric constant tensor:
#      x y z
#    x 1.842580 0.000000 0.000000 
#    y 0.000000 1.964620 0.000000 
#    z 0.000000 0.000000 1.844440 
# 
# From -- ./inp_files/8758.got.cif
#   From: 2010.05.17/outbox.cif.g08.bks.cpg/sg53_5_cif.got.tgz:8758.got - 2010.06.03 12:45:16.
