data_PCOD9419705
_publ_section_title
;
Structure prediction by ZEFSAII (Michael W. Deem and Ramdas Pophale) SiO2 
 PCOD9419705
Probable space group: P M N A
;
_chemical_formula_sum "Si O2"
_cell_formula_units_Z 64
_cell_length_a 8.537761
_cell_length_b 18.751696
_cell_length_c 23.559964
_cell_angle_alpha 90.000000
_cell_angle_beta 90.000000
_cell_angle_gamma 90.000000
_cell_volume 3771.891308
_symmetry_space_group_name_H-M "P M N A"
_symmetry_group_IT_number 53
_symmetry_cell_setting 'orthorhombic'
loop_
_space_group_symop_operation_xyz
x,y,z
1/2-x,-y,1/2+z
x,-y,-z
1/2-x,y,1/2-z
-x,-y,-z
1/2+x,y,1/2-z
-x,y,z
1/2+x,-y,1/2+z
loop_
_atom_site_type_symbol
_atom_site_label
_atom_site_fract_x
_atom_site_fract_y
_atom_site_fract_z
Si Si1 0.187319 0.916311 0.003110
Si Si2 0.313143 0.740670 0.685266
Si Si3 0.187785 0.862658 0.376949
Si Si4 0.189433 0.719903 0.314519
Si Si5 0.814198 0.873763 0.614889
Si Si6 0.813865 0.003183 0.811789
Si Si7 0.311210 0.563892 0.185425
Si Si8 0.811337 0.590317 0.685110
O O1 0.266664 0.875609 0.950879
O O2 0.000000 0.913012 0.997004
O O3 0.237424 0.884009 0.063184
O O4 0.233764 0.000000 0.000000
O O5 0.250000 0.747331 0.750000
O O6 0.500000 0.745088 0.686943
O O7 0.243834 0.803429 0.647114
O O8 0.260799 0.663198 0.661808
O O9 0.240257 0.785942 0.353126
O O10 0.236875 0.923302 0.332236
O O11 0.000000 0.862498 0.382723
O O12 0.250000 0.727908 0.250000
O O13 0.238230 0.641423 0.337443
O O14 0.000000 0.721323 0.312213
O O15 0.000000 0.880782 0.621030
O O16 0.732521 0.941630 0.644260
O O17 0.750000 0.983209 0.750000
O O18 0.000000 0.011119 0.810270
O O19 0.250000 0.563891 0.250000
O O20 0.500000 0.563282 0.186595
O O21 0.264677 0.487032 0.159622
O O22 0.750000 0.588177 0.750000
O O23 0.000000 0.596323 0.685083
#
# Coordination Sequence:
#
# PCOD9419705 Si02
#       8
#     8   8   8   8   8   8   8   8
#     4  11  23  40  60  79 100 130 170 218 263 308
#     4  11  21  34  51  75 109 141 172 210 256 306
#     4  11  22  36  55  78 103 136 175 216 259 306
#     4   9  18  31  48  74 107 140 174 211 256 303
#     4  12  24  39  58  78 101 131 171 214 259 308
#     4  12  24  38  54  76 105 137 171 208 255 309
#     4   8  14  25  42  66  99 136 171 208 246 295
#     4   9  15  25  43  68  99 136 174 207 247 296
#
# _framework density 16.967616
#
# number of rings (size 3 to 8) (size 9 to 14) (size 15 to 20)
#    0.000    1.625    1.250    6.000    0.000    3.000 
#    0.000    0.000    0.000    0.000    0.000    0.875 
#    0.000    7.000    0.000    0.000    0.000    0.000 
#
# Total GULP energy -357076.430124 kJ/mol
# GULP energy per Si atom -5579.319221 kJ/mol
# Density = 1.692900 g / cm^3
# Si number density = 16.967616 Si / 1000 Ang^3
#
#
#
# Elastic Constant Matrix: (Units=GPa)
#
#
# Indices 1 2 3 4 5 6 
#
# 1 30.9467 11.8264 6.8395 0.0000 0.0000 0.0000
# 2 11.8264 116.9272 9.5904 0.0000 0.0000 0.0000
# 3 6.8395 9.5904 43.9344 0.0000 0.0000 0.0000
# 4 0.0000 0.0000 0.0000 2.8221 0.0000 0.0000
# 5 0.0000 0.0000 0.0000 0.0000 21.1736 0.0000
# 6 0.0000 0.0000 0.0000 0.0000 0.0000 15.1954
#
#
#
# Elastic Compliance Matrix: (Units=1/GPa)
#
#
# Indices 1 2 3 4 5 6 
#
# 1 0.034540 -0.003108 -0.004699 0.000000 0.000000 0.000000
# 2 -0.003108 0.008988 -0.001478 0.000000 0.000000 0.000000
# 3 -0.004699 -0.001478 0.023815 0.000000 0.000000 0.000000
# 4 0.000000 0.000000 0.000000 0.354350 0.000000 0.000000
# 5 0.000000 0.000000 0.000000 0.000000 0.047229 0.000000
# 6 0.000000 0.000000 0.000000 0.000000 0.000000 0.065810
#
#
# Mechanical properties :
#
#
# Convention : Reuss Voigt Hill
#
# Bulk Modulus (GPa) = 20.50291 27.59121 24.04706
# Shear Modulus (GPa) = 8.77873 18.74166 13.76019
#
# Velocity S-wave (km/s) = 2.27707 3.32709 2.85084
# Velocity P-wave (km/s) = 4.36156 5.57277 5.00395
#
# Compressibility (1/GPa) = 0.04877357
#
# Stress axis : x y z
#
# Youngs Moduli (GPa) = 28.95208 111.26030 41.98976
#
# Poissons Ratio (x) = 0.34581 0.19729
# Poissons Ratio (y) = 0.08999 0.06207
# Poissons Ratio (z) = 0.13603 0.16446
#
# Static dielectric constant tensor:
#      x y z
#    x 1.566000 0.000000 0.000000 
#    y 0.000000 1.624810 0.000000 
#    z 0.000000 0.000000 1.533930 
# 
# From -- ./inp_files/31253.got.cif
#   From: 2010.05.17/outbox.cif.g08.bks.cpg/sg53_16_cif.got.tgz:31253.got - 2010.06.03 12:45:16.
