data_PCOD9419492
_publ_section_title
;
Structure prediction by ZEFSAII (Michael W. Deem and Ramdas Pophale) SiO2 
 PCOD9419492
Probable space group: P M N A
;
_chemical_formula_sum "Si O2"
_cell_formula_units_Z 28
_cell_length_a 20.548351
_cell_length_b 13.033170
_cell_length_c 5.290912
_cell_angle_alpha 90.000000
_cell_angle_beta 90.000000
_cell_angle_gamma 90.000000
_cell_volume 1416.959946
_symmetry_space_group_name_H-M "P M N A"
_symmetry_group_IT_number 53
_symmetry_cell_setting 'orthorhombic'
loop_
_space_group_symop_operation_xyz
x,y,z
1/2-x,-y,1/2+z
x,-y,-z
1/2-x,y,1/2-z
-x,-y,-z
1/2+x,y,1/2-z
-x,y,z
1/2+x,-y,1/2+z
loop_
_atom_site_type_symbol
_atom_site_label
_atom_site_fract_x
_atom_site_fract_y
_atom_site_fract_z
Si Si1 0.706337 0.000000 0.500000
Si Si2 0.627379 0.791183 0.533674
Si Si3 0.677213 0.408656 0.670871
Si Si4 0.573186 0.295640 0.956142
O O1 0.662688 0.100717 0.460698
O O2 0.750000 0.985328 0.250000
O O3 0.678484 0.697844 0.487308
O O4 0.590084 0.764463 0.789629
O O5 0.581661 0.778448 0.287708
O O6 0.650114 0.500000 0.500000
O O7 0.750000 0.434996 0.750000
O O8 0.628135 0.381204 0.898329
O O9 0.500000 0.336487 0.965663
#
# Coordination Sequence:
#
# PCOD9419492 Si02
#       4
#     4   8   8   8
#     4  12  24  40  69 100 137 174 222 278 340 394
#     4  10  24  41  65  96 130 171 221 274 322 402
#     4  10  25  39  68  98 132 170 218 280 336 390
#     4  10  23  44  66  94 134 178 219 271 330 402
#
# _framework density 19.760612999999999
#
# number of rings (size 3 to 8) (size 9 to 14) (size 15 to 20)
#    1.714    0.000    0.000    3.429    8.000    0.571 
#    0.000    5.714    0.000    0.000    0.000    0.000 
#    0.000    0.000    0.000    0.000    0.000    0.000 
#
# Total GULP energy -156121.918708 kJ/mol
# GULP energy per Si atom -5575.782811 kJ/mol
# Density = 1.971564 g / cm^3
# Si number density = 19.760613 Si / 1000 Ang^3
#
#
#
# Elastic Constant Matrix: (Units=GPa)
#
#
# Indices 1 2 3 4 5 6 
#
# 1 72.9023 -3.0711 33.6467 0.0000 0.0000 0.0000
# 2 -3.0711 93.0025 13.1361 0.0000 0.0000 0.0000
# 3 33.6467 13.1361 149.5836 0.0000 0.0000 0.0000
# 4 0.0000 0.0000 0.0000 18.9528 0.0000 0.0000
# 5 0.0000 0.0000 0.0000 0.0000 12.1764 0.0000
# 6 0.0000 0.0000 0.0000 0.0000 0.0000 36.0707
#
#
#
# Elastic Compliance Matrix: (Units=1/GPa)
#
#
# Indices 1 2 3 4 5 6 
#
# 1 0.015399 0.001010 -0.003553 0.000000 0.000000 0.000000
# 2 0.001010 0.010954 -0.001189 0.000000 0.000000 0.000000
# 3 -0.003553 -0.001189 0.007589 0.000000 0.000000 0.000000
# 4 0.000000 0.000000 0.000000 0.052763 0.000000 0.000000
# 5 0.000000 0.000000 0.000000 0.000000 0.082126 0.000000
# 6 0.000000 0.000000 0.000000 0.000000 0.000000 0.027723
#
#
# Mechanical properties :
#
#
# Convention : Reuss Voigt Hill
#
# Bulk Modulus (GPa) = 37.76614 44.76799 41.26707
# Shear Modulus (GPa) = 23.49151 31.55843 27.52497
#
# Velocity S-wave (km/s) = 3.45164 4.00063 3.73623
# Velocity P-wave (km/s) = 5.91933 6.63660 6.28820
#
# Compressibility (1/GPa) = 0.02647874
#
# Stress axis : x y z
#
# Youngs Moduli (GPa) = 64.93861 91.29315 131.77404
#
# Poissons Ratio (x) = -0.09223 0.46813
# Poissons Ratio (y) = -0.06561 0.15670
# Poissons Ratio (z) = 0.23070 0.10856
#
# Static dielectric constant tensor:
#      x y z
#    x 1.679570 0.000000 0.000000 
#    y 0.000000 1.698130 0.000000 
#    z 0.000000 0.000000 1.727980 
# 
# From -- ./inp_files/2703.got.cif
#   From: 2010.05.17/outbox.cif.g08.bks.cpg/sg53_2_cif.got.tgz:2703.got - 2010.06.03 12:45:16.
