data_PCOD9419362
_publ_section_title
;
Structure prediction by ZEFSAII (Michael W. Deem and Ramdas Pophale) SiO2 
 PCOD9419362
Probable space group: P M N A
;
_chemical_formula_sum "Si O2"
_cell_formula_units_Z 56
_cell_length_a 15.759208
_cell_length_b 18.404014
_cell_length_c 8.807052
_cell_angle_alpha 90.000000
_cell_angle_beta 90.000000
_cell_angle_gamma 90.000000
_cell_volume 2554.332936
_symmetry_space_group_name_H-M "P M N A"
_symmetry_group_IT_number 53
_symmetry_cell_setting 'orthorhombic'
loop_
_space_group_symop_operation_xyz
x,y,z
1/2-x,-y,1/2+z
x,-y,-z
1/2-x,y,1/2-z
-x,-y,-z
1/2+x,y,1/2-z
-x,y,z
1/2+x,-y,1/2+z
loop_
_atom_site_type_symbol
_atom_site_label
_atom_site_fract_x
_atom_site_fract_y
_atom_site_fract_z
Si Si1 0.343537 0.430748 0.816594
Si Si2 0.904868 0.584384 0.643219
Si Si3 0.594978 0.293316 0.659146
Si Si4 0.905423 0.925102 0.094252
Si Si5 0.401075 0.157233 0.883744
Si Si6 0.261097 0.854445 0.597274
Si Si7 0.330995 0.300105 0.340399
O O1 0.250000 0.424993 0.750000
O O2 0.381044 0.509444 0.773324
O O3 0.400662 0.365962 0.755298
O O4 0.343899 0.417657 0.997483
O O5 0.901005 0.655417 0.748520
O O6 0.000000 0.577738 0.582465
O O7 0.500000 0.281519 0.597736
O O8 0.615013 0.225122 0.768434
O O9 0.657721 0.308161 0.519484
O O10 0.895958 0.915052 0.276750
O O11 0.000000 0.892158 0.065104
O O12 0.824299 0.886058 0.025763
O O13 0.907154 0.000000 0.000000
O O14 0.500000 0.163512 0.937059
O O15 0.328464 0.159754 0.012402
O O16 0.250000 0.902083 0.750000
O O17 0.316230 0.786360 0.664605
O O18 0.250000 0.330892 0.250000
#
# Coordination Sequence:
#
# PCOD9419362 Si02
#       7
#     8   8   8   8   8   8   8
#     4  11  24  40  65  91 128 173 231 288 349 421
#     4  11  24  45  64  89 131 176 226 287 354 420
#     4  11  23  40  66  97 128 173 226 282 346 417
#     4  10  22  43  72 104 142 186 233 284 337 402
#     4  10  23  44  70 103 143 187 236 287 347 417
#     4  11  25  41  67 103 142 185 231 282 346 416
#     4  11  24  40  61  95 133 170 221 281 347 407
#
# _framework density 21.923532000000002
#
# number of rings (size 3 to 8) (size 9 to 14) (size 15 to 20)
#    0.000    1.286    1.429    3.857    6.000    4.000 
#    0.000    3.571    0.000    3.000    0.000    0.000 
#    0.000    0.000    0.000    0.000    0.000    0.000 
#
# Total GULP energy -311883.580193 kJ/mol
# GULP energy per Si atom -5569.349646 kJ/mol
# Density = 2.187363 g / cm^3
# Si number density = 21.923532 Si / 1000 Ang^3
#
#
#
# Elastic Constant Matrix: (Units=GPa)
#
#
# Indices 1 2 3 4 5 6 
#
# 1 129.0901 33.4393 58.6310 0.0000 0.0000 0.0000
# 2 33.4393 62.8864 23.0292 0.0000 0.0000 0.0000
# 3 58.6310 23.0292 98.2713 0.0000 0.0000 0.0000
# 4 0.0000 0.0000 0.0000 10.2201 0.0000 0.0000
# 5 0.0000 0.0000 0.0000 0.0000 24.2506 0.0000
# 6 0.0000 0.0000 0.0000 0.0000 0.0000 18.8335
#
#
#
# Elastic Compliance Matrix: (Units=1/GPa)
#
#
# Indices 1 2 3 4 5 6 
#
# 1 0.011447 -0.003922 -0.005910 0.000000 0.000000 0.000000
# 2 -0.003922 0.018738 -0.002051 0.000000 0.000000 0.000000
# 3 -0.005910 -0.002051 0.014183 0.000000 0.000000 0.000000
# 4 0.000000 0.000000 0.000000 0.097847 0.000000 0.000000
# 5 0.000000 0.000000 0.000000 0.000000 0.041236 0.000000
# 6 0.000000 0.000000 0.000000 0.000000 0.000000 0.053097
#
#
# Mechanical properties :
#
#
# Convention : Reuss Voigt Hill
#
# Bulk Modulus (GPa) = 48.54207 57.82741 53.18474
# Shear Modulus (GPa) = 18.71379 22.33738 20.52558
#
# Velocity S-wave (km/s) = 2.92480 3.19545 3.06312
# Velocity P-wave (km/s) = 5.79617 6.32840 6.06812
#
# Compressibility (1/GPa) = 0.02060069
#
# Stress axis : x y z
#
# Youngs Moduli (GPa) = 87.35916 53.36608 70.50786
#
# Poissons Ratio (x) = 0.20933 0.41673
# Poissons Ratio (y) = 0.34266 0.14461
# Poissons Ratio (z) = 0.51632 0.10945
#
# Static dielectric constant tensor:
#      x y z
#    x 1.821020 0.000000 0.000000 
#    y 0.000000 1.862830 0.000000 
#    z 0.000000 0.000000 1.928360 
# 
# From -- ./inp_files/8868.got.cif
#   From: 2010.05.17/outbox.cif.g08.bks.cpg/sg53_5_cif.got.tgz:8868.got - 2010.06.03 12:45:16.
