data_PCOD9419342
_publ_section_title
;
Structure prediction by ZEFSAII (Michael W. Deem and Ramdas Pophale) SiO2 
 PCOD9419342
Probable space group: P M N A
;
_chemical_formula_sum "Si O2"
_cell_formula_units_Z 40
_cell_length_a 15.548037
_cell_length_b 8.307852
_cell_length_c 13.621219
_cell_angle_alpha 90.000000
_cell_angle_beta 90.000000
_cell_angle_gamma 90.000000
_cell_volume 1759.463623
_symmetry_space_group_name_H-M "P M N A"
_symmetry_group_IT_number 53
_symmetry_cell_setting 'orthorhombic'
loop_
_space_group_symop_operation_xyz
x,y,z
1/2-x,-y,1/2+z
x,-y,-z
1/2-x,y,1/2-z
-x,-y,-z
1/2+x,y,1/2-z
-x,y,z
1/2+x,-y,1/2+z
loop_
_atom_site_type_symbol
_atom_site_label
_atom_site_fract_x
_atom_site_fract_y
_atom_site_fract_z
Si Si1 0.156349 0.543663 0.214094
Si Si2 0.500000 0.950104 0.616162
Si Si3 0.823178 0.102302 0.810711
Si Si4 0.714855 0.500000 0.500000
Si Si5 0.684240 0.187623 0.971804
Si Si6 0.000000 0.330054 0.270893
Si Si7 0.000000 0.306471 0.495993
O O1 0.250000 0.491768 0.250000
O O2 0.149001 0.732092 0.241973
O O3 0.156334 0.527519 0.096038
O O4 0.083650 0.440276 0.263762
O O5 0.500000 0.777409 0.671386
O O6 0.500000 0.000000 0.500000
O O7 0.590515 0.018834 0.656089
O O8 0.750000 0.004987 0.750000
O O9 0.763850 0.164816 0.897936
O O10 0.775771 0.653842 0.526361
O O11 0.586653 0.242423 0.954187
O O12 0.673518 0.000000 0.000000
O O13 0.000000 0.251369 0.379856
O O14 0.000000 0.500000 0.500000
#
# Coordination Sequence:
#
# PCOD9419342 Si02
#       7
#     8   4   8   4   8   4   4
#     4  10  23  44  69 102 137 187 252 307 388 465
#     4  12  29  49  68 112 154 203 257 325 406 481
#     4  10  25  45  75 102 145 198 253 325 380 481
#     4  10  22  42  70 100 140 194 244 314 378 468
#     4  11  24  43  73 105 145 198 247 311 399 457
#     4  12  29  43  76 108 145 197 248 328 393 480
#     4  12  27  47  74 111 154 195 258 331 397 486
#
# _framework density 22.734200000000001
#
# number of rings (size 3 to 8) (size 9 to 14) (size 15 to 20)
#    0.000    1.200    1.000    2.700   16.800    2.000 
#    0.000    0.000    0.000    0.000    0.000    0.000 
#    0.000    0.000    0.000    0.000    0.000    0.000 
#
# Total GULP energy -222679.473083 kJ/mol
# GULP energy per Si atom -5566.986827 kJ/mol
# Density = 2.268246 g / cm^3
# Si number density = 22.734200 Si / 1000 Ang^3
#
#
#
# Elastic Constant Matrix: (Units=GPa)
#
#
# Indices 1 2 3 4 5 6 
#
# 1 131.9935 35.6435 46.9779 0.0000 0.0000 0.0000
# 2 35.6435 113.7909 13.6671 0.0000 0.0000 0.0000
# 3 46.9779 13.6671 69.7754 0.0000 0.0000 0.0000
# 4 0.0000 0.0000 0.0000 15.9353 0.0000 0.0000
# 5 0.0000 0.0000 0.0000 0.0000 30.3639 0.0000
# 6 0.0000 0.0000 0.0000 0.0000 0.0000 0.8175
#
#
#
# Elastic Compliance Matrix: (Units=1/GPa)
#
#
# Indices 1 2 3 4 5 6 
#
# 1 0.010630 -0.002530 -0.006661 0.000000 0.000000 0.000000
# 2 -0.002530 0.009602 -0.000178 0.000000 0.000000 0.000000
# 3 -0.006661 -0.000178 0.018851 0.000000 0.000000 0.000000
# 4 0.000000 0.000000 0.000000 0.062754 0.000000 0.000000
# 5 0.000000 0.000000 0.000000 0.000000 0.032934 0.000000
# 6 0.000000 0.000000 0.000000 0.000000 0.000000 1.223260
#
#
# Mechanical properties :
#
#
# Convention : Reuss Voigt Hill
#
# Bulk Modulus (GPa) = 49.14985 56.45962 52.80473
# Shear Modulus (GPa) = 3.61389 24.04141 13.82765
#
# Velocity S-wave (km/s) = 1.26217 3.25545 2.46891
# Velocity P-wave (km/s) = 4.87754 6.24653 5.60400
#
# Compressibility (1/GPa) = 0.02034594
#
# Stress axis : x y z
#
# Youngs Moduli (GPa) = 94.07215 104.14759 53.04620
#
# Poissons Ratio (x) = 0.26346 0.35337
# Poissons Ratio (y) = 0.23797 0.00942
# Poissons Ratio (z) = 0.62666 0.01849
#
# Static dielectric constant tensor:
#      x y z
#    x 1.794010 0.000000 0.000000 
#    y 0.000000 2.170380 0.000000 
#    z 0.000000 0.000000 1.653830 
# 
# From -- ./inp_files/22504.got.cif
#   From: 2010.05.17/outbox.cif.g08.bks.cpg/sg53_12_cif.got.tgz:22504.got - 2010.06.03 12:45:16.
