data_PCOD9419832
_publ_section_title
;
Structure prediction by ZEFSAII (Michael W. Deem and Ramdas Pophale) SiO2 
 PCOD9419832
Probable space group: P M N A
;
_chemical_formula_sum "Si O2"
_cell_formula_units_Z 64
_cell_length_a 8.761406
_cell_length_b 22.343049
_cell_length_c 16.375205
_cell_angle_alpha 90.000000
_cell_angle_beta 90.000000
_cell_angle_gamma 90.000000
_cell_volume 3205.553203
_symmetry_space_group_name_H-M "P M N A"
_symmetry_group_IT_number 53
_symmetry_cell_setting 'orthorhombic'
loop_
_space_group_symop_operation_xyz
x,y,z
1/2-x,-y,1/2+z
x,-y,-z
1/2-x,y,1/2-z
-x,-y,-z
1/2+x,y,1/2-z
-x,y,z
1/2+x,-y,1/2+z
loop_
_atom_site_type_symbol
_atom_site_label
_atom_site_fract_x
_atom_site_fract_y
_atom_site_fract_z
Si Si1 0.817857 0.376644 0.339837
Si Si2 0.685888 0.930964 1.000000
Si Si3 0.676143 0.500000 0.402163
Si Si4 0.817088 0.139195 0.663833
Si Si5 0.679120 0.257271 0.594975
Si Si6 0.317857 0.376644 0.839837
Si Si7 0.817088 0.860805 0.663833
Si Si8 0.179120 0.257271 0.094975
O O1 0.750000 0.367670 0.250000
O O2 0.758689 0.440381 0.371620
O O3 0.753823 0.321927 0.392820
O O4 0.000000 0.375641 0.338552
O O5 0.500000 0.929423 0.000000
O O6 0.733980 0.898192 0.916245
O O7 0.733980 0.898192 0.083755
O O8 0.734155 0.000000 0.000000
O O9 0.676129 0.500000 0.500000
O O10 0.500000 0.500000 0.373262
O O11 0.758689 0.559619 0.371620
O O12 0.750000 0.117383 0.750000
O O13 0.761010 0.206915 0.648411
O O14 0.000000 0.137627 0.667665
O O15 0.500000 0.260284 0.615902
O O16 0.753823 0.321927 0.607180
O O17 0.693515 0.239995 0.500000
O O18 0.250000 0.367670 0.750000
O O19 0.500000 0.375641 0.838552
O O20 0.750000 0.882617 0.750000
O O21 0.761010 0.793085 0.648411
O O22 0.000000 0.862373 0.667665
O O23 0.000000 0.260284 0.115902
#
# Coordination Sequence:
#
# PCOD9419832 Si02
#       8
#     8   8   8   8   8   8   8   8
#     4  12  25  41  62  88 121 159 205 255 310 373
#     4   9  20  40  65  93 129 172 215 260 313 377
#     4  11  24  43  64  87 119 157 200 251 312 375
#     4  11  22  39  64  94 129 169 215 263 318 378
#     4  11  23  40  63  91 125 162 206 260 317 374
#     4  12  25  41  62  88 121 159 205 255 310 373
#     4  11  22  39  64  94 129 169 215 263 318 378
#     4  11  23  40  63  91 125 162 206 260 317 374
#
# _framework density 19.965353
#
# number of rings (size 3 to 8) (size 9 to 14) (size 15 to 20)
#    0.000    1.000    1.250    6.000    0.000    6.000 
#    0.000    0.000    0.000    5.250    0.000    0.000 
#    0.000    0.000    0.000    0.000    0.000    0.000 
#
# Total GULP energy -358038.787972 kJ/mol
# GULP energy per Si atom -5594.356062 kJ/mol
# Density = 1.991991 g / cm^3
# Si number density = 19.965353 Si / 1000 Ang^3
#
#
#
# Elastic Constant Matrix: (Units=GPa)
#
#
# Indices 1 2 3 4 5 6 
#
# 1 116.9562 31.4185 55.1591 0.0000 0.0000 0.0000
# 2 31.4185 119.1901 51.0908 0.0000 0.0000 0.0000
# 3 55.1591 51.0908 123.7725 0.0000 0.0000 0.0000
# 4 0.0000 0.0000 0.0000 9.5229 0.0000 0.0000
# 5 0.0000 0.0000 0.0000 0.0000 34.7244 0.0000
# 6 0.0000 0.0000 0.0000 0.0000 0.0000 16.4266
#
#
#
# Elastic Compliance Matrix: (Units=1/GPa)
#
#
# Indices 1 2 3 4 5 6 
#
# 1 0.010916 -0.000962 -0.004467 0.000000 0.000000 0.000000
# 2 -0.000962 0.010278 -0.003814 0.000000 0.000000 0.000000
# 3 -0.004467 -0.003814 0.011644 0.000000 0.000000 0.000000
# 4 0.000000 0.000000 0.000000 0.105010 0.000000 0.000000
# 5 0.000000 0.000000 0.000000 0.000000 0.028798 0.000000
# 6 0.000000 0.000000 0.000000 0.000000 0.000000 0.060877
#
#
# Mechanical properties :
#
#
# Convention : Reuss Voigt Hill
#
# Bulk Modulus (GPa) = 69.67943 70.58395 70.13169
# Shear Modulus (GPa) = 19.93661 26.95146 23.44404
#
# Velocity S-wave (km/s) = 3.16343 3.67810 3.43043
# Velocity P-wave (km/s) = 6.95119 7.31217 7.13396
#
# Compressibility (1/GPa) = 0.01435144
#
# Stress axis : x y z
#
# Youngs Moduli (GPa) = 91.61186 97.29087 85.87802
#
# Poissons Ratio (x) = 0.09364 0.38364
# Poissons Ratio (y) = 0.08817 0.32752
# Poissons Ratio (z) = 0.40925 0.37105
#
# Static dielectric constant tensor:
#      x y z
#    x 1.671690 0.000000 0.000000 
#    y 0.000000 1.707580 0.000000 
#    z 0.000000 0.000000 1.686990 
# 
# From -- ./inp_files/20945.got.cif
#   From: 2010.05.17/outbox.cif.g08.bks.cpg/sg53_11_cif.got.tgz:20945.got - 2010.06.03 12:45:16.
