data_PCOD9419614
_publ_section_title
;
Structure prediction by ZEFSAII (Michael W. Deem and Ramdas Pophale) SiO2 
 PCOD9419614
Probable space group: P M N A
;
_chemical_formula_sum "Si O2"
_cell_formula_units_Z 32
_cell_length_a 7.764781
_cell_length_b 11.875760
_cell_length_c 20.409918
_cell_angle_alpha 90.000000
_cell_angle_beta 90.000000
_cell_angle_gamma 90.000000
_cell_volume 1882.053148
_symmetry_space_group_name_H-M "P M N A"
_symmetry_group_IT_number 53
_symmetry_cell_setting 'orthorhombic'
loop_
_space_group_symop_operation_xyz
x,y,z
1/2-x,-y,1/2+z
x,-y,-z
1/2-x,y,1/2-z
-x,-y,-z
1/2+x,y,1/2-z
-x,y,z
1/2+x,-y,1/2+z
loop_
_atom_site_type_symbol
_atom_site_label
_atom_site_fract_x
_atom_site_fract_y
_atom_site_fract_z
Si Si1 0.000000 0.663890 0.943504
Si Si2 0.500000 0.590515 0.404346
Si Si3 0.199342 0.286934 0.674113
Si Si4 0.792788 0.920319 0.090504
Si Si5 0.303821 0.834756 0.945522
O O1 0.833085 0.739195 0.928449
O O2 0.000000 0.544217 0.907819
O O3 0.000000 0.637229 0.021407
O O4 0.331793 0.638023 0.367741
O O5 0.250000 0.294165 0.750000
O O6 0.226420 0.159872 0.647755
O O7 0.000000 0.318797 0.664854
O O8 0.000000 0.918410 0.088601
O O9 0.731603 0.049057 0.093048
O O10 0.726445 0.868730 0.021730
O O11 0.500000 0.798563 0.936685
#
# Coordination Sequence:
#
# PCOD9419614 Si02
#       5
#     4   4   8   8   8
#     4  11  22  38  57  82 125 152 192 248 285 337
#     4  11  24  39  56  87 114 156 203 239 286 336
#     4  12  22  38  60  86 113 148 192 243 288 343
#     4  11  18  33  55  85 119 147 180 229 291 347
#     4  11  19  32  55  84 117 152 181 227 290 350
#
# _framework density 17.002708999999999
#
# number of rings (size 3 to 8) (size 9 to 14) (size 15 to 20)
#    0.000    0.750    7.500    3.750    0.000    1.000 
#    0.000    2.500    0.000    1.500    0.000    0.000 
#    0.000    0.000    0.000    0.000    0.000    0.000 
#
# Total GULP energy -178784.251045 kJ/mol
# GULP energy per Si atom -5587.007845 kJ/mol
# Density = 1.696401 g / cm^3
# Si number density = 17.002709 Si / 1000 Ang^3
#
#
#
# Elastic Constant Matrix: (Units=GPa)
#
#
# Indices 1 2 3 4 5 6 
#
# 1 196.0974 71.1577 33.9297 0.0000 0.0000 0.0000
# 2 71.1577 140.9035 38.1177 0.0000 0.0000 0.0000
# 3 33.9297 38.1177 63.3976 0.0000 0.0000 0.0000
# 4 0.0000 0.0000 0.0000 18.8426 0.0000 0.0000
# 5 0.0000 0.0000 0.0000 0.0000 -43.3332 0.0000
# 6 0.0000 0.0000 0.0000 0.0000 0.0000 -3.6282
#
#
#
# Elastic Compliance Matrix: (Units=1/GPa)
#
#
# Indices 1 2 3 4 5 6 
#
# 1 0.006406 -0.002756 -0.001771 0.000000 0.000000 0.000000
# 2 -0.002756 0.009661 -0.004334 0.000000 0.000000 0.000000
# 3 -0.001771 -0.004334 0.019327 0.000000 0.000000 0.000000
# 4 0.000000 0.000000 0.000000 0.053071 0.000000 0.000000
# 5 0.000000 0.000000 0.000000 0.000000 -0.023077 0.000000
# 6 0.000000 0.000000 0.000000 0.000000 0.000000 -0.275618
#
#
# Mechanical properties :
#
#
# Convention : Reuss Voigt Hill
#
# Bulk Modulus (GPa) = 56.58648 76.31208 66.44928
# Shear Modulus (GPa) = -26.79292 11.52247 -7.63523
#
# Velocity S-wave (km/s) = -3.97395 2.60606 -2.12140
# Velocity P-wave (km/s) = 3.50668 7.35086 5.75899
#
# Compressibility (1/GPa) = 0.01767207
#
# Stress axis : x y z
#
# Youngs Moduli (GPa) = 156.10259 103.50661 51.74042
#
# Poissons Ratio (x) = 0.28525 0.09166
# Poissons Ratio (y) = 0.43020 0.22424
# Poissons Ratio (z) = 0.27653 0.44858
#
# Static dielectric constant tensor:
#      x y z
#    x 1.580260 0.000000 0.000000 
#    y 0.000000 1.567910 0.000000 
#    z 0.000000 0.000000 1.550970 
# 
# From -- ./inp_files/30244.got.cif
#   From: 2010.05.17/outbox.cif.g08.bks.cpg/sg53_16_cif.got.tgz:30244.got - 2010.06.03 12:45:16.
