data_PCOD9419252
_publ_section_title
;
Structure prediction by ZEFSAII (Michael W. Deem and Ramdas Pophale) SiO2 
 PCOD9419252
Probable space group: P M N A
;
_chemical_formula_sum "Si O2"
_cell_formula_units_Z 56
_cell_length_a 15.221703
_cell_length_b 9.069610
_cell_length_c 20.418794
_cell_angle_alpha 90.000000
_cell_angle_beta 90.000000
_cell_angle_gamma 90.000000
_cell_volume 2818.914763
_symmetry_space_group_name_H-M "P M N A"
_symmetry_group_IT_number 53
_symmetry_cell_setting 'orthorhombic'
loop_
_space_group_symop_operation_xyz
x,y,z
1/2-x,-y,1/2+z
x,-y,-z
1/2-x,y,1/2-z
-x,-y,-z
1/2+x,y,1/2-z
-x,y,z
1/2+x,-y,1/2+z
loop_
_atom_site_type_symbol
_atom_site_label
_atom_site_fract_x
_atom_site_fract_y
_atom_site_fract_z
Si Si1 0.399464 0.669035 0.525044
Si Si2 0.247017 0.020183 0.326864
Si Si3 0.156542 0.381868 0.778166
Si Si4 0.233734 0.645986 0.855945
Si Si5 0.603344 0.838912 0.391913
Si Si6 0.594584 0.792782 0.156228
Si Si7 0.898871 0.513363 0.423159
O O1 0.398207 0.500000 0.500000
O O2 0.500000 0.701086 0.546005
O O3 0.330890 0.674569 0.583312
O O4 0.377916 0.778428 0.464789
O O5 0.250000 0.989538 0.250000
O O6 0.333913 0.968072 0.365940
O O7 0.168262 0.915607 0.349453
O O8 0.235604 0.194349 0.332933
O O9 0.250000 0.331103 0.750000
O O10 0.178284 0.547999 0.803044
O O11 0.124293 0.295451 0.842104
O O12 0.098714 0.322866 0.717762
O O13 0.320483 0.559044 0.880832
O O14 0.500000 0.875649 0.388173
O O15 0.500000 0.866864 0.160182
O O16 0.601617 0.685168 0.094805
O O17 0.880246 0.500000 0.500000
O O18 0.000000 0.459749 0.410375
#
# Coordination Sequence:
#
# PCOD9419252 Si02
#       7
#     8   8   8   8   8   8   8
#     4  10  22  40  66  98 127 164 217 265 318 384
#     4  12  26  42  59  94 135 170 207 254 321 389
#     4  12  20  38  65  95 120 159 217 260 305 375
#     4  12  25  39  66  94 137 166 203 269 328 377
#     4  11  22  41  67  92 125 168 212 262 314 383
#     4  11  23  43  69  90 122 172 219 263 315 380
#     4  10  23  43  68  96 122 161 220 274 314 365
#
# _framework density 19.8658
#
# number of rings (size 3 to 8) (size 9 to 14) (size 15 to 20)
#    0.000    0.857    5.714    1.286    2.000    2.286 
#    0.000    1.429    0.000    2.571    0.000    0.000 
#    0.000    0.000    0.000    0.000    0.000    0.000 
#
# Total GULP energy -312366.260938 kJ/mol
# GULP energy per Si atom -5577.968945 kJ/mol
# Density = 1.982058 g / cm^3
# Si number density = 19.865800 Si / 1000 Ang^3
#
#
#
# Elastic Constant Matrix: (Units=GPa)
#
#
# Indices 1 2 3 4 5 6 
#
# 1 97.7762 26.9589 7.9112 0.0000 0.0000 0.0000
# 2 26.9589 98.0825 5.9492 0.0000 0.0000 0.0000
# 3 7.9112 5.9492 32.2541 0.0000 0.0000 0.0000
# 4 0.0000 0.0000 0.0000 37.2750 0.0000 0.0000
# 5 0.0000 0.0000 0.0000 0.0000 -19.1458 0.0000
# 6 0.0000 0.0000 0.0000 0.0000 0.0000 313.9814
#
#
#
# Elastic Compliance Matrix: (Units=1/GPa)
#
#
# Indices 1 2 3 4 5 6 
#
# 1 0.011219 -0.002950 -0.002208 0.000000 0.000000 0.000000
# 2 -0.002950 0.011086 -0.001321 0.000000 0.000000 0.000000
# 3 -0.002208 -0.001321 0.031789 0.000000 0.000000 0.000000
# 4 0.000000 0.000000 0.000000 0.026828 0.000000 0.000000
# 5 0.000000 0.000000 0.000000 0.000000 -0.052231 0.000000
# 6 0.000000 0.000000 0.000000 0.000000 0.000000 0.003185
#
#
# Mechanical properties :
#
#
# Convention : Reuss Voigt Hill
#
# Bulk Modulus (GPa) = 24.30904 34.41684 29.36294
# Shear Modulus (GPa) = 85.40151 78.90835 82.15493
#
# Velocity S-wave (km/s) = 6.56373 6.30927 6.43776
# Velocity P-wave (km/s) = 8.34905 8.39275 8.37092
#
# Compressibility (1/GPa) = 0.04113696
#
# Stress axis : x y z
#
# Youngs Moduli (GPa) = 89.13132 90.20027 31.45738
#
# Poissons Ratio (x) = 0.26608 0.06945
# Poissons Ratio (y) = 0.26292 0.04157
# Poissons Ratio (z) = 0.19678 0.11919
#
# Static dielectric constant tensor:
#      x y z
#    x 1.558980 0.000000 0.000000 
#    y 0.000000 1.701260 0.000000 
#    z 0.000000 0.000000 1.705340 
# 
# From -- ./inp_files/32460.got.cif
#   From: 2010.05.17/outbox.cif.g08.bks.cpg/sg53_17_cif.got.tgz:32460.got - 2010.06.03 12:45:16.
