data_PCOD9419517
_publ_section_title
;
Structure prediction by ZEFSAII (Michael W. Deem and Ramdas Pophale) SiO2 
 PCOD9419517
Probable space group: P M N A
;
_chemical_formula_sum "Si O2"
_cell_formula_units_Z 30
_cell_length_a 5.334118
_cell_length_b 10.015753
_cell_length_c 27.658469
_cell_angle_alpha 90.000000
_cell_angle_beta 90.000000
_cell_angle_gamma 90.000000
_cell_volume 1477.659469
_symmetry_space_group_name_H-M "P M N A"
_symmetry_group_IT_number 53
_symmetry_cell_setting 'orthorhombic'
loop_
_space_group_symop_operation_xyz
x,y,z
1/2-x,-y,1/2+z
x,-y,-z
1/2-x,y,1/2-z
-x,-y,-z
1/2+x,y,1/2-z
-x,y,z
1/2+x,-y,1/2+z
loop_
_atom_site_type_symbol
_atom_site_label
_atom_site_fract_x
_atom_site_fract_y
_atom_site_fract_z
Si Si1 0.500000 0.087717 0.278370
Si Si2 0.500000 0.800365 0.320559
Si Si3 0.500000 0.387687 0.107569
Si Si4 0.000000 0.928613 0.070691
Si Si5 0.500000 0.213338 0.950481
Si Si6 0.000000 0.500000 0.500000
Si Si7 0.500000 0.659995 0.158070
Si Si8 0.000000 0.212299 0.115248
O O1 0.250000 0.126204 0.250000
O O2 0.500000 0.152305 0.330997
O O3 0.500000 0.927696 0.285880
O O4 0.500000 0.862855 0.375204
O O5 0.749473 0.712354 0.316375
O O6 0.500000 0.501836 0.148803
O O7 0.249546 0.299743 0.109538
O O8 0.500000 0.465941 0.057183
O O9 0.249323 0.874325 0.045164
O O10 0.000000 0.086826 0.078866
O O11 0.500000 0.337218 0.986819
O O12 0.500000 0.270461 0.895283
#
# Coordination Sequence:
#
# PCOD9419517 Si02
#       8
#     4   4   4   4   4   2   4   4
#     4  11  22  38  64  92 118 148 188 243 299 363
#     4   9  17  32  56  83 109 140 184 229 277 340
#     4  11  23  39  61  86 120 166 206 249 295 357
#     4   9  18  34  55  80 111 150 189 233 289 346
#     4   9  18  33  55  80 111 148 188 246 293 329
#     4  10  24  40  60  88 118 158 220 260 296 360
#     4   9  17  32  55  80 108 146 190 229 278 331
#     4  11  23  40  61  88 120 159 203 242 305 379
#
# _framework density 20.302375000000001
#
# number of rings (size 3 to 8) (size 9 to 14) (size 15 to 20)
#    0.000    2.133    0.000    3.200    0.000    9.600 
#    0.000    4.000    0.000   16.000    0.000    0.000 
#    0.000    0.000    0.000    0.000    0.000    0.000 
#
# Total GULP energy -167117.112378 kJ/mol
# GULP energy per Si atom -5570.570413 kJ/mol
# Density = 2.025617 g / cm^3
# Si number density = 20.302375 Si / 1000 Ang^3
#
#
#
# Elastic Constant Matrix: (Units=GPa)
#
#
# Indices 1 2 3 4 5 6 
#
# 1 204.9831 88.1932 24.1248 0.0000 0.0000 0.0000
# 2 88.1932 147.7025 18.3465 0.0000 0.0000 0.0000
# 3 24.1248 18.3465 53.3404 0.0000 0.0000 0.0000
# 4 0.0000 0.0000 0.0000 39.3304 0.0000 0.0000
# 5 0.0000 0.0000 0.0000 0.0000 -9.5595 0.0000
# 6 0.0000 0.0000 0.0000 0.0000 0.0000 -27.2883
#
#
#
# Elastic Compliance Matrix: (Units=1/GPa)
#
#
# Indices 1 2 3 4 5 6 
#
# 1 0.006715 -0.003794 -0.001732 0.000000 0.000000 0.000000
# 2 -0.003794 0.009217 -0.001454 0.000000 0.000000 0.000000
# 3 -0.001732 -0.001454 0.020031 0.000000 0.000000 0.000000
# 4 0.000000 0.000000 0.000000 0.025426 0.000000 0.000000
# 5 0.000000 0.000000 0.000000 0.000000 -0.104608 0.000000
# 6 0.000000 0.000000 0.000000 0.000000 0.000000 -0.036646
#
#
# Mechanical properties :
#
#
# Convention : Reuss Voigt Hill
#
# Bulk Modulus (GPa) = 45.45056 74.15056 59.80056
# Shear Modulus (GPa) = -85.36546 18.85394 -33.25576
#
# Velocity S-wave (km/s) = -6.49140 3.05069 -4.05164
# Velocity P-wave (km/s) = 5.80939 7.00081 2.76246
#
# Compressibility (1/GPa) = 0.02200193
#
# Stress axis : x y z
#
# Youngs Moduli (GPa) = 148.92600 108.50087 49.92277
#
# Poissons Ratio (x) = 0.41168 0.08646
# Poissons Ratio (y) = 0.56506 0.07259
# Poissons Ratio (z) = 0.25793 0.15776
#
# Static dielectric constant tensor:
#      x y z
#    x 1.682250 0.000000 0.000000 
#    y 0.000000 1.700450 0.000000 
#    z 0.000000 0.000000 1.713530 
# 
# From -- ./inp_files/37355.got.cif
#   From: 2010.05.17/outbox.cif.g08.bks.cpg/sg53_19_cif.got.tgz:37355.got - 2010.06.03 12:45:16.
