data_PCOD9419124
_publ_section_title
;
Structure prediction by ZEFSAII (Michael W. Deem and Ramdas Pophale) SiO2 
 PCOD9419124
Probable space group: P M N A
;
_chemical_formula_sum "Si O2"
_cell_formula_units_Z 56
_cell_length_a 22.146815
_cell_length_b 14.912044
_cell_length_c 9.008049
_cell_angle_alpha 90.000000
_cell_angle_beta 90.000000
_cell_angle_gamma 90.000000
_cell_volume 2974.946734
_symmetry_space_group_name_H-M "P M N A"
_symmetry_group_IT_number 53
_symmetry_cell_setting 'orthorhombic'
loop_
_space_group_symop_operation_xyz
x,y,z
1/2-x,-y,1/2+z
x,-y,-z
1/2-x,y,1/2-z
-x,-y,-z
1/2+x,y,1/2-z
-x,y,z
1/2+x,-y,1/2+z
loop_
_atom_site_type_symbol
_atom_site_label
_atom_site_fract_x
_atom_site_fract_y
_atom_site_fract_z
Si Si1 0.701591 0.565563 0.626770
Si Si2 0.185190 0.902219 0.557134
Si Si3 0.170462 0.087975 0.096284
Si Si4 0.000000 0.635709 0.927138
Si Si5 0.500000 0.540411 0.255772
Si Si6 0.123584 0.725777 0.009313
Si Si7 0.368444 0.442368 0.853985
Si Si8 0.682604 0.256299 0.820646
O O1 0.727096 0.500000 0.500000
O O2 0.750000 0.592876 0.750000
O O3 0.671046 0.651992 0.552601
O O4 0.654325 0.501197 0.713771
O O5 0.258086 0.900147 0.565898
O O6 0.162652 0.906114 0.726399
O O7 0.169732 0.820869 0.443229
O O8 0.167032 0.000000 0.500000
O O9 0.136883 0.174844 0.041178
O O10 0.152708 0.000000 0.000000
O O11 0.000000 0.567432 0.787274
O O12 0.939787 0.693759 0.943540
O O13 0.000000 0.579869 0.079540
O O14 0.439322 0.573898 0.176938
O O15 0.134612 0.735216 0.185696
O O16 0.325911 0.356344 0.882889
O O17 0.365852 0.500000 0.000000
O O18 0.750000 0.242678 0.750000
#
# Coordination Sequence:
#
# PCOD9419124 Si02
#       8
#     8   8   8   4   4   8   8   8
#     4  12  25  40  59  93 130 174 214 266 335 392
#     4  10  22  38  64  94 131 165 200 263 324 396
#     4  10  22  40  64  96 126 163 211 259 328 399
#     4  11  22  42  67  90 121 174 237 267 315 376
#     4  11  21  44  62  86 122 174 234 275 307 372
#     4  12  24  40  66  91 126 174 216 269 317 386
#     4  12  26  40  61  90 130 174 220 273 320 383
#     4  12  24  39  59  94 132 166 210 263 332 394
#
# _framework density 18.823865999999999
#
# number of rings (size 3 to 8) (size 9 to 14) (size 15 to 20)
#    0.000    0.714    5.714    1.929    8.000    0.000 
#    0.000    0.357    0.000    0.000    0.000    3.500 
#    0.000    0.000    0.000    0.000    0.000    0.000 
#
# Total GULP energy -312362.119945 kJ/mol
# GULP energy per Si atom -5577.894999 kJ/mol
# Density = 1.878102 g / cm^3
# Si number density = 18.823866 Si / 1000 Ang^3
#
#
#
# Elastic Constant Matrix: (Units=GPa)
#
#
# Indices 1 2 3 4 5 6 
#
# 1 57.0711 35.3753 23.1840 0.0000 0.0000 0.0000
# 2 35.3753 164.3831 70.8839 0.0000 0.0000 0.0000
# 3 23.1840 70.8839 112.0431 0.0000 0.0000 0.0000
# 4 0.0000 0.0000 0.0000 45.9685 0.0000 0.0000
# 5 0.0000 0.0000 0.0000 0.0000 25.4128 0.0000
# 6 0.0000 0.0000 0.0000 0.0000 0.0000 19.3843
#
#
#
# Elastic Compliance Matrix: (Units=1/GPa)
#
#
# Indices 1 2 3 4 5 6 
#
# 1 0.020540 -0.003558 -0.001999 0.000000 0.000000 0.000000
# 2 -0.003558 0.008982 -0.004946 0.000000 0.000000 0.000000
# 3 -0.001999 -0.004946 0.012468 0.000000 0.000000 0.000000
# 4 0.000000 0.000000 0.000000 0.021754 0.000000 0.000000
# 5 0.000000 0.000000 0.000000 0.000000 0.039350 0.000000
# 6 0.000000 0.000000 0.000000 0.000000 0.000000 0.051588
#
#
# Mechanical properties :
#
#
# Convention : Reuss Voigt Hill
#
# Bulk Modulus (GPa) = 47.65798 65.82040 56.73919
# Shear Modulus (GPa) = 27.36988 31.75672 29.56330
#
# Velocity S-wave (km/s) = 3.81727 4.11182 3.96728
# Velocity P-wave (km/s) = 6.69340 7.58849 7.15495
#
# Compressibility (1/GPa) = 0.02098285
#
# Stress axis : x y z
#
# Youngs Moduli (GPa) = 48.68654 111.33521 80.20574
#
# Poissons Ratio (x) = 0.39614 0.16033
# Poissons Ratio (y) = 0.17323 0.39671
# Poissons Ratio (z) = 0.09733 0.55068
#
# Static dielectric constant tensor:
#      x y z
#    x 1.582110 0.000000 0.000000 
#    y 0.000000 1.700930 0.000000 
#    z 0.000000 0.000000 1.742700 
# 
# From -- ./inp_files/11122.got.cif
#   From: 2010.05.17/outbox.cif.g08.bks.cpg/sg53_6_cif.got.tgz:11122.got - 2010.06.03 12:45:16.
