data_PCOD9419293
_publ_section_title
;
Structure prediction by ZEFSAII (Michael W. Deem and Ramdas Pophale) SiO2 
 PCOD9419293
Probable space group: P M N A
;
_chemical_formula_sum "Si O2"
_cell_formula_units_Z 32
_cell_length_a 15.622939
_cell_length_b 17.276081
_cell_length_c 5.074912
_cell_angle_alpha 90.000000
_cell_angle_beta 90.000000
_cell_angle_gamma 90.000000
_cell_volume 1369.734784
_symmetry_space_group_name_H-M "P M N A"
_symmetry_group_IT_number 53
_symmetry_cell_setting 'orthorhombic'
loop_
_space_group_symop_operation_xyz
x,y,z
1/2-x,-y,1/2+z
x,-y,-z
1/2-x,y,1/2-z
-x,-y,-z
1/2+x,y,1/2-z
-x,y,z
1/2+x,-y,1/2+z
loop_
_atom_site_type_symbol
_atom_site_label
_atom_site_fract_x
_atom_site_fract_y
_atom_site_fract_z
Si Si1 0.897698 0.249540 0.522535
Si Si2 0.307574 0.000000 0.500000
Si Si3 0.396702 0.346856 0.476041
Si Si4 0.250000 0.451914 0.750000
Si Si5 0.599247 0.085317 0.134206
O O1 0.888039 0.275564 0.821392
O O2 0.860859 0.163538 0.479140
O O3 0.000000 0.248089 0.474585
O O4 0.868434 0.314459 0.310624
O O5 0.364892 0.927746 0.574552
O O6 0.250000 0.015151 0.750000
O O7 0.500000 0.369514 0.472648
O O8 0.329360 0.406795 0.606822
O O9 0.213384 0.500000 0.500000
O O10 0.500000 0.098674 0.148147
O O11 0.605633 0.000000 0.000000
#
# Coordination Sequence:
#
# PCOD9419293 Si02
#       5
#     8   4   8   4   8
#     4   9  20  39  65  92 127 169 216 264 313 381
#     4  12  25  42  53  82 130 162 216 276 333 386
#     4  10  22  43  65  95 134 170 208 257 323 387
#     4  12  26  44  70 102 130 158 212 262 314 402
#     4  10  22  41  66  92 124 174 232 281 328 376
#
# _framework density 23.362186000000001
#
# number of rings (size 3 to 8) (size 9 to 14) (size 15 to 20)
#    0.000    1.750    1.250    1.875    3.500    1.000 
#    6.750    0.000    0.000    0.000    0.000    0.000 
#    0.000    0.000    0.000    0.000    0.000    0.000 
#
# Total GULP energy -178225.819901 kJ/mol
# GULP energy per Si atom -5569.556872 kJ/mol
# Density = 2.330901 g / cm^3
# Si number density = 23.362186 Si / 1000 Ang^3
#
#
#
# Elastic Constant Matrix: (Units=GPa)
#
#
# Indices 1 2 3 4 5 6 
#
# 1 44.6693 12.0189 -8.7993 0.0000 0.0000 0.0000
# 2 12.0189 62.9791 4.0202 0.0000 0.0000 0.0000
# 3 -8.7993 4.0202 70.7040 0.0000 0.0000 0.0000
# 4 0.0000 0.0000 0.0000 -40.3692 0.0000 0.0000
# 5 0.0000 0.0000 0.0000 0.0000 70.7844 0.0000
# 6 0.0000 0.0000 0.0000 0.0000 0.0000 76.1025
#
#
#
# Elastic Compliance Matrix: (Units=1/GPa)
#
#
# Indices 1 2 3 4 5 6 
#
# 1 0.024345 -0.004857 0.003306 0.000000 0.000000 0.000000
# 2 -0.004857 0.016905 -0.001566 0.000000 0.000000 0.000000
# 3 0.003306 -0.001566 0.014644 0.000000 0.000000 0.000000
# 4 0.000000 0.000000 0.000000 -0.024771 0.000000 0.000000
# 5 0.000000 0.000000 0.000000 0.000000 0.014127 0.000000
# 6 0.000000 0.000000 0.000000 0.000000 0.000000 0.013140
#
#
# Mechanical properties :
#
#
# Convention : Reuss Voigt Hill
#
# Bulk Modulus (GPa) = 20.13675 21.42577 20.78126
# Shear Modulus (GPa) = 61.59380 32.71105 47.15243
#
# Velocity S-wave (km/s) = 5.14023 3.74594 4.49745
# Velocity P-wave (km/s) = 6.62325 5.28209 5.99032
#
# Compressibility (1/GPa) = 0.04966044
#
# Stress axis : x y z
#
# Youngs Moduli (GPa) = 41.07655 59.15361 68.28766
#
# Poissons Ratio (x) = 0.28731 -0.22576
# Poissons Ratio (y) = 0.19951 0.10692
# Poissons Ratio (z) = -0.13580 0.09262
#
# Static dielectric constant tensor:
#      x y z
#    x 1.927210 0.000000 0.000000 
#    y 0.000000 1.852760 0.000000 
#    z 0.000000 0.000000 1.956790 
# 
# From -- ./inp_files/2002.got.cif
#   From: 2010.05.17/outbox.cif.g08.bks.cpg/sg53_2_cif.got.tgz:2002.got - 2010.06.03 12:45:16.
