data_PCOD9419552
_publ_section_title
;
Structure prediction by ZEFSAII (Michael W. Deem and Ramdas Pophale) SiO2 
 PCOD9419552
Probable space group: P M N A
;
_chemical_formula_sum "Si O2"
_cell_formula_units_Z 24
_cell_length_a 9.278264
_cell_length_b 11.530176
_cell_length_c 9.826761
_cell_angle_alpha 90.000000
_cell_angle_beta 90.000000
_cell_angle_gamma 90.000000
_cell_volume 1051.267058
_symmetry_space_group_name_H-M "P M N A"
_symmetry_group_IT_number 53
_symmetry_cell_setting 'orthorhombic'
loop_
_space_group_symop_operation_xyz
x,y,z
1/2-x,-y,1/2+z
x,-y,-z
1/2-x,y,1/2-z
-x,-y,-z
1/2+x,y,1/2-z
-x,y,z
1/2+x,-y,1/2+z
loop_
_atom_site_type_symbol
_atom_site_label
_atom_site_fract_x
_atom_site_fract_y
_atom_site_fract_z
Si Si1 0.752129 0.500000 0.500000
Si Si2 0.750000 0.005791 0.250000
Si Si3 0.000000 0.398237 0.132466
Si Si4 0.000000 0.134764 0.597763
Si Si5 0.000000 0.602986 0.317844
Si Si6 0.500000 0.161918 0.233037
O O1 0.652201 0.603656 0.556476
O O2 0.857823 0.553819 0.389622
O O3 0.633648 0.097908 0.305972
O O4 0.646349 0.928777 0.152601
O O5 0.000000 0.299005 0.244028
O O6 0.000000 0.533073 0.178563
O O7 0.000000 0.142974 0.432349
O O8 0.000000 0.260302 0.668343
#
# Coordination Sequence:
#
# PCOD9419552 Si02
#       6
#     4   4   4   4   4   4
#     4  10  24  44  66 110 138 176 230 270 358 418
#     4  10  24  46  68  98 132 184 234 282 336 402
#     4  11  25  44  70 108 137 179 228 284 352 417
#     4  11  26  47  69 101 137 180 233 287 347 413
#     4  11  24  41  73  97 140 176 219 289 349 408
#     4  11  25  47  74  95 142 180 236 283 342 418
#
# _framework density 22.829592999999999
#
# number of rings (size 3 to 8) (size 9 to 14) (size 15 to 20)
#    0.000    1.333    0.000    5.000   14.000    0.000 
#    0.000   13.333    0.000    0.000    0.000    0.000 
#    0.000    0.000    0.000    0.000    0.000    0.000 
#
# Total GULP energy -133763.218902 kJ/mol
# GULP energy per Si atom -5573.467454 kJ/mol
# Density = 2.277763 g / cm^3
# Si number density = 22.829593 Si / 1000 Ang^3
#
#
#
# Elastic Constant Matrix: (Units=GPa)
#
#
# Indices 1 2 3 4 5 6 
#
# 1 179.8311 38.5173 39.0987 0.0000 0.0000 0.0000
# 2 38.5173 125.8782 35.1280 0.0000 0.0000 0.0000
# 3 39.0987 35.1280 77.4849 0.0000 0.0000 0.0000
# 4 0.0000 0.0000 0.0000 23.6358 0.0000 0.0000
# 5 0.0000 0.0000 0.0000 0.0000 23.7976 0.0000
# 6 0.0000 0.0000 0.0000 0.0000 0.0000 -5.3876
#
#
#
# Elastic Compliance Matrix: (Units=1/GPa)
#
#
# Indices 1 2 3 4 5 6 
#
# 1 0.006403 -0.001211 -0.002682 0.000000 0.000000 0.000000
# 2 -0.001211 0.009324 -0.003616 0.000000 0.000000 0.000000
# 3 -0.002682 -0.003616 0.015898 0.000000 0.000000 0.000000
# 4 0.000000 0.000000 0.000000 0.042309 0.000000 0.000000
# 5 0.000000 0.000000 0.000000 0.000000 0.042021 0.000000
# 6 0.000000 0.000000 0.000000 0.000000 0.000000 -0.185612
#
#
# Mechanical properties :
#
#
# Convention : Reuss Voigt Hill
#
# Bulk Modulus (GPa) = 60.21342 67.63136 63.92239
# Shear Modulus (GPa) = -101.82596 26.43917 -37.69339
#
# Velocity S-wave (km/s) = -6.68576 3.40679 -4.06775
# Velocity P-wave (km/s) = 5.75907 6.72040 2.44917
#
# Compressibility (1/GPa) = 0.01660759
#
# Stress axis : x y z
#
# Youngs Moduli (GPa) = 156.17036 107.25264 62.89923
#
# Poissons Ratio (x) = 0.12987 0.16870
# Poissons Ratio (y) = 0.18910 0.22744
# Poissons Ratio (z) = 0.41887 0.38782
#
# Static dielectric constant tensor:
#      x y z
#    x 1.917090 0.000000 0.000000 
#    y 0.000000 1.849030 0.000000 
#    z 0.000000 0.000000 1.928640 
# 
# From -- ./inp_files/13634.got.cif
#   From: 2010.05.17/outbox.cif.g08.bks.cpg/sg53_7_cif.got.tgz:13634.got - 2010.06.03 12:45:16.
