data_PCOD9419143
_publ_section_title
;
Structure prediction by ZEFSAII (Michael W. Deem and Ramdas Pophale) SiO2 
 PCOD9419143
Probable space group: P M N A
;
_chemical_formula_sum "Si O2"
_cell_formula_units_Z 48
_cell_length_a 10.093794
_cell_length_b 31.133900
_cell_length_c 8.885848
_cell_angle_alpha 90.000000
_cell_angle_beta 90.000000
_cell_angle_gamma 90.000000
_cell_volume 2792.459244
_symmetry_space_group_name_H-M "P M N A"
_symmetry_group_IT_number 53
_symmetry_cell_setting 'orthorhombic'
loop_
_space_group_symop_operation_xyz
x,y,z
1/2-x,-y,1/2+z
x,-y,-z
1/2-x,y,1/2-z
-x,-y,-z
1/2+x,y,1/2-z
-x,y,z
1/2+x,-y,1/2+z
loop_
_atom_site_type_symbol
_atom_site_label
_atom_site_fract_x
_atom_site_fract_y
_atom_site_fract_z
Si Si1 0.158411 0.309317 0.394725
Si Si2 0.500000 0.548740 0.435039
Si Si3 0.654766 0.134006 0.894239
Si Si4 0.653623 0.227681 0.891977
Si Si5 0.843230 0.040322 0.604463
Si Si6 0.000000 0.453287 0.572640
Si Si7 0.754540 0.596461 0.567744
O O1 0.250000 0.301711 0.250000
O O2 0.172056 0.268143 0.500700
O O3 0.216814 0.353350 0.463840
O O4 0.000000 0.315483 0.361522
O O5 0.500000 0.500000 0.500000
O O6 0.500000 0.545952 0.253740
O O7 0.624569 0.575593 0.496506
O O8 0.750000 0.134256 0.750000
O O9 0.500000 0.133408 0.847804
O O10 0.675734 0.180696 0.968949
O O11 0.677085 0.087630 0.970660
O O12 0.750000 0.230757 0.750000
O O13 0.500000 0.228489 0.841703
O O14 0.750000 0.038826 0.750000
O O15 0.000000 0.037250 0.643987
O O16 0.811840 0.000000 0.500000
O O17 0.000000 0.500000 0.500000
O O18 0.126206 0.429115 0.506732
O O19 0.750000 0.591943 0.750000
#
# Coordination Sequence:
#
# PCOD9419143 Si02
#       7
#     8   4   8   8   8   4   8
#     4  10  22  39  59  82 111 146 180 217 267 321
#     4  12  26  42  64  94 118 152 188 228 279 320
#     4   8  14  27  47  68  97 134 172 215 265 317
#     4   9  18  33  53  80 107 136 176 223 268 316
#     4   9  17  29  46  69  97 133 175 219 268 322
#     4  12  24  42  64  88 122 150 186 232 269 324
#     4  11  23  42  63  86 116 153 190 226 272 329
#
# _framework density 17.189150000000001
#
# number of rings (size 3 to 8) (size 9 to 14) (size 15 to 20)
#    0.000    2.167    0.833    2.500    3.500    2.333 
#    0.000    0.833    0.000    0.000    0.000    0.000 
#    0.000    0.000    0.000    0.000    0.000    0.000 
#
# Total GULP energy -267236.972365 kJ/mol
# GULP energy per Si atom -5567.436924 kJ/mol
# Density = 1.715003 g / cm^3
# Si number density = 17.189150 Si / 1000 Ang^3
#
#
#
# Elastic Constant Matrix: (Units=GPa)
#
#
# Indices 1 2 3 4 5 6 
#
# 1 102.5206 80.6326 39.6682 0.0000 0.0000 0.0000
# 2 80.6326 207.9298 75.6501 0.0000 0.0000 0.0000
# 3 39.6682 75.6501 70.4715 0.0000 0.0000 0.0000
# 4 0.0000 0.0000 0.0000 24.9422 0.0000 0.0000
# 5 0.0000 0.0000 0.0000 0.0000 30.0743 0.0000
# 6 0.0000 0.0000 0.0000 0.0000 0.0000 7.2288
#
#
#
# Elastic Compliance Matrix: (Units=1/GPa)
#
#
# Indices 1 2 3 4 5 6 
#
# 1 0.014542 -0.004366 -0.003498 0.000000 0.000000 0.000000
# 2 -0.004366 0.009202 -0.007421 0.000000 0.000000 0.000000
# 3 -0.003498 -0.007421 0.024125 0.000000 0.000000 0.000000
# 4 0.000000 0.000000 0.000000 0.040093 0.000000 0.000000
# 5 0.000000 0.000000 0.000000 0.000000 0.033251 0.000000
# 6 0.000000 0.000000 0.000000 0.000000 0.000000 0.138336
#
#
# Mechanical properties :
#
#
# Convention : Reuss Voigt Hill
#
# Bulk Modulus (GPa) = 57.80785 85.86929 71.83857
# Shear Modulus (GPa) = 16.89834 24.78045 20.83940
#
# Velocity S-wave (km/s) = 3.13882 3.80100 3.48567
# Velocity P-wave (km/s) = 6.84395 8.32631 7.62126
#
# Compressibility (1/GPa) = 0.01729869
#
# Stress axis : x y z
#
# Youngs Moduli (GPa) = 68.76671 108.66692 41.44993
#
# Poissons Ratio (x) = 0.47448 0.14501
# Poissons Ratio (y) = 0.30026 0.30759
# Poissons Ratio (z) = 0.24057 0.80640
#
# Static dielectric constant tensor:
#      x y z
#    x 1.500970 0.000000 0.000000 
#    y 0.000000 1.640850 0.000000 
#    z 0.000000 0.000000 1.549160 
# 
# From -- ./inp_files/6796.got.cif
#   From: 2010.05.17/outbox.cif.g08.bks.cpg/sg53_4_cif.got.tgz:6796.got - 2010.06.03 12:45:16.
