data_PCOD9419944
_publ_section_title
;
Structure prediction by ZEFSAII (Michael W. Deem and Ramdas Pophale) SiO2 
 PCOD9419944
Probable space group: P M N A
;
_chemical_formula_sum "Si O2"
_cell_formula_units_Z 24
_cell_length_a 22.513760
_cell_length_b 5.135859
_cell_length_c 7.298570
_cell_angle_alpha 90.000000
_cell_angle_beta 90.000000
_cell_angle_gamma 90.000000
_cell_volume 843.915380
_symmetry_space_group_name_H-M "P M N A"
_symmetry_group_IT_number 53
_symmetry_cell_setting 'orthorhombic'
loop_
_space_group_symop_operation_xyz
x,y,z
1/2-x,-y,1/2+z
x,-y,-z
1/2-x,y,1/2-z
-x,-y,-z
1/2+x,y,1/2-z
-x,y,z
1/2+x,-y,1/2+z
loop_
_atom_site_type_symbol
_atom_site_label
_atom_site_fract_x
_atom_site_fract_y
_atom_site_fract_z
Si Si1 0.608730 0.054088 0.277280
Si Si2 0.000000 0.309857 0.386685
Si Si3 0.000000 0.692446 0.122682
Si Si4 0.319538 0.547128 0.214571
O O1 0.562989 0.177429 0.131492
O O2 0.561565 0.847961 0.369502
O O3 0.644556 0.321306 0.325959
O O4 0.660148 0.155011 0.758319
O O5 0.000000 0.370041 0.121159
O O6 0.000000 0.630720 0.375520
O O7 0.250000 0.517665 0.250000
O O8 0.331161 0.500000 0.000000
#
# Coordination Sequence:
#
# PCOD9419944 Si02
#       4
#     8   4   4   8
#     4  11  25  46  74 105 148 191 242 302 370 448
#     4  11  24  44  76 111 146 187 237 299 382 452
#     4  11  26  46  71 116 152 191 237 305 378 448
#     4  12  27  49  73 105 142 195 255 310 368 442
#
# _framework density 28.438873999999998
#
# number of rings (size 3 to 8) (size 9 to 14) (size 15 to 20)
#    0.000    0.667    3.333    3.000    4.667    5.333 
#    6.000    2.500    0.000    0.000    0.000    0.000 
#    0.000    0.000    0.000    0.000    0.000    0.000 
#
# Total GULP energy -133841.262399 kJ/mol
# GULP energy per Si atom -5576.719267 kJ/mol
# Density = 2.837415 g / cm^3
# Si number density = 28.438874 Si / 1000 Ang^3
#
#
#
# Elastic Constant Matrix: (Units=GPa)
#
#
# Indices 1 2 3 4 5 6 
#
# 1 247.3735 116.9349 43.1430 0.0000 0.0000 0.0000
# 2 116.9349 268.6999 67.5555 0.0000 0.0000 0.0000
# 3 43.1430 67.5555 116.5331 0.0000 0.0000 0.0000
# 4 0.0000 0.0000 0.0000 81.7183 0.0000 0.0000
# 5 0.0000 0.0000 0.0000 0.0000 111.8399 0.0000
# 6 0.0000 0.0000 0.0000 0.0000 0.0000 77.1502
#
#
#
# Elastic Compliance Matrix: (Units=1/GPa)
#
#
# Indices 1 2 3 4 5 6 
#
# 1 0.005139 -0.002058 -0.000710 0.000000 0.000000 0.000000
# 2 -0.002058 0.005181 -0.002241 0.000000 0.000000 0.000000
# 3 -0.000710 -0.002241 0.010143 0.000000 0.000000 0.000000
# 4 0.000000 0.000000 0.000000 0.012237 0.000000 0.000000
# 5 0.000000 0.000000 0.000000 0.000000 0.008941 0.000000
# 6 0.000000 0.000000 0.000000 0.000000 0.000000 0.012962
#
#
# Mechanical properties :
#
#
# Convention : Reuss Voigt Hill
#
# Bulk Modulus (GPa) = 95.73803 120.87481 108.30642
# Shear Modulus (GPa) = 73.41802 81.13990 77.27896
#
# Velocity S-wave (km/s) = 5.08646 5.34727 5.21850
# Velocity P-wave (km/s) = 8.26037 8.98443 8.63000
#
# Compressibility (1/GPa) = 0.01044517
#
# Stress axis : x y z
#
# Youngs Moduli (GPa) = 194.58746 193.02014 98.58719
#
# Poissons Ratio (x) = 0.39725 0.06995
# Poissons Ratio (y) = 0.40048 0.22098
# Poissons Ratio (z) = 0.13806 0.43264
#
# Static dielectric constant tensor:
#      x y z
#    x 1.944350 0.000000 0.000000 
#    y 0.000000 2.292230 0.000000 
#    z 0.000000 0.000000 3.940790 
# 
# From -- ./inp_files/16356.got.cif
#   From: 2010.05.17/outbox.cif.g08.bks.cpg/sg53_9_cif.got.tgz:16356.got - 2010.06.03 12:45:16.
