data_PCOD9419196
_publ_section_title
;
Structure prediction by ZEFSAII (Michael W. Deem and Ramdas Pophale) SiO2 
 PCOD9419196
Probable space group: P M N A
;
_chemical_formula_sum "Si O2"
_cell_formula_units_Z 40
_cell_length_a 14.127470
_cell_length_b 13.897799
_cell_length_c 10.149618
_cell_angle_alpha 90.000000
_cell_angle_beta 90.000000
_cell_angle_gamma 90.000000
_cell_volume 1992.783493
_symmetry_space_group_name_H-M "P M N A"
_symmetry_group_IT_number 53
_symmetry_cell_setting 'orthorhombic'
loop_
_space_group_symop_operation_xyz
x,y,z
1/2-x,-y,1/2+z
x,-y,-z
1/2-x,y,1/2-z
-x,-y,-z
1/2+x,y,1/2-z
-x,y,z
1/2+x,-y,1/2+z
loop_
_atom_site_type_symbol
_atom_site_label
_atom_site_fract_x
_atom_site_fract_y
_atom_site_fract_z
Si Si1 0.768231 0.419673 0.096068
Si Si2 0.607536 0.241529 0.321340
Si Si3 0.114892 0.027842 0.146882
Si Si4 0.115267 0.913670 0.400600
Si Si5 0.107715 0.289481 0.487974
O O1 0.750000 0.450211 0.250000
O O2 0.832699 0.325021 0.111993
O O3 0.675130 0.381844 0.017915
O O4 0.811152 0.500000 0.000000
O O5 0.500000 0.241850 0.373833
O O6 0.650423 0.135761 0.333469
O O7 0.602948 0.260718 0.165770
O O8 0.000000 0.033154 0.158697
O O9 0.143189 0.951261 0.256793
O O10 0.138901 0.000000 0.000000
O O11 0.146295 0.805805 0.437909
O O12 0.000000 0.908546 0.408681
O O13 0.142616 0.000000 0.500000
O O14 0.000000 0.310125 0.533170
#
# Coordination Sequence:
#
# PCOD9419196 Si02
#       5
#     8   8   8   8   8
#     4  10  22  40  58  76 106 141 181 236 285 322
#     4   9  17  33  57  79 105 144 183 217 266 333
#     4   9  16  27  47  78 113 142 169 209 262 315
#     4   9  14  25  49  78 106 137 172 209 252 314
#     4   9  17  32  57  82 104 139 184 224 267 323
#
# _framework density 20.072426
#
# number of rings (size 3 to 8) (size 9 to 14) (size 15 to 20)
#    0.000    2.800    2.000    0.000    0.000    0.800 
#    3.600    1.000    0.000    0.000    0.000    0.000 
#    0.000    0.000    0.000    0.000    0.000    0.000 
#
# Total GULP energy -223035.323879 kJ/mol
# GULP energy per Si atom -5575.883097 kJ/mol
# Density = 2.002674 g / cm^3
# Si number density = 20.072426 Si / 1000 Ang^3
#
#
#
# Elastic Constant Matrix: (Units=GPa)
#
#
# Indices 1 2 3 4 5 6 
#
# 1 59.0367 23.5083 13.1823 0.0000 0.0000 0.0000
# 2 23.5083 85.7405 39.8754 0.0000 0.0000 0.0000
# 3 13.1823 39.8754 79.6140 0.0000 0.0000 0.0000
# 4 0.0000 0.0000 0.0000 36.4503 0.0000 0.0000
# 5 0.0000 0.0000 0.0000 0.0000 -36.4910 0.0000
# 6 0.0000 0.0000 0.0000 0.0000 0.0000 19.5557
#
#
#
# Elastic Compliance Matrix: (Units=1/GPa)
#
#
# Indices 1 2 3 4 5 6 
#
# 1 0.019045 -0.004895 -0.000701 0.000000 0.000000 0.000000
# 2 -0.004895 0.016463 -0.007435 0.000000 0.000000 0.000000
# 3 -0.000701 -0.007435 0.016401 0.000000 0.000000 0.000000
# 4 0.000000 0.000000 0.000000 0.027435 0.000000 0.000000
# 5 0.000000 0.000000 0.000000 0.000000 -0.027404 0.000000
# 6 0.000000 0.000000 0.000000 0.000000 0.000000 0.051136
#
#
# Mechanical properties :
#
#
# Convention : Reuss Voigt Hill
#
# Bulk Modulus (GPa) = 38.69302 41.94701 40.32001
# Shear Modulus (GPa) = 36.29658 13.75802 25.02730
#
# Velocity S-wave (km/s) = 4.25700 2.62089 3.53491
# Velocity P-wave (km/s) = 6.59404 5.48652 6.06561
#
# Compressibility (1/GPa) = 0.02584446
#
# Stress axis : x y z
#
# Youngs Moduli (GPa) = 52.50837 60.74153 60.97295
#
# Poissons Ratio (x) = 0.29736 0.04277
# Poissons Ratio (y) = 0.25705 0.45334
# Poissons Ratio (z) = 0.03683 0.45162
#
# Static dielectric constant tensor:
#      x y z
#    x 1.816510 0.000000 0.000000 
#    y 0.000000 1.684350 0.000000 
#    z 0.000000 0.000000 1.670570 
# 
# From -- ./inp_files/8393.got.cif
#   From: 2010.05.17/outbox.cif.g08.bks.cpg/sg53_5_cif.got.tgz:8393.got - 2010.06.03 12:45:16.
