data_PCOD9419843
_publ_section_title
;
Structure prediction by ZEFSAII (Michael W. Deem and Ramdas Pophale) SiO2 
 PCOD9419843
Probable space group: P M N A
;
_chemical_formula_sum "Si O2"
_cell_formula_units_Z 48
_cell_length_a 27.972048
_cell_length_b 9.051570
_cell_length_c 9.287898
_cell_angle_alpha 90.000000
_cell_angle_beta 90.000000
_cell_angle_gamma 90.000000
_cell_volume 2351.611723
_symmetry_space_group_name_H-M "P M N A"
_symmetry_group_IT_number 53
_symmetry_cell_setting 'orthorhombic'
loop_
_space_group_symop_operation_xyz
x,y,z
1/2-x,-y,1/2+z
x,-y,-z
1/2-x,y,1/2-z
-x,-y,-z
1/2+x,y,1/2-z
-x,y,z
1/2+x,-y,1/2+z
loop_
_atom_site_type_symbol
_atom_site_label
_atom_site_fract_x
_atom_site_fract_y
_atom_site_fract_z
Si Si1 0.871891 0.587774 0.648868
Si Si2 0.944740 0.414673 0.846881
Si Si3 0.817062 0.657976 0.932756
Si Si4 0.764764 0.139185 0.413223
Si Si5 0.875064 0.089413 0.373463
Si Si6 0.610453 0.876407 0.395833
O O1 0.859155 0.500000 0.500000
O O2 0.908561 0.484393 0.733248
O O3 0.829886 0.630078 0.764530
O O4 0.897422 0.748532 0.639344
O O5 0.928755 0.244870 0.857735
O O6 0.000000 0.429387 0.806295
O O7 0.938440 0.500000 0.000000
O O8 0.763136 0.713626 0.956359
O O9 0.825474 0.500000 0.000000
O O10 0.849964 0.781489 0.012738
O O11 0.750000 0.113344 0.250000
O O12 0.821567 0.134543 0.427397
O O13 0.745082 0.000000 0.500000
O O14 0.899788 0.000000 0.500000
O O15 0.871048 0.975729 0.239278
O O16 0.589635 0.000000 0.500000
#
# Coordination Sequence:
#
# PCOD9419843 Si02
#       6
#     8   8   8   8   8   8
#     4  12  23  43  66  91 135 173 217 269 340 400
#     4  11  23  43  71 103 133 168 220 273 334 410
#     4  12  23  41  64  93 125 180 229 269 327 396
#     4  11  22  41  59  91 129 166 224 279 321 380
#     4  11  24  39  65  94 130 174 218 270 334 390
#     4  12  20  41  70  93 130 177 216 273 332 395
#
# _framework density 20.411532000000001
#
# number of rings (size 3 to 8) (size 9 to 14) (size 15 to 20)
#    0.000    0.500    6.667    2.500    0.000    1.333 
#    0.000    0.833    0.000    2.000    0.000    0.000 
#    0.000    0.000    0.000    0.000    0.000    0.000 
#
# Total GULP energy -267507.176602 kJ/mol
# GULP energy per Si atom -5573.066179 kJ/mol
# Density = 2.036507 g / cm^3
# Si number density = 20.411532 Si / 1000 Ang^3
#
#
#
# Elastic Constant Matrix: (Units=GPa)
#
#
# Indices 1 2 3 4 5 6 
#
# 1 52.9049 10.8297 -5.4874 0.0000 0.0000 0.0000
# 2 10.8297 166.7058 43.8720 0.0000 0.0000 0.0000
# 3 -5.4874 43.8720 78.9663 0.0000 0.0000 0.0000
# 4 0.0000 0.0000 0.0000 48.2819 0.0000 0.0000
# 5 0.0000 0.0000 0.0000 0.0000 5.6384 0.0000
# 6 0.0000 0.0000 0.0000 0.0000 0.0000 17.7412
#
#
#
# Elastic Compliance Matrix: (Units=1/GPa)
#
#
# Indices 1 2 3 4 5 6 
#
# 1 0.019543 -0.001906 0.002417 0.000000 0.000000 0.000000
# 2 -0.001906 0.007212 -0.004139 0.000000 0.000000 0.000000
# 3 0.002417 -0.004139 0.015131 0.000000 0.000000 0.000000
# 4 0.000000 0.000000 0.000000 0.020712 0.000000 0.000000
# 5 0.000000 0.000000 0.000000 0.000000 0.177356 0.000000
# 6 0.000000 0.000000 0.000000 0.000000 0.000000 0.056366
#
#
# Mechanical properties :
#
#
# Convention : Reuss Voigt Hill
#
# Bulk Modulus (GPa) = 28.87704 44.11173 36.49439
# Shear Modulus (GPa) = 15.86706 30.95647 23.41177
#
# Velocity S-wave (km/s) = 2.79114 3.89860 3.39039
# Velocity P-wave (km/s) = 4.95635 6.47484 5.76580
#
# Compressibility (1/GPa) = 0.03462958
#
# Stress axis : x y z
#
# Youngs Moduli (GPa) = 51.17031 138.66437 66.08886
#
# Poissons Ratio (x) = 0.26423 -0.15972
# Poissons Ratio (y) = 0.09751 0.27355
# Poissons Ratio (z) = -0.12366 0.57394
#
# Static dielectric constant tensor:
#      x y z
#    x 1.743710 0.000000 0.000000 
#    y 0.000000 1.848370 0.000000 
#    z 0.000000 0.000000 1.807930 
# 
# From -- ./inp_files/13006.got.cif
#   From: 2010.05.17/outbox.cif.g08.bks.cpg/sg53_7_cif.got.tgz:13006.got - 2010.06.03 12:45:16.
