data_PCOD9419223
_publ_section_title
;
Structure prediction by ZEFSAII (Michael W. Deem and Ramdas Pophale) SiO2 
 PCOD9419223
Probable space group: P M N A
;
_chemical_formula_sum "Si O2"
_cell_formula_units_Z 48
_cell_length_a 19.880870
_cell_length_b 14.389382
_cell_length_c 8.323198
_cell_angle_alpha 90.000000
_cell_angle_beta 90.000000
_cell_angle_gamma 90.000000
_cell_volume 2381.045825
_symmetry_space_group_name_H-M "P M N A"
_symmetry_group_IT_number 53
_symmetry_cell_setting 'orthorhombic'
loop_
_space_group_symop_operation_xyz
x,y,z
1/2-x,-y,1/2+z
x,-y,-z
1/2-x,y,1/2-z
-x,-y,-z
1/2+x,y,1/2-z
-x,y,z
1/2+x,-y,1/2+z
loop_
_atom_site_type_symbol
_atom_site_label
_atom_site_fract_x
_atom_site_fract_y
_atom_site_fract_z
Si Si1 0.679349 0.956808 0.674155
Si Si2 0.327415 0.622975 0.807209
Si Si3 0.072813 0.260494 0.783005
Si Si4 0.921249 0.215738 0.157281
Si Si5 0.325184 0.589257 0.189735
Si Si6 0.926579 0.067595 0.652850
O O1 0.750000 0.927987 0.750000
O O2 0.624498 0.874745 0.688750
O O3 0.691867 0.000000 0.500000
O O4 0.642126 0.040108 0.763804
O O5 0.250000 0.642121 0.750000
O O6 0.380087 0.697193 0.733973
O O7 0.345299 0.516081 0.764396
O O8 0.328151 0.615063 0.000966
O O9 0.129054 0.336336 0.774293
O O10 0.077813 0.179319 0.648786
O O11 0.000000 0.305431 0.760457
O O12 0.075643 0.219993 0.962968
O O13 0.000000 0.210385 0.212955
O O14 0.250000 0.599370 0.250000
O O15 0.000000 0.051471 0.737048
O O16 0.929034 0.000000 0.500000
#
# Coordination Sequence:
#
# PCOD9419223 Si02
#       6
#     8   8   8   8   8   8
#     4  12  25  43  64  92 127 166 212 266 318 381
#     4  10  22  42  64  96 127 167 216 264 323 389
#     4  10  22  40  62  93 127 168 215 263 321 384
#     4  11  24  42  66  94 127 170 215 263 323 389
#     4  10  22  40  66  92 130 169 210 268 327 385
#     4  10  22  41  64  91 126 168 213 260 315 378
#
# _framework density 20.159209000000001
#
# number of rings (size 3 to 8) (size 9 to 14) (size 15 to 20)
#    0.000    1.500    1.667    2.500    2.333    4.667 
#    3.000    3.333    0.000    0.000    0.000    0.000 
#    0.000    0.000    0.000    0.000    0.000    0.000 
#
# Total GULP energy -267523.286467 kJ/mol
# GULP energy per Si atom -5573.401801 kJ/mol
# Density = 2.011333 g / cm^3
# Si number density = 20.159209 Si / 1000 Ang^3
#
#
#
# Elastic Constant Matrix: (Units=GPa)
#
#
# Indices 1 2 3 4 5 6 
#
# 1 123.0192 71.8169 20.1186 0.0000 0.0000 0.0000
# 2 71.8169 105.3214 17.7619 0.0000 0.0000 0.0000
# 3 20.1186 17.7619 38.1012 0.0000 0.0000 0.0000
# 4 0.0000 0.0000 0.0000 7.9445 0.0000 0.0000
# 5 0.0000 0.0000 0.0000 0.0000 9.8590 0.0000
# 6 0.0000 0.0000 0.0000 0.0000 0.0000 49.3616
#
#
#
# Elastic Compliance Matrix: (Units=1/GPa)
#
#
# Indices 1 2 3 4 5 6 
#
# 1 0.013846 -0.008909 -0.003158 0.000000 0.000000 0.000000
# 2 -0.008909 0.016037 -0.002772 0.000000 0.000000 0.000000
# 3 -0.003158 -0.002772 0.029206 0.000000 0.000000 0.000000
# 4 0.000000 0.000000 0.000000 0.125874 0.000000 0.000000
# 5 0.000000 0.000000 0.000000 0.000000 0.101430 0.000000
# 6 0.000000 0.000000 0.000000 0.000000 0.000000 0.020259
#
#
# Mechanical properties :
#
#
# Convention : Reuss Voigt Hill
#
# Bulk Modulus (GPa) = 34.00077 53.98184 43.99130
# Shear Modulus (GPa) = 14.44532 23.88264 19.16398
#
# Velocity S-wave (km/s) = 2.67977 3.44568 3.08658
# Velocity P-wave (km/s) = 5.14564 6.53194 5.87979
#
# Compressibility (1/GPa) = 0.02941109
#
# Stress axis : x y z
#
# Youngs Moduli (GPa) = 72.22219 62.35574 34.23989
#
# Poissons Ratio (x) = 0.55552 0.10813
# Poissons Ratio (y) = 0.64342 0.09491
# Poissons Ratio (z) = 0.22809 0.17285
#
# Static dielectric constant tensor:
#      x y z
#    x 1.676310 0.000000 0.000000 
#    y 0.000000 1.759150 0.000000 
#    z 0.000000 0.000000 1.447250 
# 
# From -- ./inp_files/9929.got.cif
#   From: 2010.05.17/outbox.cif.g08.bks.cpg/sg53_5_cif.got.tgz:9929.got - 2010.06.03 12:45:16.
