data_PCOD9419151
_publ_section_title
;
Structure prediction by ZEFSAII (Michael W. Deem and Ramdas Pophale) SiO2 
 PCOD9419151
Probable space group: P M N A
;
_chemical_formula_sum "Si O2"
_cell_formula_units_Z 48
_cell_length_a 23.109912
_cell_length_b 11.364293
_cell_length_c 9.659455
_cell_angle_alpha 90.000000
_cell_angle_beta 90.000000
_cell_angle_gamma 90.000000
_cell_volume 2536.841524
_symmetry_space_group_name_H-M "P M N A"
_symmetry_group_IT_number 53
_symmetry_cell_setting 'orthorhombic'
loop_
_space_group_symop_operation_xyz
x,y,z
1/2-x,-y,1/2+z
x,-y,-z
1/2-x,y,1/2-z
-x,-y,-z
1/2+x,y,1/2-z
-x,y,z
1/2+x,-y,1/2+z
loop_
_atom_site_type_symbol
_atom_site_label
_atom_site_fract_x
_atom_site_fract_y
_atom_site_fract_z
Si Si1 0.570055 0.996486 0.840695
Si Si2 0.750118 0.623804 0.581913
Si Si3 0.431707 0.257716 0.781537
Si Si4 0.877315 0.636327 0.542079
Si Si5 0.931964 0.248494 0.210336
Si Si6 0.627243 0.360797 0.530780
O O1 0.500000 0.991400 0.847016
O O2 0.589179 0.879877 0.759802
O O3 0.583067 0.119885 0.767061
O O4 0.590916 0.000000 0.000000
O O5 0.751264 0.500000 0.500000
O O6 0.750000 0.610065 0.750000
O O7 0.811112 0.681401 0.540053
O O8 0.690542 0.677790 0.524628
O O9 0.500000 0.277098 0.751833
O O10 0.388572 0.335260 0.688945
O O11 0.418759 0.292096 0.939981
O O12 0.878796 0.500000 0.500000
O O13 0.900280 0.654837 0.696109
O O14 0.000000 0.254647 0.235139
O O15 0.918004 0.282193 0.054326
O O16 0.620955 0.500000 0.500000
#
# Coordination Sequence:
#
# PCOD9419151 Si02
#       6
#     8   8   8   8   8   8
#     4   9  18  36  59  83 114 156 206 243 277 345
#     4  10  22  39  60  84 115 158 207 242 281 353
#     4  11  23  38  59  89 122 157 197 243 296 356
#     4  11  22  35  59  87 117 153 199 242 291 354
#     4  11  21  36  60  86 117 159 193 239 303 349
#     4  11  24  39  58  86 126 157 190 244 302 352
#
# _framework density 18.921164999999998
#
# number of rings (size 3 to 8) (size 9 to 14) (size 15 to 20)
#    0.000    1.500    3.333    2.000    7.000    4.667 
#    0.000    2.500    0.000    6.000    0.000    0.000 
#    0.000    0.000    0.000    0.000    0.000    0.000 
#
# Total GULP energy -267655.349028 kJ/mol
# GULP energy per Si atom -5576.153105 kJ/mol
# Density = 1.887810 g / cm^3
# Si number density = 18.921165 Si / 1000 Ang^3
#
#
#
# Elastic Constant Matrix: (Units=GPa)
#
#
# Indices 1 2 3 4 5 6 
#
# 1 84.4553 13.8341 3.4589 0.0000 0.0000 0.0000
# 2 13.8341 57.9980 -14.6318 0.0000 0.0000 0.0000
# 3 3.4589 -14.6318 35.8516 0.0000 0.0000 0.0000
# 4 0.0000 0.0000 0.0000 27.1293 0.0000 0.0000
# 5 0.0000 0.0000 0.0000 0.0000 29.1825 0.0000
# 6 0.0000 0.0000 0.0000 0.0000 0.0000 -12.7082
#
#
#
# Elastic Compliance Matrix: (Units=1/GPa)
#
#
# Indices 1 2 3 4 5 6 
#
# 1 0.012554 -0.003679 -0.002713 0.000000 0.000000 0.000000
# 2 -0.003679 0.020299 0.008639 0.000000 0.000000 0.000000
# 3 -0.002713 0.008639 0.031680 0.000000 0.000000 0.000000
# 4 0.000000 0.000000 0.000000 0.036861 0.000000 0.000000
# 5 0.000000 0.000000 0.000000 0.000000 0.034267 0.000000
# 6 0.000000 0.000000 0.000000 0.000000 0.000000 -0.078689
#
#
# Mechanical properties :
#
#
# Convention : Reuss Voigt Hill
#
# Bulk Modulus (GPa) = 14.48658 20.40305 17.44482
# Shear Modulus (GPa) = 66.23739 20.43030 43.33385
#
# Velocity S-wave (km/s) = 5.92309 3.28953 4.79083
# Velocity P-wave (km/s) = 7.37904 5.02341 6.31209
#
# Compressibility (1/GPa) = 0.06902940
#
# Stress axis : x y z
#
# Youngs Moduli (GPa) = 79.65402 49.26342 31.56529
#
# Poissons Ratio (x) = 0.18124 0.08563
# Poissons Ratio (y) = 0.29304 -0.27271
# Poissons Ratio (z) = 0.21607 -0.42561
#
# Static dielectric constant tensor:
#      x y z
#    x 1.671860 0.000000 0.000000 
#    y 0.000000 1.657820 0.000000 
#    z 0.000000 0.000000 1.634090 
# 
# From -- ./inp_files/11774.got.cif
#   From: 2010.05.17/outbox.cif.g08.bks.cpg/sg53_6_cif.got.tgz:11774.got - 2010.06.03 12:45:16.
