data_PCOD9419197
_publ_section_title
;
Structure prediction by ZEFSAII (Michael W. Deem and Ramdas Pophale) SiO2 
 PCOD9419197
Probable space group: P M N A
;
_chemical_formula_sum "Si O2"
_cell_formula_units_Z 32
_cell_length_a 8.617406
_cell_length_b 12.782583
_cell_length_c 15.007308
_cell_angle_alpha 90.000000
_cell_angle_beta 90.000000
_cell_angle_gamma 90.000000
_cell_volume 1653.095608
_symmetry_space_group_name_H-M "P M N A"
_symmetry_group_IT_number 53
_symmetry_cell_setting 'orthorhombic'
loop_
_space_group_symop_operation_xyz
x,y,z
1/2-x,-y,1/2+z
x,-y,-z
1/2-x,y,1/2-z
-x,-y,-z
1/2+x,y,1/2-z
-x,y,z
1/2+x,-y,1/2+z
loop_
_atom_site_type_symbol
_atom_site_label
_atom_site_fract_x
_atom_site_fract_y
_atom_site_fract_z
Si Si1 0.186933 0.723330 0.350005
Si Si2 0.815511 0.275076 0.149663
Si Si3 0.312105 0.879012 0.995546
Si Si4 0.813727 0.492174 0.351095
O O1 0.250000 0.735991 0.250000
O O2 0.237660 0.813861 0.417082
O O3 0.229882 0.607226 0.386105
O O4 0.000000 0.725132 0.344864
O O5 0.750000 0.265691 0.250000
O O6 0.755452 0.385869 0.109940
O O7 0.000000 0.277104 0.153677
O O8 0.755462 0.180919 0.089265
O O9 0.500000 0.874798 0.990857
O O10 0.265423 0.000000 0.000000
O O11 0.750000 0.493843 0.250000
O O12 0.000000 0.483277 0.351886
#
# Coordination Sequence:
#
# PCOD9419197 Si02
#       4
#     8   8   8   8
#     4   9  19  35  57  83 111 144 179 223 276 328
#     4  11  22  37  58  83 112 145 182 226 276 328
#     4  10  22  40  58  79 110 148 190 231 272 322
#     4   9  16  30  53  81 111 140 175 218 271 332
#
# _framework density 19.357621999999999
#
# number of rings (size 3 to 8) (size 9 to 14) (size 15 to 20)
#    0.000    2.250    0.000    4.500    0.000    4.500 
#    0.000    7.500    0.000    0.000    0.000    0.000 
#    0.000    0.000    0.000    0.000    0.000    0.000 
#
# Total GULP energy -178592.530161 kJ/mol
# GULP energy per Si atom -5581.016568 kJ/mol
# Density = 1.931356 g / cm^3
# Si number density = 19.357622 Si / 1000 Ang^3
#
#
#
# Elastic Constant Matrix: (Units=GPa)
#
#
# Indices 1 2 3 4 5 6 
#
# 1 51.1868 60.8362 30.1557 0.0000 0.0000 0.0000
# 2 60.8362 227.8269 91.6026 0.0000 0.0000 0.0000
# 3 30.1557 91.6026 110.3235 0.0000 0.0000 0.0000
# 4 0.0000 0.0000 0.0000 36.3265 0.0000 0.0000
# 5 0.0000 0.0000 0.0000 0.0000 19.6366 0.0000
# 6 0.0000 0.0000 0.0000 0.0000 0.0000 22.2291
#
#
#
# Elastic Compliance Matrix: (Units=1/GPa)
#
#
# Indices 1 2 3 4 5 6 
#
# 1 0.028985 -0.006837 -0.002246 0.000000 0.000000 0.000000
# 2 -0.006837 0.008202 -0.004941 0.000000 0.000000 0.000000
# 3 -0.002246 -0.004941 0.013781 0.000000 0.000000 0.000000
# 4 0.000000 0.000000 0.000000 0.027528 0.000000 0.000000
# 5 0.000000 0.000000 0.000000 0.000000 0.050925 0.000000
# 6 0.000000 0.000000 0.000000 0.000000 0.000000 0.044986
#
#
# Mechanical properties :
#
#
# Convention : Reuss Voigt Hill
#
# Bulk Modulus (GPa) = 43.63084 83.83623 63.73354
# Shear Modulus (GPa) = 23.79878 29.42129 26.61004
#
# Velocity S-wave (km/s) = 3.51012 3.90280 3.71166
# Velocity P-wave (km/s) = 6.24630 7.98200 7.16689
#
# Compressibility (1/GPa) = 0.02291957
#
# Stress axis : x y z
#
# Youngs Moduli (GPa) = 34.50051 121.92794 72.56448
#
# Poissons Ratio (x) = 0.83359 0.16299
# Poissons Ratio (y) = 0.23587 0.35855
# Poissons Ratio (z) = 0.07749 0.60246
#
# Static dielectric constant tensor:
#      x y z
#    x 1.646550 0.000000 0.000000 
#    y 0.000000 1.698160 0.000000 
#    z 0.000000 0.000000 1.658750 
# 
# From -- ./inp_files/19503.got.cif
#   From: 2010.05.17/outbox.cif.g08.bks.cpg/sg53_10_cif.got.tgz:19503.got - 2010.06.03 12:45:16.
