data_PCOD9419110
_publ_section_title
;
Structure prediction by ZEFSAII (Michael W. Deem and Ramdas Pophale) SiO2 
 PCOD9419110
Probable space group: P M N A
;
_chemical_formula_sum "Si O2"
_cell_formula_units_Z 52
_cell_length_a 20.689320
_cell_length_b 23.367816
_cell_length_c 5.260846
_cell_angle_alpha 90.000000
_cell_angle_beta 90.000000
_cell_angle_gamma 90.000000
_cell_volume 2543.430823
_symmetry_space_group_name_H-M "P M N A"
_symmetry_group_IT_number 53
_symmetry_cell_setting 'orthorhombic'
loop_
_space_group_symop_operation_xyz
x,y,z
1/2-x,-y,1/2+z
x,-y,-z
1/2-x,y,1/2-z
-x,-y,-z
1/2+x,y,1/2-z
-x,y,z
1/2+x,-y,1/2+z
loop_
_atom_site_type_symbol
_atom_site_label
_atom_site_fract_x
_atom_site_fract_y
_atom_site_fract_z
Si Si1 0.819774 0.353635 0.828854
Si Si2 0.500000 0.711639 0.250225
Si Si3 0.881191 0.435564 0.455786
Si Si4 0.364960 0.769276 0.196169
Si Si5 0.500000 0.366798 0.251331
Si Si6 0.750000 0.397159 0.250000
Si Si7 0.671268 0.965931 0.749263
Si Si8 0.826607 0.834193 0.800886
O O1 0.750000 0.379388 0.750000
O O2 0.872007 0.396288 0.710073
O O3 0.827748 0.291183 0.716831
O O4 0.803037 0.352779 0.124457
O O5 0.437353 0.751067 0.261911
O O6 0.500000 0.667544 0.485308
O O7 0.500000 0.677878 0.983568
O O8 0.903284 0.500000 0.500000
O O9 0.807678 0.438432 0.348509
O O10 0.935241 0.404387 0.285412
O O11 0.339529 0.811510 0.415434
O O12 0.358754 0.795529 0.917102
O O13 0.750000 0.965772 0.750000
O O14 0.651498 0.899791 0.735278
O O15 0.650102 0.000000 0.500000
O O16 0.650334 0.000000 0.000000
O O17 0.750000 0.831832 0.750000
#
# Coordination Sequence:
#
# PCOD9419110 Si02
#       8
#     8   4   8   8   4   4   8   8
#     4  10  22  38  60  90 122 166 201 258 332 395
#     4  12  26  46  71  86 126 177 216 270 325 393
#     4  11  25  42  67  94 125 167 215 274 334 405
#     4  12  24  40  63  92 127 168 219 269 322 385
#     4  12  25  50  68  96 124 167 230 272 335 401
#     4  10  24  40  66  92 130 164 216 260 346 416
#     4   9  17  32  55  86 133 175 207 246 310 380
#     4  11  23  37  62 101 134 168 211 267 318 381
#
# _framework density 20.444827
#
# number of rings (size 3 to 8) (size 9 to 14) (size 15 to 20)
#    0.000    1.231    1.538    4.385    8.615    2.462 
#    0.000    0.769    0.000    0.000    0.000   10.769 
#    0.000    0.000    0.000    0.000    0.000    0.000 
#
# Total GULP energy -289865.387081 kJ/mol
# GULP energy per Si atom -5574.334367 kJ/mol
# Density = 2.039829 g / cm^3
# Si number density = 20.444827 Si / 1000 Ang^3
#
#
#
# Elastic Constant Matrix: (Units=GPa)
#
#
# Indices 1 2 3 4 5 6 
#
# 1 97.3322 3.6445 2.5203 0.0000 0.0000 0.0000
# 2 3.6445 104.3178 24.1961 0.0000 0.0000 0.0000
# 3 2.5203 24.1961 72.8287 0.0000 0.0000 0.0000
# 4 0.0000 0.0000 0.0000 -297.9821 0.0000 0.0000
# 5 0.0000 0.0000 0.0000 0.0000 25.2962 0.0000
# 6 0.0000 0.0000 0.0000 0.0000 0.0000 12.3257
#
#
#
# Elastic Compliance Matrix: (Units=1/GPa)
#
#
# Indices 1 2 3 4 5 6 
#
# 1 0.010292 -0.000300 -0.000256 0.000000 0.000000 0.000000
# 2 -0.000300 0.010395 -0.003443 0.000000 0.000000 0.000000
# 3 -0.000256 -0.003443 0.014884 0.000000 0.000000 0.000000
# 4 0.000000 0.000000 0.000000 -0.003356 0.000000 0.000000
# 5 0.000000 0.000000 0.000000 0.000000 0.039532 0.000000
# 6 0.000000 0.000000 0.000000 0.000000 0.000000 0.081131
#
#
# Mechanical properties :
#
#
# Convention : Reuss Voigt Hill
#
# Bulk Modulus (GPa) = 36.26960 37.24448 36.75704
# Shear Modulus (GPa) = 29.40005 -35.79750 -3.19873
#
# Velocity S-wave (km/s) = 3.79624 -4.18895 -1.25218
# Velocity P-wave (km/s) = 6.08227 2.26712 3.99087
#
# Compressibility (1/GPa) = 0.02757130
#
# Stress axis : x y z
#
# Youngs Moduli (GPa) = 97.16318 96.19802 67.18764
#
# Poissons Ratio (x) = 0.02887 0.01723
# Poissons Ratio (y) = 0.02916 0.23134
# Poissons Ratio (z) = 0.02492 0.33123
#
# Static dielectric constant tensor:
#      x y z
#    x 1.758440 0.000000 0.000000 
#    y 0.000000 1.767260 0.000000 
#    z 0.000000 0.000000 1.507010 
# 
# From -- ./inp_files/3019.got.cif
#   From: 2010.05.17/outbox.cif.g08.bks.cpg/sg53_2_cif.got.tgz:3019.got - 2010.06.03 12:45:16.
