data_PCOD9419938
_publ_section_title
;
Structure prediction by ZEFSAII (Michael W. Deem and Ramdas Pophale) SiO2 
 PCOD9419938
Probable space group: P M N A
;
_chemical_formula_sum "Si O2"
_cell_formula_units_Z 20
_cell_length_a 23.622029
_cell_length_b 7.822572
_cell_length_c 4.594634
_cell_angle_alpha 90.000000
_cell_angle_beta 90.000000
_cell_angle_gamma 90.000000
_cell_volume 849.019548
_symmetry_space_group_name_H-M "P M N A"
_symmetry_group_IT_number 53
_symmetry_cell_setting 'orthorhombic'
loop_
_space_group_symop_operation_xyz
x,y,z
1/2-x,-y,1/2+z
x,-y,-z
1/2-x,y,1/2-z
-x,-y,-z
1/2+x,y,1/2-z
-x,y,z
1/2+x,-y,1/2+z
loop_
_atom_site_type_symbol
_atom_site_label
_atom_site_fract_x
_atom_site_fract_y
_atom_site_fract_z
Si Si1 0.363450 0.185239 0.866129
Si Si2 0.750000 0.622560 0.250000
Si Si3 0.435898 0.308994 0.373658
O O1 0.250000 0.576817 0.750000
O O2 0.306553 0.274094 0.753000
O O3 0.410453 0.183777 0.615391
O O4 0.392454 0.299617 0.111565
O O5 0.851631 0.000000 0.500000
O O6 0.436353 0.500000 0.500000
O O7 0.500000 0.265038 0.285964
#
# Coordination Sequence:
#
# PCOD9419938 Si02
#       3
#     8   4   8
#     4  12  26  43  67 100 134 168 215 273 330 382
#     4  12  26  46  70  92 128 176 222 266 320 392
#     4  11  24  44  69  97 132 175 220 263 317 390
#
# _framework density 23.556584999999998
#
# number of rings (size 3 to 8) (size 9 to 14) (size 15 to 20)
#    0.000    0.400    0.000    9.600    0.000   12.800 
#    0.000    0.000    0.000    0.000    0.000    0.000 
#    0.000    0.000    0.000    0.000    0.000    0.000 
#
# Total GULP energy -111454.777476 kJ/mol
# GULP energy per Si atom -5572.738874 kJ/mol
# Density = 2.350297 g / cm^3
# Si number density = 23.556585 Si / 1000 Ang^3
#
#
#
# Elastic Constant Matrix: (Units=GPa)
#
#
# Indices 1 2 3 4 5 6 
#
# 1 201.4717 70.9843 37.1431 0.0000 0.0000 0.0000
# 2 70.9843 125.2315 24.3687 0.0000 0.0000 0.0000
# 3 37.1431 24.3687 60.1068 0.0000 0.0000 0.0000
# 4 0.0000 0.0000 0.0000 36.6840 0.0000 0.0000
# 5 0.0000 0.0000 0.0000 0.0000 161.7599 0.0000
# 6 0.0000 0.0000 0.0000 0.0000 0.0000 -3.2052
#
#
#
# Elastic Compliance Matrix: (Units=1/GPa)
#
#
# Indices 1 2 3 4 5 6 
#
# 1 0.006605 -0.003202 -0.002783 0.000000 0.000000 0.000000
# 2 -0.003202 0.010222 -0.002165 0.000000 0.000000 0.000000
# 3 -0.002783 -0.002165 0.019235 0.000000 0.000000 0.000000
# 4 0.000000 0.000000 0.000000 0.027260 0.000000 0.000000
# 5 0.000000 0.000000 0.000000 0.000000 0.006182 0.000000
# 6 0.000000 0.000000 0.000000 0.000000 0.000000 -0.311990
#
#
# Mechanical properties :
#
#
# Convention : Reuss Voigt Hill
#
# Bulk Modulus (GPa) = 50.60762 72.42246 61.51504
# Shear Modulus (GPa) = -22.76882 56.00199 16.61658
#
# Velocity S-wave (km/s) = -3.11233 4.88109 2.65880
# Velocity P-wave (km/s) = 2.93507 7.91059 5.96624
#
# Compressibility (1/GPa) = 0.01975987
#
# Stress axis : x y z
#
# Youngs Moduli (GPa) = 151.40486 97.83169 51.98906
#
# Poissons Ratio (x) = 0.31328 0.14470
# Poissons Ratio (y) = 0.48483 0.11257
# Poissons Ratio (z) = 0.42139 0.21184
#
# Static dielectric constant tensor:
#      x y z
#    x 1.790720 0.000000 0.000000 
#    y 0.000000 1.831250 0.000000 
#    z 0.000000 0.000000 1.731050 
# 
# From -- ./inp_files/985.got.cif
#   From: 2010.05.17/outbox.cif.g08.bks.cpg/sg53_1_cif.got.tgz:985.got - 2010.06.03 12:45:16.
