data_PCOD9419999
_publ_section_title
;
Structure prediction by ZEFSAII (Michael W. Deem and Ramdas Pophale) SiO2 
 PCOD9419999
Probable space group: P M N A
;
_chemical_formula_sum "Si O2"
_cell_formula_units_Z 40
_cell_length_a 22.853070
_cell_length_b 8.975533
_cell_length_c 8.607518
_cell_angle_alpha 90.000000
_cell_angle_beta 90.000000
_cell_angle_gamma 90.000000
_cell_volume 1765.561043
_symmetry_space_group_name_H-M "P M N A"
_symmetry_group_IT_number 53
_symmetry_cell_setting 'orthorhombic'
loop_
_space_group_symop_operation_xyz
x,y,z
1/2-x,-y,1/2+z
x,-y,-z
1/2-x,y,1/2-z
-x,-y,-z
1/2+x,y,1/2-z
-x,y,z
1/2+x,-y,1/2+z
loop_
_atom_site_type_symbol
_atom_site_label
_atom_site_fract_x
_atom_site_fract_y
_atom_site_fract_z
Si Si1 0.186773 0.205076 0.175996
Si Si2 0.932522 0.655990 0.696619
Si Si3 0.255762 0.656813 0.071224
Si Si4 0.434590 0.314235 0.820946
Si Si5 0.343024 0.915524 0.152811
O O1 0.250000 0.254545 0.250000
O O2 0.124243 0.261755 0.237171
O O3 0.183625 0.030364 0.222567
O O4 0.197273 0.278894 0.008087
O O5 0.923187 0.481586 0.734307
O O6 0.931353 0.675530 0.509506
O O7 0.000000 0.696169 0.744322
O O8 0.250000 0.620231 0.250000
O O9 0.298243 0.799490 0.073362
O O10 0.276839 0.500000 0.000000
O O11 0.500000 0.273549 0.776776
O O12 0.391129 0.187220 0.768911
O O13 0.367563 0.000000 0.000000
#
# Coordination Sequence:
#
# PCOD9419999 Si02
#       5
#     8   8   8   8   8
#     4  12  24  44  67 110 149 192 248 306 379 435
#     4   9  19  37  66 101 149 203 254 304 364 446
#     4  12  30  48  72 103 146 196 247 308 382 461
#     4   9  19  35  61 104 149 198 248 297 356 439
#     4  12  24  38  68 104 152 189 239 307 365 448
#
# _framework density 22.655687
#
# number of rings (size 3 to 8) (size 9 to 14) (size 15 to 20)
#    0.000    1.200    4.000    2.400    8.400    1.200 
#    0.000    0.000    0.000    1.800    0.000    8.400 
#    0.000    0.000    0.000    0.000    0.000    0.000 
#
# Total GULP energy -223203.582624 kJ/mol
# GULP energy per Si atom -5580.089566 kJ/mol
# Density = 2.260412 g / cm^3
# Si number density = 22.655687 Si / 1000 Ang^3
#
#
#
# Elastic Constant Matrix: (Units=GPa)
#
#
# Indices 1 2 3 4 5 6 
#
# 1 158.2957 88.7784 24.2980 0.0000 0.0000 0.0000
# 2 88.7784 128.3242 32.2757 0.0000 0.0000 0.0000
# 3 24.2980 32.2757 60.2963 0.0000 0.0000 0.0000
# 4 0.0000 0.0000 0.0000 -3.5042 0.0000 0.0000
# 5 0.0000 0.0000 0.0000 0.0000 17.3339 0.0000
# 6 0.0000 0.0000 0.0000 0.0000 0.0000 46.1777
#
#
#
# Elastic Compliance Matrix: (Units=1/GPa)
#
#
# Indices 1 2 3 4 5 6 
#
# 1 0.010330 -0.007049 -0.000390 0.000000 0.000000 0.000000
# 2 -0.007049 0.013815 -0.004554 0.000000 0.000000 0.000000
# 3 -0.000390 -0.004554 0.019180 0.000000 0.000000 0.000000
# 4 0.000000 0.000000 0.000000 -0.285368 0.000000 0.000000
# 5 0.000000 0.000000 0.000000 0.000000 0.057690 0.000000
# 6 0.000000 0.000000 0.000000 0.000000 0.000000 0.021655
#
#
# Mechanical properties :
#
#
# Convention : Reuss Voigt Hill
#
# Bulk Modulus (GPa) = 51.70893 70.84670 61.27782
# Shear Modulus (GPa) = -37.80290 25.43909 -6.18191
#
# Velocity S-wave (km/s) = -4.08926 3.35454 -1.65365
# Velocity P-wave (km/s) = 0.75980 6.80756 4.84356
#
# Compressibility (1/GPa) = 0.01933902
#
# Stress axis : x y z
#
# Youngs Moduli (GPa) = 96.80199 72.38603 52.13840
#
# Poissons Ratio (x) = 0.51023 0.02032
# Poissons Ratio (y) = 0.68234 0.23746
# Poissons Ratio (z) = 0.03773 0.32967
#
# Static dielectric constant tensor:
#      x y z
#    x 1.865340 0.000000 0.000000 
#    y 0.000000 1.878850 0.000000 
#    z 0.000000 0.000000 1.982620 
# 
# From -- ./inp_files/11567.got.cif
#   From: 2010.05.17/outbox.cif.g08.bks.cpg/sg53_6_cif.got.tgz:11567.got - 2010.06.03 12:45:16.
