data_PCOD9419019
_publ_section_title
;
Structure prediction by ZEFSAII (Michael W. Deem and Ramdas Pophale) SiO2 
 PCOD9419019
Probable space group: P M N A
;
_chemical_formula_sum "Si O2"
_cell_formula_units_Z 58
_cell_length_a 26.896742
_cell_length_b 11.559158
_cell_length_c 9.294040
_cell_angle_alpha 90.000000
_cell_angle_beta 90.000000
_cell_angle_gamma 90.000000
_cell_volume 2889.551335
_symmetry_space_group_name_H-M "P M N A"
_symmetry_group_IT_number 53
_symmetry_cell_setting 'orthorhombic'
loop_
_space_group_symop_operation_xyz
x,y,z
1/2-x,-y,1/2+z
x,-y,-z
1/2-x,y,1/2-z
-x,-y,-z
1/2+x,y,1/2-z
-x,y,z
1/2+x,-y,1/2+z
loop_
_atom_site_type_symbol
_atom_site_label
_atom_site_fract_x
_atom_site_fract_y
_atom_site_fract_z
Si Si1 0.323139 0.136885 0.531408
Si Si2 0.133577 0.267063 0.384755
Si Si3 0.055745 0.384997 0.923626
Si Si4 0.924128 0.816708 0.865859
Si Si5 0.799462 0.480883 0.331707
Si Si6 0.000000 0.000000 0.000000
Si Si7 0.358061 0.707218 0.223085
Si Si8 0.773713 0.104897 0.397960
O O1 0.368829 0.176175 0.433425
O O2 0.336370 0.182032 0.690721
O O3 0.268978 0.178946 0.479576
O O4 0.320009 0.000000 0.500000
O O5 0.086029 0.219393 0.298613
O O6 0.154703 0.389933 0.327432
O O7 0.128480 0.272734 0.556987
O O8 0.179145 0.180072 0.361163
O O9 0.092852 0.336530 0.804871
O O10 0.000000 0.408458 0.867473
O O11 0.075537 0.500000 0.000000
O O12 0.052250 0.288166 0.046210
O O13 0.956176 0.929625 0.906226
O O14 0.787884 0.500000 0.500000
O O15 0.750000 0.440158 0.250000
O O16 0.818148 0.603403 0.270066
O O17 0.750000 0.060155 0.250000
O O18 0.788524 0.000000 0.500000
#
# Coordination Sequence:
#
# PCOD9419019 Si02
#       8
#     8   8   8   8   8   2   8   8
#     4  10  22  39  65  88 127 175 220 272 327 398
#     4  11  24  41  63  95 136 173 219 276 345 407
#     4  10  21  42  69  95 120 164 227 278 331 406
#     4  11  22  41  68  92 127 170 221 281 337 400
#     4  10  23  39  62  95 136 178 219 270 331 409
#     4  12  24  44  70  98 130 176 238 274 356 414
#     4  10  24  40  64  96 135 170 218 277 348 398
#     4  11  24  39  61  93 128 175 225 273 326 407
#
# _framework density 20.072317999999999
#
# number of rings (size 3 to 8) (size 9 to 14) (size 15 to 20)
#    0.000    1.517    2.759    1.241    7.724    1.655 
#    1.241    0.000    0.000    6.207    0.000    0.000 
#    0.000    0.000    0.000    0.000    0.000    0.000 
#
# Total GULP energy -323188.923180 kJ/mol
# GULP energy per Si atom -5572.222813 kJ/mol
# Density = 2.002663 g / cm^3
# Si number density = 20.072318 Si / 1000 Ang^3
#
#
#
# Elastic Constant Matrix: (Units=GPa)
#
#
# Indices 1 2 3 4 5 6 
#
# 1 81.6187 18.7404 43.9146 0.0000 0.0000 0.0000
# 2 18.7404 81.6006 50.3732 0.0000 0.0000 0.0000
# 3 43.9146 50.3732 120.2644 0.0000 0.0000 0.0000
# 4 0.0000 0.0000 0.0000 27.7753 0.0000 0.0000
# 5 0.0000 0.0000 0.0000 0.0000 16.6146 0.0000
# 6 0.0000 0.0000 0.0000 0.0000 0.0000 33.3409
#
#
#
# Elastic Compliance Matrix: (Units=1/GPa)
#
#
# Indices 1 2 3 4 5 6 
#
# 1 0.015248 -0.000087 -0.005531 0.000000 0.000000 0.000000
# 2 -0.000087 0.016529 -0.006891 0.000000 0.000000 0.000000
# 3 -0.005531 -0.006891 0.013221 0.000000 0.000000 0.000000
# 4 0.000000 0.000000 0.000000 0.036003 0.000000 0.000000
# 5 0.000000 0.000000 0.000000 0.000000 0.060188 0.000000
# 6 0.000000 0.000000 0.000000 0.000000 0.000000 0.029993
#
#
# Mechanical properties :
#
#
# Convention : Reuss Voigt Hill
#
# Bulk Modulus (GPa) = 50.05387 56.61557 53.33472
# Shear Modulus (GPa) = 24.64724 26.90987 25.77856
#
# Velocity S-wave (km/s) = 3.50797 3.66546 3.58758
# Velocity P-wave (km/s) = 6.43419 6.79567 6.61740
#
# Compressibility (1/GPa) = 0.01997847
#
# Stress axis : x y z
#
# Youngs Moduli (GPa) = 65.58129 60.49973 75.63586
#
# Poissons Ratio (x) = 0.00528 0.41837
# Poissons Ratio (y) = 0.00573 0.52123
# Poissons Ratio (z) = 0.36275 0.41692
#
# Static dielectric constant tensor:
#      x y z
#    x 1.787990 0.000000 0.000000 
#    y 0.000000 1.753510 0.000000 
#    z 0.000000 0.000000 1.875770 
# 
# From -- ./inp_files/12567.got.cif
#   From: 2010.05.17/outbox.cif.g08.bks.cpg/sg53_7_cif.got.tgz:12567.got - 2010.06.03 12:45:16.
