data_PCOD9419896
_publ_section_title
;
Structure prediction by ZEFSAII (Michael W. Deem and Ramdas Pophale) SiO2 
 PCOD9419896
Probable space group: P M N A
;
_chemical_formula_sum "Si O2"
_cell_formula_units_Z 60
_cell_length_a 14.018887
_cell_length_b 17.081380
_cell_length_c 10.861955
_cell_angle_alpha 90.000000
_cell_angle_beta 90.000000
_cell_angle_gamma 90.000000
_cell_volume 2601.024773
_symmetry_space_group_name_H-M "P M N A"
_symmetry_group_IT_number 53
_symmetry_cell_setting 'orthorhombic'
loop_
_space_group_symop_operation_xyz
x,y,z
1/2-x,-y,1/2+z
x,-y,-z
1/2-x,y,1/2-z
-x,-y,-z
1/2+x,y,1/2-z
-x,y,z
1/2+x,-y,1/2+z
loop_
_atom_site_type_symbol
_atom_site_label
_atom_site_fract_x
_atom_site_fract_y
_atom_site_fract_z
Si Si1 0.614409 0.379906 0.086634
Si Si2 0.750000 0.990331 0.250000
Si Si3 0.888620 0.205753 0.334091
Si Si4 0.891365 0.374423 0.980153
Si Si5 0.611037 0.488320 0.291705
Si Si6 0.112345 0.893229 0.899139
Si Si7 0.279800 0.694085 0.114609
Si Si8 0.283996 0.865609 0.055304
O O1 0.500000 0.385490 0.088336
O O2 0.642089 0.295500 0.144946
O O3 0.654542 0.452441 0.166346
O O4 0.650159 0.368359 0.947817
O O5 0.828624 0.039909 0.174309
O O6 0.803287 0.935678 0.351044
O O7 0.880136 0.180410 0.193584
O O8 0.834609 0.144193 0.422340
O O9 0.000000 0.202474 0.368368
O O10 0.860449 0.438768 0.877002
O O11 0.814948 0.307254 0.968545
O O12 0.000000 0.350506 0.956734
O O13 0.888121 0.416247 0.111699
O O14 0.500000 0.505941 0.263299
O O15 0.000000 0.910608 0.916988
O O16 0.172166 0.875442 0.021712
O O17 0.250000 0.673239 0.250000
O O18 0.314381 0.783201 0.115826
#
# Coordination Sequence:
#
# PCOD9419896 Si02
#       8
#     8   4   8   8   8   8   8   8
#     4   9  19  37  64  91 123 161 208 266 308 360
#     4  12  24  42  64  86 126 168 198 254 318 374
#     4   9  19  37  63  94 121 156 210 260 307 367
#     4   9  19  37  61  89 128 163 200 253 308 372
#     4   8  16  36  62  91 121 160 205 254 317 362
#     4  11  24  41  65  96 122 155 208 262 311 375
#     4  11  24  41  58  90 125 166 213 251 307 377
#     4  11  23  42  62  87 127 168 202 253 317 376
#
# _framework density 23.067831999999999
#
# number of rings (size 3 to 8) (size 9 to 14) (size 15 to 20)
#    0.000    2.133    2.000    1.200    1.867    3.200 
#    4.800    1.333    0.000    2.400    0.000    0.000 
#    0.000    0.000    0.000    0.000    0.000    0.000 
#
# Total GULP energy -334920.208120 kJ/mol
# GULP energy per Si atom -5582.003469 kJ/mol
# Density = 2.301533 g / cm^3
# Si number density = 23.067832 Si / 1000 Ang^3
#
#
#
# Elastic Constant Matrix: (Units=GPa)
#
#
# Indices 1 2 3 4 5 6 
#
# 1 64.7560 14.7050 7.3886 0.0000 0.0000 0.0000
# 2 14.7050 61.4328 19.1583 0.0000 0.0000 0.0000
# 3 7.3886 19.1583 71.8483 0.0000 0.0000 0.0000
# 4 0.0000 0.0000 0.0000 -3.7969 0.0000 0.0000
# 5 0.0000 0.0000 0.0000 0.0000 32.4366 0.0000
# 6 0.0000 0.0000 0.0000 0.0000 0.0000 19.2162
#
#
#
# Elastic Compliance Matrix: (Units=1/GPa)
#
#
# Indices 1 2 3 4 5 6 
#
# 1 0.016362 -0.003699 -0.000696 0.000000 0.000000 0.000000
# 2 -0.003699 0.018591 -0.004577 0.000000 0.000000 0.000000
# 3 -0.000696 -0.004577 0.015210 0.000000 0.000000 0.000000
# 4 0.000000 0.000000 0.000000 -0.263370 0.000000 0.000000
# 5 0.000000 0.000000 0.000000 0.000000 0.030829 0.000000
# 6 0.000000 0.000000 0.000000 0.000000 0.000000 0.052039
#
#
# Mechanical properties :
#
#
# Convention : Reuss Voigt Hill
#
# Bulk Modulus (GPa) = 31.03827 31.17122 31.10474
# Shear Modulus (GPa) = -49.18634 20.02352 -14.58141
#
# Velocity S-wave (km/s) = -4.62264 2.94943 -2.51691
# Velocity P-wave (km/s) = 3.87392 5.01408 2.25097
#
# Compressibility (1/GPa) = 0.03221829
#
# Stress axis : x y z
#
# Youngs Moduli (GPa) = 61.11681 53.79007 65.74535
#
# Poissons Ratio (x) = 0.19899 0.04577
# Poissons Ratio (y) = 0.22610 0.30090
# Poissons Ratio (z) = 0.04255 0.24619
#
# Static dielectric constant tensor:
#      x y z
#    x 1.888370 0.000000 0.000000 
#    y 0.000000 1.886210 0.000000 
#    z 0.000000 0.000000 1.919120 
# 
# From -- ./inp_files/16275.got.cif
#   From: 2010.05.17/outbox.cif.g08.bks.cpg/sg53_9_cif.got.tgz:16275.got - 2010.06.03 12:45:16.
