data_PCOD9419526
_publ_section_title
;
Structure prediction by ZEFSAII (Michael W. Deem and Ramdas Pophale) SiO2 
 PCOD9419526
Probable space group: P M N A
;
_chemical_formula_sum "Si O2"
_cell_formula_units_Z 44
_cell_length_a 14.587959
_cell_length_b 9.374475
_cell_length_c 15.322652
_cell_angle_alpha 90.000000
_cell_angle_beta 90.000000
_cell_angle_gamma 90.000000
_cell_volume 2095.440953
_symmetry_space_group_name_H-M "P M N A"
_symmetry_group_IT_number 53
_symmetry_cell_setting 'orthorhombic'
loop_
_space_group_symop_operation_xyz
x,y,z
1/2-x,-y,1/2+z
x,-y,-z
1/2-x,y,1/2-z
-x,-y,-z
1/2+x,y,1/2-z
-x,y,z
1/2+x,-y,1/2+z
loop_
_atom_site_type_symbol
_atom_site_label
_atom_site_fract_x
_atom_site_fract_y
_atom_site_fract_z
Si Si1 0.260005 0.857985 0.959601
Si Si2 0.838513 0.292765 0.190508
Si Si3 0.856389 0.292199 0.741520
Si Si4 0.605763 0.031612 0.190805
Si Si5 0.500000 0.470931 0.679702
Si Si6 0.396166 0.647569 0.050556
O O1 0.195623 0.751873 0.905528
O O2 0.331413 0.922260 0.889556
O O3 0.320430 0.764292 0.026139
O O4 0.214807 0.000000 0.000000
O O5 0.750000 0.336701 0.250000
O O6 0.918400 0.407617 0.187132
O O7 0.875675 0.148961 0.235589
O O8 0.750000 0.322848 0.750000
O O9 0.869161 0.124644 0.724753
O O10 0.894034 0.372128 0.654684
O O11 0.919263 0.346503 0.819164
O O12 0.500000 0.031525 0.164440
O O13 0.500000 0.693939 0.026499
O O14 0.378410 0.500000 0.000000
#
# Coordination Sequence:
#
# PCOD9419526 Si02
#       6
#     8   8   8   8   4   8
#     4  11  23  40  66  94 133 172 215 273 331 386
#     4  10  24  41  67  96 126 175 219 266 322 383
#     4  12  25  41  66  96 131 170 216 269 328 385
#     4  11  21  41  66  98 128 168 222 267 319 384
#     4  12  24  42  66  92 129 171 221 262 319 396
#     4  11  25  40  60  97 136 169 211 264 338 394
#
# _framework density 20.997966999999999
#
# number of rings (size 3 to 8) (size 9 to 14) (size 15 to 20)
#    0.000    0.909    4.545    2.727    7.636    0.727 
#    0.000    0.455    0.000    2.182    0.000    0.000 
#    0.000    0.000    0.000    0.000    0.000    0.000 
#
# Total GULP energy -244977.895961 kJ/mol
# GULP energy per Si atom -5567.679454 kJ/mol
# Density = 2.095017 g / cm^3
# Si number density = 20.997967 Si / 1000 Ang^3
#
#
#
# Elastic Constant Matrix: (Units=GPa)
#
#
# Indices 1 2 3 4 5 6 
#
# 1 134.6778 32.6457 -11.2981 0.0000 0.0000 0.0000
# 2 32.6457 79.3071 -0.0287 0.0000 0.0000 0.0000
# 3 -11.2981 -0.0287 19.1175 0.0000 0.0000 0.0000
# 4 0.0000 0.0000 0.0000 -1.6534 0.0000 0.0000
# 5 0.0000 0.0000 0.0000 0.0000 15.9581 0.0000
# 6 0.0000 0.0000 0.0000 0.0000 0.0000 16.9557
#
#
#
# Elastic Compliance Matrix: (Units=1/GPa)
#
#
# Indices 1 2 3 4 5 6 
#
# 1 0.008728 -0.003591 0.005153 0.000000 0.000000 0.000000
# 2 -0.003591 0.014087 -0.002101 0.000000 0.000000 0.000000
# 3 0.005153 -0.002101 0.055350 0.000000 0.000000 0.000000
# 4 0.000000 0.000000 0.000000 -0.604809 0.000000 0.000000
# 5 0.000000 0.000000 0.000000 0.000000 0.062664 0.000000
# 6 0.000000 0.000000 0.000000 0.000000 0.000000 0.058977
#
#
# Mechanical properties :
#
#
# Convention : Reuss Voigt Hill
#
# Bulk Modulus (GPa) = 12.97255 30.63781 21.80518
# Shear Modulus (GPa) = -13.21945 20.37099 3.57577
#
# Velocity S-wave (km/s) = -2.51182 3.11809 1.30637
# Velocity P-wave (km/s) = 1.49028 5.25222 3.56124
#
# Compressibility (1/GPa) = 0.07708585
#
# Stress axis : x y z
#
# Youngs Moduli (GPa) = 114.57663 70.98967 18.06689
#
# Poissons Ratio (x) = 0.25491 -0.09309
# Poissons Ratio (y) = 0.41142 0.03796
# Poissons Ratio (z) = -0.59036 0.14914
#
# Static dielectric constant tensor:
#      x y z
#    x 1.761800 0.000000 0.000000 
#    y 0.000000 1.745180 0.000000 
#    z 0.000000 0.000000 1.372060 
# 
# From -- ./inp_files/28140.got.cif
#   From: 2010.05.17/outbox.cif.g08.bks.cpg/sg53_15_cif.got.tgz:28140.got - 2010.06.03 12:45:16.
