data_PCOD9419022
_publ_section_title
;
Structure prediction by ZEFSAII (Michael W. Deem and Ramdas Pophale) SiO2 
 PCOD9419022
Probable space group: P M N A
;
_chemical_formula_sum "Si O2"
_cell_formula_units_Z 48
_cell_length_a 15.113432
_cell_length_b 16.423828
_cell_length_c 8.762729
_cell_angle_alpha 90.000000
_cell_angle_beta 90.000000
_cell_angle_gamma 90.000000
_cell_volume 2175.088165
_symmetry_space_group_name_H-M "P M N A"
_symmetry_group_IT_number 53
_symmetry_cell_setting 'orthorhombic'
loop_
_space_group_symop_operation_xyz
x,y,z
1/2-x,-y,1/2+z
x,-y,-z
1/2-x,y,1/2-z
-x,-y,-z
1/2+x,y,1/2-z
-x,y,z
1/2+x,-y,1/2+z
loop_
_atom_site_type_symbol
_atom_site_label
_atom_site_fract_x
_atom_site_fract_y
_atom_site_fract_z
Si Si1 0.237535 0.319073 0.099326
Si Si2 0.595418 0.312851 0.884748
Si Si3 0.853608 0.848193 0.204521
Si Si4 0.603505 0.979417 0.840034
Si Si5 0.394021 0.176358 0.351936
Si Si6 0.835666 0.563637 0.143620
O O1 0.250000 0.373734 0.250000
O O2 0.172725 0.250893 0.169629
O O3 0.329663 0.304214 0.013224
O O4 0.185211 0.358829 0.960992
O O5 0.500000 0.315332 0.960485
O O6 0.603579 0.230270 0.785597
O O7 0.603803 0.393387 0.775739
O O8 0.750000 0.844522 0.250000
O O9 0.889467 0.935913 0.253259
O O10 0.874927 0.844390 0.027128
O O11 0.500000 0.960796 0.867101
O O12 0.635092 0.899885 0.752047
O O13 0.649603 0.000000 0.000000
O O14 0.500000 0.192370 0.331995
O O15 0.750000 0.542610 0.250000
O O16 0.857453 0.500000 0.000000
#
# Coordination Sequence:
#
# PCOD9419022 Si02
#       6
#     8   8   8   8   8   8
#     4  11  24  41  66 100 137 180 232 280 352 422
#     4  11  23  43  69 101 143 184 230 288 348 417
#     4  12  22  40  64  91 131 179 229 286 349 411
#     4  10  24  41  60  92 131 175 228 289 350 407
#     4  11  23  42  65  93 132 180 232 286 349 419
#     4  10  21  42  71 105 138 182 226 281 346 411
#
# _framework density 22.068071
#
# number of rings (size 3 to 8) (size 9 to 14) (size 15 to 20)
#    0.000    1.167    3.333    3.000    2.333    4.333 
#    0.000    0.000    0.000   17.000    0.000    0.000 
#    0.000    0.667    0.000    0.000    0.000    0.000 
#
# Total GULP energy -267203.271623 kJ/mol
# GULP energy per Si atom -5566.734825 kJ/mol
# Density = 2.201784 g / cm^3
# Si number density = 22.068071 Si / 1000 Ang^3
#
#
#
# Elastic Constant Matrix: (Units=GPa)
#
#
# Indices 1 2 3 4 5 6 
#
# 1 114.1615 48.4203 38.3445 0.0000 0.0000 0.0000
# 2 48.4203 101.1326 21.5246 0.0000 0.0000 0.0000
# 3 38.3445 21.5246 106.2805 0.0000 0.0000 0.0000
# 4 0.0000 0.0000 0.0000 840.4542 0.0000 0.0000
# 5 0.0000 0.0000 0.0000 0.0000 17.6165 0.0000
# 6 0.0000 0.0000 0.0000 0.0000 0.0000 -11.7876
#
#
#
# Elastic Compliance Matrix: (Units=1/GPa)
#
#
# Indices 1 2 3 4 5 6 
#
# 1 0.012012 -0.005046 -0.003312 0.000000 0.000000 0.000000
# 2 -0.005046 0.012453 -0.000701 0.000000 0.000000 0.000000
# 3 -0.003312 -0.000701 0.010746 0.000000 0.000000 0.000000
# 4 0.000000 0.000000 0.000000 0.001190 0.000000 0.000000
# 5 0.000000 0.000000 0.000000 0.000000 0.056765 0.000000
# 6 0.000000 0.000000 0.000000 0.000000 0.000000 -0.084835
#
#
# Mechanical properties :
#
#
# Convention : Reuss Voigt Hill
#
# Bulk Modulus (GPa) = 58.50588 59.79483 59.15036
# Shear Modulus (GPa) = 155.52737 183.47563 169.50150
#
# Velocity S-wave (km/s) = 8.40412 9.12805 8.77355
# Velocity P-wave (km/s) = 10.98824 11.75795 11.37961
#
# Compressibility (1/GPa) = 0.01709230
#
# Stress axis : x y z
#
# Youngs Moduli (GPa) = 83.24839 80.29934 93.05797
#
# Poissons Ratio (x) = 0.40522 0.30819
# Poissons Ratio (y) = 0.42010 0.06528
# Poissons Ratio (z) = 0.27570 0.05633
#
# Static dielectric constant tensor:
#      x y z
#    x 1.737510 0.000000 0.000000 
#    y 0.000000 2.001150 0.000000 
#    z 0.000000 0.000000 1.755710 
# 
# From -- ./inp_files/8628.got.cif
#   From: 2010.05.17/outbox.cif.g08.bks.cpg/sg53_5_cif.got.tgz:8628.got - 2010.06.03 12:45:16.
