data_PCOD9419278
_publ_section_title
;
Structure prediction by ZEFSAII (Michael W. Deem and Ramdas Pophale) SiO2 
 PCOD9419278
Probable space group: P M N A
;
_chemical_formula_sum "Si O2"
_cell_formula_units_Z 40
_cell_length_a 17.819858
_cell_length_b 19.201242
_cell_length_c 5.077144
_cell_angle_alpha 90.000000
_cell_angle_beta 90.000000
_cell_angle_gamma 90.000000
_cell_volume 1737.212883
_symmetry_space_group_name_H-M "P M N A"
_symmetry_group_IT_number 53
_symmetry_cell_setting 'orthorhombic'
loop_
_space_group_symop_operation_xyz
x,y,z
1/2-x,-y,1/2+z
x,-y,-z
1/2-x,y,1/2-z
-x,-y,-z
1/2+x,y,1/2-z
-x,y,z
1/2+x,-y,1/2+z
loop_
_atom_site_type_symbol
_atom_site_label
_atom_site_fract_x
_atom_site_fract_y
_atom_site_fract_z
Si Si1 0.591509 0.072337 0.131932
Si Si2 0.914014 0.708751 0.837548
Si Si3 0.416311 0.433034 0.681756
Si Si4 0.199529 0.360962 0.501674
Si Si5 0.091109 0.847437 0.135577
O O1 0.500000 0.069587 0.141425
O O2 0.614998 0.132553 0.927774
O O3 0.615511 0.093715 0.424381
O O4 0.615950 0.000000 0.000000
O O5 0.858018 0.697567 0.597300
O O6 0.889025 0.772608 0.018924
O O7 0.000000 0.721352 0.748780
O O8 0.913271 0.636739 0.002242
O O9 0.406021 0.500000 0.500000
O O10 0.500000 0.435360 0.800601
O O11 0.352788 0.423377 0.897800
O O12 0.250000 0.340361 0.750000
O O13 0.250000 0.379258 0.250000
O O14 0.000000 0.848587 0.141136
#
# Coordination Sequence:
#
# PCOD9419278 Si02
#       5
#     8   8   8   8   8
#     4   9  16  27  44  74 116 158 198 243 307 380
#     4  10  22  41  64  91 127 172 226 272 319 390
#     4  10  23  46  73  99 130 173 222 270 324 389
#     4  12  25  46  66  95 132 172 214 276 339 397
#     4   9  18  29  50  78 111 161 207 250 306 369
#
# _framework density 23.025388
#
# number of rings (size 3 to 8) (size 9 to 14) (size 15 to 20)
#    0.000    2.000    2.000    1.200    2.800    3.200 
#    3.600    3.000    0.000    0.000    0.000    0.000 
#    0.000    4.800    1.200    0.000    0.400    0.000 
#
# Total GULP energy -223758.423488 kJ/mol
# GULP energy per Si atom -5593.960587 kJ/mol
# Density = 2.297298 g / cm^3
# Si number density = 23.025388 Si / 1000 Ang^3
#
#
#
# Elastic Constant Matrix: (Units=GPa)
#
#
# Indices 1 2 3 4 5 6 
#
# 1 94.7199 9.4751 46.5832 0.0000 0.0000 0.0000
# 2 9.4751 85.6173 -2.1178 0.0000 0.0000 0.0000
# 3 46.5832 -2.1178 105.8728 0.0000 0.0000 0.0000
# 4 0.0000 0.0000 0.0000 30.3299 0.0000 0.0000
# 5 0.0000 0.0000 0.0000 0.0000 -148.1379 0.0000
# 6 0.0000 0.0000 0.0000 0.0000 0.0000 -13.2066
#
#
#
# Elastic Compliance Matrix: (Units=1/GPa)
#
#
# Indices 1 2 3 4 5 6 
#
# 1 0.013707 -0.001667 -0.006064 0.000000 0.000000 0.000000
# 2 -0.001667 0.011888 0.000971 0.000000 0.000000 0.000000
# 3 -0.006064 0.000971 0.012133 0.000000 0.000000 0.000000
# 4 0.000000 0.000000 0.000000 0.032971 0.000000 0.000000
# 5 0.000000 0.000000 0.000000 0.000000 -0.006750 0.000000
# 6 0.000000 0.000000 0.000000 0.000000 0.000000 -0.075720
#
#
# Mechanical properties :
#
#
# Convention : Reuss Voigt Hill
#
# Bulk Modulus (GPa) = 41.30822 43.78788 42.54805
# Shear Modulus (GPa) = 509.29825 -10.71830 249.28997
#
# Velocity S-wave (km/s) = 14.88859 -2.15988 10.41645
# Velocity P-wave (km/s) = 17.70704 3.58307 12.77454
#
# Compressibility (1/GPa) = 0.02420826
#
# Stress axis : x y z
#
# Youngs Moduli (GPa) = 72.95799 84.11577 82.42059
#
# Poissons Ratio (x) = 0.14021 0.49981
# Poissons Ratio (y) = 0.12161 -0.08005
# Poissons Ratio (z) = 0.44243 -0.08170
#
# Static dielectric constant tensor:
#      x y z
#    x 1.874910 0.000000 0.000000 
#    y 0.000000 1.887230 0.000000 
#    z 0.000000 0.000000 1.878670 
# 
# From -- ./inp_files/2177.got.cif
#   From: 2010.05.17/outbox.cif.g08.bks.cpg/sg53_2_cif.got.tgz:2177.got - 2010.06.03 12:45:16.
