data_PCOD9419225
_publ_section_title
;
Structure prediction by ZEFSAII (Michael W. Deem and Ramdas Pophale) SiO2 
 PCOD9419225
Probable space group: P M N A
;
_chemical_formula_sum "Si O2"
_cell_formula_units_Z 64
_cell_length_a 15.903624
_cell_length_b 17.141093
_cell_length_c 11.041036
_cell_angle_alpha 90.000000
_cell_angle_beta 90.000000
_cell_angle_gamma 90.000000
_cell_volume 3009.847117
_symmetry_space_group_name_H-M "P M N A"
_symmetry_group_IT_number 53
_symmetry_cell_setting 'orthorhombic'
loop_
_space_group_symop_operation_xyz
x,y,z
1/2-x,-y,1/2+z
x,-y,-z
1/2-x,y,1/2-z
-x,-y,-z
1/2+x,y,1/2-z
-x,y,z
1/2+x,-y,1/2+z
loop_
_atom_site_type_symbol
_atom_site_label
_atom_site_fract_x
_atom_site_fract_y
_atom_site_fract_z
Si Si1 0.599896 0.585843 0.032188
Si Si2 0.647785 0.021483 0.750648
Si Si3 0.903620 0.288868 0.728396
Si Si4 0.314109 0.689176 0.844463
Si Si5 0.301195 0.775347 0.455432
Si Si6 0.349571 0.851548 0.781350
Si Si7 0.097316 0.085214 0.985749
Si Si8 0.363342 0.141498 0.931894
O O1 0.500000 0.579257 0.048714
O O2 0.628502 0.636743 0.149436
O O3 0.634456 0.500000 0.000000
O O4 0.621286 0.636012 0.914129
O O5 0.750000 0.018935 0.750000
O O6 0.607045 0.084466 0.660060
O O7 0.619161 0.057345 0.877358
O O8 0.616129 0.932831 0.725374
O O9 0.846736 0.269027 0.845708
O O10 0.905680 0.215307 0.634728
O O11 0.000000 0.302425 0.767957
O O12 0.250000 0.650551 0.750000
O O13 0.363074 0.758522 0.773692
O O14 0.253342 0.724606 0.950731
O O15 0.364074 0.833213 0.527340
O O16 0.233946 0.837195 0.404361
O O17 0.250000 0.855904 0.750000
O O18 0.370198 0.861747 0.924188
O O19 0.000000 0.080940 0.017101
O O20 0.141636 0.000000 0.000000
#
# Coordination Sequence:
#
# PCOD9419225 Si02
#       8
#     8   8   8   8   8   8   8   8
#     4  10  22  43  69  95 126 162 194 239 317 395
#     4  11  20  30  53  77 106 154 209 253 303 352
#     4  11  21  37  61  89 123 160 200 253 310 373
#     4  10  22  40  62  94 123 160 207 258 306 372
#     4  11  21  36  61  85 122 157 210 261 311 355
#     4   9  20  31  51  78 113 150 199 248 299 352
#     4  11  25  38  50  79 122 167 213 262 309 360
#     4  11  19  33  53  85 113 151 201 257 305 353
#
# _framework density 21.263539000000002
#
# number of rings (size 3 to 8) (size 9 to 14) (size 15 to 20)
#    0.000    1.500    5.000    1.125    8.750    0.000 
#    2.250    2.500    0.000    1.500    0.000    2.625 
#    0.000    0.000    0.000    0.000    0.000    0.000 
#
# Total GULP energy -356342.713571 kJ/mol
# GULP energy per Si atom -5567.854900 kJ/mol
# Density = 2.121514 g / cm^3
# Si number density = 21.263539 Si / 1000 Ang^3
#
#
#
# Elastic Constant Matrix: (Units=GPa)
#
#
# Indices 1 2 3 4 5 6 
#
# 1 41.1892 7.6331 -2.1336 0.0000 0.0000 0.0000
# 2 7.6331 103.3386 13.6053 0.0000 0.0000 0.0000
# 3 -2.1336 13.6053 36.8888 0.0000 0.0000 0.0000
# 4 0.0000 0.0000 0.0000 21.5446 0.0000 0.0000
# 5 0.0000 0.0000 0.0000 0.0000 28.3905 0.0000
# 6 0.0000 0.0000 0.0000 0.0000 0.0000 -21.8582
#
#
#
# Elastic Compliance Matrix: (Units=1/GPa)
#
#
# Indices 1 2 3 4 5 6 
#
# 1 0.024786 -0.002123 0.002217 0.000000 0.000000 0.000000
# 2 -0.002123 0.010353 -0.003941 0.000000 0.000000 0.000000
# 3 0.002217 -0.003941 0.028690 0.000000 0.000000 0.000000
# 4 0.000000 0.000000 0.000000 0.046415 0.000000 0.000000
# 5 0.000000 0.000000 0.000000 0.000000 0.035223 0.000000
# 6 0.000000 0.000000 0.000000 0.000000 0.000000 -0.045749
#
#
# Mechanical properties :
#
#
# Convention : Reuss Voigt Hill
#
# Bulk Modulus (GPa) = 17.81423 24.40291 21.10857
# Shear Modulus (GPa) = 39.64350 16.43617 28.03984
#
# Velocity S-wave (km/s) = 4.32254 2.78326 3.63531
# Velocity P-wave (km/s) = 5.77135 4.67226 5.25064
#
# Compressibility (1/GPa) = 0.05613490
#
# Stress axis : x y z
#
# Youngs Moduli (GPa) = 40.34474 96.59427 34.85505
#
# Poissons Ratio (x) = 0.20504 -0.07726
# Poissons Ratio (y) = 0.08564 0.13736
# Poissons Ratio (z) = -0.08943 0.38068
#
# Static dielectric constant tensor:
#      x y z
#    x 1.823000 0.000000 0.000000 
#    y 0.000000 1.815270 0.000000 
#    z 0.000000 0.000000 1.982460 
# 
# From -- ./inp_files/16258.got.cif
#   From: 2010.05.17/outbox.cif.g08.bks.cpg/sg53_9_cif.got.tgz:16258.got - 2010.06.03 12:45:16.
