data_PCOD9419167
_publ_section_title
;
Structure prediction by ZEFSAII (Michael W. Deem and Ramdas Pophale) SiO2 
 PCOD9419167
Probable space group: P M N A
;
_chemical_formula_sum "Si O2"
_cell_formula_units_Z 64
_cell_length_a 8.964065
_cell_length_b 22.042220
_cell_length_c 16.411363
_cell_angle_alpha 90.000000
_cell_angle_beta 90.000000
_cell_angle_gamma 90.000000
_cell_volume 3242.686634
_symmetry_space_group_name_H-M "P M N A"
_symmetry_group_IT_number 53
_symmetry_cell_setting 'orthorhombic'
loop_
_space_group_symop_operation_xyz
x,y,z
1/2-x,-y,1/2+z
x,-y,-z
1/2-x,y,1/2-z
-x,-y,-z
1/2+x,y,1/2-z
-x,y,z
1/2+x,-y,1/2+z
loop_
_atom_site_type_symbol
_atom_site_label
_atom_site_fract_x
_atom_site_fract_y
_atom_site_fract_z
Si Si1 0.822496 0.378619 0.337077
Si Si2 0.823598 0.927654 0.995774
Si Si3 0.671937 0.500632 0.402425
Si Si4 0.678765 0.134171 0.665067
Si Si5 0.675901 0.260560 0.589369
Si Si6 0.322278 0.377186 0.838140
Si Si7 0.823740 0.869835 0.664248
Si Si8 0.324774 0.251883 0.076867
O O1 0.750000 0.366352 0.250000
O O2 0.748666 0.439372 0.371710
O O3 0.795803 0.319895 0.392877
O O4 0.000000 0.387017 0.329680
O O5 0.741842 0.902731 0.915649
O O6 0.000000 0.912685 0.988316
O O7 0.770729 0.899736 0.082309
O O8 0.808134 0.000000 0.000000
O O9 0.672080 0.500000 0.500000
O O10 0.500000 0.503434 0.373597
O O11 0.759608 0.559503 0.371889
O O12 0.750000 0.113535 0.750000
O O13 0.500000 0.126975 0.670200
O O14 0.711125 0.205521 0.650414
O O15 0.500000 0.273728 0.594133
O O16 0.768367 0.320908 0.607527
O O17 0.720607 0.238281 0.499665
O O18 0.250000 0.367403 0.750000
O O19 0.500000 0.378929 0.833391
O O20 0.750000 0.887318 0.750000
O O21 0.799501 0.798104 0.646422
O O22 0.000000 0.880910 0.668763
O O23 0.500000 0.247310 0.053107
#
# Coordination Sequence:
#
# PCOD9419167 Si02
#       8
#     8   8   8   8   8   8   8   8
#     4  11  23  39  59  85 118 155 199 249 308 368
#     4  10  22  43  67  94 131 172 216 266 319 378
#     4  11  24  42  62  85 114 152 199 248 307 371
#     4  10  22  39  62  93 126 167 210 260 318 375
#     4  11  22  38  62  91 123 160 206 257 315 374
#     4  12  25  41  61  86 119 157 201 252 309 370
#     4  11  23  40  65  96 132 173 219 268 322 381
#     4  10  22  39  61  91 124 163 207 258 314 372
#
# _framework density 19.736722
#
# number of rings (size 3 to 8) (size 9 to 14) (size 15 to 20)
#    0.000    1.250    1.250    4.500    0.000    7.750 
#    0.000    1.250    0.000    0.000    0.000    0.000 
#    0.000    0.000    0.000    0.000    0.000    0.000 
#
# Total GULP energy -357844.991328 kJ/mol
# GULP energy per Si atom -5591.327990 kJ/mol
# Density = 1.969180 g / cm^3
# Si number density = 19.736722 Si / 1000 Ang^3
#
#
#
# Elastic Constant Matrix: (Units=GPa)
#
#
# Indices 1 2 3 4 5 6 
#
# 1 95.4882 49.3224 62.4600 0.0000 0.0000 0.0000
# 2 49.3224 74.6161 39.8694 0.0000 0.0000 0.0000
# 3 62.4600 39.8694 135.4170 0.0000 0.0000 0.0000
# 4 0.0000 0.0000 0.0000 20.6389 0.0000 0.0000
# 5 0.0000 0.0000 0.0000 0.0000 61.1612 0.0000
# 6 0.0000 0.0000 0.0000 0.0000 0.0000 24.6027
#
#
#
# Elastic Compliance Matrix: (Units=1/GPa)
#
#
# Indices 1 2 3 4 5 6 
#
# 1 0.019432 -0.009560 -0.006148 0.000000 0.000000 0.000000
# 2 -0.009560 0.020607 -0.001658 0.000000 0.000000 0.000000
# 3 -0.006148 -0.001658 0.010709 0.000000 0.000000 0.000000
# 4 0.000000 0.000000 0.000000 0.048452 0.000000 0.000000
# 5 0.000000 0.000000 0.000000 0.000000 0.016350 0.000000
# 6 0.000000 0.000000 0.000000 0.000000 0.000000 0.040646
#
#
# Mechanical properties :
#
#
# Convention : Reuss Voigt Hill
#
# Bulk Modulus (GPa) = 62.43781 67.64721 65.04251
# Shear Modulus (GPa) = 25.47568 31.53854 28.50711
#
# Velocity S-wave (km/s) = 3.59663 4.00179 3.80461
# Velocity P-wave (km/s) = 6.99655 7.46335 7.23372
#
# Compressibility (1/GPa) = 0.01601594
#
# Stress axis : x y z
#
# Youngs Moduli (GPa) = 51.46148 48.52770 93.38366
#
# Poissons Ratio (x) = 0.46391 0.57415
# Poissons Ratio (y) = 0.49195 0.15480
# Poissons Ratio (z) = 0.31640 0.08045
#
# Static dielectric constant tensor:
#      x y z
#    x 1.666850 0.000000 0.000000 
#    y 0.000000 1.723310 0.000000 
#    z 0.000000 0.000000 1.690890 
# 
# From -- ./inp_files/20944.got.cif
#   From: 2010.05.17/outbox.cif.g08.bks.cpg/sg53_11_cif.got.tgz:20944.got - 2010.06.03 12:45:16.
