data_PCOD9419046
_publ_section_title
;
Structure prediction by ZEFSAII (Michael W. Deem and Ramdas Pophale) SiO2 
 PCOD9419046
Probable space group: P M N A
;
_chemical_formula_sum "Si O2"
_cell_formula_units_Z 28
_cell_length_a 19.948082
_cell_length_b 4.720364
_cell_length_c 10.951083
_cell_angle_alpha 90.000000
_cell_angle_beta 90.000000
_cell_angle_gamma 90.000000
_cell_volume 1031.178157
_symmetry_space_group_name_H-M "P M N A"
_symmetry_group_IT_number 53
_symmetry_cell_setting 'orthorhombic'
loop_
_space_group_symop_operation_xyz
x,y,z
1/2-x,-y,1/2+z
x,-y,-z
1/2-x,y,1/2-z
-x,-y,-z
1/2+x,y,1/2-z
-x,y,z
1/2+x,-y,1/2+z
loop_
_atom_site_type_symbol
_atom_site_label
_atom_site_fract_x
_atom_site_fract_y
_atom_site_fract_z
Si Si1 0.268121 0.000000 0.000000
Si Si2 0.000000 0.265714 0.887045
Si Si3 0.642885 0.628522 0.822655
Si Si4 0.349213 0.874268 0.339026
Si Si5 0.500000 0.109037 0.137030
O O1 0.216290 0.821005 0.082898
O O2 0.313344 0.221033 0.075045
O O3 0.079282 0.186594 0.900295
O O4 0.000000 0.132669 0.742876
O O5 0.000000 0.500000 0.000000
O O6 0.652372 0.304444 0.787002
O O7 0.656735 0.797551 0.697397
O O8 0.565431 0.698527 0.846678
O O9 0.500000 0.000000 0.000000
#
# Coordination Sequence:
#
# PCOD9419046 Si02
#       5
#     4   4   8   8   4
#     4  12  28  50  78 114 168 216 266 336 424 510
#     4  10  25  51  80 118 156 211 278 349 406 492
#     4  11  26  51  77 117 158 209 276 340 413 490
#     4  11  28  49  77 114 158 211 272 342 412 495
#     4  10  21  52  87 120 157 221 282 354 409 500
#
# _framework density 27.153409
#
# number of rings (size 3 to 8) (size 9 to 14) (size 15 to 20)
#    0.000    1.143    1.429    1.714    4.000    8.571 
#    5.143    2.857    0.000    0.000    0.000    0.000 
#    0.000    0.000    0.000    0.000    0.000    0.000 
#
# Total GULP energy -156328.144239 kJ/mol
# GULP energy per Si atom -5583.148009 kJ/mol
# Density = 2.709161 g / cm^3
# Si number density = 27.153409 Si / 1000 Ang^3
#
#
#
# Elastic Constant Matrix: (Units=GPa)
#
#
# Indices 1 2 3 4 5 6 
#
# 1 254.1737 36.3386 78.5624 0.0000 0.0000 0.0000
# 2 36.3386 94.3560 45.3221 0.0000 0.0000 0.0000
# 3 78.5624 45.3221 138.2986 0.0000 0.0000 0.0000
# 4 0.0000 0.0000 0.0000 54.0673 0.0000 0.0000
# 5 0.0000 0.0000 0.0000 0.0000 7.2972 0.0000
# 6 0.0000 0.0000 0.0000 0.0000 0.0000 29.6937
#
#
#
# Elastic Compliance Matrix: (Units=1/GPa)
#
#
# Indices 1 2 3 4 5 6 
#
# 1 0.004805 -0.000640 -0.002520 0.000000 0.000000 0.000000
# 2 -0.000640 0.012663 -0.003786 0.000000 0.000000 0.000000
# 3 -0.002520 -0.003786 0.009903 0.000000 0.000000 0.000000
# 4 0.000000 0.000000 0.000000 0.018495 0.000000 0.000000
# 5 0.000000 0.000000 0.000000 0.000000 0.137039 0.000000
# 6 0.000000 0.000000 0.000000 0.000000 0.000000 0.033677
#
#
# Mechanical properties :
#
#
# Convention : Reuss Voigt Hill
#
# Bulk Modulus (GPa) = 74.19049 89.69716 81.94382
# Shear Modulus (GPa) = 21.27958 39.98533 30.63245
#
# Velocity S-wave (km/s) = 2.80246 3.84157 3.36240
# Velocity P-wave (km/s) = 6.15254 7.26513 6.73186
#
# Compressibility (1/GPa) = 0.01347882
#
# Stress axis : x y z
#
# Youngs Moduli (GPa) = 208.13394 78.96800 100.98162
#
# Poissons Ratio (x) = 0.05055 0.25443
# Poissons Ratio (y) = 0.13324 0.38235
# Poissons Ratio (z) = 0.52440 0.29900
#
# Static dielectric constant tensor:
#      x y z
#    x 2.038470 0.000000 0.000000 
#    y 0.000000 2.096570 0.000000 
#    z 0.000000 0.000000 2.138560 
# 
# From -- ./inp_files/10403.got.cif
#   From: 2010.05.17/outbox.cif.g08.bks.cpg/sg53_6_cif.got.tgz:10403.got - 2010.06.03 12:45:16.
