data_PCOD9419684
_publ_section_title
;
Structure prediction by ZEFSAII (Michael W. Deem and Ramdas Pophale) SiO2 
 PCOD9419684
Probable space group: P M N A
;
_chemical_formula_sum "Si O2"
_cell_formula_units_Z 48
_cell_length_a 8.690252
_cell_length_b 13.817444
_cell_length_c 23.177253
_cell_angle_alpha 90.000000
_cell_angle_beta 90.000000
_cell_angle_gamma 90.000000
_cell_volume 2783.056639
_symmetry_space_group_name_H-M "P M N A"
_symmetry_group_IT_number 53
_symmetry_cell_setting 'orthorhombic'
loop_
_space_group_symop_operation_xyz
x,y,z
1/2-x,-y,1/2+z
x,-y,-z
1/2-x,y,1/2-z
-x,-y,-z
1/2+x,y,1/2-z
-x,y,z
1/2+x,-y,1/2+z
loop_
_atom_site_type_symbol
_atom_site_label
_atom_site_fract_x
_atom_site_fract_y
_atom_site_fract_z
Si Si1 0.824839 0.255941 0.599228
Si Si2 0.176357 0.745818 0.907228
Si Si3 0.816690 0.388377 0.314468
Si Si4 0.816530 0.405521 0.814582
Si Si5 0.686155 0.112434 0.997638
Si Si6 0.169683 0.610948 0.512281
O O1 0.731029 0.311184 0.648525
O O2 0.763659 0.163189 0.562892
O O3 0.833734 0.333677 0.547793
O O4 0.000000 0.235834 0.619579
O O5 0.262210 0.704606 0.851073
O O6 0.195773 0.654434 0.949895
O O7 0.000000 0.767912 0.894421
O O8 0.250696 0.830623 0.946325
O O9 0.750000 0.380625 0.250000
O O10 0.753855 0.492457 0.337928
O O11 0.000000 0.393663 0.312764
O O12 0.750000 0.395089 0.750000
O O13 0.000000 0.415253 0.812886
O O14 0.500000 0.121406 0.998544
O O15 0.727944 0.000000 0.000000
O O16 0.187112 0.500000 0.500000
O O17 0.000000 0.627821 0.540515
#
# Coordination Sequence:
#
# PCOD9419684 Si02
#       6
#     8   8   8   8   8   8
#     4   9  17  30  49  74 102 131 166 207 252 301
#     4  11  21  32  49  75 104 133 167 207 253 304
#     4  11  21  35  53  74 104 140 177 212 249 295
#     4  11  21  33  50  74 105 140 176 209 247 295
#     4   9  19  37  59  79 100 131 169 211 263 315
#     4   9  17  29  46  68  97 133 167 202 246 296
#
# _framework density 17.247223000000002
#
# number of rings (size 3 to 8) (size 9 to 14) (size 15 to 20)
#    0.000    2.000    0.000    7.500    0.000    4.667 
#    0.000    0.000    0.000    1.000    0.000    4.667 
#    0.000    0.000    0.000    0.000    0.000    0.000 
#
# Total GULP energy -267457.465876 kJ/mol
# GULP energy per Si atom -5572.030539 kJ/mol
# Density = 1.720797 g / cm^3
# Si number density = 17.247223 Si / 1000 Ang^3
#
#
#
# Elastic Constant Matrix: (Units=GPa)
#
#
# Indices 1 2 3 4 5 6 
#
# 1 106.1241 36.7801 36.2033 0.0000 0.0000 0.0000
# 2 36.7801 123.3096 45.0022 0.0000 0.0000 0.0000
# 3 36.2033 45.0022 72.7546 0.0000 0.0000 0.0000
# 4 0.0000 0.0000 0.0000 23.7349 0.0000 0.0000
# 5 0.0000 0.0000 0.0000 0.0000 36.3497 0.0000
# 6 0.0000 0.0000 0.0000 0.0000 0.0000 -59.0115
#
#
#
# Elastic Compliance Matrix: (Units=1/GPa)
#
#
# Indices 1 2 3 4 5 6 
#
# 1 0.011636 -0.001753 -0.004706 0.000000 0.000000 0.000000
# 2 -0.001753 0.010738 -0.005770 0.000000 0.000000 0.000000
# 3 -0.004706 -0.005770 0.019655 0.000000 0.000000 0.000000
# 4 0.000000 0.000000 0.000000 0.042132 0.000000 0.000000
# 5 0.000000 0.000000 0.000000 0.000000 0.027511 0.000000
# 6 0.000000 0.000000 0.000000 0.000000 0.000000 -0.016946
#
#
# Mechanical properties :
#
#
# Convention : Reuss Voigt Hill
#
# Bulk Modulus (GPa) = 56.90820 59.79549 58.35184
# Shear Modulus (GPa) = 39.98698 12.49480 26.24089
#
# Velocity S-wave (km/s) = 4.82026 2.69449 3.90482
# Velocity P-wave (km/s) = 8.00294 6.66523 7.36452
#
# Compressibility (1/GPa) = 0.01757216
#
# Stress axis : x y z
#
# Youngs Moduli (GPa) = 85.94120 93.12455 50.87720
#
# Poissons Ratio (x) = 0.16328 0.23941
# Poissons Ratio (y) = 0.15069 0.29354
# Poissons Ratio (z) = 0.40440 0.53730
#
# Static dielectric constant tensor:
#      x y z
#    x 1.635100 0.000000 0.000000 
#    y 0.000000 1.635030 0.000000 
#    z 0.000000 0.000000 1.642380 
# 
# From -- ./inp_files/33969.got.cif
#   From: 2010.05.17/outbox.cif.g08.bks.cpg/sg53_17_cif.got.tgz:33969.got - 2010.06.03 12:45:16.
