data_PCOD9419714
_publ_section_title
;
Structure prediction by ZEFSAII (Michael W. Deem and Ramdas Pophale) SiO2 
 PCOD9419714
Probable space group: P M N A
;
_chemical_formula_sum "Si O2"
_cell_formula_units_Z 48
_cell_length_a 14.457804
_cell_length_b 13.912641
_cell_length_c 11.522088
_cell_angle_alpha 90.000000
_cell_angle_beta 90.000000
_cell_angle_gamma 90.000000
_cell_volume 2317.624640
_symmetry_space_group_name_H-M "P M N A"
_symmetry_group_IT_number 53
_symmetry_cell_setting 'orthorhombic'
loop_
_space_group_symop_operation_xyz
x,y,z
1/2-x,-y,1/2+z
x,-y,-z
1/2-x,y,1/2-z
-x,-y,-z
1/2+x,y,1/2-z
-x,y,z
1/2+x,-y,1/2+z
loop_
_atom_site_type_symbol
_atom_site_label
_atom_site_fract_x
_atom_site_fract_y
_atom_site_fract_z
Si Si1 0.103795 0.306435 0.065838
Si Si2 0.604925 0.279716 0.051401
Si Si3 0.272570 0.763431 0.376975
Si Si4 0.103228 0.946849 0.123763
Si Si5 0.860277 0.860014 0.759896
Si Si6 0.736407 0.445742 0.124560
O O1 0.109475 0.203128 0.129034
O O2 0.176398 0.374016 0.128807
O O3 0.000000 0.342090 0.069030
O O4 0.145283 0.294738 0.938291
O O5 0.500000 0.294333 0.008354
O O6 0.603281 0.196253 0.148251
O O7 0.646329 0.376855 0.109845
O O8 0.681268 0.247961 0.956346
O O9 0.250000 0.728585 0.250000
O O10 0.314595 0.870615 0.367572
O O11 0.000000 0.902272 0.130234
O O12 0.110105 0.030775 0.219635
O O13 0.110895 0.000000 0.000000
O O14 0.750000 0.857390 0.750000
O O15 0.750000 0.497767 0.250000
O O16 0.741633 0.500000 0.000000
#
# Coordination Sequence:
#
# PCOD9419714 Si02
#       6
#     8   8   8   8   8   8
#     4  11  21  40  69  92 120 168 221 263 316 393
#     4  11  23  43  70  96 126 173 226 271 326 396
#     4  11  24  40  57  89 135 177 213 272 328 386
#     4  11  21  34  59  94 128 167 221 272 318 378
#     4  12  19  38  67  96 124 164 215 273 320 372
#     4  11  24  43  67 103 137 171 215 275 344 408
#
# _framework density 20.710861000000001
#
# number of rings (size 3 to 8) (size 9 to 14) (size 15 to 20)
#    0.000    0.833    6.667    2.500    0.000    4.667 
#    0.000    0.000    0.000    3.500    0.000    0.000 
#    0.000    0.000    0.000    0.000    0.000    0.000 
#
# Total GULP energy -267937.499078 kJ/mol
# GULP energy per Si atom -5582.031231 kJ/mol
# Density = 2.066372 g / cm^3
# Si number density = 20.710861 Si / 1000 Ang^3
#
#
#
# Elastic Constant Matrix: (Units=GPa)
#
#
# Indices 1 2 3 4 5 6 
#
# 1 147.9055 13.9909 1.6502 0.0000 0.0000 0.0000
# 2 13.9909 62.9962 14.6846 0.0000 0.0000 0.0000
# 3 1.6502 14.6846 102.1946 0.0000 0.0000 0.0000
# 4 0.0000 0.0000 0.0000 16.3928 0.0000 0.0000
# 5 0.0000 0.0000 0.0000 0.0000 5.5941 0.0000
# 6 0.0000 0.0000 0.0000 0.0000 0.0000 21.2576
#
#
#
# Elastic Compliance Matrix: (Units=1/GPa)
#
#
# Indices 1 2 3 4 5 6 
#
# 1 0.006907 -0.001560 0.000113 0.000000 0.000000 0.000000
# 2 -0.001560 0.016777 -0.002385 0.000000 0.000000 0.000000
# 3 0.000113 -0.002385 0.010126 0.000000 0.000000 0.000000
# 4 0.000000 0.000000 0.000000 0.061002 0.000000 0.000000
# 5 0.000000 0.000000 0.000000 0.000000 0.178760 0.000000
# 6 0.000000 0.000000 0.000000 0.000000 0.000000 0.047042
#
#
# Mechanical properties :
#
#
# Convention : Reuss Voigt Hill
#
# Bulk Modulus (GPa) = 38.24983 41.52753 39.88868
# Shear Modulus (GPa) = 14.83699 27.50027 21.16863
#
# Velocity S-wave (km/s) = 2.67944 3.64788 3.20050
# Velocity P-wave (km/s) = 5.29916 6.15120 5.74101
#
# Compressibility (1/GPa) = 0.02614391
#
# Stress axis : x y z
#
# Youngs Moduli (GPa) = 144.77194 59.60691 98.75363
#
# Poissons Ratio (x) = 0.09301 -0.01113
# Poissons Ratio (y) = 0.22589 0.23557
# Poissons Ratio (z) = -0.01631 0.14219
#
# Static dielectric constant tensor:
#      x y z
#    x 1.920100 0.000000 0.000000 
#    y 0.000000 1.789230 0.000000 
#    z 0.000000 0.000000 1.775240 
# 
# From -- ./inp_files/15944.got.cif
#   From: 2010.05.17/outbox.cif.g08.bks.cpg/sg53_8_cif.got.tgz:15944.got - 2010.06.03 12:45:16.
