data_PCOD9419508
_publ_section_title
;
Structure prediction by ZEFSAII (Michael W. Deem and Ramdas Pophale) SiO2 
 PCOD9419508
Probable space group: P M N A
;
_chemical_formula_sum "Si O2"
_cell_formula_units_Z 48
_cell_length_a 8.753469
_cell_length_b 16.912155
_cell_length_c 16.183836
_cell_angle_alpha 90.000000
_cell_angle_beta 90.000000
_cell_angle_gamma 90.000000
_cell_volume 2395.855478
_symmetry_space_group_name_H-M "P M N A"
_symmetry_group_IT_number 53
_symmetry_cell_setting 'orthorhombic'
loop_
_space_group_symop_operation_xyz
x,y,z
1/2-x,-y,1/2+z
x,-y,-z
1/2-x,y,1/2-z
-x,-y,-z
1/2+x,y,1/2-z
-x,y,z
1/2+x,-y,1/2+z
loop_
_atom_site_type_symbol
_atom_site_label
_atom_site_fract_x
_atom_site_fract_y
_atom_site_fract_z
Si Si1 0.183199 0.314904 0.836382
Si Si2 0.682225 0.162656 0.914208
Si Si3 0.681492 0.675668 0.834636
Si Si4 0.682881 0.994930 0.341586
Si Si5 0.318138 0.593716 0.504217
Si Si6 0.182702 0.170761 0.093835
O O1 0.250000 0.345752 0.750000
O O2 0.247934 0.227005 0.852018
O O3 0.000000 0.312703 0.831815
O O4 0.227394 0.365874 0.917330
O O5 0.500000 0.164980 0.910833
O O6 0.743001 0.075479 0.893604
O O7 0.742851 0.184574 0.004774
O O8 0.750000 0.640986 0.750000
O O9 0.500000 0.678488 0.829284
O O10 0.733202 0.629405 0.916717
O O11 0.749224 0.763746 0.845779
O O12 0.750000 0.990189 0.250000
O O13 0.500000 0.984753 0.340633
O O14 0.716718 0.081584 0.377762
O O15 0.294020 0.500000 0.500000
O O16 0.500000 0.608769 0.514980
O O17 0.000000 0.179925 0.088405
#
# Coordination Sequence:
#
# PCOD9419508 Si02
#       6
#     8   8   8   8   8   8
#     4  11  23  41  67  95 132 172 216 268 322 387
#     4  12  24  39  62  91 126 167 216 266 322 385
#     4  12  25  42  68  99 134 176 220 269 325 389
#     4  11  24  40  59  86 123 166 215 268 322 378
#     4  10  23  45  71  99 133 172 213 267 329 390
#     4  11  23  41  64  91 126 168 216 269 325 384
#
# _framework density 20.034599
#
# number of rings (size 3 to 8) (size 9 to 14) (size 15 to 20)
#    0.000    0.833    1.667    6.000    0.000    7.667 
#    0.000    1.667    0.000    0.000    0.000    0.000 
#    0.000    0.000    0.000    0.000    0.000    0.000 
#
# Total GULP energy -268651.012656 kJ/mol
# GULP energy per Si atom -5596.896097 kJ/mol
# Density = 1.998900 g / cm^3
# Si number density = 20.034599 Si / 1000 Ang^3
#
#
#
# Elastic Constant Matrix: (Units=GPa)
#
#
# Indices 1 2 3 4 5 6 
#
# 1 95.4032 39.4819 49.5209 0.0000 0.0000 0.0000
# 2 39.4819 76.8291 28.8324 0.0000 0.0000 0.0000
# 3 49.5209 28.8324 141.2879 0.0000 0.0000 0.0000
# 4 0.0000 0.0000 0.0000 9.7710 0.0000 0.0000
# 5 0.0000 0.0000 0.0000 0.0000 23.9469 0.0000
# 6 0.0000 0.0000 0.0000 0.0000 0.0000 24.7869
#
#
#
# Elastic Compliance Matrix: (Units=1/GPa)
#
#
# Indices 1 2 3 4 5 6 
#
# 1 0.015179 -0.006285 -0.004037 0.000000 0.000000 0.000000
# 2 -0.006285 0.016698 -0.001205 0.000000 0.000000 0.000000
# 3 -0.004037 -0.001205 0.008739 0.000000 0.000000 0.000000
# 4 0.000000 0.000000 0.000000 0.102343 0.000000 0.000000
# 5 0.000000 0.000000 0.000000 0.000000 0.041759 0.000000
# 6 0.000000 0.000000 0.000000 0.000000 0.000000 0.040344
#
#
# Mechanical properties :
#
#
# Convention : Reuss Voigt Hill
#
# Bulk Modulus (GPa) = 56.94473 61.02117 58.98295
# Shear Modulus (GPa) = 19.68743 24.74663 22.21703
#
# Velocity S-wave (km/s) = 3.13816 3.51835 3.33368
# Velocity P-wave (km/s) = 6.45102 6.85777 6.65750
#
# Compressibility (1/GPa) = 0.01756089
#
# Stress axis : x y z
#
# Youngs Moduli (GPa) = 65.88244 59.88823 114.43363
#
# Poissons Ratio (x) = 0.37640 0.46202
# Poissons Ratio (y) = 0.41407 0.13785
# Poissons Ratio (z) = 0.26600 0.07214
#
# Static dielectric constant tensor:
#      x y z
#    x 1.664670 0.000000 0.000000 
#    y 0.000000 1.705560 0.000000 
#    z 0.000000 0.000000 1.694130 
# 
# From -- ./inp_files/20192.got.cif
#   From: 2010.05.17/outbox.cif.g08.bks.cpg/sg53_11_cif.got.tgz:20192.got - 2010.06.03 12:45:16.
