data_PCOD9419729
_publ_section_title
;
Structure prediction by ZEFSAII (Michael W. Deem and Ramdas Pophale) SiO2 
 PCOD9419729
Probable space group: P M N A
;
_chemical_formula_sum "Si O2"
_cell_formula_units_Z 56
_cell_length_a 14.082920
_cell_length_b 33.201255
_cell_length_c 5.173410
_cell_angle_alpha 90.000000
_cell_angle_beta 90.000000
_cell_angle_gamma 90.000000
_cell_volume 2418.934511
_symmetry_space_group_name_H-M "P M N A"
_symmetry_group_IT_number 53
_symmetry_cell_setting 'orthorhombic'
loop_
_space_group_symop_operation_xyz
x,y,z
1/2-x,-y,1/2+z
x,-y,-z
1/2-x,y,1/2-z
-x,-y,-z
1/2+x,y,1/2-z
-x,y,z
1/2+x,-y,1/2+z
loop_
_atom_site_type_symbol
_atom_site_label
_atom_site_fract_x
_atom_site_fract_y
_atom_site_fract_z
Si Si1 0.893066 0.678072 0.878031
Si Si2 0.116207 0.908796 0.408342
Si Si3 0.384221 0.767331 0.543084
Si Si4 0.384239 0.817526 0.045383
Si Si5 0.352462 0.371241 0.876175
Si Si6 0.116160 0.043834 0.093011
Si Si7 0.181634 0.456181 0.501612
O O1 0.849390 0.721327 0.949271
O O2 0.848019 0.655010 0.635756
O O3 0.000000 0.685871 0.781293
O O4 0.900755 0.651853 0.138857
O O5 0.149241 0.863562 0.464350
O O6 0.146389 0.940690 0.626392
O O7 0.000000 0.908294 0.414802
O O8 0.142902 0.923808 0.124650
O O9 0.500000 0.765508 0.528778
O O10 0.354552 0.793778 0.300257
O O11 0.357981 0.791061 0.800125
O O12 0.500000 0.819534 0.047537
O O13 0.250000 0.376532 0.750000
O O14 0.381913 0.416386 0.958890
O O15 0.000000 0.042125 0.099739
O O16 0.148703 0.000000 0.000000
O O17 0.132296 0.500000 0.500000
O O18 0.250000 0.459512 0.750000
O O19 0.250000 0.450334 0.250000
#
# Coordination Sequence:
#
# PCOD9419729 Si02
#       7
#     8   8   8   8   8   8   8
#     4  11  22  36  54  77 108 143 175 211 266 326
#     4   9  15  21  30  43  59  84 120 168 224 274
#     4   9  17  28  42  60  83 114 149 187 236 295
#     4   9  15  24  37  53  73  98 137 186 233 282
#     4  11  21  36  57  82 108 137 177 221 260 304
#     4   9  15  21  27  37  56  83 117 160 218 284
#     4   9  17  31  53  80 106 134 173 219 260 301
#
# _framework density 23.150690999999998
#
# number of rings (size 3 to 8) (size 9 to 14) (size 15 to 20)
#    0.000    2.429    0.000    4.714    0.000    7.429 
#    0.000    0.000    0.000    2.571    0.000    0.000 
#    0.000    0.000    0.000    0.000    0.000    0.000 
#
# Total GULP energy -312908.192491 kJ/mol
# GULP energy per Si atom -5587.646294 kJ/mol
# Density = 2.309800 g / cm^3
# Si number density = 23.150691 Si / 1000 Ang^3
#
#
#
# Elastic Constant Matrix: (Units=GPa)
#
#
# Indices 1 2 3 4 5 6 
#
# 1 57.9572 3.9279 -1.7460 0.0000 0.0000 0.0000
# 2 3.9279 192.7871 66.2680 0.0000 0.0000 0.0000
# 3 -1.7460 66.2680 172.5388 0.0000 0.0000 0.0000
# 4 0.0000 0.0000 0.0000 35.7193 0.0000 0.0000
# 5 0.0000 0.0000 0.0000 0.0000 -6.2055 0.0000
# 6 0.0000 0.0000 0.0000 0.0000 0.0000 -2.0502
#
#
#
# Elastic Compliance Matrix: (Units=1/GPa)
#
#
# Indices 1 2 3 4 5 6 
#
# 1 0.017297 -0.000475 0.000358 0.000000 0.000000 0.000000
# 2 -0.000475 0.005989 -0.002305 0.000000 0.000000 0.000000
# 3 0.000358 -0.002305 0.006685 0.000000 0.000000 0.000000
# 4 0.000000 0.000000 0.000000 0.027996 0.000000 0.000000
# 5 0.000000 0.000000 0.000000 0.000000 -0.161147 0.000000
# 6 0.000000 0.000000 0.000000 0.000000 0.000000 -0.487764
#
#
# Mechanical properties :
#
#
# Convention : Reuss Voigt Hill
#
# Bulk Modulus (GPa) = 39.80051 62.24255 51.02153
# Shear Modulus (GPa) = -8.65466 29.14827 10.24681
#
# Velocity S-wave (km/s) = -1.93559 3.55218 2.10612
# Velocity P-wave (km/s) = 3.49770 6.61575 5.29160
#
# Compressibility (1/GPa) = 0.02512531
#
# Stress axis : x y z
#
# Youngs Moduli (GPa) = 57.81316 166.97014 149.59444
#
# Poissons Ratio (x) = 0.07937 -0.05350
# Poissons Ratio (y) = 0.02748 0.34483
# Poissons Ratio (z) = -0.02067 0.38488
#
# Static dielectric constant tensor:
#      x y z
#    x 1.995000 0.000000 0.000000 
#    y 0.000000 1.882060 0.000000 
#    z 0.000000 0.000000 1.782440 
# 
# From -- ./inp_files/1474.got.cif
#   From: 2010.05.17/outbox.cif.g08.bks.cpg/sg53_1_cif.got.tgz:1474.got - 2010.06.03 12:45:16.
