data_PCOD9419875
_publ_section_title
;
Structure prediction by ZEFSAII (Michael W. Deem and Ramdas Pophale) SiO2 
 PCOD9419875
Probable space group: P M N A
;
_chemical_formula_sum "Si O2"
_cell_formula_units_Z 48
_cell_length_a 16.738867
_cell_length_b 16.191295
_cell_length_c 8.729430
_cell_angle_alpha 90.000000
_cell_angle_beta 90.000000
_cell_angle_gamma 90.000000
_cell_volume 2365.884456
_symmetry_space_group_name_H-M "P M N A"
_symmetry_group_IT_number 53
_symmetry_cell_setting 'orthorhombic'
loop_
_space_group_symop_operation_xyz
x,y,z
1/2-x,-y,1/2+z
x,-y,-z
1/2-x,y,1/2-z
-x,-y,-z
1/2+x,y,1/2-z
-x,y,z
1/2+x,-y,1/2+z
loop_
_atom_site_type_symbol
_atom_site_label
_atom_site_fract_x
_atom_site_fract_y
_atom_site_fract_z
Si Si1 0.094828 0.508874 0.176313
Si Si2 0.408351 0.824991 0.355014
Si Si3 0.339109 0.656050 0.820588
Si Si4 0.658387 0.824304 0.688296
Si Si5 0.160791 0.995315 0.184749
Si Si6 0.836661 0.675656 0.316727
O O1 0.115425 0.425813 0.267881
O O2 0.136103 0.588496 0.247782
O O3 0.000000 0.521966 0.177545
O O4 0.121541 0.500000 0.000000
O O5 0.500000 0.825147 0.408244
O O6 0.351721 0.816548 0.504906
O O7 0.388195 0.913109 0.278553
O O8 0.393002 0.749345 0.241470
O O9 0.250000 0.649121 0.750000
O O10 0.377583 0.740632 0.756456
O O11 0.334055 0.665867 0.001792
O O12 0.750000 0.825424 0.750000
O O13 0.626337 0.915175 0.733143
O O14 0.250000 0.986601 0.250000
O O15 0.165431 0.000000 0.000000
O O16 0.750000 0.696032 0.250000
#
# Coordination Sequence:
#
# PCOD9419875 Si02
#       6
#     8   8   8   8   8   8
#     4  11  24  42  63  88 121 159 198 246 308 370
#     4  11  23  39  61  92 128 163 204 259 320 372
#     4  11  23  40  62  89 119 154 203 253 301 360
#     4   9  19  38  61  88 121 161 211 255 301 366
#     4   9  19  35  60  88 118 160 209 256 302 362
#     4  12  24  40  64  90 121 160 205 254 302 366
#
# _framework density 20.288395000000001
#
# number of rings (size 3 to 8) (size 9 to 14) (size 15 to 20)
#    0.000    1.500    0.000    6.000    0.000   11.000 
#    0.000    0.000    0.000    3.500    0.000    0.000 
#    0.000    0.000    0.000    0.000    0.000    0.000 
#
# Total GULP energy -268085.381047 kJ/mol
# GULP energy per Si atom -5585.112105 kJ/mol
# Density = 2.024222 g / cm^3
# Si number density = 20.288395 Si / 1000 Ang^3
#
#
#
# Elastic Constant Matrix: (Units=GPa)
#
#
# Indices 1 2 3 4 5 6 
#
# 1 40.6870 14.0756 4.8558 0.0000 0.0000 0.0000
# 2 14.0756 144.4360 26.1147 0.0000 0.0000 0.0000
# 3 4.8558 26.1147 74.3982 0.0000 0.0000 0.0000
# 4 0.0000 0.0000 0.0000 24.8899 0.0000 0.0000
# 5 0.0000 0.0000 0.0000 0.0000 35.1491 0.0000
# 6 0.0000 0.0000 0.0000 0.0000 0.0000 -11.8620
#
#
#
# Elastic Compliance Matrix: (Units=1/GPa)
#
#
# Indices 1 2 3 4 5 6 
#
# 1 0.025485 -0.002331 -0.000845 0.000000 0.000000 0.000000
# 2 -0.002331 0.007606 -0.002518 0.000000 0.000000 0.000000
# 3 -0.000845 -0.002518 0.014380 0.000000 0.000000 0.000000
# 4 0.000000 0.000000 0.000000 0.040177 0.000000 0.000000
# 5 0.000000 0.000000 0.000000 0.000000 0.028450 0.000000
# 6 0.000000 0.000000 0.000000 0.000000 0.000000 -0.084302
#
#
# Mechanical properties :
#
#
# Convention : Reuss Voigt Hill
#
# Bulk Modulus (GPa) = 27.71332 38.84592 33.27962
# Shear Modulus (GPa) = 90.56203 23.93372 57.24788
#
# Velocity S-wave (km/s) = 6.68837 3.43837 5.31774
# Velocity P-wave (km/s) = 8.56359 5.91199 7.35821
#
# Compressibility (1/GPa) = 0.03608373
#
# Stress axis : x y z
#
# Youngs Moduli (GPa) = 39.23871 131.47842 69.54074
#
# Poissons Ratio (x) = 0.30644 0.05878
# Poissons Ratio (y) = 0.09146 0.17508
# Poissons Ratio (z) = 0.03317 0.33101
#
# Static dielectric constant tensor:
#      x y z
#    x 1.711400 0.000000 0.000000 
#    y 0.000000 1.742990 0.000000 
#    z 0.000000 0.000000 1.720990 
# 
# From -- ./inp_files/9968.got.cif
#   From: 2010.05.17/outbox.cif.g08.bks.cpg/sg53_5_cif.got.tgz:9968.got - 2010.06.03 12:45:16.
