data_PCOD9419980
_publ_section_title
;
Structure prediction by ZEFSAII (Michael W. Deem and Ramdas Pophale) SiO2 
 PCOD9419980
Probable space group: P M N A
;
_chemical_formula_sum "Si O2"
_cell_formula_units_Z 64
_cell_length_a 15.705871
_cell_length_b 21.186362
_cell_length_c 10.119232
_cell_angle_alpha 90.000000
_cell_angle_beta 90.000000
_cell_angle_gamma 90.000000
_cell_volume 3367.177165
_symmetry_space_group_name_H-M "P M N A"
_symmetry_group_IT_number 53
_symmetry_cell_setting 'orthorhombic'
loop_
_space_group_symop_operation_xyz
x,y,z
1/2-x,-y,1/2+z
x,-y,-z
1/2-x,y,1/2-z
-x,-y,-z
1/2+x,y,1/2-z
-x,y,z
1/2+x,-y,1/2+z
loop_
_atom_site_type_symbol
_atom_site_label
_atom_site_fract_x
_atom_site_fract_y
_atom_site_fract_z
Si Si1 0.750609 0.061112 0.407455
Si Si2 0.149850 0.758480 0.752898
Si Si3 0.396684 0.353943 0.859981
Si Si4 0.099564 0.491712 0.659944
Si Si5 0.904507 0.152604 0.015686
Si Si6 0.396551 0.628270 0.832693
Si Si7 0.095386 0.845904 0.524516
Si Si8 0.850881 0.782546 0.255157
O O1 0.750000 0.047127 0.250000
O O2 0.667280 0.100905 0.450905
O O3 0.833107 0.104125 0.435765
O O4 0.754837 0.000000 0.500000
O O5 0.250000 0.773703 0.750000
O O6 0.136715 0.684028 0.758202
O O7 0.108103 0.786059 0.620460
O O8 0.106534 0.794581 0.872303
O O9 0.500000 0.353778 0.857229
O O10 0.365979 0.422361 0.805986
O O11 0.367077 0.291676 0.783473
O O12 0.371826 0.354890 0.015532
O O13 0.101145 0.500000 0.500000
O O14 0.135080 0.558631 0.708284
O O15 0.000000 0.490217 0.698388
O O16 0.888582 0.188409 0.878133
O O17 0.000000 0.126050 0.018903
O O18 0.500000 0.627480 0.830329
O O19 0.110415 0.820863 0.377607
O O20 0.000000 0.870918 0.540345
O O21 0.750000 0.792599 0.250000
#
# Coordination Sequence:
#
# PCOD9419980 Si02
#       8
#     8   8   8   8   8   8   8   8
#     4  12  28  49  72 102 136 168 205 250 303 369
#     4  12  21  38  61  93 125 163 208 266 318 361
#     4   9  16  29  52  83 115 156 209 262 315 371
#     4   7  12  24  44  76 115 149 200 266 314 361
#     4  12  25  44  66  93 133 171 204 252 315 373
#     4   9  16  28  53  84 112 156 212 263 313 368
#     4  12  23  44  72  95 125 167 216 262 300 358
#     4  12  23  38  61  95 130 164 209 268 319 369
#
# _framework density 19.007019
#
# number of rings (size 3 to 8) (size 9 to 14) (size 15 to 20)
#    0.000    1.375    5.000    3.750    1.750    0.500 
#    0.000    0.625    0.000    0.750    0.000    3.500 
#    0.000    0.000    0.000    0.000    0.000    0.000 
#
# Total GULP energy -357165.936888 kJ/mol
# GULP energy per Si atom -5580.717764 kJ/mol
# Density = 1.896376 g / cm^3
# Si number density = 19.007019 Si / 1000 Ang^3
#
#
#
# Elastic Constant Matrix: (Units=GPa)
#
#
# Indices 1 2 3 4 5 6 
#
# 1 111.2795 31.0989 14.7066 0.0000 0.0000 0.0000
# 2 31.0989 126.5400 28.8099 0.0000 0.0000 0.0000
# 3 14.7066 28.8099 67.6122 0.0000 0.0000 0.0000
# 4 0.0000 0.0000 0.0000 18.6317 0.0000 0.0000
# 5 0.0000 0.0000 0.0000 0.0000 53.9799 0.0000
# 6 0.0000 0.0000 0.0000 0.0000 0.0000 24.0604
#
#
#
# Elastic Compliance Matrix: (Units=1/GPa)
#
#
# Indices 1 2 3 4 5 6 
#
# 1 0.009739 -0.002116 -0.001216 0.000000 0.000000 0.000000
# 2 -0.002116 0.009212 -0.003465 0.000000 0.000000 0.000000
# 3 -0.001216 -0.003465 0.016531 0.000000 0.000000 0.000000
# 4 0.000000 0.000000 0.000000 0.053672 0.000000 0.000000
# 5 0.000000 0.000000 0.000000 0.000000 0.018525 0.000000
# 6 0.000000 0.000000 0.000000 0.000000 0.000000 0.041562
#
#
# Mechanical properties :
#
#
# Convention : Reuss Voigt Hill
#
# Bulk Modulus (GPa) = 45.69110 50.51806 48.10458
# Shear Modulus (GPa) = 29.38901 34.72216 32.05558
#
# Velocity S-wave (km/s) = 3.93646 4.27875 4.11117
# Velocity P-wave (km/s) = 6.68971 7.14469 6.92094
#
# Compressibility (1/GPa) = 0.02188610
#
# Stress axis : x y z
#
# Youngs Moduli (GPa) = 102.68397 108.55851 60.49170
#
# Poissons Ratio (x) = 0.22976 0.07359
# Poissons Ratio (y) = 0.21732 0.20959
# Poissons Ratio (z) = 0.12491 0.37613
#
# Static dielectric constant tensor:
#      x y z
#    x 1.665150 0.000000 0.000000 
#    y 0.000000 1.688820 0.000000 
#    z 0.000000 0.000000 1.669130 
# 
# From -- ./inp_files/8940.got.cif
#   From: 2010.05.17/outbox.cif.g08.bks.cpg/sg53_5_cif.got.tgz:8940.got - 2010.06.03 12:45:16.
