data_PCOD9419076
_publ_section_title
;
Structure prediction by ZEFSAII (Michael W. Deem and Ramdas Pophale) SiO2 
 PCOD9419076
Probable space group: P M N A
;
_chemical_formula_sum "Si O2"
_cell_formula_units_Z 48
_cell_length_a 8.557612
_cell_length_b 31.901400
_cell_length_c 9.243085
_cell_angle_alpha 90.000000
_cell_angle_beta 90.000000
_cell_angle_gamma 90.000000
_cell_volume 2523.360388
_symmetry_space_group_name_H-M "P M N A"
_symmetry_group_IT_number 53
_symmetry_cell_setting 'orthorhombic'
loop_
_space_group_symop_operation_xyz
x,y,z
1/2-x,-y,1/2+z
x,-y,-z
1/2-x,y,1/2-z
-x,-y,-z
1/2+x,y,1/2-z
-x,y,z
1/2+x,-y,1/2+z
loop_
_atom_site_type_symbol
_atom_site_label
_atom_site_fract_x
_atom_site_fract_y
_atom_site_fract_z
Si Si1 0.686560 0.122371 0.086703
Si Si2 0.188696 0.285385 0.087919
Si Si3 0.688862 0.633235 0.413554
Si Si4 0.811256 0.459670 0.912383
Si Si5 0.312136 0.797598 0.413150
Si Si6 0.812356 0.957769 0.086585
O O1 0.750000 0.120739 0.250000
O O2 0.500000 0.122989 0.089917
O O3 0.748446 0.163713 0.006135
O O4 0.744456 0.082083 0.997573
O O5 0.250000 0.281033 0.250000
O O6 0.000000 0.285867 0.092034
O O7 0.242739 0.328734 0.014212
O O8 0.236323 0.245848 0.989804
O O9 0.750000 0.638491 0.250000
O O10 0.500000 0.634364 0.408449
O O11 0.736174 0.586699 0.466980
O O12 0.750000 0.462727 0.750000
O O13 0.000000 0.460651 0.911706
O O14 0.754300 0.500000 0.000000
O O15 0.250000 0.799609 0.250000
O O16 0.500000 0.799480 0.410846
O O17 0.750000 0.959301 0.250000
O O18 0.000000 0.954598 0.089607
O O19 0.769340 0.000000 0.000000
#
# Coordination Sequence:
#
# PCOD9419076 Si02
#       6
#     8   8   8   8   8   8
#     4  12  25  42  64  90 122 157 195 240 289 340
#     4  10  22  37  55  80 110 143 180 226 277 330
#     4   9  18  34  53  75 103 137 178 221 269 324
#     4   9  18  32  50  73 103 137 174 219 268 321
#     4  11  23  40  61  86 115 149 190 233 282 337
#     4  11  24  42  65  93 125 161 201 244 291 342
#
# _framework density 19.022252000000002
#
# number of rings (size 3 to 8) (size 9 to 14) (size 15 to 20)
#    0.000    1.667    0.000    4.500    0.000    7.000 
#    0.000    0.000    0.000    0.000    0.000    0.000 
#    0.000    0.000    0.000    0.000    0.000    0.000 
#
# Total GULP energy -268248.253762 kJ/mol
# GULP energy per Si atom -5588.505287 kJ/mol
# Density = 1.897896 g / cm^3
# Si number density = 19.022252 Si / 1000 Ang^3
#
#
#
# Elastic Constant Matrix: (Units=GPa)
#
#
# Indices 1 2 3 4 5 6 
#
# 1 48.5759 56.2174 42.9691 0.0000 0.0000 0.0000
# 2 56.2174 211.8427 117.6859 0.0000 0.0000 0.0000
# 3 42.9691 117.6859 171.1163 0.0000 0.0000 0.0000
# 4 0.0000 0.0000 0.0000 44.1912 0.0000 0.0000
# 5 0.0000 0.0000 0.0000 0.0000 38.0637 0.0000
# 6 0.0000 0.0000 0.0000 0.0000 0.0000 -60.4562
#
#
#
# Elastic Compliance Matrix: (Units=1/GPa)
#
#
# Indices 1 2 3 4 5 6 
#
# 1 0.030908 -0.006296 -0.003431 0.000000 0.000000 0.000000
# 2 -0.006296 0.008922 -0.004555 0.000000 0.000000 0.000000
# 3 -0.003431 -0.004555 0.009838 0.000000 0.000000 0.000000
# 4 0.000000 0.000000 0.000000 0.022629 0.000000 0.000000
# 5 0.000000 0.000000 0.000000 0.000000 0.026272 0.000000
# 6 0.000000 0.000000 0.000000 0.000000 0.000000 -0.016541
#
#
# Mechanical properties :
#
#
# Convention : Reuss Voigt Hill
#
# Bulk Modulus (GPa) = 47.38526 96.14218 71.76372
# Shear Modulus (GPa) = 42.50744 18.67058 30.58901
#
# Velocity S-wave (km/s) = 4.73230 3.13631 4.01442
# Velocity P-wave (km/s) = 7.40433 7.98542 7.70036
#
# Compressibility (1/GPa) = 0.02110361
#
# Stress axis : x y z
#
# Youngs Moduli (GPa) = 32.35418 112.08629 101.64388
#
# Poissons Ratio (x) = 0.70569 0.34876
# Poissons Ratio (y) = 0.20370 0.46298
# Poissons Ratio (z) = 0.11101 0.51055
#
# Static dielectric constant tensor:
#      x y z
#    x 1.641740 0.000000 0.000000 
#    y 0.000000 1.670050 0.000000 
#    z 0.000000 0.000000 1.607390 
# 
# From -- ./inp_files/6632.got.cif
#   From: 2010.05.17/outbox.cif.g08.bks.cpg/sg53_4_cif.got.tgz:6632.got - 2010.06.03 12:45:16.
