data_PCOD9419488
_publ_section_title
;
Structure prediction by ZEFSAII (Michael W. Deem and Ramdas Pophale) SiO2 
 PCOD9419488
Probable space group: P M N A
;
_chemical_formula_sum "Si O2"
_cell_formula_units_Z 40
_cell_length_a 8.504064
_cell_length_b 14.909638
_cell_length_c 15.978758
_cell_angle_alpha 90.000000
_cell_angle_beta 90.000000
_cell_angle_gamma 90.000000
_cell_volume 2025.986926
_symmetry_space_group_name_H-M "P M N A"
_symmetry_group_IT_number 53
_symmetry_cell_setting 'orthorhombic'
loop_
_space_group_symop_operation_xyz
x,y,z
1/2-x,-y,1/2+z
x,-y,-z
1/2-x,y,1/2-z
-x,-y,-z
1/2+x,y,1/2-z
-x,y,z
1/2+x,-y,1/2+z
loop_
_atom_site_type_symbol
_atom_site_label
_atom_site_fract_x
_atom_site_fract_y
_atom_site_fract_z
Si Si1 0.811665 0.212298 0.338930
Si Si2 0.189667 0.600134 0.400052
Si Si3 0.190599 0.402322 0.402383
Si Si4 0.690313 0.896091 0.501865
Si Si5 0.187186 0.213256 0.838861
O O1 0.750000 0.179121 0.250000
O O2 0.752909 0.314666 0.354093
O O3 0.754141 0.153258 0.416320
O O4 0.000000 0.213397 0.338464
O O5 0.243955 0.500668 0.372792
O O6 0.229244 0.607743 0.499046
O O7 0.261612 0.683899 0.352607
O O8 0.000000 0.604461 0.393002
O O9 0.000000 0.403641 0.398304
O O10 0.500000 0.892332 0.504020
O O11 0.744745 0.844125 0.418385
O O12 0.737631 0.000000 0.500000
O O13 0.250000 0.180248 0.750000
O O14 0.000000 0.208768 0.837732
#
# Coordination Sequence:
#
# PCOD9419488 Si02
#       5
#     8   8   8   8   8
#     4  11  22  38  61  90 121 156 196 238 289 347
#     4   9  16  33  58  84 117 155 196 235 281 339
#     4   8  16  31  56  85 117 157 193 233 282 337
#     4  10  23  44  65  86 115 149 191 247 301 350
#     4  11  23  38  59  87 118 152 192 239 291 347
#
# _framework density 19.743465
#
# number of rings (size 3 to 8) (size 9 to 14) (size 15 to 20)
#    0.000    2.200    2.000    2.400    0.000    2.800 
#    0.000    8.000    0.000    0.000    0.000    0.000 
#    0.000    0.000    0.000    0.000    0.000    0.000 
#
# Total GULP energy -223353.913239 kJ/mol
# GULP energy per Si atom -5583.847831 kJ/mol
# Density = 1.969853 g / cm^3
# Si number density = 19.743465 Si / 1000 Ang^3
#
#
#
# Elastic Constant Matrix: (Units=GPa)
#
#
# Indices 1 2 3 4 5 6 
#
# 1 21.6390 27.6464 29.6829 0.0000 0.0000 0.0000
# 2 27.6464 138.3615 86.1286 0.0000 0.0000 0.0000
# 3 29.6829 86.1286 160.2474 0.0000 0.0000 0.0000
# 4 0.0000 0.0000 0.0000 -3.4366 0.0000 0.0000
# 5 0.0000 0.0000 0.0000 0.0000 24.7300 0.0000
# 6 0.0000 0.0000 0.0000 0.0000 0.0000 20.3651
#
#
#
# Elastic Compliance Matrix: (Units=1/GPa)
#
#
# Indices 1 2 3 4 5 6 
#
# 1 0.068232 -0.008665 -0.007981 0.000000 0.000000 0.000000
# 2 -0.008665 0.011962 -0.004824 0.000000 0.000000 0.000000
# 3 -0.007981 -0.004824 0.010312 0.000000 0.000000 0.000000
# 4 0.000000 0.000000 0.000000 -0.290984 0.000000 0.000000
# 5 0.000000 0.000000 0.000000 0.000000 0.040437 0.000000
# 6 0.000000 0.000000 0.000000 0.000000 0.000000 0.049104
#
#
# Mechanical properties :
#
#
# Convention : Reuss Voigt Hill
#
# Bulk Modulus (GPa) = 21.02428 67.46262 44.24345
# Shear Modulus (GPa) = -95.89138 20.11771 -37.88684
#
# Velocity S-wave (km/s) = -6.97668 3.19557 -4.38534
# Velocity P-wave (km/s) = 7.36390 6.91804 1.78432
#
# Compressibility (1/GPa) = 0.04756406
#
# Stress axis : x y z
#
# Youngs Moduli (GPa) = 14.65582 83.59947 96.97857
#
# Poissons Ratio (x) = 0.72442 0.77403
# Poissons Ratio (y) = 0.12700 0.46783
# Poissons Ratio (z) = 0.11697 0.40329
#
# Static dielectric constant tensor:
#      x y z
#    x 1.667940 0.000000 0.000000 
#    y 0.000000 1.695680 0.000000 
#    z 0.000000 0.000000 1.686760 
# 
# From -- ./inp_files/19848.got.cif
#   From: 2010.05.17/outbox.cif.g08.bks.cpg/sg53_10_cif.got.tgz:19848.got - 2010.06.03 12:45:16.
