data_PCOD9419137
_publ_section_title
;
Structure prediction by ZEFSAII (Michael W. Deem and Ramdas Pophale) SiO2 
 PCOD9419137
Probable space group: P M N A
;
_chemical_formula_sum "Si O2"
_cell_formula_units_Z 48
_cell_length_a 8.709530
_cell_length_b 15.210733
_cell_length_c 18.963171
_cell_angle_alpha 90.000000
_cell_angle_beta 90.000000
_cell_angle_gamma 90.000000
_cell_volume 2512.209328
_symmetry_space_group_name_H-M "P M N A"
_symmetry_group_IT_number 53
_symmetry_cell_setting 'orthorhombic'
loop_
_space_group_symop_operation_xyz
x,y,z
1/2-x,-y,1/2+z
x,-y,-z
1/2-x,y,1/2-z
-x,-y,-z
1/2+x,y,1/2-z
-x,y,z
1/2+x,-y,1/2+z
loop_
_atom_site_type_symbol
_atom_site_label
_atom_site_fract_x
_atom_site_fract_y
_atom_site_fract_z
Si Si1 0.316299 0.529505 0.173359
Si Si2 0.686272 0.875993 0.444117
Si Si3 0.185226 0.937425 0.898125
Si Si4 0.317385 0.776629 0.823726
Si Si5 0.314810 0.626302 0.933204
Si Si6 0.184139 0.677950 0.082088
O O1 0.250000 0.507778 0.250000
O O2 0.500000 0.530082 0.177239
O O3 0.271735 0.457269 0.114448
O O4 0.254801 0.622648 0.145722
O O5 0.500000 0.875062 0.443155
O O6 0.729183 0.898399 0.524868
O O7 0.738255 0.779636 0.421102
O O8 0.734103 0.960527 0.398180
O O9 0.257016 0.873754 0.840762
O O10 0.000000 0.933954 0.893057
O O11 0.250000 0.744528 0.750000
O O12 0.500000 0.776284 0.819508
O O13 0.271910 0.711844 0.887192
O O14 0.500000 0.624730 0.943043
O O15 0.236566 0.633075 0.008870
O O16 0.000000 0.676737 0.086684
#
# Coordination Sequence:
#
# PCOD9419137 Si02
#       6
#     8   8   8   8   8   8
#     4  11  24  42  60  81 113 152 191 235 286 339
#     4   8  16  31  56  84 110 142 182 226 274 327
#     4   9  16  33  56  79 109 146 184 225 274 329
#     4  11  22  35  53  81 115 151 190 235 287 340
#     4  10  22  39  58  83 115 149 188 235 286 337
#     4  11  21  36  61  91 116 146 189 234 281 338
#
# _framework density 19.106688999999999
#
# number of rings (size 3 to 8) (size 9 to 14) (size 15 to 20)
#    0.000    2.000    1.667    3.500    0.000    4.000 
#    0.000    4.167    0.000    0.000    0.000    0.000 
#    0.000    0.000    0.000    0.000    0.000    0.000 
#
# Total GULP energy -268010.381688 kJ/mol
# GULP energy per Si atom -5583.549619 kJ/mol
# Density = 1.906320 g / cm^3
# Si number density = 19.106689 Si / 1000 Ang^3
#
#
#
# Elastic Constant Matrix: (Units=GPa)
#
#
# Indices 1 2 3 4 5 6 
#
# 1 24.8847 18.6326 14.7421 0.0000 0.0000 0.0000
# 2 18.6326 115.3650 12.9009 0.0000 0.0000 0.0000
# 3 14.7421 12.9009 36.6677 0.0000 0.0000 0.0000
# 4 0.0000 0.0000 0.0000 16.4964 0.0000 0.0000
# 5 0.0000 0.0000 0.0000 0.0000 26.1362 0.0000
# 6 0.0000 0.0000 0.0000 0.0000 0.0000 23.6279
#
#
#
# Elastic Compliance Matrix: (Units=1/GPa)
#
#
# Indices 1 2 3 4 5 6 
#
# 1 0.057715 -0.007002 -0.020741 0.000000 0.000000 0.000000
# 2 -0.007002 0.009873 -0.000658 0.000000 0.000000 0.000000
# 3 -0.020741 -0.000658 0.035842 0.000000 0.000000 0.000000
# 4 0.000000 0.000000 0.000000 0.060619 0.000000 0.000000
# 5 0.000000 0.000000 0.000000 0.000000 0.038261 0.000000
# 6 0.000000 0.000000 0.000000 0.000000 0.000000 0.042323
#
#
# Mechanical properties :
#
#
# Convention : Reuss Voigt Hill
#
# Bulk Modulus (GPa) = 21.44634 29.94094 25.69364
# Shear Modulus (GPa) = 15.77394 21.96155 18.86774
#
# Velocity S-wave (km/s) = 2.87639 3.39398 3.14585
# Velocity P-wave (km/s) = 4.72021 5.57344 5.16448
#
# Compressibility (1/GPa) = 0.04662801
#
# Stress axis : x y z
#
# Youngs Moduli (GPa) = 17.32642 101.28954 27.90004
#
# Poissons Ratio (x) = 0.70925 0.57866
# Poissons Ratio (y) = 0.12132 0.01837
# Poissons Ratio (z) = 0.35936 0.06668
#
# Static dielectric constant tensor:
#      x y z
#    x 1.640420 0.000000 0.000000 
#    y 0.000000 1.697710 0.000000 
#    z 0.000000 0.000000 1.637990 
# 
# From -- ./inp_files/26223.got.cif
#   From: 2010.05.17/outbox.cif.g08.bks.cpg/sg53_14_cif.got.tgz:26223.got - 2010.06.03 12:45:16.
