data_PCOD9419122
_publ_section_title
;
Structure prediction by ZEFSAII (Michael W. Deem and Ramdas Pophale) SiO2 
 PCOD9419122
Probable space group: P M N A
;
_chemical_formula_sum "Si O2"
_cell_formula_units_Z 46
_cell_length_a 13.097108
_cell_length_b 8.396977
_cell_length_c 21.571230
_cell_angle_alpha 90.000000
_cell_angle_beta 90.000000
_cell_angle_gamma 90.000000
_cell_volume 2372.320063
_symmetry_space_group_name_H-M "P M N A"
_symmetry_group_IT_number 53
_symmetry_cell_setting 'orthorhombic'
loop_
_space_group_symop_operation_xyz
x,y,z
1/2-x,-y,1/2+z
x,-y,-z
1/2-x,y,1/2-z
-x,-y,-z
1/2+x,y,1/2-z
-x,y,z
1/2+x,-y,1/2+z
loop_
_atom_site_type_symbol
_atom_site_label
_atom_site_fract_x
_atom_site_fract_y
_atom_site_fract_z
Si Si1 0.000000 0.303289 0.029176
Si Si2 0.877433 0.076221 0.405660
Si Si3 0.222332 0.753426 0.820790
Si Si4 0.168948 0.744043 0.466567
Si Si5 0.500000 0.739993 0.379834
Si Si6 0.331579 0.475388 0.594283
Si Si7 0.000000 0.500000 0.500000
Si Si8 0.500000 0.104740 0.355007
O O1 0.904647 0.408487 0.053966
O O2 0.000000 0.147506 0.071702
O O3 0.000000 0.262736 0.956403
O O4 0.806328 0.125908 0.348856
O O5 0.837275 0.179831 0.464559
O O6 0.000000 0.105471 0.399321
O O7 0.858304 0.892486 0.422833
O O8 0.250000 0.723032 0.750000
O O9 0.231278 0.594191 0.862424
O O10 0.105665 0.820328 0.828418
O O11 0.269978 0.652170 0.446190
O O12 0.086771 0.606459 0.465713
O O13 0.402843 0.634393 0.362797
O O14 0.500000 0.914445 0.351925
#
# Coordination Sequence:
#
# PCOD9419122 Si02
#       8
#     4   8   8   8   4   8   2   4
#     4   9  21  35  61  98 136 163 197 252 319 393
#     4  11  23  43  63  97 134 172 214 263 322 396
#     4  11  26  46  70  87 124 177 225 268 314 379
#     4  11  22  38  62  99 134 165 202 262 330 391
#     4  11  21  37  63 100 135 155 200 266 323 389
#     4  10  22  38  63  98 132 167 210 259 323 380
#     4  12  20  30  56  84 134 166 190 248 320 380
#     4  10  23  44  66  96 119 171 211 263 317 371
#
# _framework density 19.390301000000001
#
# number of rings (size 3 to 8) (size 9 to 14) (size 15 to 20)
#    0.000    1.391    1.739    4.435   10.957    0.000 
#    0.000    3.478    0.000    0.000    0.000    0.000 
#    0.000    0.000    0.000    0.000    0.000    0.000 
#
# Total GULP energy -256102.778000 kJ/mol
# GULP energy per Si atom -5567.451696 kJ/mol
# Density = 1.934617 g / cm^3
# Si number density = 19.390301 Si / 1000 Ang^3
#
#
#
# Elastic Constant Matrix: (Units=GPa)
#
#
# Indices 1 2 3 4 5 6 
#
# 1 120.5403 54.5396 30.0551 0.0000 0.0000 0.0000
# 2 54.5396 94.1514 19.4818 0.0000 0.0000 0.0000
# 3 30.0551 19.4818 77.0870 0.0000 0.0000 0.0000
# 4 0.0000 0.0000 0.0000 16.3049 0.0000 0.0000
# 5 0.0000 0.0000 0.0000 0.0000 25.0753 0.0000
# 6 0.0000 0.0000 0.0000 0.0000 0.0000 46.8381
#
#
#
# Elastic Compliance Matrix: (Units=1/GPa)
#
#
# Indices 1 2 3 4 5 6 
#
# 1 0.011887 -0.006254 -0.003054 0.000000 0.000000 0.000000
# 2 -0.006254 0.014498 -0.001226 0.000000 0.000000 0.000000
# 3 -0.003054 -0.001226 0.014473 0.000000 0.000000 0.000000
# 4 0.000000 0.000000 0.000000 0.061331 0.000000 0.000000
# 5 0.000000 0.000000 0.000000 0.000000 0.039880 0.000000
# 6 0.000000 0.000000 0.000000 0.000000 0.000000 0.021350
#
#
# Mechanical properties :
#
#
# Convention : Reuss Voigt Hill
#
# Bulk Modulus (GPa) = 50.52986 55.54799 53.03893
# Shear Modulus (GPa) = 26.16668 30.15715 28.16191
#
# Velocity S-wave (km/s) = 3.67750 3.94797 3.81513
# Velocity P-wave (km/s) = 6.64439 7.03502 6.84249
#
# Compressibility (1/GPa) = 0.01979028
#
# Stress axis : x y z
#
# Youngs Moduli (GPa) = 84.12445 68.97716 69.09498
#
# Poissons Ratio (x) = 0.43138 0.21102
# Poissons Ratio (y) = 0.52611 0.08468
# Poissons Ratio (z) = 0.25692 0.08454
#
# Static dielectric constant tensor:
#      x y z
#    x 1.711320 0.000000 0.000000 
#    y 0.000000 1.680200 0.000000 
#    z 0.000000 0.000000 1.687080 
# 
# From -- ./inp_files/34935.got.cif
#   From: 2010.05.17/outbox.cif.g08.bks.cpg/sg53_18_cif.got.tgz:34935.got - 2010.06.03 12:45:16.
