data_PCOD9419125
_publ_section_title
;
Structure prediction by ZEFSAII (Michael W. Deem and Ramdas Pophale) SiO2 
 PCOD9419125
Probable space group: P M N A
;
_chemical_formula_sum "Si O2"
_cell_formula_units_Z 30
_cell_length_a 9.817016
_cell_length_b 10.649983
_cell_length_c 13.524067
_cell_angle_alpha 90.000000
_cell_angle_beta 90.000000
_cell_angle_gamma 90.000000
_cell_volume 1413.955453
_symmetry_space_group_name_H-M "P M N A"
_symmetry_group_IT_number 53
_symmetry_cell_setting 'orthorhombic'
loop_
_space_group_symop_operation_xyz
x,y,z
1/2-x,-y,1/2+z
x,-y,-z
1/2-x,y,1/2-z
-x,-y,-z
1/2+x,y,1/2-z
-x,y,z
1/2+x,-y,1/2+z
loop_
_atom_site_type_symbol
_atom_site_label
_atom_site_fract_x
_atom_site_fract_y
_atom_site_fract_z
Si Si1 0.744308 0.666384 0.590335
Si Si2 0.500000 0.689448 0.258881
Si Si3 0.250000 0.468673 0.750000
Si Si4 0.750000 0.870263 0.750000
Si Si5 0.500000 0.041845 0.809305
Si Si6 0.000000 0.500000 0.000000
Si Si7 0.500000 0.251636 0.961071
O O1 0.803827 0.560386 0.664953
O O2 0.698698 0.779725 0.662173
O O3 0.619928 0.601019 0.535014
O O4 0.864826 0.716639 0.521304
O O5 0.366790 0.618981 0.296313
O O6 0.500000 0.839270 0.267381
O O7 0.500000 0.669924 0.140653
O O8 0.631080 0.957476 0.791918
O O9 0.500000 0.111168 0.915421
#
# Coordination Sequence:
#
# PCOD9419125 Si02
#       7
#     8   4   4   4   4   2   4
#     4  11  24  41  67  97 134 176 216 284 328 409
#     4  10  22  38  65  93 130 176 216 278 321 402
#     4  11  21  38  62  90 131 171 220 260 340 383
#     4  11  23  46  70 100 131 175 232 270 340 397
#     4  10  24  44  73  97 132 178 230 279 323 415
#     4  12  24  40  60 100 134 166 210 274 348 384
#     4  10  24  43  68  97 131 176 230 270 340 389
#
# _framework density 21.217077
#
# number of rings (size 3 to 8) (size 9 to 14) (size 15 to 20)
#    0.800    0.533    0.000    5.600    0.000    8.000 
#    0.000    0.000    0.000    3.200    0.000    0.000 
#    0.000    0.000    0.000    0.000    0.000    0.000 
#
# Total GULP energy -167066.639132 kJ/mol
# GULP energy per Si atom -5568.887971 kJ/mol
# Density = 2.116879 g / cm^3
# Si number density = 21.217077 Si / 1000 Ang^3
#
#
#
# Elastic Constant Matrix: (Units=GPa)
#
#
# Indices 1 2 3 4 5 6 
#
# 1 156.7271 87.0796 49.9804 0.0000 0.0000 0.0000
# 2 87.0796 179.7815 59.5345 0.0000 0.0000 0.0000
# 3 49.9804 59.5345 100.5958 0.0000 0.0000 0.0000
# 4 0.0000 0.0000 0.0000 48.6358 0.0000 0.0000
# 5 0.0000 0.0000 0.0000 0.0000 26.7984 0.0000
# 6 0.0000 0.0000 0.0000 0.0000 0.0000 43.6512
#
#
#
# Elastic Compliance Matrix: (Units=1/GPa)
#
#
# Indices 1 2 3 4 5 6 
#
# 1 0.009173 -0.003649 -0.002398 0.000000 0.000000 0.000000
# 2 -0.003649 0.008370 -0.003140 0.000000 0.000000 0.000000
# 3 -0.002398 -0.003140 0.012991 0.000000 0.000000 0.000000
# 4 0.000000 0.000000 0.000000 0.020561 0.000000 0.000000
# 5 0.000000 0.000000 0.000000 0.000000 0.037316 0.000000
# 6 0.000000 0.000000 0.000000 0.000000 0.000000 0.022909
#
#
# Mechanical properties :
#
#
# Convention : Reuss Voigt Hill
#
# Bulk Modulus (GPa) = 82.24595 92.25482 87.25039
# Shear Modulus (GPa) = 37.38446 39.85106 38.61776
#
# Velocity S-wave (km/s) = 4.20217 4.33858 4.27092
# Velocity P-wave (km/s) = 7.89889 8.28695 8.09525
#
# Compressibility (1/GPa) = 0.01215865
#
# Stress axis : x y z
#
# Youngs Moduli (GPa) = 109.02138 119.48022 76.97808
#
# Poissons Ratio (x) = 0.43596 0.18459
# Poissons Ratio (y) = 0.39779 0.24174
# Poissons Ratio (z) = 0.26142 0.37522
#
# Static dielectric constant tensor:
#      x y z
#    x 1.805960 0.000000 0.000000 
#    y 0.000000 1.754720 0.000000 
#    z 0.000000 0.000000 1.859460 
# 
# From -- ./inp_files/19591.got.cif
#   From: 2010.05.17/outbox.cif.g08.bks.cpg/sg53_10_cif.got.tgz:19591.got - 2010.06.03 12:45:16.
