data_PCOD9419611
_publ_section_title
;
Structure prediction by ZEFSAII (Michael W. Deem and Ramdas Pophale) SiO2 
 PCOD9419611
Probable space group: P M N A
;
_chemical_formula_sum "Si O2"
_cell_formula_units_Z 48
_cell_length_a 20.270365
_cell_length_b 8.674764
_cell_length_c 17.586044
_cell_angle_alpha 90.000000
_cell_angle_beta 90.000000
_cell_angle_gamma 90.000000
_cell_volume 3092.341101
_symmetry_space_group_name_H-M "P M N A"
_symmetry_group_IT_number 53
_symmetry_cell_setting 'orthorhombic'
loop_
_space_group_symop_operation_xyz
x,y,z
1/2-x,-y,1/2+z
x,-y,-z
1/2-x,y,1/2-z
-x,-y,-z
1/2+x,y,1/2-z
-x,y,z
1/2+x,-y,1/2+z
loop_
_atom_site_type_symbol
_atom_site_label
_atom_site_fract_x
_atom_site_fract_y
_atom_site_fract_z
Si Si1 0.423509 0.318152 0.375002
Si Si2 0.924944 0.668302 0.179017
Si Si3 0.321165 0.196243 0.784845
Si Si4 0.761242 0.912418 0.428579
Si Si5 0.808940 0.119211 0.200186
Si Si6 0.120661 0.174614 0.971643
O O1 0.500000 0.272894 0.360374
O O2 0.416645 0.497498 0.354853
O O3 0.369156 0.223010 0.327228
O O4 0.407267 0.284912 0.463222
O O5 0.876250 0.697302 0.248913
O O6 0.909457 0.786092 0.110141
O O7 0.000000 0.688319 0.203376
O O8 0.250000 0.241945 0.750000
O O9 0.310212 0.181742 0.874722
O O10 0.333460 0.024058 0.751663
O O11 0.699729 0.813759 0.460530
O O12 0.792099 0.000000 0.500000
O O13 0.725535 0.037365 0.372759
O O14 0.750000 0.195517 0.250000
O O15 0.107015 0.000000 0.000000
#
# Coordination Sequence:
#
# PCOD9419611 Si02
#       6
#     8   8   8   8   8   8
#     4  11  22  32  45  72 107 137 162 198 246 302
#     4  11  22  33  45  70 106 136 166 202 244 301
#     4   9  17  32  52  71  93 130 172 205 246 295
#     4   9  15  30  54  73  94 123 165 214 251 284
#     4   9  17  32  49  70  95 128 168 206 241 290
#     4  11  18  32  50  70  97 136 164 198 244 298
#
# _framework density 15.522220000000001
#
# number of rings (size 3 to 8) (size 9 to 14) (size 15 to 20)
#    0.000    2.333    6.667    1.000    0.000    5.333 
#    0.000    0.000    0.000    0.500    0.000    0.000 
#    0.000   10.667    0.000    0.000    0.000    0.000 
#
# Total GULP energy -267347.466510 kJ/mol
# GULP energy per Si atom -5569.738886 kJ/mol
# Density = 1.548689 g / cm^3
# Si number density = 15.522220 Si / 1000 Ang^3
#
#
#
# Elastic Constant Matrix: (Units=GPa)
#
#
# Indices 1 2 3 4 5 6 
#
# 1 95.2703 37.2778 48.4077 0.0000 0.0000 0.0000
# 2 37.2778 36.7606 21.1100 0.0000 0.0000 0.0000
# 3 48.4077 21.1100 74.5427 0.0000 0.0000 0.0000
# 4 0.0000 0.0000 0.0000 22.0131 0.0000 0.0000
# 5 0.0000 0.0000 0.0000 0.0000 22.9817 0.0000
# 6 0.0000 0.0000 0.0000 0.0000 0.0000 20.2832
#
#
#
# Elastic Compliance Matrix: (Units=1/GPa)
#
#
# Indices 1 2 3 4 5 6 
#
# 1 0.021840 -0.016722 -0.009447 0.000000 0.000000 0.000000
# 2 -0.016722 0.045290 -0.001967 0.000000 0.000000 0.000000
# 3 -0.009447 -0.001967 0.020107 0.000000 0.000000 0.000000
# 4 0.000000 0.000000 0.000000 0.045427 0.000000 0.000000
# 5 0.000000 0.000000 0.000000 0.000000 0.043513 0.000000
# 6 0.000000 0.000000 0.000000 0.000000 0.000000 0.049302
#
#
# Mechanical properties :
#
#
# Convention : Reuss Voigt Hill
#
# Bulk Modulus (GPa) = 32.29442 46.68497 39.48969
# Shear Modulus (GPa) = 17.11911 19.70745 18.41328
#
# Velocity S-wave (km/s) = 3.32456 3.56705 3.44794
# Velocity P-wave (km/s) = 5.96552 6.86343 6.43017
#
# Compressibility (1/GPa) = 0.03096510
#
# Stress axis : x y z
#
# Youngs Moduli (GPa) = 45.78838 22.08012 49.73412
#
# Poissons Ratio (x) = 0.36922 0.46984
# Poissons Ratio (y) = 0.76567 0.09781
# Poissons Ratio (z) = 0.43256 0.04342
#
# Static dielectric constant tensor:
#      x y z
#    x 1.524300 0.000000 0.000000 
#    y 0.000000 1.533090 0.000000 
#    z 0.000000 0.000000 1.532930 
# 
# From -- ./inp_files/29272.got.cif
#   From: 2010.05.17/outbox.cif.g08.bks.cpg/sg53_15_cif.got.tgz:29272.got - 2010.06.03 12:45:16.
