data_PCOD9419442
_publ_section_title
;
Structure prediction by ZEFSAII (Michael W. Deem and Ramdas Pophale) SiO2 
 PCOD9419442
Probable space group: P M N A
;
_chemical_formula_sum "Si O2"
_cell_formula_units_Z 48
_cell_length_a 16.606056
_cell_length_b 15.462465
_cell_length_c 8.475365
_cell_angle_alpha 90.000000
_cell_angle_beta 90.000000
_cell_angle_gamma 90.000000
_cell_volume 2176.224215
_symmetry_space_group_name_H-M "P M N A"
_symmetry_group_IT_number 53
_symmetry_cell_setting 'orthorhombic'
loop_
_space_group_symop_operation_xyz
x,y,z
1/2-x,-y,1/2+z
x,-y,-z
1/2-x,y,1/2-z
-x,-y,-z
1/2+x,y,1/2-z
-x,y,z
1/2+x,-y,1/2+z
loop_
_atom_site_type_symbol
_atom_site_label
_atom_site_fract_x
_atom_site_fract_y
_atom_site_fract_z
Si Si1 0.095159 0.632252 0.337079
Si Si2 0.341686 0.199408 0.692966
Si Si3 0.841294 0.024019 0.682738
Si Si4 0.404850 0.305492 0.174579
Si Si5 0.403810 0.140513 0.360328
Si Si6 0.165329 0.464099 0.176237
O O1 0.113144 0.710649 0.218198
O O2 0.128720 0.662258 0.507176
O O3 0.133350 0.543353 0.280842
O O4 0.000000 0.618075 0.348822
O O5 0.250000 0.214010 0.750000
O O6 0.353586 0.162629 0.517232
O O7 0.375485 0.120785 0.798739
O O8 0.750000 0.025964 0.750000
O O9 0.887242 0.953508 0.788296
O O10 0.841319 0.000000 0.500000
O O11 0.500000 0.296498 0.151378
O O12 0.376269 0.212697 0.233696
O O13 0.389395 0.379587 0.303840
O O14 0.500000 0.150131 0.392036
O O15 0.250000 0.437693 0.250000
O O16 0.171304 0.500000 0.000000
#
# Coordination Sequence:
#
# PCOD9419442 Si02
#       6
#     8   8   8   8   8   8
#     4  11  23  41  65  92 125 162 203 254 310 370
#     4  11  23  40  62  92 127 165 211 259 312 372
#     4  11  23  41  64  92 128 169 214 263 318 378
#     4  10  23  42  62  89 124 161 201 250 310 368
#     4  11  24  42  66  96 129 167 213 264 317 376
#     4  12  25  41  63  91 122 159 205 253 305 367
#
# _framework density 22.056550999999999
#
# number of rings (size 3 to 8) (size 9 to 14) (size 15 to 20)
#    0.000    1.000    0.000    7.500    0.000    8.333 
#    0.000    0.000    0.000    0.000    0.000    0.000 
#    0.000    0.000    0.000    0.000    0.000    0.000 
#
# Total GULP energy -268554.597481 kJ/mol
# GULP energy per Si atom -5594.887448 kJ/mol
# Density = 2.200635 g / cm^3
# Si number density = 22.056551 Si / 1000 Ang^3
#
#
#
# Elastic Constant Matrix: (Units=GPa)
#
#
# Indices 1 2 3 4 5 6 
#
# 1 34.3839 -7.5897 15.8892 0.0000 0.0000 0.0000
# 2 -7.5897 75.6221 -28.9535 0.0000 0.0000 0.0000
# 3 15.8892 -28.9535 60.6417 0.0000 0.0000 0.0000
# 4 0.0000 0.0000 0.0000 35.1228 0.0000 0.0000
# 5 0.0000 0.0000 0.0000 0.0000 27.3066 0.0000
# 6 0.0000 0.0000 0.0000 0.0000 0.0000 22.9530
#
#
#
# Elastic Compliance Matrix: (Units=1/GPa)
#
#
# Indices 1 2 3 4 5 6 
#
# 1 0.033090 0.000002 -0.008669 0.000000 0.000000 0.000000
# 2 0.000002 0.016182 0.007726 0.000000 0.000000 0.000000
# 3 -0.008669 0.007726 0.022450 0.000000 0.000000 0.000000
# 4 0.000000 0.000000 0.000000 0.028472 0.000000 0.000000
# 5 0.000000 0.000000 0.000000 0.000000 0.036621 0.000000
# 6 0.000000 0.000000 0.000000 0.000000 0.000000 0.043567
#
#
# Mechanical properties :
#
#
# Convention : Reuss Voigt Hill
#
# Bulk Modulus (GPa) = 14.31881 14.37106 14.34493
# Shear Modulus (GPa) = 24.32551 29.82993 27.07772
#
# Velocity S-wave (km/s) = 3.32455 3.68153 3.50758
# Velocity P-wave (km/s) = 4.60899 4.95996 4.78770
#
# Compressibility (1/GPa) = 0.06983820
#
# Stress axis : x y z
#
# Youngs Moduli (GPa) = 30.22058 61.79811 44.54259
#
# Poissons Ratio (x) = -0.00011 0.38615
# Poissons Ratio (y) = -0.00005 -0.34412
# Poissons Ratio (z) = 0.26199 -0.47742
#
# Static dielectric constant tensor:
#      x y z
#    x 1.807270 0.000000 0.000000 
#    y 0.000000 1.775390 0.000000 
#    z 0.000000 0.000000 1.828780 
# 
# From -- ./inp_files/10020.got.cif
#   From: 2010.05.17/outbox.cif.g08.bks.cpg/sg53_6_cif.got.tgz:10020.got - 2010.06.03 12:45:16.
