data_PCOD9419069
_publ_section_title
;
Structure prediction by ZEFSAII (Michael W. Deem and Ramdas Pophale) SiO2 
 PCOD9419069
Probable space group: P M N A
;
_chemical_formula_sum "Si O2"
_cell_formula_units_Z 64
_cell_length_a 15.103599
_cell_length_b 24.210414
_cell_length_c 8.196306
_cell_angle_alpha 90.000000
_cell_angle_beta 90.000000
_cell_angle_gamma 90.000000
_cell_volume 2997.097190
_symmetry_space_group_name_H-M "P M N A"
_symmetry_group_IT_number 53
_symmetry_cell_setting 'orthorhombic'
loop_
_space_group_symop_operation_xyz
x,y,z
1/2-x,-y,1/2+z
x,-y,-z
1/2-x,y,1/2-z
-x,-y,-z
1/2+x,y,1/2-z
-x,y,z
1/2+x,-y,1/2+z
loop_
_atom_site_type_symbol
_atom_site_label
_atom_site_fract_x
_atom_site_fract_y
_atom_site_fract_z
Si Si1 0.766015 0.558844 0.441023
Si Si2 0.162905 0.343611 0.364003
Si Si3 0.398355 0.849987 0.346722
Si Si4 0.901554 0.382140 0.038162
Si Si5 0.106954 0.735690 0.040446
Si Si6 0.398197 0.887727 0.970395
Si Si7 0.393876 0.770204 0.827667
Si Si8 0.271644 0.057116 0.558153
O O1 0.801265 0.500000 0.500000
O O2 0.750000 0.558856 0.250000
O O3 0.825957 0.609614 0.501581
O O4 0.670023 0.570070 0.523052
O O5 0.250000 0.342505 0.250000
O O6 0.144709 0.281914 0.426149
O O7 0.093275 0.361922 0.225858
O O8 0.500000 0.850846 0.409554
O O9 0.366533 0.786419 0.345468
O O10 0.400153 0.871845 0.162250
O O11 0.335871 0.889934 0.451299
O O12 0.000000 0.396518 0.980975
O O13 0.864298 0.327736 0.941885
O O14 0.130655 0.757322 0.859354
O O15 0.000000 0.731354 0.047746
O O16 0.500000 0.903070 0.923867
O O17 0.319600 0.932073 0.959179
O O18 0.369652 0.831630 0.879494
O O19 0.500000 0.767669 0.843153
O O20 0.250000 0.051786 0.750000
O O21 0.313640 0.000000 0.500000
#
# Coordination Sequence:
#
# PCOD9419069 Si02
#       8
#     8   8   8   8   8   8   8   8
#     4  11  23  39  56  76 106 144 185 226 270 320
#     4   9  18  33  54  79 108 141 174 214 266 316
#     4   9  18  34  53  73 102 134 164 205 256 307
#     4   9  18  35  58  82 110 142 177 219 266 316
#     4   8  15  29  51  79 107 134 164 203 254 309
#     4   9  19  34  51  73 103 135 163 202 257 310
#     4   9  17  31  52  79 108 134 166 208 254 307
#     4  10  22  37  51  71  97 129 172 215 254 300
#
# _framework density 21.353995999999999
#
# number of rings (size 3 to 8) (size 9 to 14) (size 15 to 20)
#    0.000    2.750    0.000    2.250    0.000    5.750 
#    0.000    3.750    0.000    2.625    0.000    0.000 
#    0.000    0.000    0.000    0.000    0.000    0.000 
#
# Total GULP energy -356868.455179 kJ/mol
# GULP energy per Si atom -5576.069612 kJ/mol
# Density = 2.130539 g / cm^3
# Si number density = 21.353996 Si / 1000 Ang^3
#
#
#
# Elastic Constant Matrix: (Units=GPa)
#
#
# Indices 1 2 3 4 5 6 
#
# 1 39.3270 -3.3485 -2.8185 0.0000 0.0000 0.0000
# 2 -3.3485 54.1353 4.8209 0.0000 0.0000 0.0000
# 3 -2.8185 4.8209 19.1774 0.0000 0.0000 0.0000
# 4 0.0000 0.0000 0.0000 31.2282 0.0000 0.0000
# 5 0.0000 0.0000 0.0000 0.0000 10.2961 0.0000
# 6 0.0000 0.0000 0.0000 0.0000 0.0000 20.9251
#
#
#
# Elastic Compliance Matrix: (Units=1/GPa)
#
#
# Indices 1 2 3 4 5 6 
#
# 1 0.025786 0.001286 0.003466 0.000000 0.000000 0.000000
# 2 0.001286 0.018959 -0.004577 0.000000 0.000000 0.000000
# 3 0.003466 -0.004577 0.053805 0.000000 0.000000 0.000000
# 4 0.000000 0.000000 0.000000 0.032022 0.000000 0.000000
# 5 0.000000 0.000000 0.000000 0.000000 0.097125 0.000000
# 6 0.000000 0.000000 0.000000 0.000000 0.000000 0.047790
#
#
# Mechanical properties :
#
#
# Convention : Reuss Voigt Hill
#
# Bulk Modulus (GPa) = 10.11112 12.21640 11.16376
# Shear Modulus (GPa) = 16.22837 20.08890 18.15863
#
# Velocity S-wave (km/s) = 2.75974 3.07050 2.91926
# Velocity P-wave (km/s) = 3.86008 4.27831 4.07456
#
# Compressibility (1/GPa) = 0.09890097
#
# Stress axis : x y z
#
# Youngs Moduli (GPa) = 38.78107 52.74426 18.58572
#
# Poissons Ratio (x) = -0.06784 -0.06442
# Poissons Ratio (y) = -0.04988 0.08507
# Poissons Ratio (z) = -0.13443 0.24141
#
# Static dielectric constant tensor:
#      x y z
#    x 1.826260 0.000000 0.000000 
#    y 0.000000 1.783990 0.000000 
#    z 0.000000 0.000000 1.790620 
# 
# From -- ./inp_files/8933.got.cif
#   From: 2010.05.17/outbox.cif.g08.bks.cpg/sg53_5_cif.got.tgz:8933.got - 2010.06.03 12:45:16.
