data_PCOD9419070
_publ_section_title
;
Structure prediction by ZEFSAII (Michael W. Deem and Ramdas Pophale) SiO2 
 PCOD9419070
Probable space group: P M N A
;
_chemical_formula_sum "Si O2"
_cell_formula_units_Z 48
_cell_length_a 8.074881
_cell_length_b 32.719219
_cell_length_c 9.243218
_cell_angle_alpha 90.000000
_cell_angle_beta 90.000000
_cell_angle_gamma 90.000000
_cell_volume 2442.093318
_symmetry_space_group_name_H-M "P M N A"
_symmetry_group_IT_number 53
_symmetry_cell_setting 'orthorhombic'
loop_
_space_group_symop_operation_xyz
x,y,z
1/2-x,-y,1/2+z
x,-y,-z
1/2-x,y,1/2-z
-x,-y,-z
1/2+x,y,1/2-z
-x,y,z
1/2+x,-y,1/2+z
loop_
_atom_site_type_symbol
_atom_site_label
_atom_site_fract_x
_atom_site_fract_y
_atom_site_fract_z
Si Si1 0.299717 0.717476 0.918170
Si Si2 0.197458 0.121513 0.416450
Si Si3 0.799689 0.201981 0.583441
Si Si4 0.802454 0.959986 0.083357
Si Si5 0.700305 0.539999 0.917628
Si Si6 0.300375 0.371495 0.081133
O O1 0.250000 0.721834 0.750000
O O2 0.500000 0.717419 0.923122
O O3 0.241412 0.672763 0.974113
O O4 0.239344 0.755984 0.010140
O O5 0.250000 0.119751 0.250000
O O6 0.261817 0.162497 0.494868
O O7 0.250696 0.081195 0.502179
O O8 0.000000 0.123228 0.420607
O O9 0.750000 0.199289 0.750000
O O10 0.000000 0.202148 0.575976
O O11 0.750000 0.959681 0.250000
O O12 0.000000 0.961947 0.079652
O O13 0.735458 0.000000 0.000000
O O14 0.750000 0.537523 0.750000
O O15 0.500000 0.539825 0.925566
O O16 0.758173 0.584437 0.977022
O O17 0.763259 0.500000 0.000000
O O18 0.250000 0.371625 0.250000
O O19 0.500000 0.371477 0.071567
#
# Coordination Sequence:
#
# PCOD9419070 Si02
#       6
#     8   8   8   8   8   8
#     4   9  17  31  51  74  97 124 163 207 250 297
#     4  11  23  39  60  85 112 143 181 223 267 314
#     4  10  22  37  53  76 106 139 172 209 255 307
#     4  11  24  41  62  88 118 151 186 225 268 314
#     4   9  17  29  45  66  92 123 159 199 245 295
#     4   8  14  26  45  66  90 121 157 199 244 292
#
# _framework density 19.655270000000002
#
# number of rings (size 3 to 8) (size 9 to 14) (size 15 to 20)
#    0.000    2.333    0.000    2.500    0.000    6.333 
#    0.000    0.833    0.000    0.000    0.000    0.000 
#    0.000    0.000    0.000    0.000    0.000    0.000 
#
# Total GULP energy -267736.194680 kJ/mol
# GULP energy per Si atom -5577.837389 kJ/mol
# Density = 1.961053 g / cm^3
# Si number density = 19.655270 Si / 1000 Ang^3
#
#
#
# Elastic Constant Matrix: (Units=GPa)
#
#
# Indices 1 2 3 4 5 6 
#
# 1 20.3130 21.1095 7.2406 0.0000 0.0000 0.0000
# 2 21.1095 258.8672 110.8828 0.0000 0.0000 0.0000
# 3 7.2406 110.8828 126.3186 0.0000 0.0000 0.0000
# 4 0.0000 0.0000 0.0000 33.3639 0.0000 0.0000
# 5 0.0000 0.0000 0.0000 0.0000 28.8442 0.0000
# 6 0.0000 0.0000 0.0000 0.0000 0.0000 36.0235
#
#
#
# Elastic Compliance Matrix: (Units=1/GPa)
#
#
# Indices 1 2 3 4 5 6 
#
# 1 0.053907 -0.004924 0.001232 0.000000 0.000000 0.000000
# 2 -0.004924 0.006640 -0.005547 0.000000 0.000000 0.000000
# 3 0.001232 -0.005547 0.012715 0.000000 0.000000 0.000000
# 4 0.000000 0.000000 0.000000 0.029972 0.000000 0.000000
# 5 0.000000 0.000000 0.000000 0.000000 0.034669 0.000000
# 6 0.000000 0.000000 0.000000 0.000000 0.000000 0.027760
#
#
# Mechanical properties :
#
#
# Convention : Reuss Voigt Hill
#
# Bulk Modulus (GPa) = 18.25301 75.99607 47.12454
# Shear Modulus (GPa) = 24.70337 37.39740 31.05039
#
# Velocity S-wave (km/s) = 3.54903 4.36669 3.97892
# Velocity P-wave (km/s) = 5.10890 8.01077 6.71838
#
# Compressibility (1/GPa) = 0.05478547
#
# Stress axis : x y z
#
# Youngs Moduli (GPa) = 18.55049 150.59464 78.64869
#
# Poissons Ratio (x) = 0.74146 -0.09689
# Poissons Ratio (y) = 0.09133 0.43624
# Poissons Ratio (z) = -0.02285 0.83530
#
# Static dielectric constant tensor:
#      x y z
#    x 1.688270 0.000000 0.000000 
#    y 0.000000 1.755290 0.000000 
#    z 0.000000 0.000000 1.620490 
# 
# From -- ./inp_files/6578.got.cif
#   From: 2010.05.17/outbox.cif.g08.bks.cpg/sg53_4_cif.got.tgz:6578.got - 2010.06.03 12:45:16.
