data_PCOD9419257
_publ_section_title
;
Structure prediction by ZEFSAII (Michael W. Deem and Ramdas Pophale) SiO2 
 PCOD9419257
Probable space group: P M N A
;
_chemical_formula_sum "Si O2"
_cell_formula_units_Z 32
_cell_length_a 14.556600
_cell_length_b 11.295394
_cell_length_c 8.598321
_cell_angle_alpha 90.000000
_cell_angle_beta 90.000000
_cell_angle_gamma 90.000000
_cell_volume 1413.757712
_symmetry_space_group_name_H-M "P M N A"
_symmetry_group_IT_number 53
_symmetry_cell_setting 'orthorhombic'
loop_
_space_group_symop_operation_xyz
x,y,z
1/2-x,-y,1/2+z
x,-y,-z
1/2-x,y,1/2-z
-x,-y,-z
1/2+x,y,1/2-z
-x,y,z
1/2+x,-y,1/2+z
loop_
_atom_site_type_symbol
_atom_site_label
_atom_site_fract_x
_atom_site_fract_y
_atom_site_fract_z
Si Si1 0.111149 0.660300 0.359125
Si Si2 0.891864 0.447143 0.159194
Si Si3 0.750000 0.833228 0.250000
Si Si4 0.347746 0.784251 0.821187
Si Si5 0.165905 0.000000 0.500000
O O1 0.138705 0.529954 0.302555
O O2 0.160285 0.749856 0.238490
O O3 0.149787 0.701640 0.525067
O O4 0.000000 0.671678 0.365825
O O5 0.883673 0.307974 0.192117
O O6 0.000000 0.471072 0.153035
O O7 0.851213 0.500000 0.000000
O O8 0.770553 0.916115 0.395786
O O9 0.250000 0.818092 0.750000
O O10 0.387972 0.908696 0.886290
#
# Coordination Sequence:
#
# PCOD9419257 Si02
#       5
#     8   8   4   8   4
#     4  10  23  43  67  99 138 181 227 282 354 425
#     4  10  23  40  63 100 142 176 222 292 358 425
#     4  10  22  40  68  92 136 184 226 290 340 412
#     4  11  23  39  68  93 130 181 231 284 345 408
#     4  10  22  42  62  94 132 184 234 290 338 398
#
# _framework density 22.634713999999999
#
# number of rings (size 3 to 8) (size 9 to 14) (size 15 to 20)
#    0.000    1.750    1.250    1.500    8.750    2.000 
#    0.000   16.250    0.000    0.000    0.000    0.000 
#    0.000    0.000    0.000    0.000    0.000    0.000 
#
# Total GULP energy -178208.449132 kJ/mol
# GULP energy per Si atom -5569.014035 kJ/mol
# Density = 2.258320 g / cm^3
# Si number density = 22.634714 Si / 1000 Ang^3
#
#
#
# Elastic Constant Matrix: (Units=GPa)
#
#
# Indices 1 2 3 4 5 6 
#
# 1 61.0184 22.1548 27.8713 0.0000 0.0000 0.0000
# 2 22.1548 160.2938 55.6046 0.0000 0.0000 0.0000
# 3 27.8713 55.6046 81.2776 0.0000 0.0000 0.0000
# 4 0.0000 0.0000 0.0000 19.2875 0.0000 0.0000
# 5 0.0000 0.0000 0.0000 0.0000 13.7537 0.0000
# 6 0.0000 0.0000 0.0000 0.0000 0.0000**********
#
#
#
# Elastic Compliance Matrix: (Units=1/GPa)
#
#
# Indices 1 2 3 4 5 6 
#
# 1 0.019462 -0.000491 -0.006338 0.000000 0.000000 0.000000
# 2 -0.000491 0.008192 -0.005436 0.000000 0.000000 0.000000
# 3 -0.006338 -0.005436 0.018196 0.000000 0.000000 0.000000
# 4 0.000000 0.000000 0.000000 0.051847 0.000000 0.000000
# 5 0.000000 0.000000 0.000000 0.000000 0.072708 0.000000
# 6 0.000000 0.000000 0.000000 0.000000 0.000000 -0.000022
#
#
# Mechanical properties :
#
#
# Convention : Reuss Voigt Hill
#
# Bulk Modulus (GPa) = 46.90505 57.09456 51.99981
# Shear Modulus (GPa) = 24.75023 -8886.67830 -4430.96403
#
# Velocity S-wave (km/s) = 3.31034 -62.72680 -44.29274
# Velocity P-wave (km/s) = 5.94801 72.25595 50.91927
#
# Compressibility (1/GPa) = 0.02131967
#
# Stress axis : x y z
#
# Youngs Moduli (GPa) = 51.38292 122.06776 54.95813
#
# Poissons Ratio (x) = 0.05999 0.34830
# Poissons Ratio (y) = 0.02525 0.29875
# Poissons Ratio (z) = 0.32564 0.66356
#
# Static dielectric constant tensor:
#      x y z
#    x 1.822900 0.000000 0.000000 
#    y 0.000000 1.914380 0.000000 
#    z 0.000000 0.000000 1.917560 
# 
# From -- ./inp_files/8085.got.cif
#   From: 2010.05.17/outbox.cif.g08.bks.cpg/sg53_5_cif.got.tgz:8085.got - 2010.06.03 12:45:16.
