data_PCOD9419668
_publ_section_title
;
Structure prediction by ZEFSAII (Michael W. Deem and Ramdas Pophale) SiO2 
 PCOD9419668
Probable space group: P M N A
;
_chemical_formula_sum "Si O2"
_cell_formula_units_Z 32
_cell_length_a 15.029943
_cell_length_b 9.083486
_cell_length_c 10.064606
_cell_angle_alpha 90.000000
_cell_angle_beta 90.000000
_cell_angle_gamma 90.000000
_cell_volume 1374.063056
_symmetry_space_group_name_H-M "P M N A"
_symmetry_group_IT_number 53
_symmetry_cell_setting 'orthorhombic'
loop_
_space_group_symop_operation_xyz
x,y,z
1/2-x,-y,1/2+z
x,-y,-z
1/2-x,y,1/2-z
-x,-y,-z
1/2+x,y,1/2-z
-x,y,z
1/2+x,-y,1/2+z
loop_
_atom_site_type_symbol
_atom_site_label
_atom_site_fract_x
_atom_site_fract_y
_atom_site_fract_z
Si Si1 0.898313 0.828670 0.487646
Si Si2 0.398604 0.801671 0.596649
Si Si3 0.239434 0.603054 0.621614
Si Si4 0.147907 0.119515 0.797297
O O1 0.837869 0.711166 0.564698
O O2 0.897219 0.802987 0.328742
O O3 0.000000 0.822559 0.536625
O O4 0.866353 0.000000 0.500000
O O5 0.500000 0.749787 0.602581
O O6 0.323760 0.702762 0.661133
O O7 0.367818 0.810430 0.442130
O O8 0.391873 0.957612 0.671888
O O9 0.259810 0.500000 0.500000
O O10 0.250000 0.496640 0.750000
O O11 0.250000 0.105149 0.750000
#
# Coordination Sequence:
#
# PCOD9419668 Si02
#       4
#     8   8   8   8
#     4  11  23  43  73 105 138 177 232 299 364 423
#     4  11  23  41  68 104 143 182 232 290 351 420
#     4  12  29  48  69 101 142 192 240 292 354 424
#     4  11  20  37  70 108 141 176 221 290 355 418
#
# _framework density 23.288596999999999
#
# number of rings (size 3 to 8) (size 9 to 14) (size 15 to 20)
#    0.000    0.750    2.500    6.750    3.500    4.000 
#    0.000    0.000    0.000    0.000    0.000    0.000 
#    0.000    0.000    0.000    0.000    0.000    0.000 
#
# Total GULP energy -178568.637837 kJ/mol
# GULP energy per Si atom -5580.269932 kJ/mol
# Density = 2.323559 g / cm^3
# Si number density = 23.288597 Si / 1000 Ang^3
#
#
#
# Elastic Constant Matrix: (Units=GPa)
#
#
# Indices 1 2 3 4 5 6 
#
# 1 144.3040 -0.9753 10.3216 0.0000 0.0000 0.0000
# 2 -0.9753 20.1537 3.0909 0.0000 0.0000 0.0000
# 3 10.3216 3.0909 183.8080 0.0000 0.0000 0.0000
# 4 0.0000 0.0000 0.0000 18.5057 0.0000 0.0000
# 5 0.0000 0.0000 0.0000 0.0000 13.4096 0.0000
# 6 0.0000 0.0000 0.0000 0.0000 0.0000 12.7165
#
#
#
# Elastic Compliance Matrix: (Units=1/GPa)
#
#
# Indices 1 2 3 4 5 6 
#
# 1 0.006961 0.000398 -0.000398 0.000000 0.000000 0.000000
# 2 0.000398 0.049770 -0.000859 0.000000 0.000000 0.000000
# 3 -0.000398 -0.000859 0.005477 0.000000 0.000000 0.000000
# 4 0.000000 0.000000 0.000000 0.054037 0.000000 0.000000
# 5 0.000000 0.000000 0.000000 0.000000 0.074573 0.000000
# 6 0.000000 0.000000 0.000000 0.000000 0.000000 0.078638
#
#
# Mechanical properties :
#
#
# Convention : Reuss Voigt Hill
#
# Bulk Modulus (GPa) = 16.53169 41.46001 28.99585
# Shear Modulus (GPa) = 17.16221 31.31494 24.23857
#
# Velocity S-wave (km/s) = 2.71760 3.67092 3.22963
# Velocity P-wave (km/s) = 4.11840 5.98405 5.13664
#
# Compressibility (1/GPa) = 0.06048987
#
# Stress axis : x y z
#
# Youngs Moduli (GPa) = 143.65876 20.09255 182.57391
#
# Poissons Ratio (x) = -0.00799 0.07259
# Poissons Ratio (y) = -0.05715 0.15688
# Poissons Ratio (z) = 0.05712 0.01726
#
# Static dielectric constant tensor:
#      x y z
#    x 1.884990 0.000000 0.000000 
#    y 0.000000 1.874320 0.000000 
#    z 0.000000 0.000000 -12.428610 
# 
# From -- ./inp_files/9543.got.cif
#   From: 2010.05.17/outbox.cif.g08.bks.cpg/sg53_5_cif.got.tgz:9543.got - 2010.06.03 12:45:16.
