data_PCOD9419656
_publ_section_title
;
Structure prediction by ZEFSAII (Michael W. Deem and Ramdas Pophale) SiO2 
 PCOD9419656
Probable space group: P M N A
;
_chemical_formula_sum "Si O2"
_cell_formula_units_Z 48
_cell_length_a 17.208499
_cell_length_b 10.158351
_cell_length_c 15.192033
_cell_angle_alpha 90.000000
_cell_angle_beta 90.000000
_cell_angle_gamma 90.000000
_cell_volume 2655.718879
_symmetry_space_group_name_H-M "P M N A"
_symmetry_group_IT_number 53
_symmetry_cell_setting 'orthorhombic'
loop_
_space_group_symop_operation_xyz
x,y,z
1/2-x,-y,1/2+z
x,-y,-z
1/2-x,y,1/2-z
-x,-y,-z
1/2+x,y,1/2-z
-x,y,z
1/2+x,-y,1/2+z
loop_
_atom_site_type_symbol
_atom_site_label
_atom_site_fract_x
_atom_site_fract_y
_atom_site_fract_z
Si Si1 0.906751 0.016448 0.605790
Si Si2 0.916907 0.591479 0.915678
Si Si3 0.804422 0.739131 0.334058
Si Si4 0.264157 0.657824 0.513875
Si Si5 0.909071 0.499569 0.270497
Si Si6 0.322893 0.236860 0.180969
O O1 0.866369 0.148418 0.641965
O O2 0.000000 0.018284 0.617498
O O3 0.892123 0.000000 0.500000
O O4 0.867197 0.898156 0.660617
O O5 0.847144 0.685977 0.940854
O O6 0.898924 0.494449 0.834892
O O7 0.000000 0.655850 0.896343
O O8 0.924075 0.500000 0.000000
O O9 0.750000 0.767655 0.250000
O O10 0.750818 0.720934 0.419787
O O11 0.852445 0.604467 0.315630
O O12 0.257238 0.500000 0.500000
O O13 0.205203 0.710046 0.586296
O O14 0.881501 0.350707 0.287692
O O15 0.000000 0.519474 0.292966
O O16 0.250000 0.227013 0.250000
#
# Coordination Sequence:
#
# PCOD9419656 Si02
#       6
#     8   8   8   8   8   8
#     4  11  25  44  62  85 120 161 200 244 303 358
#     4   9  18  33  54  87 126 158 188 237 297 352
#     4  12  23  40  63  90 119 158 202 247 294 352
#     4  11  20  35  60  91 123 152 197 244 293 351
#     4  11  22  37  61  93 123 155 196 245 301 352
#     4  12  22  40  62  91 120 156 200 244 296 353
#
# _framework density 18.074203000000001
#
# number of rings (size 3 to 8) (size 9 to 14) (size 15 to 20)
#    0.000    1.000    5.000    4.000    0.000    0.000 
#    0.000    1.667    0.000    0.000    0.000    2.333 
#    0.000    0.000    0.000    0.000    0.000    0.000 
#
# Total GULP energy -267615.952507 kJ/mol
# GULP energy per Si atom -5575.332344 kJ/mol
# Density = 1.803307 g / cm^3
# Si number density = 18.074203 Si / 1000 Ang^3
#
#
#
# Elastic Constant Matrix: (Units=GPa)
#
#
# Indices 1 2 3 4 5 6 
#
# 1 90.9444 27.0784 15.4219 0.0000 0.0000 0.0000
# 2 27.0784 90.2628 12.2136 0.0000 0.0000 0.0000
# 3 15.4219 12.2136 72.8870 0.0000 0.0000 0.0000
# 4 0.0000 0.0000 0.0000 17.3344 0.0000 0.0000
# 5 0.0000 0.0000 0.0000 0.0000 28.4525 0.0000
# 6 0.0000 0.0000 0.0000 0.0000 0.0000 -107.9381
#
#
#
# Elastic Compliance Matrix: (Units=1/GPa)
#
#
# Indices 1 2 3 4 5 6 
#
# 1 0.012364 -0.003433 -0.002041 0.000000 0.000000 0.000000
# 2 -0.003433 0.012289 -0.001333 0.000000 0.000000 0.000000
# 3 -0.002041 -0.001333 0.014375 0.000000 0.000000 0.000000
# 4 0.000000 0.000000 0.000000 0.057689 0.000000 0.000000
# 5 0.000000 0.000000 0.000000 0.000000 0.035146 0.000000
# 6 0.000000 0.000000 0.000000 0.000000 0.000000 -0.009265
#
#
# Mechanical properties :
#
#
# Convention : Reuss Voigt Hill
#
# Bulk Modulus (GPa) = 39.34735 40.39133 39.86934
# Shear Modulus (GPa) = 34.55820 0.86177 17.70998
#
# Velocity S-wave (km/s) = 4.37741 0.69125 3.13365
# Velocity P-wave (km/s) = 6.88230 4.79928 5.93292
#
# Compressibility (1/GPa) = 0.02541467
#
# Stress axis : x y z
#
# Youngs Moduli (GPa) = 80.88027 81.37356 69.56512
#
# Poissons Ratio (x) = 0.27935 0.14197
# Poissons Ratio (y) = 0.27766 0.09272
# Poissons Ratio (z) = 0.16506 0.10846
#
# Static dielectric constant tensor:
#      x y z
#    x 1.724960 0.000000 0.000000 
#    y 0.000000 1.040910 0.000000 
#    z 0.000000 0.000000 1.638450 
# 
# From -- ./inp_files/23647.got.cif
#   From: 2010.05.17/outbox.cif.g08.bks.cpg/sg53_12_cif.got.tgz:23647.got - 2010.06.03 12:45:16.
