data_PCOD9419051
_publ_section_title
;
Structure prediction by ZEFSAII (Michael W. Deem and Ramdas Pophale) SiO2 
 PCOD9419051
Probable space group: P M N A
;
_chemical_formula_sum "Si O2"
_cell_formula_units_Z 28
_cell_length_a 10.026171
_cell_length_b 7.291900
_cell_length_c 17.854796
_cell_angle_alpha 90.000000
_cell_angle_beta 90.000000
_cell_angle_gamma 90.000000
_cell_volume 1305.361213
_symmetry_space_group_name_H-M "P M N A"
_symmetry_group_IT_number 53
_symmetry_cell_setting 'orthorhombic'
loop_
_space_group_symop_operation_xyz
x,y,z
1/2-x,-y,1/2+z
x,-y,-z
1/2-x,y,1/2-z
-x,-y,-z
1/2+x,y,1/2-z
-x,y,z
1/2+x,-y,1/2+z
loop_
_atom_site_type_symbol
_atom_site_label
_atom_site_fract_x
_atom_site_fract_y
_atom_site_fract_z
Si Si1 0.648295 0.682416 0.693403
Si Si2 0.346165 0.831573 0.101287
Si Si3 0.155618 0.735553 0.563081
Si Si4 0.750000 0.333218 0.750000
O O1 0.750000 0.787481 0.750000
O O2 0.500000 0.761429 0.683824
O O3 0.733005 0.653843 0.617678
O O4 0.636611 0.484344 0.733020
O O5 0.500000 0.788221 0.116771
O O6 0.267228 0.781944 0.175282
O O7 0.339542 0.046939 0.082349
O O8 0.311268 0.723067 0.024979
O O9 0.000000 0.677333 0.575238
#
# Coordination Sequence:
#
# PCOD9419051 Si02
#       4
#     8   8   8   4
#     4  10  22  38  56  82 116 151 190 231 283 342
#     4   9  19  38  60  87 114 150 192 235 284 338
#     4   9  19  38  65  86 111 149 195 236 280 338
#     4  10  22  34  54  86 118 152 188 238 280 336
#
# _framework density 21.450002000000001
#
# number of rings (size 3 to 8) (size 9 to 14) (size 15 to 20)
#    0.857    1.714    0.000    3.429    2.000    1.143 
#    0.000   11.429    0.000    0.000    0.000    0.000 
#    0.000    0.000    0.000    0.000    0.000    0.000 
#
# Total GULP energy -155929.332492 kJ/mol
# GULP energy per Si atom -5568.904732 kJ/mol
# Density = 2.140118 g / cm^3
# Si number density = 21.450002 Si / 1000 Ang^3
#
#
#
# Elastic Constant Matrix: (Units=GPa)
#
#
# Indices 1 2 3 4 5 6 
#
# 1 135.6208 8.5837 70.9568 0.0000 0.0000 0.0000
# 2 8.5837 38.1368 13.6281 0.0000 0.0000 0.0000
# 3 70.9568 13.6281 137.5470 0.0000 0.0000 0.0000
# 4 0.0000 0.0000 0.0000 38.0022 0.0000 0.0000
# 5 0.0000 0.0000 0.0000 0.0000 -0.9338 0.0000
# 6 0.0000 0.0000 0.0000 0.0000 0.0000 64.5709
#
#
#
# Elastic Compliance Matrix: (Units=1/GPa)
#
#
# Indices 1 2 3 4 5 6 
#
# 1 0.010106 -0.000427 -0.005171 0.000000 0.000000 0.000000
# 2 -0.000427 0.027202 -0.002475 0.000000 0.000000 0.000000
# 3 -0.005171 -0.002475 0.010183 0.000000 0.000000 0.000000
# 4 0.000000 0.000000 0.000000 0.026314 0.000000 0.000000
# 5 0.000000 0.000000 0.000000 0.000000 -1.070889 0.000000
# 6 0.000000 0.000000 0.000000 0.000000 0.000000 0.015487
#
#
# Mechanical properties :
#
#
# Convention : Reuss Voigt Hill
#
# Bulk Modulus (GPa) = 31.90274 55.29354 43.59814
# Shear Modulus (GPa) = -5.23559 34.87027 14.81734
#
# Velocity S-wave (km/s) = -1.56401 4.03631 2.63113
# Velocity P-wave (km/s) = 3.41231 6.89611 5.44059
#
# Compressibility (1/GPa) = 0.03134527
#
# Stress axis : x y z
#
# Youngs Moduli (GPa) = 98.95054 36.76214 98.20164
#
# Poissons Ratio (x) = 0.01569 0.50782
# Poissons Ratio (y) = 0.04222 0.24305
# Poissons Ratio (z) = 0.51169 0.09099
#
# Static dielectric constant tensor:
#      x y z
#    x 1.794020 0.000000 0.000000 
#    y 0.000000 1.857310 0.000000 
#    z 0.000000 0.000000 1.819740 
# 
# From -- ./inp_files/25613.got.cif
#   From: 2010.05.17/outbox.cif.g08.bks.cpg/sg53_13_cif.got.tgz:25613.got - 2010.06.03 12:45:16.
