data_PCOD9419783
_publ_section_title
;
Structure prediction by ZEFSAII (Michael W. Deem and Ramdas Pophale) SiO2 
 PCOD9419783
Probable space group: P M N A
;
_chemical_formula_sum "Si O2"
_cell_formula_units_Z 44
_cell_length_a 15.549317
_cell_length_b 9.167127
_cell_length_c 14.964281
_cell_angle_alpha 90.000000
_cell_angle_beta 90.000000
_cell_angle_gamma 90.000000
_cell_volume 2133.046978
_symmetry_space_group_name_H-M "P M N A"
_symmetry_group_IT_number 53
_symmetry_cell_setting 'orthorhombic'
loop_
_space_group_symop_operation_xyz
x,y,z
1/2-x,-y,1/2+z
x,-y,-z
1/2-x,y,1/2-z
-x,-y,-z
1/2+x,y,1/2-z
-x,y,z
1/2+x,-y,1/2+z
loop_
_atom_site_type_symbol
_atom_site_label
_atom_site_fract_x
_atom_site_fract_y
_atom_site_fract_z
Si Si1 0.500000 0.483410 0.713722
Si Si2 0.142599 0.556851 0.358812
Si Si3 0.250000 0.752525 0.250000
Si Si4 0.400643 0.282780 0.038959
Si Si5 0.000000 0.197512 0.148700
Si Si6 0.711156 0.000000 0.000000
Si Si7 0.640905 0.950688 0.357048
Si Si8 0.500000 0.255418 0.558284
O O1 0.417546 0.438004 0.772028
O O2 0.500000 0.657972 0.707263
O O3 0.500000 0.400637 0.618617
O O4 0.227843 0.645329 0.332135
O O5 0.100115 0.637639 0.442731
O O6 0.148439 0.390388 0.392228
O O7 0.171119 0.860402 0.229214
O O8 0.500000 0.264245 0.067304
O O9 0.349542 0.135115 0.023701
O O10 0.083411 0.093547 0.161305
O O11 0.000000 0.260874 0.047937
O O12 0.774481 0.021110 0.915663
O O13 0.581315 0.842102 0.413700
#
# Coordination Sequence:
#
# PCOD9419783 Si02
#       8
#     4   8   4   8   4   4   8   4
#     4  12  23  41  68  97 130 176 223 277 342 400
#     4  11  23  43  66  95 135 174 223 278 332 397
#     4  12  24  42  68 104 136 182 228 280 344 400
#     4  11  23  44  71  96 133 179 228 280 335 410
#     4  11  25  43  70 101 136 175 227 283 336 416
#     4  12  23  41  68 100 132 178 226 279 347 398
#     4  11  23  43  67  96 137 175 220 280 339 402
#     4  11  21  45  72  92 133 181 224 271 340 415
#
# _framework density 20.627768
#
# number of rings (size 3 to 8) (size 9 to 14) (size 15 to 20)
#    0.000    0.727    7.273    1.636    0.000    2.909 
#    0.000    0.000    0.000    0.000    0.000    0.000 
#    0.000    0.000    0.000    0.000    0.000    0.000 
#
# Total GULP energy -245774.257498 kJ/mol
# GULP energy per Si atom -5585.778580 kJ/mol
# Density = 2.058082 g / cm^3
# Si number density = 20.627768 Si / 1000 Ang^3
#
#
#
# Elastic Constant Matrix: (Units=GPa)
#
#
# Indices 1 2 3 4 5 6 
#
# 1 66.7993 59.9927 29.1833 0.0000 0.0000 0.0000
# 2 59.9927 166.5201 39.9469 0.0000 0.0000 0.0000
# 3 29.1833 39.9469 59.3591 0.0000 0.0000 0.0000
# 4 0.0000 0.0000 0.0000 33.6015 0.0000 0.0000
# 5 0.0000 0.0000 0.0000 0.0000 26.3195 0.0000
# 6 0.0000 0.0000 0.0000 0.0000 0.0000 16.4082
#
#
#
# Elastic Compliance Matrix: (Units=1/GPa)
#
#
# Indices 1 2 3 4 5 6 
#
# 1 0.024516 -0.007085 -0.007285 0.000000 0.000000 0.000000
# 2 -0.007085 0.009209 -0.002714 0.000000 0.000000 0.000000
# 3 -0.007285 -0.002714 0.022255 0.000000 0.000000 0.000000
# 4 0.000000 0.000000 0.000000 0.029761 0.000000 0.000000
# 5 0.000000 0.000000 0.000000 0.000000 0.037995 0.000000
# 6 0.000000 0.000000 0.000000 0.000000 0.000000 0.060945
#
#
# Mechanical properties :
#
#
# Convention : Reuss Voigt Hill
#
# Bulk Modulus (GPa) = 45.84750 61.21382 53.53066
# Shear Modulus (GPa) = 22.11234 26.16955 24.14094
#
# Velocity S-wave (km/s) = 3.27765 3.56568 3.42469
# Velocity P-wave (km/s) = 6.04965 6.83316 6.45331
#
# Compressibility (1/GPa) = 0.02181144
#
# Stress axis : x y z
#
# Youngs Moduli (GPa) = 40.79009 108.59169 44.93410
#
# Poissons Ratio (x) = 0.76934 0.32735
# Poissons Ratio (y) = 0.28899 0.12196
# Poissons Ratio (z) = 0.29716 0.29473
#
# Static dielectric constant tensor:
#      x y z
#    x 1.819970 0.000000 0.000000 
#    y 0.000000 1.726610 0.000000 
#    z 0.000000 0.000000 1.751630 
# 
# From -- ./inp_files/28221.got.cif
#   From: 2010.05.17/outbox.cif.g08.bks.cpg/sg53_15_cif.got.tgz:28221.got - 2010.06.03 12:45:16.
