data_PCOD9419785
_publ_section_title
;
Structure prediction by ZEFSAII (Michael W. Deem and Ramdas Pophale) SiO2 
 PCOD9419785
Probable space group: P M N A
;
_chemical_formula_sum "Si O2"
_cell_formula_units_Z 48
_cell_length_a 8.264219
_cell_length_b 17.101174
_cell_length_c 18.658346
_cell_angle_alpha 90.000000
_cell_angle_beta 90.000000
_cell_angle_gamma 90.000000
_cell_volume 2636.943870
_symmetry_space_group_name_H-M "P M N A"
_symmetry_group_IT_number 53
_symmetry_cell_setting 'orthorhombic'
loop_
_space_group_symop_operation_xyz
x,y,z
1/2-x,-y,1/2+z
x,-y,-z
1/2-x,y,1/2-z
-x,-y,-z
1/2+x,y,1/2-z
-x,y,z
1/2+x,-y,1/2+z
loop_
_atom_site_type_symbol
_atom_site_label
_atom_site_fract_x
_atom_site_fract_y
_atom_site_fract_z
Si Si1 0.807746 0.146465 0.168902
Si Si2 0.694786 0.333778 0.671400
Si Si3 0.307612 0.996241 0.082407
Si Si4 0.304781 0.825992 0.398826
Si Si5 0.196959 0.257158 0.046647
Si Si6 0.697932 0.584899 0.474547
O O1 0.750000 0.148504 0.250000
O O2 0.743153 0.217158 0.119096
O O3 0.000000 0.152705 0.169518
O O4 0.763036 0.065840 0.129627
O O5 0.750000 0.357612 0.750000
O O6 0.500000 0.333283 0.669699
O O7 0.748107 0.244827 0.652887
O O8 0.748374 0.388952 0.605520
O O9 0.500000 0.005983 0.080404
O O10 0.265939 0.911226 0.113877
O O11 0.245552 0.000000 0.000000
O O12 0.500000 0.830980 0.395910
O O13 0.259011 0.797389 0.478936
O O14 0.249187 0.344909 0.027494
O O15 0.000000 0.258612 0.048128
O O16 0.753458 0.500000 0.500000
O O17 0.500000 0.583961 0.474460
#
# Coordination Sequence:
#
# PCOD9419785 Si02
#       6
#     8   8   8   8   8   8
#     4  11  22  36  53  72 101 137 175 217 260 303
#     4   9  18  31  50  76 105 134 166 208 254 304
#     4  11  22  34  51  77 105 133 173 217 258 304
#     4   9  17  32  52  72  95 132 177 209 246 300
#     4   8  15  29  50  72  94 128 170 207 247 299
#     4   8  14  28  52  79 102 129 171 211 242 293
#
# _framework density 18.202891000000001
#
# number of rings (size 3 to 8) (size 9 to 14) (size 15 to 20)
#    0.000    2.667    1.667    3.000    0.000    2.000 
#    0.000    2.500    0.000    0.500    0.000    0.000 
#    0.000    0.000    0.000    0.000    0.000    0.000 
#
# Total GULP energy -267642.619598 kJ/mol
# GULP energy per Si atom -5575.887908 kJ/mol
# Density = 1.816146 g / cm^3
# Si number density = 18.202891 Si / 1000 Ang^3
#
#
#
# Elastic Constant Matrix: (Units=GPa)
#
#
# Indices 1 2 3 4 5 6 
#
# 1 12.9442 9.7822 16.7610 0.0000 0.0000 0.0000
# 2 9.7822 155.3723 90.7200 0.0000 0.0000 0.0000
# 3 16.7610 90.7200 149.2947 0.0000 0.0000 0.0000
# 4 0.0000 0.0000 0.0000 18.3447 0.0000 0.0000
# 5 0.0000 0.0000 0.0000 0.0000 15.9960 0.0000
# 6 0.0000 0.0000 0.0000 0.0000 0.0000 0.0098
#
#
#
# Elastic Compliance Matrix: (Units=1/GPa)
#
#
# Indices 1 2 3 4 5 6 
#
# 1 0.090409 0.000363 -0.010371 0.000000 0.000000 0.000000
# 2 0.000363 0.009977 -0.006103 0.000000 0.000000 0.000000
# 3 -0.010371 -0.006103 0.011571 0.000000 0.000000 0.000000
# 4 0.000000 0.000000 0.000000 0.054512 0.000000 0.000000
# 5 0.000000 0.000000 0.000000 0.000000 0.062516 0.000000
# 6 0.000000 0.000000 0.000000 0.000000 0.000000102.438181
#
#
# Mechanical properties :
#
#
# Convention : Reuss Voigt Hill
#
# Bulk Modulus (GPa) = 12.54151 61.34863 36.94507
# Shear Modulus (GPa) = 0.04867 20.22662 10.13765
#
# Velocity S-wave (km/s) = 0.16370 3.33705 2.36249
# Velocity P-wave (km/s) = 2.63449 6.97307 5.27087
#
# Compressibility (1/GPa) = 0.07973521
#
# Stress axis : x y z
#
# Youngs Moduli (GPa) = 11.06087 100.23099 86.42144
#
# Poissons Ratio (x) = -0.03641 0.89625
# Poissons Ratio (y) = -0.00402 0.52746
# Poissons Ratio (z) = 0.11471 0.61174
#
# Static dielectric constant tensor:
#      x y z
#    x 1.633080 0.000000 0.000000 
#    y 0.000000 1.616640 0.000000 
#    z 0.000000 0.000000 1.632790 
# 
# From -- ./inp_files/20227.got.cif
#   From: 2010.05.17/outbox.cif.g08.bks.cpg/sg53_11_cif.got.tgz:20227.got - 2010.06.03 12:45:16.
