data_PCOD9419234
_publ_section_title
;
Structure prediction by ZEFSAII (Michael W. Deem and Ramdas Pophale) SiO2 
 PCOD9419234
Probable space group: P M N A
;
_chemical_formula_sum "Si O2"
_cell_formula_units_Z 48
_cell_length_a 18.502546
_cell_length_b 8.686701
_cell_length_c 14.992110
_cell_angle_alpha 90.000000
_cell_angle_beta 90.000000
_cell_angle_gamma 90.000000
_cell_volume 2409.623144
_symmetry_space_group_name_H-M "P M N A"
_symmetry_group_IT_number 53
_symmetry_cell_setting 'orthorhombic'
loop_
_space_group_symop_operation_xyz
x,y,z
1/2-x,-y,1/2+z
x,-y,-z
1/2-x,y,1/2-z
-x,-y,-z
1/2+x,y,1/2-z
-x,y,z
1/2+x,-y,1/2+z
loop_
_atom_site_type_symbol
_atom_site_label
_atom_site_fract_x
_atom_site_fract_y
_atom_site_fract_z
Si Si1 0.084800 0.805919 0.364925
Si Si2 0.585015 0.653777 0.316792
Si Si3 0.829809 0.099639 0.285836
Si Si4 0.811079 0.184283 0.480538
Si Si5 0.848689 0.179751 0.973760
Si Si6 0.584747 0.693571 0.645192
O O1 0.092376 0.678904 0.288336
O O2 0.125259 0.758943 0.455479
O O3 0.000000 0.837818 0.380460
O O4 0.123703 0.955028 0.321056
O O5 0.500000 0.670831 0.338411
O O6 0.627255 0.780770 0.374159
O O7 0.608409 0.482420 0.341717
O O8 0.750000 0.054640 0.250000
O O9 0.820741 0.203190 0.375061
O O10 0.870418 0.191899 0.208268
O O11 0.732404 0.239987 0.510265
O O12 0.810130 0.000000 0.500000
O O13 0.901659 0.262224 0.042981
O O14 0.850334 0.000000 0.000000
O O15 0.500000 0.705374 0.667287
#
# Coordination Sequence:
#
# PCOD9419234 Si02
#       6
#     8   8   8   8   8   8
#     4  10  22  40  64  92 119 161 212 255 307 368
#     4  10  23  40  58  87 125 161 203 253 306 370
#     4  11  21  39  62  90 124 157 202 259 302 368
#     4   9  21  37  59  88 123 154 193 258 308 351
#     4  11  21  37  61  91 122 160 202 253 308 363
#     4  11  23  40  60  86 124 164 201 251 311 369
#
# _framework density 19.920127999999998
#
# number of rings (size 3 to 8) (size 9 to 14) (size 15 to 20)
#    0.000    1.667    1.667    2.500    4.667    7.667 
#    3.000    0.833    0.000    3.000    0.000    0.000 
#    0.000    0.000    0.000    0.000    0.000    0.000 
#
# Total GULP energy -268047.503004 kJ/mol
# GULP energy per Si atom -5584.322979 kJ/mol
# Density = 1.987479 g / cm^3
# Si number density = 19.920128 Si / 1000 Ang^3
#
#
#
# Elastic Constant Matrix: (Units=GPa)
#
#
# Indices 1 2 3 4 5 6 
#
# 1 74.4600 18.4480 16.4859 0.0000 0.0000 0.0000
# 2 18.4480 33.5858 -7.9633 0.0000 0.0000 0.0000
# 3 16.4859 -7.9633 79.4946 0.0000 0.0000 0.0000
# 4 0.0000 0.0000 0.0000 16.0082 0.0000 0.0000
# 5 0.0000 0.0000 0.0000 0.0000 37.9937 0.0000
# 6 0.0000 0.0000 0.0000 0.0000 0.0000 -28.0351
#
#
#
# Elastic Compliance Matrix: (Units=1/GPa)
#
#
# Indices 1 2 3 4 5 6 
#
# 1 0.017030 -0.010440 -0.004578 0.000000 0.000000 0.000000
# 2 -0.010440 0.036898 0.005861 0.000000 0.000000 0.000000
# 3 -0.004578 0.005861 0.014116 0.000000 0.000000 0.000000
# 4 0.000000 0.000000 0.000000 0.062468 0.000000 0.000000
# 5 0.000000 0.000000 0.000000 0.000000 0.026320 0.000000
# 6 0.000000 0.000000 0.000000 0.000000 0.000000 -0.035670
#
#
# Mechanical properties :
#
#
# Convention : Reuss Voigt Hill
#
# Bulk Modulus (GPa) = 20.10749 26.83128 23.46939
# Shear Modulus (GPa) = 32.04057 15.89801 23.96929
#
# Velocity S-wave (km/s) = 4.01490 2.82811 3.47258
# Velocity P-wave (km/s) = 5.62215 4.91558 5.28070
#
# Compressibility (1/GPa) = 0.04973271
#
# Stress axis : x y z
#
# Youngs Moduli (GPa) = 58.71994 27.10143 70.84201
#
# Poissons Ratio (x) = 0.28293 0.32428
# Poissons Ratio (y) = 0.61301 -0.41522
# Poissons Ratio (z) = 0.26879 -0.15885
#
# Static dielectric constant tensor:
#      x y z
#    x 1.699300 0.000000 0.000000 
#    y 0.000000 1.695130 0.000000 
#    z 0.000000 0.000000 1.699680 
# 
# From -- ./inp_files/23611.got.cif
#   From: 2010.05.17/outbox.cif.g08.bks.cpg/sg53_12_cif.got.tgz:23611.got - 2010.06.03 12:45:16.
