data_PCOD9419450
_publ_section_title
;
Structure prediction by ZEFSAII (Michael W. Deem and Ramdas Pophale) SiO2 
 PCOD9419450
Probable space group: P M N A
;
_chemical_formula_sum "Si O2"
_cell_formula_units_Z 36
_cell_length_a 19.371507
_cell_length_b 7.008197
_cell_length_c 11.964069
_cell_angle_alpha 90.000000
_cell_angle_beta 90.000000
_cell_angle_gamma 90.000000
_cell_volume 1624.234078
_symmetry_space_group_name_H-M "P M N A"
_symmetry_group_IT_number 53
_symmetry_cell_setting 'orthorhombic'
loop_
_space_group_symop_operation_xyz
x,y,z
1/2-x,-y,1/2+z
x,-y,-z
1/2-x,y,1/2-z
-x,-y,-z
1/2+x,y,1/2-z
-x,y,z
1/2+x,-y,1/2+z
loop_
_atom_site_type_symbol
_atom_site_label
_atom_site_fract_x
_atom_site_fract_y
_atom_site_fract_z
Si Si1 0.919669 0.637151 0.786911
Si Si2 0.420950 0.650278 0.085845
Si Si3 0.347795 0.000685 0.173604
Si Si4 0.296916 0.114412 0.595972
Si Si5 0.330476 0.500000 0.500000
O O1 0.920091 0.454651 0.705229
O O2 0.000000 0.686567 0.810893
O O3 0.883826 0.805795 0.714005
O O4 0.877625 0.587476 0.899844
O O5 0.500000 0.678046 0.049508
O O6 0.388153 0.856932 0.094056
O O7 0.387772 0.500000 0.000000
O O8 0.271211 0.011506 0.121894
O O9 0.337314 0.884991 0.289135
O O10 0.286139 0.328802 0.553845
O O11 0.336684 0.000000 0.500000
#
# Coordination Sequence:
#
# PCOD9419450 Si02
#       5
#     8   8   8   8   4
#     4  11  24  43  71 101 135 177 226 284 345 409
#     4  10  23  42  64  96 132 173 227 279 337 408
#     4  11  24  43  65  97 133 176 225 277 341 405
#     4  11  25  43  65  95 134 176 225 281 339 412
#     4  12  23  46  68 100 139 174 230 282 348 414
#
# _framework density 22.164292
#
# number of rings (size 3 to 8) (size 9 to 14) (size 15 to 20)
#    0.000    1.111    4.444    1.000    4.667    0.000 
#    0.000    4.444    0.000    0.000    0.000    0.000 
#    0.000    0.000    0.000    0.000    0.000    0.000 
#
# Total GULP energy -201020.542664 kJ/mol
# GULP energy per Si atom -5583.903963 kJ/mol
# Density = 2.211384 g / cm^3
# Si number density = 22.164292 Si / 1000 Ang^3
#
#
#
# Elastic Constant Matrix: (Units=GPa)
#
#
# Indices 1 2 3 4 5 6 
#
# 1 77.4362 42.7314 11.6451 0.0000 0.0000 0.0000
# 2 42.7314 121.8407 26.1832 0.0000 0.0000 0.0000
# 3 11.6451 26.1832 98.2227 0.0000 0.0000 0.0000
# 4 0.0000 0.0000 0.0000 53.4195 0.0000 0.0000
# 5 0.0000 0.0000 0.0000 0.0000 -2.0374 0.0000
# 6 0.0000 0.0000 0.0000 0.0000 0.0000 -121.5500
#
#
#
# Elastic Compliance Matrix: (Units=1/GPa)
#
#
# Indices 1 2 3 4 5 6 
#
# 1 0.016030 -0.005530 -0.000426 0.000000 0.000000 0.000000
# 2 -0.005530 0.010614 -0.002174 0.000000 0.000000 0.000000
# 3 -0.000426 -0.002174 0.010811 0.000000 0.000000 0.000000
# 4 0.000000 0.000000 0.000000 0.018720 0.000000 0.000000
# 5 0.000000 0.000000 0.000000 0.000000 -0.490810 0.000000
# 6 0.000000 0.000000 0.000000 0.000000 0.000000 -0.008227
#
#
# Mechanical properties :
#
#
# Convention : Reuss Voigt Hill
#
# Bulk Modulus (GPa) = 47.18263 50.95767 49.07015
# Shear Modulus (GPa) = -11.91788 0.42908 -5.74440
#
# Velocity S-wave (km/s) = -2.32137 0.44047 -1.61163
# Velocity P-wave (km/s) = 3.76150 4.82695 4.32715
#
# Compressibility (1/GPa) = 0.02119424
#
# Stress axis : x y z
#
# Youngs Moduli (GPa) = 62.38419 94.21410 92.49896
#
# Poissons Ratio (x) = 0.52103 0.03943
# Poissons Ratio (y) = 0.34500 0.20107
# Poissons Ratio (z) = 0.02659 0.20480
#
# Static dielectric constant tensor:
#      x y z
#    x 1.821450 0.000000 0.000000 
#    y 0.000000 1.849960 0.000000 
#    z 0.000000 0.000000 1.853860 
# 
# From -- ./inp_files/18099.got.cif
#   From: 2010.05.17/outbox.cif.g08.bks.cpg/sg53_10_cif.got.tgz:18099.got - 2010.06.03 12:45:16.
