data_PCOD9419333
_publ_section_title
;
Structure prediction by ZEFSAII (Michael W. Deem and Ramdas Pophale) SiO2 
 PCOD9419333
Probable space group: P M N A
;
_chemical_formula_sum "Si O2"
_cell_formula_units_Z 40
_cell_length_a 25.020925
_cell_length_b 5.076010
_cell_length_c 15.265050
_cell_angle_alpha 90.000000
_cell_angle_beta 90.000000
_cell_angle_gamma 90.000000
_cell_volume 1938.760046
_symmetry_space_group_name_H-M "P M N A"
_symmetry_group_IT_number 53
_symmetry_cell_setting 'orthorhombic'
loop_
_space_group_symop_operation_xyz
x,y,z
1/2-x,-y,1/2+z
x,-y,-z
1/2-x,y,1/2-z
-x,-y,-z
1/2+x,y,1/2-z
-x,y,z
1/2+x,-y,1/2+z
loop_
_atom_site_type_symbol
_atom_site_label
_atom_site_fract_x
_atom_site_fract_y
_atom_site_fract_z
Si Si1 0.827481 0.502221 0.600314
Si Si2 0.893412 0.579508 0.232751
Si Si3 0.663342 0.320023 0.417812
Si Si4 0.740095 0.989333 0.146256
Si Si5 0.439685 0.896388 0.646605
O O1 0.845320 0.500000 0.500000
O O2 0.872343 0.413030 0.669185
O O3 0.804803 0.787978 0.627303
O O4 0.780105 0.288452 0.610236
O O5 0.843252 0.495977 0.170451
O O6 0.934859 0.343370 0.215883
O O7 0.917886 0.844897 0.194491
O O8 0.675259 0.500000 0.500000
O O9 0.706761 0.098296 0.399658
O O10 0.604005 0.194348 0.424887
O O11 0.750000 0.971597 0.250000
O O12 0.500000 0.928473 0.615356
#
# Coordination Sequence:
#
# PCOD9419333 Si02
#       5
#     8   8   8   8   8
#     4  12  25  42  64  96 130 175 214 261 320 390
#     4  10  22  43  65  92 124 172 210 270 322 386
#     4  10  24  41  63  93 131 169 217 264 321 384
#     4  12  23  41  64  92 136 172 216 258 321 387
#     4  10  22  42  67  93 125 168 217 271 338 385
#
# _framework density 20.631744000000001
#
# number of rings (size 3 to 8) (size 9 to 14) (size 15 to 20)
#    1.200    0.000    2.000    4.800    2.800    1.200 
#    0.000    1.000    0.000    3.600    0.000    0.000 
#    0.000    0.000    0.000    0.000    0.000    0.000 
#
# Total GULP energy -223675.282141 kJ/mol
# GULP energy per Si atom -5591.882054 kJ/mol
# Density = 2.058479 g / cm^3
# Si number density = 20.631744 Si / 1000 Ang^3
#
#
#
# Elastic Constant Matrix: (Units=GPa)
#
#
# Indices 1 2 3 4 5 6 
#
# 1 64.4974 0.3244 3.0718 0.0000 0.0000 0.0000
# 2 0.3244 104.1483 23.3775 0.0000 0.0000 0.0000
# 3 3.0718 23.3775 122.5196 0.0000 0.0000 0.0000
# 4 0.0000 0.0000 0.0000 21.1034 0.0000 0.0000
# 5 0.0000 0.0000 0.0000 0.0000 8.7376 0.0000
# 6 0.0000 0.0000 0.0000 0.0000 0.0000 29.2991
#
#
#
# Elastic Compliance Matrix: (Units=1/GPa)
#
#
# Indices 1 2 3 4 5 6 
#
# 1 0.015523 0.000041 -0.000397 0.000000 0.000000 0.000000
# 2 0.000041 0.010031 -0.001915 0.000000 0.000000 0.000000
# 3 -0.000397 -0.001915 0.008537 0.000000 0.000000 0.000000
# 4 0.000000 0.000000 0.000000 0.047386 0.000000 0.000000
# 5 0.000000 0.000000 0.000000 0.000000 0.114448 0.000000
# 6 0.000000 0.000000 0.000000 0.000000 0.000000 0.034131
#
#
# Mechanical properties :
#
#
# Convention : Reuss Voigt Hill
#
# Bulk Modulus (GPa) = 33.84167 38.30142 36.07154
# Shear Modulus (GPa) = 20.45415 29.45413 24.95414
#
# Velocity S-wave (km/s) = 3.15205 3.78247 3.48156
# Velocity P-wave (km/s) = 5.44845 6.13847 5.80372
#
# Compressibility (1/GPa) = 0.02954937
#
# Stress axis : x y z
#
# Youngs Moduli (GPa) = 64.41966 99.68669 117.13278
#
# Poissons Ratio (x) = -0.00406 0.04650
# Poissons Ratio (y) = -0.00263 0.22432
# Poissons Ratio (z) = 0.02557 0.19091
#
# Static dielectric constant tensor:
#      x y z
#    x 1.869410 0.000000 0.000000 
#    y 0.000000 1.754740 0.000000 
#    z 0.000000 0.000000 1.732870 
# 
# From -- ./inp_files/24809.got.cif
#   From: 2010.05.17/outbox.cif.g08.bks.cpg/sg53_13_cif.got.tgz:24809.got - 2010.06.03 12:45:16.
