data_PCOD9419773
_publ_section_title
;
Structure prediction by ZEFSAII (Michael W. Deem and Ramdas Pophale) SiO2 
 PCOD9419773
Probable space group: P M N A
;
_chemical_formula_sum "Si O2"
_cell_formula_units_Z 40
_cell_length_a 13.804129
_cell_length_b 8.002637
_cell_length_c 14.940717
_cell_angle_alpha 90.000000
_cell_angle_beta 90.000000
_cell_angle_gamma 90.000000
_cell_volume 1650.492543
_symmetry_space_group_name_H-M "P M N A"
_symmetry_group_IT_number 53
_symmetry_cell_setting 'orthorhombic'
loop_
_space_group_symop_operation_xyz
x,y,z
1/2-x,-y,1/2+z
x,-y,-z
1/2-x,y,1/2-z
-x,-y,-z
1/2+x,y,1/2-z
-x,y,z
1/2+x,-y,1/2+z
loop_
_atom_site_type_symbol
_atom_site_label
_atom_site_fract_x
_atom_site_fract_y
_atom_site_fract_z
Si Si1 0.315352 0.797228 0.102851
Si Si2 0.889467 0.140767 0.406510
Si Si3 0.786702 0.445933 0.347374
Si Si4 0.105956 0.119968 0.872077
Si Si5 0.106008 0.259860 0.075498
O O1 0.342790 0.605207 0.113792
O O2 0.211301 0.811719 0.151503
O O3 0.375089 0.957792 0.135522
O O4 0.322941 0.831499 0.995297
O O5 0.856412 0.286423 0.341747
O O6 0.000000 0.159138 0.435334
O O7 0.750000 0.486762 0.250000
O O8 0.691451 0.388441 0.403099
O O9 0.000000 0.160688 0.831545
O O10 0.116459 0.918280 0.873572
O O11 0.102387 0.195848 0.973190
O O12 0.000000 0.333030 0.097013
#
# Coordination Sequence:
#
# PCOD9419773 Si02
#       5
#     8   8   8   8   8
#     4  11  21  41  68  99 125 165 225 279 329 374
#     4  11  24  45  71  94 125 171 227 282 323 372
#     4  12  26  40  62  94 135 172 208 260 327 400
#     4   9  16  32  65  95 120 156 206 267 316 370
#     4   9  17  35  60  92 124 156 201 252 315 379
#
# _framework density 24.235191
#
# number of rings (size 3 to 8) (size 9 to 14) (size 15 to 20)
#    0.000    1.600    4.000    4.200    0.000    4.800 
#    0.000    2.000    0.000    0.000    0.000    0.000 
#    0.000    0.000    0.000    0.000    0.000    0.000 
#
# Total GULP energy -223183.111957 kJ/mol
# GULP energy per Si atom -5579.577799 kJ/mol
# Density = 2.418003 g / cm^3
# Si number density = 24.235191 Si / 1000 Ang^3
#
#
#
# Elastic Constant Matrix: (Units=GPa)
#
#
# Indices 1 2 3 4 5 6 
#
# 1 122.0112 41.7105 18.4184 0.0000 0.0000 0.0000
# 2 41.7105 154.4847 32.7916 0.0000 0.0000 0.0000
# 3 18.4184 32.7916 45.5771 0.0000 0.0000 0.0000
# 4 0.0000 0.0000 0.0000 16.1101 0.0000 0.0000
# 5 0.0000 0.0000 0.0000 0.0000 5.5791 0.0000
# 6 0.0000 0.0000 0.0000 0.0000 0.0000 -11.1835
#
#
#
# Elastic Compliance Matrix: (Units=1/GPa)
#
#
# Indices 1 2 3 4 5 6 
#
# 1 0.009227 -0.002006 -0.002285 0.000000 0.000000 0.000000
# 2 -0.002006 0.008076 -0.005000 0.000000 0.000000 0.000000
# 3 -0.002285 -0.005000 0.026462 0.000000 0.000000 0.000000
# 4 0.000000 0.000000 0.000000 0.062073 0.000000 0.000000
# 5 0.000000 0.000000 0.000000 0.000000 0.179240 0.000000
# 6 0.000000 0.000000 0.000000 0.000000 0.000000 -0.089417
#
#
# Mechanical properties :
#
#
# Convention : Reuss Voigt Hill
#
# Bulk Modulus (GPa) = 39.71101 56.43489 48.07295
# Shear Modulus (GPa) = 22.45817 17.37798 19.91807
#
# Velocity S-wave (km/s) = 3.04744 2.68069 2.86993
# Velocity P-wave (km/s) = 5.36691 5.73745 5.55527
#
# Compressibility (1/GPa) = 0.02518193
#
# Stress axis : x y z
#
# Youngs Moduli (GPa) = 108.38042 123.82266 37.79056
#
# Poissons Ratio (x) = 0.24840 0.08636
# Poissons Ratio (y) = 0.21742 0.18895
# Poissons Ratio (z) = 0.24768 0.61909
#
# Static dielectric constant tensor:
#      x y z
#    x 2.002640 0.000000 0.000000 
#    y 0.000000 1.967070 0.000000 
#    z 0.000000 0.000000 2.006960 
# 
# From -- ./inp_files/28053.got.cif
#   From: 2010.05.17/outbox.cif.g08.bks.cpg/sg53_15_cif.got.tgz:28053.got - 2010.06.03 12:45:16.
