data_PCOD9419655
_publ_section_title
;
Structure prediction by ZEFSAII (Michael W. Deem and Ramdas Pophale) SiO2 
 PCOD9419655
Probable space group: P M N A
;
_chemical_formula_sum "Si O2"
_cell_formula_units_Z 64
_cell_length_a 24.672700
_cell_length_b 5.886526
_cell_length_c 20.466029
_cell_angle_alpha 90.000000
_cell_angle_beta 90.000000
_cell_angle_gamma 90.000000
_cell_volume 2972.414217
_symmetry_space_group_name_H-M "P M N A"
_symmetry_group_IT_number 53
_symmetry_cell_setting 'orthorhombic'
loop_
_space_group_symop_operation_xyz
x,y,z
1/2-x,-y,1/2+z
x,-y,-z
1/2-x,y,1/2-z
-x,-y,-z
1/2+x,y,1/2-z
-x,y,z
1/2+x,-y,1/2+z
loop_
_atom_site_type_symbol
_atom_site_label
_atom_site_fract_x
_atom_site_fract_y
_atom_site_fract_z
Si Si1 0.701269 0.547336 0.426805
Si Si2 0.347448 0.830297 0.310339
Si Si3 0.423370 0.936986 0.099608
Si Si4 0.298062 0.130824 0.933753
Si Si5 0.589512 0.546329 0.929001
Si Si6 0.436812 0.918472 0.752055
Si Si7 0.652843 0.435974 0.205808
Si Si8 0.259186 0.822422 0.668558
O O1 0.680229 0.500000 0.500000
O O2 0.667696 0.721524 0.380526
O O3 0.762792 0.641173 0.434930
O O4 0.706377 0.324259 0.383002
O O5 0.407906 0.929628 0.303023
O O6 0.341495 0.653014 0.251451
O O7 0.303739 0.026429 0.295020
O O8 0.361737 0.900978 0.076557
O O9 0.445274 0.685870 0.080129
O O10 0.432275 0.957890 0.177167
O O11 0.436207 0.196139 0.073383
O O12 0.275262 0.002925 0.871275
O O13 0.283561 0.000000 0.000000
O O14 0.631122 0.541478 0.868408
O O15 0.615418 0.500000 0.000000
O O16 0.500000 0.865340 0.740750
O O17 0.396157 0.707050 0.761506
O O18 0.713163 0.335955 0.199741
#
# Coordination Sequence:
#
# PCOD9419655 Si02
#       8
#     8   8   8   8   8   8   8   8
#     4  11  24  39  65 101 144 185 222 277 356 443
#     4  11  26  44  66 100 138 182 231 295 365 431
#     4  11  23  39  63  97 134 177 240 305 348 409
#     4  11  20  34  60  93 137 187 230 266 341 424
#     4  11  21  38  66  98 134 187 242 290 348 414
#     4  11  25  46  69  96 131 183 247 305 367 424
#     4  11  24  44  67  98 138 185 235 297 354 425
#     4  11  23  40  62 100 141 177 227 276 354 429
#
# _framework density 21.531320000000001
#
# number of rings (size 3 to 8) (size 9 to 14) (size 15 to 20)
#    0.000    1.000    5.000    2.625    0.000    4.500 
#    0.000    0.000    0.000   16.125    0.000    3.500 
#    0.000    0.000    0.000    0.000    0.000    0.000 
#
# Total GULP energy -356974.141160 kJ/mol
# GULP energy per Si atom -5577.720956 kJ/mol
# Density = 2.148231 g / cm^3
# Si number density = 21.531320 Si / 1000 Ang^3
#
#
#
# Elastic Constant Matrix: (Units=GPa)
#
#
# Indices 1 2 3 4 5 6 
#
# 1 131.4838 43.6609 71.3110 0.0000 0.0000 0.0000
# 2 43.6609 135.6635 53.3644 0.0000 0.0000 0.0000
# 3 71.3110 53.3644 119.8727 0.0000 0.0000 0.0000
# 4 0.0000 0.0000 0.0000 54.6142 0.0000 0.0000
# 5 0.0000 0.0000 0.0000 0.0000 -17.7825 0.0000
# 6 0.0000 0.0000 0.0000 0.0000 0.0000 -151.6399
#
#
#
# Elastic Compliance Matrix: (Units=1/GPa)
#
#
# Indices 1 2 3 4 5 6 
#
# 1 0.011390 -0.001213 -0.006236 0.000000 0.000000 0.000000
# 2 -0.001213 0.009065 -0.003314 0.000000 0.000000 0.000000
# 3 -0.006236 -0.003314 0.013527 0.000000 0.000000 0.000000
# 4 0.000000 0.000000 0.000000 0.018310 0.000000 0.000000
# 5 0.000000 0.000000 0.000000 0.000000 -0.056235 0.000000
# 6 0.000000 0.000000 0.000000 0.000000 0.000000 -0.006595
#
#
# Mechanical properties :
#
#
# Convention : Reuss Voigt Hill
#
# Bulk Modulus (GPa) = 80.27707 80.41031 80.34369
# Shear Modulus (GPa) = 330.20876 -8.38272 160.91302
#
# Velocity S-wave (km/s) = 12.39738 -1.97528 8.65428
# Velocity P-wave (km/s) = 15.56571 5.67666 11.71572
#
# Compressibility (1/GPa) = 0.01245686
#
# Stress axis : x y z
#
# Youngs Moduli (GPa) = 87.79310 110.31291 73.92431
#
# Poissons Ratio (x) = 0.13378 0.46100
# Poissons Ratio (y) = 0.10647 0.24499
# Poissons Ratio (z) = 0.54749 0.36559
#
# Static dielectric constant tensor:
#      x y z
#    x 1.784400 0.000000 0.000000 
#    y 0.000000 1.908940 0.000000 
#    z 0.000000 0.000000 2.236540 
# 
# From -- ./inp_files/33286.got.cif
#   From: 2010.05.17/outbox.cif.g08.bks.cpg/sg53_17_cif.got.tgz:33286.got - 2010.06.03 12:45:16.
