data_PCOD9419045
_publ_section_title
;
Structure prediction by ZEFSAII (Michael W. Deem and Ramdas Pophale) SiO2 
 PCOD9419045
Probable space group: P M N A
;
_chemical_formula_sum "Si O2"
_cell_formula_units_Z 20
_cell_length_a 28.501353
_cell_length_b 5.185310
_cell_length_c 5.345104
_cell_angle_alpha 90.000000
_cell_angle_beta 90.000000
_cell_angle_gamma 90.000000
_cell_volume 789.944105
_symmetry_space_group_name_H-M "P M N A"
_symmetry_group_IT_number 53
_symmetry_cell_setting 'orthorhombic'
loop_
_space_group_symop_operation_xyz
x,y,z
1/2-x,-y,1/2+z
x,-y,-z
1/2-x,y,1/2-z
-x,-y,-z
1/2+x,y,1/2-z
-x,y,z
1/2+x,-y,1/2+z
loop_
_atom_site_type_symbol
_atom_site_label
_atom_site_fract_x
_atom_site_fract_y
_atom_site_fract_z
Si Si1 0.250000 0.326331 0.750000
Si Si2 0.897350 0.736474 0.661682
Si Si3 0.000000 0.172376 0.247988
Si Si4 0.327189 0.000000 0.500000
O O1 0.244894 0.500000 0.500000
O O2 0.206037 0.138638 0.799414
O O3 0.880437 0.500000 0.500000
O O4 0.950736 0.678808 0.747255
O O5 0.898666 0.000000 0.500000
O O6 0.861676 0.790794 0.882314
O O7 0.000000 0.000000 0.500000
O O8 0.000000 0.000000 0.000000
#
# Coordination Sequence:
#
# PCOD9419045 Si02
#       4
#     4   8   4   4
#     4  12  32  54  84 114 168 214 284 358 430 498
#     4  11  27  48  82 122 167 217 275 339 415 501
#     4  10  21  50  78 121 169 217 268 337 407 496
#     4  12  30  51  80 122 158 221 284 346 430 500
#
# _framework density 25.318247
#
# number of rings (size 3 to 8) (size 9 to 14) (size 15 to 20)
#    0.000    0.800    2.000    1.800   14.000    0.000 
#    0.000    4.000    0.000    0.000    0.000    1.400 
#    0.000    0.000    0.000    0.000    0.000    0.000 
#
# Total GULP energy -112308.554089 kJ/mol
# GULP energy per Si atom -5615.427704 kJ/mol
# Density = 2.526062 g / cm^3
# Si number density = 25.318247 Si / 1000 Ang^3
#
#
#
# Elastic Constant Matrix: (Units=GPa)
#
#
# Indices 1 2 3 4 5 6 
#
# 1 211.0500 43.9329 58.0768 0.0000 0.0000 0.0000
# 2 43.9329 127.4024 57.6938 0.0000 0.0000 0.0000
# 3 58.0768 57.6938 155.5385 0.0000 0.0000 0.0000
# 4 0.0000 0.0000 0.0000 72.7348 0.0000 0.0000
# 5 0.0000 0.0000 0.0000 0.0000 -26.3721 0.0000
# 6 0.0000 0.0000 0.0000 0.0000 0.0000 -52.3125
#
#
#
# Elastic Compliance Matrix: (Units=1/GPa)
#
#
# Indices 1 2 3 4 5 6 
#
# 1 0.005416 -0.001144 -0.001598 0.000000 0.000000 0.000000
# 2 -0.001144 0.009675 -0.003162 0.000000 0.000000 0.000000
# 3 -0.001598 -0.003162 0.008199 0.000000 0.000000 0.000000
# 4 0.000000 0.000000 0.000000 0.013749 0.000000 0.000000
# 5 0.000000 0.000000 0.000000 0.000000 -0.037919 0.000000
# 6 0.000000 0.000000 0.000000 0.000000 0.000000 -0.019116
#
#
# Mechanical properties :
#
#
# Convention : Reuss Voigt Hill
#
# Bulk Modulus (GPa) = 87.08689 90.37756 88.73222
# Shear Modulus (GPa) = -1146.54781 21.09588 -562.72597
#
# Velocity S-wave (km/s) = -21.30346 2.88970 -14.92459
# Velocity P-wave (km/s) = 23.88818 6.84894 16.18235
#
# Compressibility (1/GPa) = 0.01148279
#
# Stress axis : x y z
#
# Youngs Moduli (GPa) = 184.63507 103.35466 121.97019
#
# Poissons Ratio (x) = 0.11824 0.19490
# Poissons Ratio (y) = 0.21123 0.38564
# Poissons Ratio (z) = 0.29504 0.32678
#
# Static dielectric constant tensor:
#      x y z
#    x 1.983360 0.000000 0.000000 
#    y 0.000000 2.002180 0.000000 
#    z 0.000000 0.000000 2.135050 
# 
# From -- ./inp_files/3994.got.cif
#   From: 2010.05.17/outbox.cif.g08.bks.cpg/sg53_2_cif.got.tgz:3994.got - 2010.06.03 12:45:16.
