data_PCOD9419145
_publ_section_title
;
Structure prediction by ZEFSAII (Michael W. Deem and Ramdas Pophale) SiO2 
 PCOD9419145
Probable space group: P M N A
;
_chemical_formula_sum "Si O2"
_cell_formula_units_Z 56
_cell_length_a 19.268109
_cell_length_b 26.171124
_cell_length_c 5.644390
_cell_angle_alpha 90.000000
_cell_angle_beta 90.000000
_cell_angle_gamma 90.000000
_cell_volume 2846.285651
_symmetry_space_group_name_H-M "P M N A"
_symmetry_group_IT_number 53
_symmetry_cell_setting 'orthorhombic'
loop_
_space_group_symop_operation_xyz
x,y,z
1/2-x,-y,1/2+z
x,-y,-z
1/2-x,y,1/2-z
-x,-y,-z
1/2+x,y,1/2-z
-x,y,z
1/2+x,-y,1/2+z
loop_
_atom_site_type_symbol
_atom_site_label
_atom_site_fract_x
_atom_site_fract_y
_atom_site_fract_z
Si Si1 0.680774 0.859959 0.390843
Si Si2 0.078224 0.096949 0.508483
Si Si3 0.076502 0.196465 0.170042
Si Si4 0.415936 0.475090 0.748432
Si Si5 0.581626 0.310453 0.170485
Si Si6 0.084304 0.355554 0.823706
Si Si7 0.323339 0.038838 0.318059
O O1 0.750000 0.847150 0.250000
O O2 0.643920 0.811928 0.510617
O O3 0.697359 0.907001 0.564439
O O4 0.620044 0.883564 0.231915
O O5 0.075423 0.146075 0.333473
O O6 0.124319 0.053575 0.387435
O O7 0.000000 0.080954 0.560718
O O8 0.084045 0.249293 0.307520
O O9 0.000000 0.198594 0.047230
O O10 0.391466 0.500000 0.500000
O O11 0.500000 0.480608 0.751242
O O12 0.400692 0.415050 0.723224
O O13 0.391932 0.500000 0.000000
O O14 0.500000 0.325635 0.164769
O O15 0.609160 0.335064 0.418062
O O16 0.610309 0.327016 0.914235
O O17 0.000000 0.349311 0.831578
O O18 0.250000 0.013666 0.250000
O O19 0.358213 0.000000 0.500000
#
# Coordination Sequence:
#
# PCOD9419145 Si02
#       7
#     8   8   8   8   8   8   8
#     4  11  21  37  59  81 107 142 181 223 267 333
#     4  10  22  39  59  85 113 141 179 230 277 326
#     4   9  20  34  52  77 106 139 177 227 281 329
#     4   9  15  22  33  50  78 119 167 221 272 317
#     4   9  17  28  43  64  92 128 171 225 279 328
#     4   9  16  25  38  59  87 123 173 226 274 326
#     4  11  23  39  61  85 111 146 184 219 272 336
#
# _framework density 19.674764
#
# number of rings (size 3 to 8) (size 9 to 14) (size 15 to 20)
#    0.000    2.286    1.429    1.714    2.000    4.286 
#    0.000    0.714    0.000    0.000    0.000    0.000 
#    0.000    0.000    0.000    0.000    0.000    4.286 
#
# Total GULP energy -312091.806928 kJ/mol
# GULP energy per Si atom -5573.067981 kJ/mol
# Density = 1.962998 g / cm^3
# Si number density = 19.674764 Si / 1000 Ang^3
#
#
#
# Elastic Constant Matrix: (Units=GPa)
#
#
# Indices 1 2 3 4 5 6 
#
# 1 62.5070 5.7909 19.6280 0.0000 0.0000 0.0000
# 2 5.7909 59.7469 27.2284 0.0000 0.0000 0.0000
# 3 19.6280 27.2284 84.5135 0.0000 0.0000 0.0000
# 4 0.0000 0.0000 0.0000 27.3835 0.0000 0.0000
# 5 0.0000 0.0000 0.0000 0.0000 19.0357 0.0000
# 6 0.0000 0.0000 0.0000 0.0000 0.0000 -7.9900
#
#
#
# Elastic Compliance Matrix: (Units=1/GPa)
#
#
# Indices 1 2 3 4 5 6 
#
# 1 0.017258 0.000180 -0.004066 0.000000 0.000000 0.000000
# 2 0.000180 0.019620 -0.006363 0.000000 0.000000 0.000000
# 3 -0.004066 -0.006363 0.014827 0.000000 0.000000 0.000000
# 4 0.000000 0.000000 0.000000 0.036518 0.000000 0.000000
# 5 0.000000 0.000000 0.000000 0.000000 0.052533 0.000000
# 6 0.000000 0.000000 0.000000 0.000000 0.000000 -0.125156
#
#
# Mechanical properties :
#
#
# Convention : Reuss Voigt Hill
#
# Bulk Modulus (GPa) = 32.04401 34.67355 33.35878
# Shear Modulus (GPa) = 107.52739 17.96051 62.74395
#
# Velocity S-wave (km/s) = 7.40075 3.02465 5.65330
# Velocity P-wave (km/s) = 9.45253 5.46440 7.72043
#
# Compressibility (1/GPa) = 0.03120708
#
# Stress axis : x y z
#
# Youngs Moduli (GPa) = 57.94294 50.96957 67.44542
#
# Poissons Ratio (x) = -0.00919 0.27425
# Poissons Ratio (y) = -0.01045 0.42915
# Poissons Ratio (z) = 0.23561 0.32431
#
# Static dielectric constant tensor:
#      x y z
#    x 1.683930 0.000000 0.000000 
#    y 0.000000 1.681810 0.000000 
#    z 0.000000 0.000000 1.805640 
# 
# From -- ./inp_files/3044.got.cif
#   From: 2010.05.17/outbox.cif.g08.bks.cpg/sg53_2_cif.got.tgz:3044.got - 2010.06.03 12:45:16.
