data_PCOD9419786
_publ_section_title
;
Structure prediction by ZEFSAII (Michael W. Deem and Ramdas Pophale) SiO2 
 PCOD9419786
Probable space group: P M N A
;
_chemical_formula_sum "Si O2"
_cell_formula_units_Z 40
_cell_length_a 25.481867
_cell_length_b 9.339515
_cell_length_c 8.174769
_cell_angle_alpha 90.000000
_cell_angle_beta 90.000000
_cell_angle_gamma 90.000000
_cell_volume 1945.499206
_symmetry_space_group_name_H-M "P M N A"
_symmetry_group_IT_number 53
_symmetry_cell_setting 'orthorhombic'
loop_
_space_group_symop_operation_xyz
x,y,z
1/2-x,-y,1/2+z
x,-y,-z
1/2-x,y,1/2-z
-x,-y,-z
1/2+x,y,1/2-z
-x,y,z
1/2+x,-y,1/2+z
loop_
_atom_site_type_symbol
_atom_site_label
_atom_site_fract_x
_atom_site_fract_y
_atom_site_fract_z
Si Si1 0.589224 0.307723 0.302186
Si Si2 0.380239 0.827209 0.003361
Si Si3 0.852552 0.500000 0.000000
Si Si4 0.500000 0.809058 0.117665
Si Si5 0.500000 0.919166 0.666113
Si Si6 0.000000 0.520757 0.195538
Si Si7 0.695798 0.398847 0.834150
O O1 0.613000 0.359070 0.472572
O O2 0.550022 0.179430 0.329722
O O3 0.552303 0.439492 0.240802
O O4 0.629822 0.246043 0.172274
O O5 0.442766 0.796906 0.032625
O O6 0.343184 0.733180 0.122521
O O7 0.372130 0.000000 0.000000
O O8 0.826090 0.486659 0.822874
O O9 0.500000 0.683743 0.252010
O O10 0.500000 0.966820 0.191073
O O11 0.500000 0.000000 0.500000
O O12 0.000000 0.500000 0.000000
O O13 0.750000 0.345364 0.750000
O O14 0.702019 0.500000 0.000000
#
# Coordination Sequence:
#
# PCOD9419786 Si02
#       7
#     8   8   4   4   4   4   8
#     4  11  23  40  62  97 148 193 238 301 355 439
#     4  12  26  46  71 109 153 199 247 298 372 453
#     4  12  24  43  76 110 136 179 258 310 382 426
#     4  12  23  40  68 103 152 200 244 292 363 455
#     4  11  24  36  59  99 154 206 245 285 354 443
#     4  11  22  34  56  96 145 190 250 294 351 423
#     4  12  27  51  80 110 142 189 251 320 377 438
#
# _framework density 20.560276000000002
#
# number of rings (size 3 to 8) (size 9 to 14) (size 15 to 20)
#    0.000    0.400    6.000    3.900    2.800    0.800 
#    0.000    3.000    0.000    0.000    0.000    0.000 
#    0.000    0.000    0.000    0.000    0.000    0.000 
#
# Total GULP energy -223006.136030 kJ/mol
# GULP energy per Si atom -5575.153401 kJ/mol
# Density = 2.051348 g / cm^3
# Si number density = 20.560276 Si / 1000 Ang^3
#
#
#
# Elastic Constant Matrix: (Units=GPa)
#
#
# Indices 1 2 3 4 5 6 
#
# 1 85.8945 47.5423 44.2914 0.0000 0.0000 0.0000
# 2 47.5423 129.1409 60.0828 0.0000 0.0000 0.0000
# 3 44.2914 60.0828 133.3493 0.0000 0.0000 0.0000
# 4 0.0000 0.0000 0.0000 48.4032 0.0000 0.0000
# 5 0.0000 0.0000 0.0000 0.0000 58.2433 0.0000
# 6 0.0000 0.0000 0.0000 0.0000 0.0000 19.2757
#
#
#
# Elastic Compliance Matrix: (Units=1/GPa)
#
#
# Indices 1 2 3 4 5 6 
#
# 1 0.015692 -0.004241 -0.003301 0.000000 0.000000 0.000000
# 2 -0.004241 0.010943 -0.003522 0.000000 0.000000 0.000000
# 3 -0.003301 -0.003522 0.010183 0.000000 0.000000 0.000000
# 4 0.000000 0.000000 0.000000 0.020660 0.000000 0.000000
# 5 0.000000 0.000000 0.000000 0.000000 0.017169 0.000000
# 6 0.000000 0.000000 0.000000 0.000000 0.000000 0.051879
#
#
# Mechanical properties :
#
#
# Convention : Reuss Voigt Hill
#
# Bulk Modulus (GPa) = 68.07682 72.46862 70.27272
# Shear Modulus (GPa) = 32.56255 38.28230 35.42242
#
# Velocity S-wave (km/s) = 3.98397 4.31972 4.15523
# Velocity P-wave (km/s) = 7.37193 7.75908 7.56798
#
# Compressibility (1/GPa) = 0.01468929
#
# Stress axis : x y z
#
# Youngs Moduli (GPa) = 63.72767 91.37893 98.20760
#
# Poissons Ratio (x) = 0.38754 0.32419
# Poissons Ratio (y) = 0.27027 0.34590
# Poissons Ratio (z) = 0.21037 0.32185
#
# Static dielectric constant tensor:
#      x y z
#    x 1.867440 0.000000 0.000000 
#    y 0.000000 1.690850 0.000000 
#    z 0.000000 0.000000 1.806120 
# 
# From -- ./inp_files/12373.got.cif
#   From: 2010.05.17/outbox.cif.g08.bks.cpg/sg53_7_cif.got.tgz:12373.got - 2010.06.03 12:45:16.
