data_PCOD9419233
_publ_section_title
;
Structure prediction by ZEFSAII (Michael W. Deem and Ramdas Pophale) SiO2 
 PCOD9419233
Probable space group: P M N A
;
_chemical_formula_sum "Si O2"
_cell_formula_units_Z 40
_cell_length_a 7.415639
_cell_length_b 9.947820
_cell_length_c 28.459704
_cell_angle_alpha 90.000000
_cell_angle_beta 90.000000
_cell_angle_gamma 90.000000
_cell_volume 2099.456482
_symmetry_space_group_name_H-M "P M N A"
_symmetry_group_IT_number 53
_symmetry_cell_setting 'orthorhombic'
loop_
_space_group_symop_operation_xyz
x,y,z
1/2-x,-y,1/2+z
x,-y,-z
1/2-x,y,1/2-z
-x,-y,-z
1/2+x,y,1/2-z
-x,y,z
1/2+x,-y,1/2+z
loop_
_atom_site_type_symbol
_atom_site_label
_atom_site_fract_x
_atom_site_fract_y
_atom_site_fract_z
Si Si1 0.000000 0.364957 0.970131
Si Si2 0.283655 0.973526 0.886987
Si Si3 0.284760 0.523572 0.195871
Si Si4 0.217474 0.291334 0.608868
Si Si5 0.000000 0.115152 0.038473
Si Si6 0.785321 0.781042 0.696294
O O1 0.000000 0.250641 0.009512
O O2 0.000000 0.500000 0.000000
O O3 0.172008 0.346381 0.935659
O O4 0.500000 0.960746 0.892724
O O5 0.242733 0.132508 0.885231
O O6 0.224717 0.892931 0.840411
O O7 0.174900 0.906066 0.929227
O O8 0.250000 0.563752 0.250000
O O9 0.500000 0.517097 0.191315
O O10 0.225253 0.626180 0.155513
O O11 0.213260 0.370998 0.188970
O O12 0.000000 0.305075 0.602774
O O13 0.000000 0.000000 0.000000
O O14 0.750000 0.819148 0.750000
O O15 0.000000 0.772294 0.690503
#
# Coordination Sequence:
#
# PCOD9419233 Si02
#       6
#     4   8   8   8   4   8
#     4  12  28  44  62  96 120 160 212 258 306 368
#     4  10  22  40  64  90 122 160 201 252 308 363
#     4   9  19  35  56  86 120 161 201 244 302 361
#     4  10  22  42  63  88 125 159 202 254 304 365
#     4  12  24  44  64  92 122 158 210 254 308 362
#     4   9  19  35  56  88 121 158 202 246 300 362
#
# _framework density 19.05255
#
# number of rings (size 3 to 8) (size 9 to 14) (size 15 to 20)
#    0.000    2.000    2.000    0.000    5.600    2.400 
#    0.000    0.000    0.000    0.000    0.000    0.000 
#    0.000    0.000    0.000    0.000    0.000    0.000 
#
# Total GULP energy -223228.251327 kJ/mol
# GULP energy per Si atom -5580.706283 kJ/mol
# Density = 1.900919 g / cm^3
# Si number density = 19.052550 Si / 1000 Ang^3
#
#
#
# Elastic Constant Matrix: (Units=GPa)
#
#
# Indices 1 2 3 4 5 6 
#
# 1 78.3971 44.3251 48.6147 0.0000 0.0000 0.0000
# 2 44.3251 159.4227 130.2994 0.0000 0.0000 0.0000
# 3 48.6147 130.2994 189.6914 0.0000 0.0000 0.0000
# 4 0.0000 0.0000 0.0000 33.5955 0.0000 0.0000
# 5 0.0000 0.0000 0.0000 0.0000 36.7754 0.0000
# 6 0.0000 0.0000 0.0000 0.0000 0.0000 4.2904
#
#
#
# Elastic Compliance Matrix: (Units=1/GPa)
#
#
# Indices 1 2 3 4 5 6 
#
# 1 0.015569 -0.002434 -0.002318 0.000000 0.000000 0.000000
# 2 -0.002434 0.014683 -0.009462 0.000000 0.000000 0.000000
# 3 -0.002318 -0.009462 0.012365 0.000000 0.000000 0.000000
# 4 0.000000 0.000000 0.000000 0.029766 0.000000 0.000000
# 5 0.000000 0.000000 0.000000 0.000000 0.027192 0.000000
# 6 0.000000 0.000000 0.000000 0.000000 0.000000 0.233076
#
#
# Mechanical properties :
#
#
# Convention : Reuss Voigt Hill
#
# Bulk Modulus (GPa) = 70.47680 97.10996 83.79338
# Shear Modulus (GPa) = 13.66835 28.55040 21.10937
#
# Velocity S-wave (km/s) = 2.68134 3.87526 3.33221
# Velocity P-wave (km/s) = 6.83061 8.43230 7.67336
#
# Compressibility (1/GPa) = 0.01418907
#
# Stress axis : x y z
#
# Youngs Moduli (GPa) = 64.22885 68.10755 80.87287
#
# Poissons Ratio (x) = 0.16579 0.18747
# Poissons Ratio (y) = 0.15634 0.76520
# Poissons Ratio (z) = 0.14889 0.64441
#
# Static dielectric constant tensor:
#      x y z
#    x 1.691610 0.000000 0.000000 
#    y 0.000000 1.644370 0.000000 
#    z 0.000000 0.000000 1.632580 
# 
# From -- ./inp_files/33683.got.cif
#   From: 2010.05.17/outbox.cif.g08.bks.cpg/sg53_17_cif.got.tgz:33683.got - 2010.06.03 12:45:16.
