data_PCOD9419410
_publ_section_title
;
Structure prediction by ZEFSAII (Michael W. Deem and Ramdas Pophale) SiO2 
 PCOD9419410
Probable space group: P M N A
;
_chemical_formula_sum "Si O2"
_cell_formula_units_Z 64
_cell_length_a 15.287981
_cell_length_b 22.214410
_cell_length_c 10.227164
_cell_angle_alpha 90.000000
_cell_angle_beta 90.000000
_cell_angle_gamma 90.000000
_cell_volume 3473.282736
_symmetry_space_group_name_H-M "P M N A"
_symmetry_group_IT_number 53
_symmetry_cell_setting 'orthorhombic'
loop_
_space_group_symop_operation_xyz
x,y,z
1/2-x,-y,1/2+z
x,-y,-z
1/2-x,y,1/2-z
-x,-y,-z
1/2+x,y,1/2-z
-x,y,z
1/2+x,-y,1/2+z
loop_
_atom_site_type_symbol
_atom_site_label
_atom_site_fract_x
_atom_site_fract_y
_atom_site_fract_z
Si Si1 0.250000 0.846732 0.096831
Si Si2 0.898952 0.357644 0.022151
Si Si3 0.897185 0.054335 0.902027
Si Si4 0.601048 0.642356 0.977848
Si Si5 0.894478 0.416308 0.750000
Si Si6 0.397185 0.054335 0.902026
Si Si7 0.750000 0.735403 0.599085
Si Si8 0.852055 0.555914 0.750000
O O1 0.250000 0.828236 0.250000
O O2 0.165465 0.889056 0.074775
O O3 0.334535 0.889056 0.074775
O O4 0.250000 0.790660 0.000594
O O5 0.834806 0.306135 0.073071
O O6 0.893377 0.413428 0.122576
O O7 0.000000 0.337691 0.014199
O O8 0.868709 0.381157 0.880723
O O9 0.884554 0.035899 0.750000
O O10 0.000000 0.069220 0.919076
O O11 0.875734 0.000000 0.000000
O O12 0.500000 0.662309 0.985801
O O13 0.665194 0.693865 0.926929
O O14 0.606622 0.586572 0.877422
O O15 0.631292 0.618843 0.119276
O O16 0.861117 0.484420 0.750000
O O17 0.000000 0.419968 0.750000
O O18 0.500000 0.069220 0.919076
O O19 0.375734 0.000000 0.000000
O O20 0.750000 0.755000 0.750000
O O21 0.750000 0.572222 0.750000
#
# Coordination Sequence:
#
# PCOD9419410 Si02
#       8
#     8   8   8   8   8   8   8   8
#     4  10  23  39  59  85 121 161 198 247 289 331
#     4  11  23  42  61  83 117 150 191 246 297 354
#     4   9  18  35  60  92 126 157 193 235 288 343
#     4  11  23  42  61  83 117 150 191 246 297 354
#     4  10  24  38  60  92 112 145 191 234 302 373
#     4   9  18  35  60  92 126 157 193 235 288 343
#     4  12  26  43  58  86 112 157 211 242 293 353
#     4  12  22  38  62  91 117 150 185 233 305 369
#
# _framework density 18.426372000000001
#
# number of rings (size 3 to 8) (size 9 to 14) (size 15 to 20)
#    0.000    1.500    2.500    2.250    3.500    5.000 
#    0.000    0.000    0.000    0.000    0.000    0.000 
#    0.000    0.000    0.000    0.000    0.000    0.000 
#
# Total GULP energy -357625.534339 kJ/mol
# GULP energy per Si atom -5587.898974 kJ/mol
# Density = 1.838443 g / cm^3
# Si number density = 18.426372 Si / 1000 Ang^3
#
#
#
# Elastic Constant Matrix: (Units=GPa)
#
#
# Indices 1 2 3 4 5 6 
#
# 1 85.4288 47.0223 37.5260 0.0000 0.0000 0.0000
# 2 47.0223 98.5402 64.5073 0.0000 0.0000 0.0000
# 3 37.5260 64.5073 134.6092 0.0000 0.0000 0.0000
# 4 0.0000 0.0000 0.0000 40.7681 0.0000 0.0000
# 5 0.0000 0.0000 0.0000 0.0000 25.4416 0.0000
# 6 0.0000 0.0000 0.0000 0.0000 0.0000 2.1614
#
#
#
# Elastic Compliance Matrix: (Units=1/GPa)
#
#
# Indices 1 2 3 4 5 6 
#
# 1 0.016001 -0.006871 -0.001168 0.000000 0.000000 0.000000
# 2 -0.006871 0.017737 -0.006585 0.000000 0.000000 0.000000
# 3 -0.001168 -0.006585 0.010910 0.000000 0.000000 0.000000
# 4 0.000000 0.000000 0.000000 0.024529 0.000000 0.000000
# 5 0.000000 0.000000 0.000000 0.000000 0.039306 0.000000
# 6 0.000000 0.000000 0.000000 0.000000 0.000000 0.462668
#
#
# Mechanical properties :
#
#
# Convention : Reuss Voigt Hill
#
# Bulk Modulus (GPa) = 64.93030 68.52106 66.72568
# Shear Modulus (GPa) = 8.25722 24.97572 16.61647
#
# Velocity S-wave (km/s) = 2.11918 3.68562 3.00622
# Velocity P-wave (km/s) = 6.42667 7.44169 6.95273
#
# Compressibility (1/GPa) = 0.01540113
#
# Stress axis : x y z
#
# Youngs Moduli (GPa) = 62.49792 56.37856 91.65884
#
# Poissons Ratio (x) = 0.38736 0.10706
# Poissons Ratio (y) = 0.42940 0.60354
# Poissons Ratio (z) = 0.07300 0.37123
#
# Static dielectric constant tensor:
#      x y z
#    x 1.646880 0.000000 0.000000 
#    y 0.000000 1.578230 0.000000 
#    z 0.000000 0.000000 1.633850 
# 
# From -- ./inp_files/8914.got.cif
#   From: 2010.05.17/outbox.cif.g08.bks.cpg/sg53_5_cif.got.tgz:8914.got - 2010.06.03 12:45:16.
