data_PCOD9419379
_publ_section_title
;
Structure prediction by ZEFSAII (Michael W. Deem and Ramdas Pophale) SiO2 
 PCOD9419379
Probable space group: P M N A
;
_chemical_formula_sum "Si O2"
_cell_formula_units_Z 56
_cell_length_a 21.813102
_cell_length_b 8.062486
_cell_length_c 13.545646
_cell_angle_alpha 90.000000
_cell_angle_beta 90.000000
_cell_angle_gamma 90.000000
_cell_volume 2382.243361
_symmetry_space_group_name_H-M "P M N A"
_symmetry_group_IT_number 53
_symmetry_cell_setting 'orthorhombic'
loop_
_space_group_symop_operation_xyz
x,y,z
1/2-x,-y,1/2+z
x,-y,-z
1/2-x,y,1/2-z
-x,-y,-z
1/2+x,y,1/2-z
-x,y,z
1/2+x,-y,1/2+z
loop_
_atom_site_type_symbol
_atom_site_label
_atom_site_fract_x
_atom_site_fract_y
_atom_site_fract_z
Si Si1 0.668452 0.532619 0.235436
Si Si2 0.432695 0.213982 0.705680
Si Si3 0.344954 0.022409 0.359102
Si Si4 0.883248 0.981308 0.640631
Si Si5 0.726393 0.796668 0.088388
Si Si6 0.196469 0.645696 0.929958
Si Si7 0.928752 0.630336 0.591166
O O1 0.620299 0.651192 0.291955
O O2 0.708505 0.655676 0.167301
O O3 0.700412 0.423662 0.319813
O O4 0.623392 0.428085 0.166410
O O5 0.500000 0.277617 0.687236
O O6 0.407684 0.078387 0.629124
O O7 0.429776 0.116662 0.811438
O O8 0.347768 0.071375 0.242754
O O9 0.342094 0.187031 0.422483
O O10 0.285543 0.906282 0.379360
O O11 0.914619 0.828352 0.584479
O O12 0.831677 0.085616 0.585584
O O13 0.741825 0.707293 0.985035
O O14 0.172128 0.500000 0.000000
O O15 0.923127 0.500000 0.500000
O O16 0.000000 0.615081 0.624734
#
# Coordination Sequence:
#
# PCOD9419379 Si02
#       7
#     8   8   8   8   8   8   8
#     4  11  24  47  70 110 153 190 240 311 381 443
#     4   9  19  39  76 103 132 194 248 292 362 440
#     4  10  22  44  71 101 146 192 246 300 369 439
#     4   9  21  41  73 102 146 197 240 303 369 441
#     4  11  25  45  72 104 152 196 251 300 367 461
#     4  12  27  43  71 105 145 196 238 302 371 449
#     4  11  24  45  77 116 154 196 250 313 382 448
#
# _framework density 23.507254
#
# number of rings (size 3 to 8) (size 9 to 14) (size 15 to 20)
#    0.857    0.714    1.429    2.571    2.000    4.000 
#    2.571    2.143    0.000   23.571    0.000    0.000 
#    0.000    1.143    0.000    0.000    0.000    0.000 
#
# Total GULP energy -312666.288724 kJ/mol
# GULP energy per Si atom -5583.326584 kJ/mol
# Density = 2.345375 g / cm^3
# Si number density = 23.507254 Si / 1000 Ang^3
#
#
#
# Elastic Constant Matrix: (Units=GPa)
#
#
# Indices 1 2 3 4 5 6 
#
# 1 84.0546 27.3611 41.7202 0.0000 0.0000 0.0000
# 2 27.3611 86.2061 25.8937 0.0000 0.0000 0.0000
# 3 41.7202 25.8937 120.4716 0.0000 0.0000 0.0000
# 4 0.0000 0.0000 0.0000 48.6133 0.0000 0.0000
# 5 0.0000 0.0000 0.0000 0.0000 14.9450 0.0000
# 6 0.0000 0.0000 0.0000 0.0000 0.0000 7.0117
#
#
#
# Elastic Compliance Matrix: (Units=1/GPa)
#
#
# Indices 1 2 3 4 5 6 
#
# 1 0.015288 -0.003487 -0.004545 0.000000 0.000000 0.000000
# 2 -0.003487 0.013196 -0.001629 0.000000 0.000000 0.000000
# 3 -0.004545 -0.001629 0.010225 0.000000 0.000000 0.000000
# 4 0.000000 0.000000 0.000000 0.020570 0.000000 0.000000
# 5 0.000000 0.000000 0.000000 0.000000 0.066912 0.000000
# 6 0.000000 0.000000 0.000000 0.000000 0.000000 0.142620
#
#
# Mechanical properties :
#
#
# Convention : Reuss Voigt Hill
#
# Bulk Modulus (GPa) = 51.57981 53.40914 52.49448
# Shear Modulus (GPa) = 16.97249 27.16450 22.06849
#
# Velocity S-wave (km/s) = 2.68994 3.40307 3.06730
# Velocity P-wave (km/s) = 5.62472 6.18149 5.90966
#
# Compressibility (1/GPa) = 0.01938743
#
# Stress axis : x y z
#
# Youngs Moduli (GPa) = 65.41101 75.77995 97.80256
#
# Poissons Ratio (x) = 0.26425 0.44449
# Poissons Ratio (y) = 0.22810 0.15929
# Poissons Ratio (z) = 0.29728 0.12342
#
# Static dielectric constant tensor:
#      x y z
#    x 1.867140 0.000000 0.000000 
#    y 0.000000 1.961390 0.000000 
#    z 0.000000 0.000000 1.967650 
# 
# From -- ./inp_files/24327.got.cif
#   From: 2010.05.17/outbox.cif.g08.bks.cpg/sg53_13_cif.got.tgz:24327.got - 2010.06.03 12:45:16.
