data_PCOD9419336
_publ_section_title
;
Structure prediction by ZEFSAII (Michael W. Deem and Ramdas Pophale) SiO2 
 PCOD9419336
Probable space group: P M N A
;
_chemical_formula_sum "Si O2"
_cell_formula_units_Z 32
_cell_length_a 9.985545
_cell_length_b 5.267788
_cell_length_c 25.408459
_cell_angle_alpha 90.000000
_cell_angle_beta 90.000000
_cell_angle_gamma 90.000000
_cell_volume 1336.529005
_symmetry_space_group_name_H-M "P M N A"
_symmetry_group_IT_number 53
_symmetry_cell_setting 'orthorhombic'
loop_
_space_group_symop_operation_xyz
x,y,z
1/2-x,-y,1/2+z
x,-y,-z
1/2-x,y,1/2-z
-x,-y,-z
1/2+x,y,1/2-z
-x,y,z
1/2+x,-y,1/2+z
loop_
_atom_site_type_symbol
_atom_site_label
_atom_site_fract_x
_atom_site_fract_y
_atom_site_fract_z
Si Si1 0.359657 0.932189 0.400372
Si Si2 0.149985 0.544638 0.367792
Si Si3 0.654083 0.741056 0.704577
Si Si4 0.800809 0.240600 0.466888
O O1 0.500000 0.788398 0.406437
O O2 0.230039 0.757510 0.399699
O O3 0.360458 0.068512 0.344123
O O4 0.342510 0.138230 0.446395
O O5 0.251052 0.478380 0.320232
O O6 0.138583 0.314590 0.409851
O O7 0.000000 0.615324 0.351081
O O8 0.750000 0.850651 0.750000
O O9 0.500000 0.673141 0.720510
O O10 0.803969 0.500000 0.500000
O O11 0.855507 0.000000 0.500000
#
# Coordination Sequence:
#
# PCOD9419336 Si02
#       4
#     8   8   8   8
#     4  10  23  43  67  98 139 180 233 292 349 420
#     4  11  24  42  67  98 139 183 232 289 349 417
#     4  10  22  42  68  99 135 179 229 287 350 418
#     4  11  23  45  66 105 138 186 238 296 350 412
#
# _framework density 23.942615
#
# number of rings (size 3 to 8) (size 9 to 14) (size 15 to 20)
#    0.000    1.500    2.500    1.500    0.000    9.000 
#    0.000    2.500    0.000    0.000    0.000    0.000 
#    0.000    0.000    0.000    0.000    0.000    0.000 
#
# Total GULP energy -178246.812402 kJ/mol
# GULP energy per Si atom -5570.212888 kJ/mol
# Density = 2.388812 g / cm^3
# Si number density = 23.942615 Si / 1000 Ang^3
#
#
#
# Elastic Constant Matrix: (Units=GPa)
#
#
# Indices 1 2 3 4 5 6 
#
# 1 237.1791 41.8018 37.0565 0.0000 0.0000 0.0000
# 2 41.8018 91.9940 6.5642 0.0000 0.0000 0.0000
# 3 37.0565 6.5642 78.6183 0.0000 0.0000 0.0000
# 4 0.0000 0.0000 0.0000 31.3813 0.0000 0.0000
# 5 0.0000 0.0000 0.0000 0.0000 35.5725 0.0000
# 6 0.0000 0.0000 0.0000 0.0000 0.0000 21.3343
#
#
#
# Elastic Compliance Matrix: (Units=1/GPa)
#
#
# Indices 1 2 3 4 5 6 
#
# 1 0.004918 -0.002082 -0.002144 0.000000 0.000000 0.000000
# 2 -0.002082 0.011817 -0.000005 0.000000 0.000000 0.000000
# 3 -0.002144 -0.000005 0.013731 0.000000 0.000000 0.000000
# 4 0.000000 0.000000 0.000000 0.031866 0.000000 0.000000
# 5 0.000000 0.000000 0.000000 0.000000 0.028112 0.000000
# 6 0.000000 0.000000 0.000000 0.000000 0.000000 0.046873
#
#
# Mechanical properties :
#
#
# Convention : Reuss Voigt Hill
#
# Bulk Modulus (GPa) = 45.44915 64.29293 54.87104
# Shear Modulus (GPa) = 32.65554 39.14888 35.90221
#
# Velocity S-wave (km/s) = 3.69712 4.04804 3.87655
# Velocity P-wave (km/s) = 6.10317 6.98284 6.55777
#
# Compressibility (1/GPa) = 0.02200261
#
# Stress axis : x y z
#
# Youngs Moduli (GPa) = 203.32815 84.62657 72.82869
#
# Poissons Ratio (x) = 0.17617 0.15617
# Poissons Ratio (y) = 0.42329 0.00039
# Poissons Ratio (z) = 0.43600 0.00046
#
# Static dielectric constant tensor:
#      x y z
#    x 2.933740 0.000000 0.000000 
#    y 0.000000 2.009790 0.000000 
#    z 0.000000 0.000000 1.978860 
# 
# From -- ./inp_files/37450.got.cif
#   From: 2010.05.17/outbox.cif.g08.bks.cpg/sg53_19_cif.got.tgz:37450.got - 2010.06.03 12:45:16.
