data_PCOD9419795
_publ_section_title
;
Structure prediction by ZEFSAII (Michael W. Deem and Ramdas Pophale) SiO2 
 PCOD9419795
Probable space group: P M N A
;
_chemical_formula_sum "Si O2"
_cell_formula_units_Z 56
_cell_length_a 8.233102
_cell_length_b 16.023925
_cell_length_c 23.540735
_cell_angle_alpha 90.000000
_cell_angle_beta 90.000000
_cell_angle_gamma 90.000000
_cell_volume 3105.649341
_symmetry_space_group_name_H-M "P M N A"
_symmetry_group_IT_number 53
_symmetry_cell_setting 'orthorhombic'
loop_
_space_group_symop_operation_xyz
x,y,z
1/2-x,-y,1/2+z
x,-y,-z
1/2-x,y,1/2-z
-x,-y,-z
1/2+x,y,1/2-z
-x,y,z
1/2+x,-y,1/2+z
loop_
_atom_site_type_symbol
_atom_site_label
_atom_site_fract_x
_atom_site_fract_y
_atom_site_fract_z
Si Si1 0.808384 0.657280 0.394215
Si Si2 0.195870 0.007967 0.684383
Si Si3 0.808571 0.594829 0.988373
Si Si4 0.309968 0.513345 0.313823
Si Si5 0.692085 0.653943 0.868220
Si Si6 0.696398 0.173289 0.184418
Si Si7 0.803466 0.191049 0.684539
O O1 0.720978 0.645830 0.454173
O O2 0.781546 0.573976 0.357276
O O3 0.747652 0.734622 0.356178
O O4 0.000000 0.668095 0.404860
O O5 0.250000 0.007218 0.750000
O O6 0.251130 0.098993 0.663282
O O7 0.000000 0.008350 0.681409
O O8 0.252288 0.917788 0.661627
O O9 0.722377 0.634286 0.934096
O O10 0.000000 0.589949 0.975341
O O11 0.750225 0.500000 0.000000
O O12 0.250000 0.527443 0.250000
O O13 0.500000 0.532025 0.317917
O O14 0.278163 0.418263 0.332092
O O15 0.500000 0.648609 0.856176
O O16 0.751098 0.745815 0.850288
O O17 0.750000 0.181430 0.250000
O O18 0.500000 0.172579 0.183436
O O19 0.750000 0.202699 0.750000
O O20 0.000000 0.192571 0.684730
#
# Coordination Sequence:
#
# PCOD9419795 Si02
#       7
#     8   8   8   8   8   8   8
#     4  11  22  36  55  78 103 135 174 217 260 306
#     4   8  14  28  48  73 106 137 167 204 246 302
#     4  11  23  39  57  76  98 133 179 220 262 308
#     4  12  24  37  52  75 106 140 172 208 258 310
#     4  11  22  36  55  78 103 135 174 217 260 306
#     4   9  18  31  51  79 108 138 170 206 254 306
#     4   9  18  31  51  79 108 138 170 206 254 306
#
# _framework density 18.031656000000002
#
# number of rings (size 3 to 8) (size 9 to 14) (size 15 to 20)
#    0.000    1.857    1.429    3.429    0.000    5.143 
#    0.000    0.000    0.000    0.857    0.000    6.000 
#    0.000    0.000    0.000    0.000    0.000    0.000 
#
# Total GULP energy -312438.297893 kJ/mol
# GULP energy per Si atom -5579.255320 kJ/mol
# Density = 1.799062 g / cm^3
# Si number density = 18.031656 Si / 1000 Ang^3
#
#
#
# Elastic Constant Matrix: (Units=GPa)
#
#
# Indices 1 2 3 4 5 6 
#
# 1 14.5943 1.3768 -4.5100 0.0000 0.0000 0.0000
# 2 1.3768 119.8924 11.0603 0.0000 0.0000 0.0000
# 3 -4.5100 11.0603 48.9706 0.0000 0.0000 0.0000
# 4 0.0000 0.0000 0.0000 9.3957 0.0000 0.0000
# 5 0.0000 0.0000 0.0000 0.0000 22.9351 0.0000
# 6 0.0000 0.0000 0.0000 0.0000 0.0000 5.9540
#
#
#
# Elastic Compliance Matrix: (Units=1/GPa)
#
#
# Indices 1 2 3 4 5 6 
#
# 1 0.070771 -0.001444 0.006844 0.000000 0.000000 0.000000
# 2 -0.001444 0.008548 -0.002064 0.000000 0.000000 0.000000
# 3 0.006844 -0.002064 0.021517 0.000000 0.000000 0.000000
# 4 0.000000 0.000000 0.000000 0.106432 0.000000 0.000000
# 5 0.000000 0.000000 0.000000 0.000000 0.043601 0.000000
# 6 0.000000 0.000000 0.000000 0.000000 0.000000 0.167954
#
#
# Mechanical properties :
#
#
# Convention : Reuss Voigt Hill
#
# Bulk Modulus (GPa) = 9.30165 22.14575 15.72370
# Shear Modulus (GPa) = 11.16105 19.35896 15.26001
#
# Velocity S-wave (km/s) = 2.49061 3.28015 2.91226
# Velocity P-wave (km/s) = 3.66614 5.16276 4.47743
#
# Compressibility (1/GPa) = 0.10750777
#
# Stress axis : x y z
#
# Youngs Moduli (GPa) = 14.13011 116.98967 46.47535
#
# Poissons Ratio (x) = 0.16894 -0.31807
# Poissons Ratio (y) = 0.02040 0.09590
# Poissons Ratio (z) = -0.09670 0.24142
#
# Static dielectric constant tensor:
#      x y z
#    x 1.617860 0.000000 0.000000 
#    y 0.000000 1.667330 0.000000 
#    z 0.000000 0.000000 1.543570 
# 
# From -- ./inp_files/30868.got.cif
#   From: 2010.05.17/outbox.cif.g08.bks.cpg/sg53_16_cif.got.tgz:30868.got - 2010.06.03 12:45:16.
