data_PCOD9419429
_publ_section_title
;
Structure prediction by ZEFSAII (Michael W. Deem and Ramdas Pophale) SiO2 
 PCOD9419429
Probable space group: P M N A
;
_chemical_formula_sum "Si O2"
_cell_formula_units_Z 56
_cell_length_a 16.988979
_cell_length_b 22.200673
_cell_length_c 7.966811
_cell_angle_alpha 90.000000
_cell_angle_beta 90.000000
_cell_angle_gamma 90.000000
_cell_volume 3004.816351
_symmetry_space_group_name_H-M "P M N A"
_symmetry_group_IT_number 53
_symmetry_cell_setting 'orthorhombic'
loop_
_space_group_symop_operation_xyz
x,y,z
1/2-x,-y,1/2+z
x,-y,-z
1/2-x,y,1/2-z
-x,-y,-z
1/2+x,y,1/2-z
-x,y,z
1/2+x,-y,1/2+z
loop_
_atom_site_type_symbol
_atom_site_label
_atom_site_fract_x
_atom_site_fract_y
_atom_site_fract_z
Si Si1 0.594056 0.362556 0.018921
Si Si2 0.843245 0.444597 0.779081
Si Si3 0.094642 0.577627 0.866468
Si Si4 0.770465 0.852215 0.937172
Si Si5 0.816766 0.751535 0.376983
Si Si6 0.319437 0.044758 0.858221
Si Si7 0.407448 0.855232 0.333596
O O1 0.500000 0.358195 0.014845
O O2 0.620192 0.412894 0.883864
O O3 0.632824 0.300949 0.957070
O O4 0.616717 0.379925 0.209778
O O5 0.750000 0.449289 0.750000
O O6 0.880101 0.510636 0.808240
O O7 0.864043 0.410313 0.954067
O O8 0.000000 0.579464 0.890315
O O9 0.750000 0.867060 0.750000
O O10 0.731051 0.788984 0.984672
O O11 0.729128 0.901484 0.054378
O O12 0.861415 0.852055 0.989890
O O13 0.750000 0.727139 0.250000
O O14 0.869596 0.800942 0.277084
O O15 0.250000 0.013144 0.750000
O O16 0.384119 0.080406 0.750147
O O17 0.350841 0.000000 0.000000
O O18 0.500000 0.848514 0.346553
#
# Coordination Sequence:
#
# PCOD9419429 Si02
#       7
#     8   8   8   8   8   8   8
#     4  11  22  38  60  83 113 150 187 231 288 341
#     4  11  23  38  60  85 114 147 186 232 284 343
#     4  10  23  41  60  84 116 148 186 232 286 349
#     4   9  18  35  56  78 107 149 191 229 273 334
#     4   9  19  38  56  81 110 146 190 231 281 337
#     4   9  17  30  54  81 110 149 193 230 275 331
#     4   9  18  34  56  81 115 150 184 233 289 335
#
# _framework density 18.636747
#
# number of rings (size 3 to 8) (size 9 to 14) (size 15 to 20)
#    0.000    2.286    0.000    5.143    4.000    1.429 
#    7.714    3.571    0.000   14.571    0.000    0.000 
#    0.000    0.000    0.000    0.000    0.000    0.000 
#
# Total GULP energy -312403.455029 kJ/mol
# GULP energy per Si atom -5578.633126 kJ/mol
# Density = 1.859433 g / cm^3
# Si number density = 18.636747 Si / 1000 Ang^3
#
#
#
# Elastic Constant Matrix: (Units=GPa)
#
#
# Indices 1 2 3 4 5 6 
#
# 1 113.2957 16.1346 43.8859 0.0000 0.0000 0.0000
# 2 16.1346 42.6939 15.1603 0.0000 0.0000 0.0000
# 3 43.8859 15.1603 105.7807 0.0000 0.0000 0.0000
# 4 0.0000 0.0000 0.0000 -0.4076 0.0000 0.0000
# 5 0.0000 0.0000 0.0000 0.0000 16.8432 0.0000
# 6 0.0000 0.0000 0.0000 0.0000 0.0000 2.5362
#
#
#
# Elastic Compliance Matrix: (Units=1/GPa)
#
#
# Indices 1 2 3 4 5 6 
#
# 1 0.010788 -0.002621 -0.004100 0.000000 0.000000 0.000000
# 2 -0.002621 0.025315 -0.002541 0.000000 0.000000 0.000000
# 3 -0.004100 -0.002541 0.011519 0.000000 0.000000 0.000000
# 4 0.000000 0.000000 0.000000 -2.453209 0.000000 0.000000
# 5 0.000000 0.000000 0.000000 0.000000 0.059371 0.000000
# 6 0.000000 0.000000 0.000000 0.000000 0.000000 0.394284
#
#
# Mechanical properties :
#
#
# Convention : Reuss Voigt Hill
#
# Bulk Modulus (GPa) = 34.36629 45.79244 40.07936
# Shear Modulus (GPa) = -2.59914 16.23365 6.81725
#
# Velocity S-wave (km/s) = -1.18223 2.95457 1.91466
# Velocity P-wave (km/s) = 4.07634 6.02193 5.14200
#
# Compressibility (1/GPa) = 0.02909828
#
# Stress axis : x y z
#
# Youngs Moduli (GPa) = 92.69654 39.50189 86.81569
#
# Poissons Ratio (x) = 0.10353 0.35594
# Poissons Ratio (y) = 0.24296 0.22058
# Poissons Ratio (z) = 0.38006 0.10036
#
# Static dielectric constant tensor:
#      x y z
#    x 1.621780 0.000000 0.000000 
#    y 0.000000 1.643810 0.000000 
#    z 0.000000 0.000000 1.686580 
# 
# From -- ./inp_files/8827.got.cif
#   From: 2010.05.17/outbox.cif.g08.bks.cpg/sg53_5_cif.got.tgz:8827.got - 2010.06.03 12:45:16.
