data_PCOD9419405
_publ_section_title
;
Structure prediction by ZEFSAII (Michael W. Deem and Ramdas Pophale) SiO2 
 PCOD9419405
Probable space group: P M N A
;
_chemical_formula_sum "Si O2"
_cell_formula_units_Z 40
_cell_length_a 16.018847
_cell_length_b 13.761839
_cell_length_c 8.249895
_cell_angle_alpha 90.000000
_cell_angle_beta 90.000000
_cell_angle_gamma 90.000000
_cell_volume 1818.679398
_symmetry_space_group_name_H-M "P M N A"
_symmetry_group_IT_number 53
_symmetry_cell_setting 'orthorhombic'
loop_
_space_group_symop_operation_xyz
x,y,z
1/2-x,-y,1/2+z
x,-y,-z
1/2-x,y,1/2-z
-x,-y,-z
1/2+x,y,1/2-z
-x,y,z
1/2+x,-y,1/2+z
loop_
_atom_site_type_symbol
_atom_site_label
_atom_site_fract_x
_atom_site_fract_y
_atom_site_fract_z
Si Si1 0.000000 0.875717 0.815143
Si Si2 0.092362 0.599859 0.412203
Si Si3 0.158608 0.476340 0.183202
Si Si4 0.340380 0.223454 0.726327
Si Si5 0.000000 0.904316 0.205639
Si Si6 0.160243 0.746660 0.834593
O O1 0.915436 0.816076 0.779284
O O2 0.000000 0.983734 0.742640
O O3 0.000000 0.893980 0.009675
O O4 0.123939 0.500000 0.500000
O O5 0.087207 0.549113 0.238095
O O6 0.149034 0.691304 0.363382
O O7 0.000000 0.625850 0.473078
O O8 0.250000 0.501245 0.250000
O O9 0.141385 0.363849 0.219867
O O10 0.168415 0.500000 0.000000
O O11 0.250000 0.177191 0.750000
O O12 0.417253 0.152367 0.757972
O O13 0.340931 0.253207 0.533618
O O14 0.250000 0.771241 0.750000
#
# Coordination Sequence:
#
# PCOD9419405 Si02
#       6
#     4   8   8   8   4   8
#     4   9  20  42  67  88 128 164 212 281 327 398
#     4  11  24  38  56  87 126 169 211 257 308 377
#     4  11  22  35  56  85 122 165 207 252 308 377
#     4  11  22  40  64  92 128 169 215 269 318 393
#     4   9  20  42  67  93 118 169 223 263 338 393
#     4  10  23  38  61  96 126 167 215 265 326 388
#
# _framework density 21.993980000000001
#
# number of rings (size 3 to 8) (size 9 to 14) (size 15 to 20)
#    0.000    1.600    3.000    1.200    7.000    1.200 
#    0.000    1.000    0.000    1.200    0.000    0.000 
#    0.000    0.000    0.000    0.000    0.000    0.000 
#
# Total GULP energy -222759.518358 kJ/mol
# GULP energy per Si atom -5568.987959 kJ/mol
# Density = 2.194392 g / cm^3
# Si number density = 21.993980 Si / 1000 Ang^3
#
#
#
# Elastic Constant Matrix: (Units=GPa)
#
#
# Indices 1 2 3 4 5 6 
#
# 1 172.6302 73.7487 0.6587 0.0000 0.0000 0.0000
# 2 73.7487 115.5514 -12.7210 0.0000 0.0000 0.0000
# 3 0.6587 -12.7210 15.7393 0.0000 0.0000 0.0000
# 4 0.0000 0.0000 0.0000 19.7243 0.0000 0.0000
# 5 0.0000 0.0000 0.0000 0.0000 19.4330 0.0000
# 6 0.0000 0.0000 0.0000 0.0000 0.0000 10.3810
#
#
#
# Elastic Compliance Matrix: (Units=1/GPa)
#
#
# Indices 1 2 3 4 5 6 
#
# 1 0.008320 -0.005871 -0.005093 0.000000 0.000000 0.000000
# 2 -0.005871 0.013642 0.011272 0.000000 0.000000 0.000000
# 3 -0.005093 0.011272 0.072858 0.000000 0.000000 0.000000
# 4 0.000000 0.000000 0.000000 0.050699 0.000000 0.000000
# 5 0.000000 0.000000 0.000000 0.000000 0.051459 0.000000
# 6 0.000000 0.000000 0.000000 0.000000 0.000000 0.096330
#
#
# Mechanical properties :
#
#
# Convention : Reuss Voigt Hill
#
# Bulk Modulus (GPa) = 10.47827 47.47709 28.97768
# Shear Modulus (GPa) = 15.40805 26.05662 20.73234
#
# Velocity S-wave (km/s) = 2.64968 3.44570 3.07357
# Velocity P-wave (km/s) = 3.75973 6.12077 5.07934
#
# Compressibility (1/GPa) = 0.09543558
#
# Stress axis : x y z
#
# Youngs Moduli (GPa) = 120.18791 73.30222 13.72524
#
# Poissons Ratio (x) = 0.43036 0.06991
# Poissons Ratio (y) = 0.70563 -0.15471
# Poissons Ratio (z) = 0.61216 -0.82624
#
# Static dielectric constant tensor:
#      x y z
#    x 1.937150 0.000000 0.000000 
#    y 0.000000 1.630980 0.000000 
#    z 0.000000 0.000000 1.920720 
# 
# From -- ./inp_files/8448.got.cif
#   From: 2010.05.17/outbox.cif.g08.bks.cpg/sg53_5_cif.got.tgz:8448.got - 2010.06.03 12:45:16.
