data_PCOD9419217
_publ_section_title
;
Structure prediction by ZEFSAII (Michael W. Deem and Ramdas Pophale) SiO2 
 PCOD9419217
Probable space group: P M N A
;
_chemical_formula_sum "Si O2"
_cell_formula_units_Z 28
_cell_length_a 23.962174
_cell_length_b 12.186938
_cell_length_c 5.067173
_cell_angle_alpha 90.000000
_cell_angle_beta 90.000000
_cell_angle_gamma 90.000000
_cell_volume 1479.743875
_symmetry_space_group_name_H-M "P M N A"
_symmetry_group_IT_number 53
_symmetry_cell_setting 'orthorhombic'
loop_
_space_group_symop_operation_xyz
x,y,z
1/2-x,-y,1/2+z
x,-y,-z
1/2-x,y,1/2-z
-x,-y,-z
1/2+x,y,1/2-z
-x,y,z
1/2+x,-y,1/2+z
loop_
_atom_site_type_symbol
_atom_site_label
_atom_site_fract_x
_atom_site_fract_y
_atom_site_fract_z
Si Si1 0.598662 0.251761 0.622640
Si Si2 0.211312 0.870302 0.999588
Si Si3 0.000000 0.080365 0.757056
Si Si4 0.435365 0.625411 0.900744
O O1 0.654725 0.197637 0.515397
O O2 0.553756 0.157960 0.698375
O O3 0.576933 0.338176 0.400207
O O4 0.605748 0.312020 0.901550
O O5 0.250000 0.846832 0.750000
O O6 0.250000 0.848279 0.250000
O O7 0.196996 0.000000 0.000000
O O8 0.000000 0.000000 0.500000
O O9 0.000000 0.000000 0.000000
O O10 0.500000 0.659636 0.949569
O O11 0.432362 0.500000 0.000000
#
# Coordination Sequence:
#
# PCOD9419217 Si02
#       4
#     8   8   4   8
#     4  12  22  40  62  89 125 159 199 255 308 362
#     4  10  22  40  62  87 117 163 211 244 289 361
#     4  12  24  36  55  92 131 158 188 242 318 374
#     4  11  22  39  62  90 122 159 206 249 303 375
#
# _framework density 18.922191999999999
#
# number of rings (size 3 to 8) (size 9 to 14) (size 15 to 20)
#    0.000    0.857    2.857    5.143    0.000    5.714 
#    0.000    0.000    0.000   17.143    0.000    0.000 
#    0.000    0.000    0.000    0.000    0.000    0.000 
#
# Total GULP energy -156223.263724 kJ/mol
# GULP energy per Si atom -5579.402276 kJ/mol
# Density = 1.887912 g / cm^3
# Si number density = 18.922192 Si / 1000 Ang^3
#
#
#
# Elastic Constant Matrix: (Units=GPa)
#
#
# Indices 1 2 3 4 5 6 
#
# 1 95.9584 29.9050 12.1968 0.0000 0.0000 0.0000
# 2 29.9050 54.1158 25.1352 0.0000 0.0000 0.0000
# 3 12.1968 25.1352 136.0996 0.0000 0.0000 0.0000
# 4 0.0000 0.0000 0.0000 45.9757 0.0000 0.0000
# 5 0.0000 0.0000 0.0000 0.0000 65.4442 0.0000
# 6 0.0000 0.0000 0.0000 0.0000 0.0000 23.2534
#
#
#
# Elastic Compliance Matrix: (Units=1/GPa)
#
#
# Indices 1 2 3 4 5 6 
#
# 1 0.012593 -0.007039 0.000171 0.000000 0.000000 0.000000
# 2 -0.007039 0.024147 -0.003829 0.000000 0.000000 0.000000
# 3 0.000171 -0.003829 0.008039 0.000000 0.000000 0.000000
# 4 0.000000 0.000000 0.000000 0.021751 0.000000 0.000000
# 5 0.000000 0.000000 0.000000 0.000000 0.015280 0.000000
# 6 0.000000 0.000000 0.000000 0.000000 0.000000 0.043005
#
#
# Mechanical properties :
#
#
# Convention : Reuss Voigt Hill
#
# Bulk Modulus (GPa) = 42.75845 46.73862 44.74854
# Shear Modulus (GPa) = 32.46709 41.53043 36.99876
#
# Velocity S-wave (km/s) = 4.14674 4.68995 4.42669
# Velocity P-wave (km/s) = 6.75080 7.35402 7.05886
#
# Compressibility (1/GPa) = 0.02338719
#
# Stress axis : x y z
#
# Youngs Moduli (GPa) = 79.40948 41.41328 124.38899
#
# Poissons Ratio (x) = 0.29149 -0.02132
# Poissons Ratio (y) = 0.55893 0.47625
# Poissons Ratio (z) = -0.01361 0.15856
#
# Static dielectric constant tensor:
#      x y z
#    x 1.631830 0.000000 0.000000 
#    y 0.000000 1.650890 0.000000 
#    z 0.000000 0.000000 1.650990 
# 
# From -- ./inp_files/2561.got.cif
#   From: 2010.05.17/outbox.cif.g08.bks.cpg/sg53_2_cif.got.tgz:2561.got - 2010.06.03 12:45:16.
