data_PCOD9419522
_publ_section_title
;
Structure prediction by ZEFSAII (Michael W. Deem and Ramdas Pophale) SiO2 
 PCOD9419522
Probable space group: P M N A
;
_chemical_formula_sum "Si O2"
_cell_formula_units_Z 28
_cell_length_a 16.363486
_cell_length_b 8.333227
_cell_length_c 8.367051
_cell_angle_alpha 90.000000
_cell_angle_beta 90.000000
_cell_angle_gamma 90.000000
_cell_volume 1140.936457
_symmetry_space_group_name_H-M "P M N A"
_symmetry_group_IT_number 53
_symmetry_cell_setting 'orthorhombic'
loop_
_space_group_symop_operation_xyz
x,y,z
1/2-x,-y,1/2+z
x,-y,-z
1/2-x,y,1/2-z
-x,-y,-z
1/2+x,y,1/2-z
-x,y,z
1/2+x,-y,1/2+z
loop_
_atom_site_type_symbol
_atom_site_label
_atom_site_fract_x
_atom_site_fract_y
_atom_site_fract_z
Si Si1 0.905555 0.061768 0.237094
Si Si2 0.196394 0.842227 0.058989
Si Si3 0.250000 0.439307 0.750000
Si Si4 0.090590 0.389114 0.344589
O O1 0.897618 0.197895 0.371628
O O2 0.000000 0.016322 0.225473
O O3 0.849722 0.904509 0.219626
O O4 0.873502 0.159493 0.078349
O O5 0.240880 0.679315 0.097445
O O6 0.245674 0.000000 0.000000
O O7 0.331182 0.543435 0.753833
O O8 0.086874 0.500000 0.500000
O O9 0.000000 0.402165 0.266629
#
# Coordination Sequence:
#
# PCOD9419522 Si02
#       4
#     8   8   4   8
#     4   8  17  39  64  85 119 159 205 263 306 365
#     4   8  20  36  59  90 113 159 207 256 303 362
#     4  12  24  36  62  92 122 164 202 252 310 380
#     4  10  24  41  60  90 128 164 203 255 318 376
#
# _framework density 24.541246000000001
#
# number of rings (size 3 to 8) (size 9 to 14) (size 15 to 20)
#    1.714    0.857    0.000    1.714    4.000    5.714 
#    0.000    2.857    0.000    6.000    0.000    0.000 
#    0.000    0.000    0.000    0.000    0.000    0.000 
#
# Total GULP energy -155942.527887 kJ/mol
# GULP energy per Si atom -5569.375996 kJ/mol
# Density = 2.448539 g / cm^3
# Si number density = 24.541246 Si / 1000 Ang^3
#
#
#
# Elastic Constant Matrix: (Units=GPa)
#
#
# Indices 1 2 3 4 5 6 
#
# 1 160.3759 65.2359 13.6682 0.0000 0.0000 0.0000
# 2 65.2359 97.8269 -6.7201 0.0000 0.0000 0.0000
# 3 13.6682 -6.7201 30.5525 0.0000 0.0000 0.0000
# 4 0.0000 0.0000 0.0000 45.8924 0.0000 0.0000
# 5 0.0000 0.0000 0.0000 0.0000 17.3704 0.0000
# 6 0.0000 0.0000 0.0000 0.0000 0.0000 21.9210
#
#
#
# Elastic Compliance Matrix: (Units=1/GPa)
#
#
# Indices 1 2 3 4 5 6 
#
# 1 0.009441 -0.006687 -0.005694 0.000000 0.000000 0.000000
# 2 -0.006687 0.015115 0.006316 0.000000 0.000000 0.000000
# 3 -0.005694 0.006316 0.036667 0.000000 0.000000 0.000000
# 4 0.000000 0.000000 0.000000 0.021790 0.000000 0.000000
# 5 0.000000 0.000000 0.000000 0.000000 0.057569 0.000000
# 6 0.000000 0.000000 0.000000 0.000000 0.000000 0.045618
#
#
# Mechanical properties :
#
#
# Convention : Reuss Voigt Hill
#
# Bulk Modulus (GPa) = 20.36950 48.12480 34.24715
# Shear Modulus (GPa) = 23.28896 31.47485 27.38190
#
# Velocity S-wave (km/s) = 3.08388 3.58513 3.34391
# Velocity P-wave (km/s) = 4.58242 6.06546 5.37533
#
# Compressibility (1/GPa) = 0.04909301
#
# Stress axis : x y z
#
# Youngs Moduli (GPa) = 105.92636 66.15975 27.27243
#
# Poissons Ratio (x) = 0.44238 0.15529
# Poissons Ratio (y) = 0.70828 -0.17225
# Poissons Ratio (z) = 0.60316 -0.41786
#
# Static dielectric constant tensor:
#      x y z
#    x 1.954900 0.000000 0.000000 
#    y 0.000000 1.929110 0.000000 
#    z 0.000000 0.000000 2.117470 
# 
# From -- ./inp_files/9399.got.cif
#   From: 2010.05.17/outbox.cif.g08.bks.cpg/sg53_5_cif.got.tgz:9399.got - 2010.06.03 12:45:16.
