data_PCOD9419858
_publ_section_title
;
Structure prediction by ZEFSAII (Michael W. Deem and Ramdas Pophale) SiO2 
 PCOD9419858
Probable space group: P M N A
;
_chemical_formula_sum "Si O2"
_cell_formula_units_Z 58
_cell_length_a 29.566456
_cell_length_b 8.753914
_cell_length_c 11.626518
_cell_angle_alpha 90.000000
_cell_angle_beta 90.000000
_cell_angle_gamma 90.000000
_cell_volume 3009.201120
_symmetry_space_group_name_H-M "P M N A"
_symmetry_group_IT_number 53
_symmetry_cell_setting 'orthorhombic'
loop_
_space_group_symop_operation_xyz
x,y,z
1/2-x,-y,1/2+z
x,-y,-z
1/2-x,y,1/2-z
-x,-y,-z
1/2+x,y,1/2-z
-x,y,z
1/2+x,-y,1/2+z
loop_
_atom_site_type_symbol
_atom_site_label
_atom_site_fract_x
_atom_site_fract_y
_atom_site_fract_z
Si Si1 0.338976 0.799510 0.088914
Si Si2 0.552476 0.070686 0.316473
Si Si3 0.235486 0.825697 0.041005
Si Si4 0.364440 0.142390 0.156582
Si Si5 0.071041 0.241670 0.943672
Si Si6 0.337981 0.675504 0.325893
Si Si7 0.500000 0.500000 0.500000
Si Si8 0.297739 0.658424 0.684740
O O1 0.286148 0.769466 0.064399
O O2 0.354647 0.698600 0.195521
O O3 0.343948 0.974918 0.130445
O O4 0.365414 0.780189 0.969221
O O5 0.500000 0.101527 0.288950
O O6 0.587445 0.115383 0.217075
O O7 0.565555 0.168263 0.429685
O O8 0.557552 0.894054 0.355405
O O9 0.202782 0.794206 0.148551
O O10 0.213292 0.734414 0.936533
O O11 0.237572 0.000000 0.000000
O O12 0.331461 0.236842 0.240149
O O13 0.121777 0.287913 0.912786
O O14 0.039120 0.387965 0.943481
O O15 0.319219 0.506161 0.336365
O O16 0.250000 0.642464 0.750000
#
# Coordination Sequence:
#
# PCOD9419858 Si02
#       8
#     8   8   8   8   8   8   2   8
#     4  11  22  45  61  89 129 177 221 265 321 387
#     4  11  22  45  70 100 128 166 220 288 343 397
#     4  12  23  39  63  92 127 174 225 270 320 386
#     4  11  23  42  68  91 127 174 229 272 328 398
#     4  11  24  42  66  99 134 166 214 271 348 402
#     4  12  27  38  63  96 135 174 218 274 329 399
#     4  12  24  42  68  96 136 168 204 262 358 422
#     4  12  24  42  61  96 136 178 223 273 333 398
#
# _framework density 19.274218999999999
#
# number of rings (size 3 to 8) (size 9 to 14) (size 15 to 20)
#    0.000    0.552    5.517    3.724    5.793    0.552 
#    0.000    1.379    1.517    0.000    0.000    1.931 
#    0.000    0.000    0.000    0.000    0.000    0.000 
#
# Total GULP energy -323808.334465 kJ/mol
# GULP energy per Si atom -5582.902318 kJ/mol
# Density = 1.923035 g / cm^3
# Si number density = 19.274219 Si / 1000 Ang^3
#
#
#
# Elastic Constant Matrix: (Units=GPa)
#
#
# Indices 1 2 3 4 5 6 
#
# 1 162.6498 38.1850 59.2468 0.0000 0.0000 0.0000
# 2 38.1850 45.8010 6.7803 0.0000 0.0000 0.0000
# 3 59.2468 6.7803 72.7322 0.0000 0.0000 0.0000
# 4 0.0000 0.0000 0.0000 19.1572 0.0000 0.0000
# 5 0.0000 0.0000 0.0000 0.0000 23.0598 0.0000
# 6 0.0000 0.0000 0.0000 0.0000 0.0000 28.0140
#
#
#
# Elastic Compliance Matrix: (Units=1/GPa)
#
#
# Indices 1 2 3 4 5 6 
#
# 1 0.011017 -0.007966 -0.008232 0.000000 0.000000 0.000000
# 2 -0.007966 0.027900 0.003888 0.000000 0.000000 0.000000
# 3 -0.008232 0.003888 0.020092 0.000000 0.000000 0.000000
# 4 0.000000 0.000000 0.000000 0.052200 0.000000 0.000000
# 5 0.000000 0.000000 0.000000 0.000000 0.043366 0.000000
# 6 0.000000 0.000000 0.000000 0.000000 0.000000 0.035696
#
#
# Mechanical properties :
#
#
# Convention : Reuss Voigt Hill
#
# Bulk Modulus (GPa) = 29.07870 54.40080 41.73975
# Shear Modulus (GPa) = 22.08948 25.84426 23.96687
#
# Velocity S-wave (km/s) = 3.38903 3.66576 3.53011
# Velocity P-wave (km/s) = 5.51667 6.79728 6.19018
#
# Compressibility (1/GPa) = 0.03438943
#
# Stress axis : x y z
#
# Youngs Moduli (GPa) = 90.77005 35.84276 49.77133
#
# Poissons Ratio (x) = 0.28554 0.40970
# Poissons Ratio (y) = 0.72311 -0.19353
# Poissons Ratio (z) = 0.74718 -0.13937
#
# Static dielectric constant tensor:
#      x y z
#    x 1.652590 0.000000 0.000000 
#    y 0.000000 1.670610 0.000000 
#    z 0.000000 0.000000 1.697330 
# 
# From -- ./inp_files/18783.got.cif
#   From: 2010.05.17/outbox.cif.g08.bks.cpg/sg53_10_cif.got.tgz:18783.got - 2010.06.03 12:45:16.
