data_PCOD9419296
_publ_section_title
;
Structure prediction by ZEFSAII (Michael W. Deem and Ramdas Pophale) SiO2 
 PCOD9419296
Probable space group: P M N A
;
_chemical_formula_sum "Si O2"
_cell_formula_units_Z 48
_cell_length_a 15.681785
_cell_length_b 15.086793
_cell_length_c 8.717160
_cell_angle_alpha 90.000000
_cell_angle_beta 90.000000
_cell_angle_gamma 90.000000
_cell_volume 2062.374092
_symmetry_space_group_name_H-M "P M N A"
_symmetry_group_IT_number 53
_symmetry_cell_setting 'orthorhombic'
loop_
_space_group_symop_operation_xyz
x,y,z
1/2-x,-y,1/2+z
x,-y,-z
1/2-x,y,1/2-z
-x,-y,-z
1/2+x,y,1/2-z
-x,y,z
1/2+x,-y,1/2+z
loop_
_atom_site_type_symbol
_atom_site_label
_atom_site_fract_x
_atom_site_fract_y
_atom_site_fract_z
Si Si1 0.834513 0.468271 0.674364
Si Si2 0.099138 0.186532 0.388703
Si Si3 0.739416 0.170005 0.600854
Si Si4 0.905843 0.692381 0.175109
Si Si5 0.594566 0.089344 0.400979
Si Si6 0.096606 0.358429 0.180527
O O1 0.828763 0.500000 0.500000
O O2 0.750000 0.429077 0.750000
O O3 0.899772 0.388636 0.705111
O O4 0.850703 0.556795 0.771140
O O5 0.170816 0.189002 0.518702
O O6 0.104337 0.097912 0.282771
O O7 0.118406 0.269220 0.273651
O O8 0.000000 0.194756 0.440473
O O9 0.750000 0.106864 0.750000
O O10 0.675518 0.243406 0.676998
O O11 0.677265 0.134929 0.469807
O O12 0.000000 0.734352 0.193664
O O13 0.900885 0.654614 0.001427
O O14 0.500000 0.133456 0.424900
O O15 0.589718 0.000000 0.500000
O O16 0.000000 0.380083 0.225140
#
# Coordination Sequence:
#
# PCOD9419296 Si02
#       6
#     8   8   8   8   8   8
#     4  12  27  41  61  93 133 184 240 299 353 414
#     4  10  23  44  72 105 140 187 235 286 352 423
#     4  12  26  40  67 104 144 185 230 285 351 417
#     4  11  24  44  66  93 134 181 237 292 354 418
#     4  10  22  45  75 105 138 181 231 282 344 417
#     4  10  22  41  66  92 126 175 230 288 355 412
#
# _framework density 23.274146999999999
#
# number of rings (size 3 to 8) (size 9 to 14) (size 15 to 20)
#    0.000    1.167    1.667    3.500    7.000    5.333 
#    0.000    0.000    0.000    3.500    0.000    0.000 
#    0.000    0.000    0.000    0.000    0.000    0.000 
#
# Total GULP energy -267765.364396 kJ/mol
# GULP energy per Si atom -5578.445092 kJ/mol
# Density = 2.322117 g / cm^3
# Si number density = 23.274147 Si / 1000 Ang^3
#
#
#
# Elastic Constant Matrix: (Units=GPa)
#
#
# Indices 1 2 3 4 5 6 
#
# 1 162.7725 26.9346 62.2414 0.0000 0.0000 0.0000
# 2 26.9346 44.7506 16.7604 0.0000 0.0000 0.0000
# 3 62.2414 16.7604 131.8622 0.0000 0.0000 0.0000
# 4 0.0000 0.0000 0.0000 -0.6648 0.0000 0.0000
# 5 0.0000 0.0000 0.0000 0.0000 30.6407 0.0000
# 6 0.0000 0.0000 0.0000 0.0000 0.0000 12.1553
#
#
#
# Elastic Compliance Matrix: (Units=1/GPa)
#
#
# Indices 1 2 3 4 5 6 
#
# 1 0.008006 -0.003574 -0.003325 0.000000 0.000000 0.000000
# 2 -0.003574 0.025058 -0.001498 0.000000 0.000000 0.000000
# 3 -0.003325 -0.001498 0.009344 0.000000 0.000000 0.000000
# 4 0.000000 0.000000 0.000000 -1.504117 0.000000 0.000000
# 5 0.000000 0.000000 0.000000 0.000000 0.032636 0.000000
# 6 0.000000 0.000000 0.000000 0.000000 0.000000 0.082269
#
#
# Mechanical properties :
#
#
# Convention : Reuss Voigt Hill
#
# Bulk Modulus (GPa) = 39.04040 61.25092 50.14566
# Shear Modulus (GPa) = -3.78366 23.98948 10.10291
#
# Velocity S-wave (km/s) = -1.27641 3.21399 2.08573
# Velocity P-wave (km/s) = 3.82600 6.33619 5.23381
#
# Compressibility (1/GPa) = 0.02561449
#
# Stress axis : x y z
#
# Youngs Moduli (GPa) = 124.90234 39.90728 107.02606
#
# Poissons Ratio (x) = 0.14261 0.35585
# Poissons Ratio (y) = 0.44635 0.16035
# Poissons Ratio (z) = 0.41529 0.05979
#
# Static dielectric constant tensor:
#      x y z
#    x 1.954630 0.000000 0.000000 
#    y 0.000000 1.921210 0.000000 
#    z 0.000000 0.000000 2.014700 
# 
# From -- ./inp_files/8694.got.cif
#   From: 2010.05.17/outbox.cif.g08.bks.cpg/sg53_5_cif.got.tgz:8694.got - 2010.06.03 12:45:16.
