data_PCOD9419678
_publ_section_title
;
Structure prediction by ZEFSAII (Michael W. Deem and Ramdas Pophale) SiO2 
 PCOD9419678
Probable space group: P M N A
;
_chemical_formula_sum "Si O2"
_cell_formula_units_Z 64
_cell_length_a 7.548505
_cell_length_b 17.791908
_cell_length_c 24.543763
_cell_angle_alpha 90.000000
_cell_angle_beta 90.000000
_cell_angle_gamma 90.000000
_cell_volume 3296.283981
_symmetry_space_group_name_H-M "P M N A"
_symmetry_group_IT_number 53
_symmetry_cell_setting 'orthorhombic'
loop_
_space_group_symop_operation_xyz
x,y,z
1/2-x,-y,1/2+z
x,-y,-z
1/2-x,y,1/2-z
-x,-y,-z
1/2+x,y,1/2-z
-x,y,z
1/2+x,-y,1/2+z
loop_
_atom_site_type_symbol
_atom_site_label
_atom_site_fract_x
_atom_site_fract_y
_atom_site_fract_z
Si Si1 0.283339 0.327569 0.973266
Si Si2 0.202011 0.523938 0.415208
Si Si3 0.286995 0.244909 0.185881
Si Si4 0.283164 0.355210 0.092760
Si Si5 0.211898 0.919889 0.685471
Si Si6 0.211379 0.233016 0.628520
Si Si7 0.792551 0.615403 0.187656
Si Si8 0.786574 0.083666 0.685453
O O1 0.500000 0.328974 0.970115
O O2 0.221147 0.410292 0.953328
O O3 0.221914 0.266514 0.928945
O O4 0.235470 0.315522 0.035807
O O5 0.281130 0.441176 0.411347
O O6 0.200079 0.560780 0.355319
O O7 0.000000 0.513297 0.434317
O O8 0.250000 0.256641 0.250000
O O9 0.500000 0.243036 0.181233
O O10 0.221460 0.309784 0.145639
O O11 0.220442 0.161958 0.167645
O O12 0.500000 0.357618 0.095602
O O13 0.250000 0.920601 0.750000
O O14 0.000000 0.919806 0.676975
O O15 0.279499 0.001327 0.666358
O O16 0.242315 0.299357 0.672119
O O17 0.282358 0.154382 0.651164
O O18 0.000000 0.224381 0.622700
O O19 0.750000 0.599457 0.250000
O O20 0.000000 0.606541 0.178467
O O21 0.750000 0.093201 0.750000
O O22 0.000000 0.082771 0.680509
#
# Coordination Sequence:
#
# PCOD9419678 Si02
#       8
#     8   8   8   8   8   8   8   8
#     4   8  14  26  45  66  86 110 144 183 217 253
#     4   9  17  30  47  66  86 111 147 187 221 254
#     4   9  17  29  45  65  89 114 141 176 218 262
#     4   9  16  27  47  70  86 108 146 185 217 256
#     4   8  14  25  40  59  85 114 141 172 211 253
#     4   9  17  29  45  65  88 115 147 181 214 251
#     4  11  21  32  45  62  89 121 148 176 216 264
#     4   9  16  25  40  63  88 114 144 176 211 252
#
# _framework density 19.415803
#
# number of rings (size 3 to 8) (size 9 to 14) (size 15 to 20)
#    0.000    3.000    0.000    2.625    0.000    3.500 
#    0.000    1.875    0.000    9.750    0.000    5.250 
#    0.000    0.000    0.000   22.875    0.000   17.750 
#
# Total GULP energy -356602.148917 kJ/mol
# GULP energy per Si atom -5571.908577 kJ/mol
# Density = 1.937161 g / cm^3
# Si number density = 19.415803 Si / 1000 Ang^3
#
#
#
# Elastic Constant Matrix: (Units=GPa)
#
#
# Indices 1 2 3 4 5 6 
#
# 1 44.4374 19.2496 3.2038 0.0000 0.0000 0.0000
# 2 19.2496 117.6917 65.1261 0.0000 0.0000 0.0000
# 3 3.2038 65.1261 111.0882 0.0000 0.0000 0.0000
# 4 0.0000 0.0000 0.0000 17.1444 0.0000 0.0000
# 5 0.0000 0.0000 0.0000 0.0000 7.2852 0.0000
# 6 0.0000 0.0000 0.0000 0.0000 0.0000 -2.4375
#
#
#
# Elastic Compliance Matrix: (Units=1/GPa)
#
#
# Indices 1 2 3 4 5 6 
#
# 1 0.024661 -0.005388 0.002447 0.000000 0.000000 0.000000
# 2 -0.005388 0.013754 -0.007908 0.000000 0.000000 0.000000
# 3 0.002447 -0.007908 0.013567 0.000000 0.000000 0.000000
# 4 0.000000 0.000000 0.000000 0.058328 0.000000 0.000000
# 5 0.000000 0.000000 0.000000 0.000000 0.137264 0.000000
# 6 0.000000 0.000000 0.000000 0.000000 0.000000 -0.410257
#
#
# Mechanical properties :
#
#
# Convention : Reuss Voigt Hill
#
# Bulk Modulus (GPa) = 33.01897 49.81958 41.41927
# Shear Modulus (GPa) = -38.19997 16.77428 -10.71284
#
# Velocity S-wave (km/s) = -4.44043 2.94249 -2.35150
# Velocity P-wave (km/s) = 3.04084 6.10404 3.74250
#
# Compressibility (1/GPa) = 0.03028562
#
# Stress axis : x y z
#
# Youngs Moduli (GPa) = 40.54977 72.70625 73.70629
#
# Poissons Ratio (x) = 0.39173 -0.18039
# Poissons Ratio (y) = 0.21848 0.58287
# Poissons Ratio (z) = -0.09924 0.57496
#
# Static dielectric constant tensor:
#      x y z
#    x 1.747950 0.000000 0.000000 
#    y 0.000000 1.724940 0.000000 
#    z 0.000000 0.000000 1.649930 
# 
# From -- ./inp_files/34458.got.cif
#   From: 2010.05.17/outbox.cif.g08.bks.cpg/sg53_18_cif.got.tgz:34458.got - 2010.06.03 12:45:16.
