data_PCOD9419750
_publ_section_title
;
Structure prediction by ZEFSAII (Michael W. Deem and Ramdas Pophale) SiO2 
 PCOD9419750
Probable space group: P M N A
;
_chemical_formula_sum "Si O2"
_cell_formula_units_Z 56
_cell_length_a 14.635874
_cell_length_b 9.587107
_cell_length_c 21.575110
_cell_angle_alpha 90.000000
_cell_angle_beta 90.000000
_cell_angle_gamma 90.000000
_cell_volume 3027.326448
_symmetry_space_group_name_H-M "P M N A"
_symmetry_group_IT_number 53
_symmetry_cell_setting 'orthorhombic'
loop_
_space_group_symop_operation_xyz
x,y,z
1/2-x,-y,1/2+z
x,-y,-z
1/2-x,y,1/2-z
-x,-y,-z
1/2+x,y,1/2-z
-x,y,z
1/2+x,-y,1/2+z
loop_
_atom_site_type_symbol
_atom_site_label
_atom_site_fract_x
_atom_site_fract_y
_atom_site_fract_z
Si Si1 0.104887 0.463828 0.615742
Si Si2 0.395630 0.084940 0.250000
Si Si3 0.250000 0.242697 0.578593
Si Si4 0.250000 0.677962 0.935477
Si Si5 0.250000 0.955848 0.854421
Si Si6 0.140009 0.586538 0.750000
Si Si7 0.604887 0.463828 0.615741
O O1 0.161630 0.322371 0.606025
O O2 0.162200 0.581105 0.578461
O O3 0.109262 0.509901 0.687610
O O4 0.000000 0.454035 0.595981
O O5 0.500000 0.037320 0.250000
O O6 0.393111 0.253885 0.250000
O O7 0.338222 0.037407 0.309795
O O8 0.338221 0.037408 0.190205
O O9 0.249999 0.268015 0.505222
O O10 0.250000 0.082749 0.598019
O O11 0.338370 0.322371 0.606024
O O12 0.162200 0.581105 0.921541
O O13 0.249999 0.807512 0.888698
O O14 0.250000 0.590656 0.750000
O O15 0.109263 0.509902 0.812391
O O16 0.500000 0.454035 0.595980
#
# Coordination Sequence:
#
# PCOD9419750 Si02
#       7
#     8   8   8   8   8   8   8
#     4  11  22  39  65  92 119 154 200 252 302 351
#     4  11  21  38  64  91 116 150 197 250 301 352
#     4  11  26  40  57  86 131 162 196 241 297 357
#     4  11  22  41  63  87 116 166 208 243 284 347
#     4  11  23  41  62  89 122 156 199 244 296 360
#     4  12  18  37  66  94 117 148 198 255 305 351
#     4  11  22  39  65  92 119 154 200 252 302 351
#
# _framework density 18.498169999999998
#
# number of rings (size 3 to 8) (size 9 to 14) (size 15 to 20)
#    0.000    0.857    7.143    3.429    0.000    5.714 
#    0.000    0.000    0.000    5.143    0.000    0.000 
#    0.000    0.000    0.000    0.000    0.000    0.000 
#
# Total GULP energy -313078.843167 kJ/mol
# GULP energy per Si atom -5590.693628 kJ/mol
# Density = 1.845607 g / cm^3
# Si number density = 18.498170 Si / 1000 Ang^3
#
#
#
# Elastic Constant Matrix: (Units=GPa)
#
#
# Indices 1 2 3 4 5 6 
#
# 1 177.4286 23.0589 11.5346 0.0000 0.0000 0.0000
# 2 23.0589 53.5032 -13.8831 0.0000 0.0000 0.0000
# 3 11.5346 -13.8831 65.6423 0.0000 0.0000 0.0000
# 4 0.0000 0.0000 0.0000 8.7461 0.0000 0.0000
# 5 0.0000 0.0000 0.0000 0.0000 -7.9770 0.0000
# 6 0.0000 0.0000 0.0000 0.0000 0.0000 3.7648
#
#
#
# Elastic Compliance Matrix: (Units=1/GPa)
#
#
# Indices 1 2 3 4 5 6 
#
# 1 0.006152 -0.003102 -0.001737 0.000000 0.000000 0.000000
# 2 -0.003102 0.021340 0.005058 0.000000 0.000000 0.000000
# 3 -0.001737 0.005058 0.016609 0.000000 0.000000 0.000000
# 4 0.000000 0.000000 0.000000 0.114336 0.000000 0.000000
# 5 0.000000 0.000000 0.000000 0.000000 -0.125361 0.000000
# 6 0.000000 0.000000 0.000000 0.000000 0.000000 0.265615
#
#
# Mechanical properties :
#
#
# Convention : Reuss Voigt Hill
#
# Bulk Modulus (GPa) = 22.45193 37.55497 30.00345
# Shear Modulus (GPa) = 15.96933 19.29772 17.63352
#
# Velocity S-wave (km/s) = 2.94137 3.23340 3.09084
# Velocity P-wave (km/s) = 4.86819 5.85542 5.38448
#
# Compressibility (1/GPa) = 0.04453959
#
# Stress axis : x y z
#
# Youngs Moduli (GPa) = 162.54412 46.86019 60.20761
#
# Poissons Ratio (x) = 0.14537 0.10459
# Poissons Ratio (y) = 0.50425 -0.30456
# Poissons Ratio (z) = 0.28237 -0.23704
#
# Static dielectric constant tensor:
#      x y z
#    x 1.639230 0.000000 0.000000 
#    y 0.000000 1.605480 0.000000 
#    z 0.000000 0.000000 1.634640 
# 
# From -- ./inp_files/32444.got.cif
#   From: 2010.05.17/outbox.cif.g08.bks.cpg/sg53_17_cif.got.tgz:32444.got - 2010.06.03 12:45:16.
