data_PCOD9419443
_publ_section_title
;
Structure prediction by ZEFSAII (Michael W. Deem and Ramdas Pophale) SiO2 
 PCOD9419443
Probable space group: P M N A
;
_chemical_formula_sum "Si O2"
_cell_formula_units_Z 40
_cell_length_a 19.007653
_cell_length_b 16.984354
_cell_length_c 5.953159
_cell_angle_alpha 90.000000
_cell_angle_beta 90.000000
_cell_angle_gamma 90.000000
_cell_volume 1921.874437
_symmetry_space_group_name_H-M "P M N A"
_symmetry_group_IT_number 53
_symmetry_cell_setting 'orthorhombic'
loop_
_space_group_symop_operation_xyz
x,y,z
1/2-x,-y,1/2+z
x,-y,-z
1/2-x,y,1/2-z
-x,-y,-z
1/2+x,y,1/2-z
-x,y,z
1/2+x,-y,1/2+z
loop_
_atom_site_type_symbol
_atom_site_label
_atom_site_fract_x
_atom_site_fract_y
_atom_site_fract_z
Si Si1 0.820153 0.788855 0.375275
Si Si2 0.176740 0.061330 0.329579
Si Si3 0.919355 0.847735 0.992909
Si Si4 0.080928 0.306642 0.326053
Si Si5 0.667974 0.542093 0.747626
O O1 0.750000 0.762409 0.250000
O O2 0.800823 0.856607 0.552903
O O3 0.863901 0.718811 0.483673
O O4 0.874297 0.831331 0.211030
O O5 0.250000 0.023449 0.250000
O O6 0.121192 0.085458 0.143683
O O7 0.143295 0.000000 0.500000
O O8 0.917801 0.766422 0.848379
O O9 0.000000 0.867240 0.038740
O O10 0.112053 0.387292 0.233947
O O11 0.000000 0.314587 0.403157
O O12 0.660826 0.500000 0.500000
O O13 0.750000 0.568772 0.750000
O O14 0.657618 0.500000 0.000000
#
# Coordination Sequence:
#
# PCOD9419443 Si02
#       5
#     8   8   8   8   8
#     4  11  22  38  66  94 123 169 218 269 326 389
#     4  11  23  39  62  92 125 167 218 267 321 392
#     4  10  23  42  62  94 130 162 209 269 329 390
#     4  10  24  41  64  94 129 169 213 270 328 393
#     4  10  24  43  66  99 136 176 225 278 334 402
#
# _framework density 20.813013000000002
#
# number of rings (size 3 to 8) (size 9 to 14) (size 15 to 20)
#    0.000    1.600    2.000    1.200    5.600    2.800 
#    0.000    1.000    0.000    0.000    0.000    0.000 
#    0.000    0.000    0.000    0.000    0.000    0.000 
#
# Total GULP energy -223210.994391 kJ/mol
# GULP energy per Si atom -5580.274860 kJ/mol
# Density = 2.076564 g / cm^3
# Si number density = 20.813013 Si / 1000 Ang^3
#
#
#
# Elastic Constant Matrix: (Units=GPa)
#
#
# Indices 1 2 3 4 5 6 
#
# 1 121.3110 32.0065 46.8545 0.0000 0.0000 0.0000
# 2 32.0065 54.6050 15.4874 0.0000 0.0000 0.0000
# 3 46.8545 15.4874 89.6326 0.0000 0.0000 0.0000
# 4 0.0000 0.0000 0.0000 29.1023 0.0000 0.0000
# 5 0.0000 0.0000 0.0000 0.0000 15.5840 0.0000
# 6 0.0000 0.0000 0.0000 0.0000 0.0000 -142.3035
#
#
#
# Elastic Compliance Matrix: (Units=1/GPa)
#
#
# Indices 1 2 3 4 5 6 
#
# 1 0.011654 -0.005366 -0.005165 0.000000 0.000000 0.000000
# 2 -0.005366 0.021728 -0.000949 0.000000 0.000000 0.000000
# 3 -0.005165 -0.000949 0.014020 0.000000 0.000000 0.000000
# 4 0.000000 0.000000 0.000000 0.034362 0.000000 0.000000
# 5 0.000000 0.000000 0.000000 0.000000 0.064169 0.000000
# 6 0.000000 0.000000 0.000000 0.000000 0.000000 -0.007027
#
#
# Mechanical properties :
#
#
# Convention : Reuss Voigt Hill
#
# Bulk Modulus (GPa) = 40.91294 50.47170 45.69232
# Shear Modulus (GPa) = 29.40962 -8.11009 10.64976
#
# Velocity S-wave (km/s) = 3.76312 -1.97613 2.26451
# Velocity P-wave (km/s) = 6.21140 4.36989 5.37017
#
# Compressibility (1/GPa) = 0.02444214
#
# Stress axis : x y z
#
# Youngs Moduli (GPa) = 85.80870 46.02389 71.32416
#
# Poissons Ratio (x) = 0.24696 0.36837
# Poissons Ratio (y) = 0.46045 0.06771
# Poissons Ratio (z) = 0.44318 0.04369
#
# Static dielectric constant tensor:
#      x y z
#    x 1.696690 0.000000 0.000000 
#    y 0.000000 1.753200 0.000000 
#    z 0.000000 0.000000 1.855010 
# 
# From -- ./inp_files/2083.got.cif
#   From: 2010.05.17/outbox.cif.g08.bks.cpg/sg53_2_cif.got.tgz:2083.got - 2010.06.03 12:45:16.
