data_PCOD9419235
_publ_section_title
;
Structure prediction by ZEFSAII (Michael W. Deem and Ramdas Pophale) SiO2 
 PCOD9419235
Probable space group: P M N A
;
_chemical_formula_sum "Si O2"
_cell_formula_units_Z 32
_cell_length_a 13.599504
_cell_length_b 9.430440
_cell_length_c 13.121345
_cell_angle_alpha 90.000000
_cell_angle_beta 90.000000
_cell_angle_gamma 90.000000
_cell_volume 1682.803397
_symmetry_space_group_name_H-M "P M N A"
_symmetry_group_IT_number 53
_symmetry_cell_setting 'orthorhombic'
loop_
_space_group_symop_operation_xyz
x,y,z
1/2-x,-y,1/2+z
x,-y,-z
1/2-x,y,1/2-z
-x,-y,-z
1/2+x,y,1/2-z
-x,y,z
1/2+x,-y,1/2+z
loop_
_atom_site_type_symbol
_atom_site_label
_atom_site_fract_x
_atom_site_fract_y
_atom_site_fract_z
Si Si1 0.388312 0.011995 0.621934
Si Si2 0.750000 0.183006 0.250000
Si Si3 0.614266 0.661753 0.387124
Si Si4 0.263281 0.500000 0.000000
Si Si5 0.116227 0.556145 0.700039
O O1 0.500000 0.970728 0.654942
O O2 0.302814 0.916874 0.668201
O O3 0.386747 0.000000 0.500000
O O4 0.373409 0.177385 0.649688
O O5 0.835493 0.290664 0.284088
O O6 0.500000 0.646282 0.418637
O O7 0.687284 0.629116 0.480530
O O8 0.634103 0.547922 0.296973
O O9 0.331577 0.500917 0.901553
O O10 0.000000 0.564605 0.687076
#
# Coordination Sequence:
#
# PCOD9419235 Si02
#       5
#     8   4   8   4   8
#     4  10  23  41  63  92 123 159 201 251 306 364
#     4  12  22  40  64  86 126 162 202 248 300 370
#     4  10  22  40  64  93 122 156 208 257 301 357
#     4  12  20  38  66  90 116 162 200 254 300 356
#     4  11  24  40  60  91 123 161 204 254 301 355
#
# _framework density 19.015888
#
# number of rings (size 3 to 8) (size 9 to 14) (size 15 to 20)
#    0.000    1.250    2.500    3.000    3.500    0.000 
#    0.000    0.000    0.000    3.000    0.000    0.000 
#    0.000    0.000    0.000    0.000    0.000    0.000 
#
# Total GULP energy -178628.246452 kJ/mol
# GULP energy per Si atom -5582.132702 kJ/mol
# Density = 1.897261 g / cm^3
# Si number density = 19.015888 Si / 1000 Ang^3
#
#
#
# Elastic Constant Matrix: (Units=GPa)
#
#
# Indices 1 2 3 4 5 6 
#
# 1 142.4635 55.0565 46.7535 0.0000 0.0000 0.0000
# 2 55.0565 100.1287 25.6447 0.0000 0.0000 0.0000
# 3 46.7535 25.6447 50.5372 0.0000 0.0000 0.0000
# 4 0.0000 0.0000 0.0000 22.7714 0.0000 0.0000
# 5 0.0000 0.0000 0.0000 0.0000 33.6797 0.0000
# 6 0.0000 0.0000 0.0000 0.0000 0.0000 31.7454
#
#
#
# Elastic Compliance Matrix: (Units=1/GPa)
#
#
# Indices 1 2 3 4 5 6 
#
# 1 0.011371 -0.004090 -0.008445 0.000000 0.000000 0.000000
# 2 -0.004090 0.012950 -0.002788 0.000000 0.000000 0.000000
# 3 -0.008445 -0.002788 0.029014 0.000000 0.000000 0.000000
# 4 0.000000 0.000000 0.000000 0.043915 0.000000 0.000000
# 5 0.000000 0.000000 0.000000 0.000000 0.029692 0.000000
# 6 0.000000 0.000000 0.000000 0.000000 0.000000 0.031501
#
#
# Mechanical properties :
#
#
# Convention : Reuss Voigt Hill
#
# Bulk Modulus (GPa) = 44.06969 60.89321 52.48145
# Shear Modulus (GPa) = 25.42588 28.68429 27.05509
#
# Velocity S-wave (km/s) = 3.66059 3.88808 3.77604
# Velocity P-wave (km/s) = 6.41031 7.22828 6.83154
#
# Compressibility (1/GPa) = 0.02269133
#
# Stress axis : x y z
#
# Youngs Moduli (GPa) = 87.94166 77.22058 34.46576
#
# Poissons Ratio (x) = 0.31581 0.29105
# Poissons Ratio (y) = 0.35966 0.09608
# Poissons Ratio (z) = 0.74262 0.21527
#
# Static dielectric constant tensor:
#      x y z
#    x 1.662860 0.000000 0.000000 
#    y 0.000000 1.682720 0.000000 
#    z 0.000000 0.000000 1.674460 
# 
# From -- ./inp_files/15541.got.cif
#   From: 2010.05.17/outbox.cif.g08.bks.cpg/sg53_8_cif.got.tgz:15541.got - 2010.06.03 12:45:16.
