data_PCOD9419037
_publ_section_title
;
Structure prediction by ZEFSAII (Michael W. Deem and Ramdas Pophale) SiO2 
 PCOD9419037
Probable space group: P M N A
;
_chemical_formula_sum "Si O2"
_cell_formula_units_Z 56
_cell_length_a 31.257664
_cell_length_b 5.639165
_cell_length_c 13.838735
_cell_angle_alpha 90.000000
_cell_angle_beta 90.000000
_cell_angle_gamma 90.000000
_cell_volume 2439.314029
_symmetry_space_group_name_H-M "P M N A"
_symmetry_group_IT_number 53
_symmetry_cell_setting 'orthorhombic'
loop_
_space_group_symop_operation_xyz
x,y,z
1/2-x,-y,1/2+z
x,-y,-z
1/2-x,y,1/2-z
-x,-y,-z
1/2+x,y,1/2-z
-x,y,z
1/2+x,-y,1/2+z
loop_
_atom_site_type_symbol
_atom_site_label
_atom_site_fract_x
_atom_site_fract_y
_atom_site_fract_z
Si Si1 0.407093 0.353779 0.904060
Si Si2 0.343392 0.657976 0.379069
Si Si3 0.564866 0.749297 0.449616
Si Si4 0.751793 0.256277 0.551909
Si Si5 0.453099 0.932808 0.248685
Si Si6 0.126130 0.275897 0.249757
Si Si7 0.171977 0.117829 0.670128
O O1 0.442489 0.185313 0.855069
O O2 0.396008 0.537258 0.819834
O O3 0.362865 0.203393 0.909038
O O4 0.417518 0.500000 0.000000
O O5 0.383534 0.745571 0.439943
O O6 0.297883 0.700425 0.426246
O O7 0.354033 0.389632 0.345933
O O8 0.341019 0.786551 0.275416
O O9 0.552397 0.500000 0.500000
O O10 0.548177 0.752602 0.339159
O O11 0.551988 0.000000 0.500000
O O12 0.766708 0.500000 0.500000
O O13 0.782040 0.215159 0.643947
O O14 0.756321 0.000000 0.500000
O O15 0.500000 0.045783 0.246297
O O16 0.413246 0.102434 0.271798
O O17 0.164149 0.159423 0.312999
#
# Coordination Sequence:
#
# PCOD9419037 Si02
#       7
#     8   8   8   8   8   8   8
#     4  10  22  42  72 103 143 194 243 296 379 449
#     4  11  23  46  69 100 137 196 244 299 370 437
#     4  12  25  44  74 105 145 194 245 300 370 442
#     4  12  29  44  65 109 149 187 247 311 362 433
#     4  11  25  45  69 109 147 189 250 312 375 450
#     4  10  21  44  75  98 142 198 243 301 376 440
#     4  10  23  41  69  98 142 188 246 300 367 442
#
# _framework density 22.957273000000001
#
# number of rings (size 3 to 8) (size 9 to 14) (size 15 to 20)
#    0.000    1.143    4.286    2.571    8.000    3.143 
#    0.000    0.714    0.000    0.000    0.000    0.000 
#    0.000    0.000    0.000    0.000    0.000    0.000 
#
# Total GULP energy -312636.306556 kJ/mol
# GULP energy per Si atom -5582.791189 kJ/mol
# Density = 2.290502 g / cm^3
# Si number density = 22.957273 Si / 1000 Ang^3
#
#
#
# Elastic Constant Matrix: (Units=GPa)
#
#
# Indices 1 2 3 4 5 6 
#
# 1 87.5484 14.4759 0.7986 0.0000 0.0000 0.0000
# 2 14.4759 107.3531 25.6039 0.0000 0.0000 0.0000
# 3 0.7986 25.6039 65.0330 0.0000 0.0000 0.0000
# 4 0.0000 0.0000 0.0000 39.2653 0.0000 0.0000
# 5 0.0000 0.0000 0.0000 0.0000 7.3439 0.0000
# 6 0.0000 0.0000 0.0000 0.0000 0.0000 -6.4425
#
#
#
# Elastic Compliance Matrix: (Units=1/GPa)
#
#
# Indices 1 2 3 4 5 6 
#
# 1 0.011699 -0.001703 0.000527 0.000000 0.000000 0.000000
# 2 -0.001703 0.010528 -0.004124 0.000000 0.000000 0.000000
# 3 0.000527 -0.004124 0.016994 0.000000 0.000000 0.000000
# 4 0.000000 0.000000 0.000000 0.025468 0.000000 0.000000
# 5 0.000000 0.000000 0.000000 0.000000 0.136168 0.000000
# 6 0.000000 0.000000 0.000000 0.000000 0.000000 -0.155218
#
#
# Mechanical properties :
#
#
# Convention : Reuss Voigt Hill
#
# Bulk Modulus (GPa) = 34.93998 37.96570 36.45284
# Shear Modulus (GPa) = 76.01134 22.63707 49.32420
#
# Velocity S-wave (km/s) = 5.76036 3.14355 4.64024
# Velocity P-wave (km/s) = 7.71330 5.45430 6.67998
#
# Compressibility (1/GPa) = 0.02862051
#
# Stress axis : x y z
#
# Youngs Moduli (GPa) = 85.47693 94.98168 58.84417
#
# Poissons Ratio (x) = 0.16177 -0.03101
# Poissons Ratio (y) = 0.14559 0.24268
# Poissons Ratio (z) = -0.04504 0.39172
#
# Static dielectric constant tensor:
#      x y z
#    x 1.845710 0.000000 0.000000 
#    y 0.000000 2.044710 0.000000 
#    z 0.000000 0.000000 1.861110 
# 
# From -- ./inp_files/25128.got.cif
#   From: 2010.05.17/outbox.cif.g08.bks.cpg/sg53_13_cif.got.tgz:25128.got - 2010.06.03 12:45:16.
