data_PCOD9419755
_publ_section_title
;
Structure prediction by ZEFSAII (Michael W. Deem and Ramdas Pophale) SiO2 
 PCOD9419755
Probable space group: P M N A
;
_chemical_formula_sum "Si O2"
_cell_formula_units_Z 64
_cell_length_a 15.485909
_cell_length_b 23.088598
_cell_length_c 10.062283
_cell_angle_alpha 90.000000
_cell_angle_beta 90.000000
_cell_angle_gamma 90.000000
_cell_volume 3597.748433
_symmetry_space_group_name_H-M "P M N A"
_symmetry_group_IT_number 53
_symmetry_cell_setting 'orthorhombic'
loop_
_space_group_symop_operation_xyz
x,y,z
1/2-x,-y,1/2+z
x,-y,-z
1/2-x,y,1/2-z
-x,-y,-z
1/2+x,y,1/2-z
-x,y,z
1/2+x,-y,1/2+z
loop_
_atom_site_type_symbol
_atom_site_label
_atom_site_fract_x
_atom_site_fract_y
_atom_site_fract_z
Si Si1 0.101264 0.555529 0.092504
Si Si2 0.249171 0.776714 0.089062
Si Si3 0.146999 0.944623 0.225025
Si Si4 0.353867 0.076982 0.236685
Si Si5 0.597164 0.863052 0.034482
Si Si6 0.750096 0.355778 0.589528
Si Si7 0.398774 0.444526 0.907330
Si Si8 0.598481 0.139553 0.497384
O O1 0.165323 0.607316 0.053154
O O2 0.115762 0.542393 0.249905
O O3 0.000000 0.570903 0.077849
O O4 0.118401 0.500000 0.000000
O O5 0.250000 0.778577 0.250000
O O6 0.250311 0.710271 0.042350
O O7 0.164951 0.810325 0.037226
O O8 0.332569 0.812411 0.042365
O O9 0.250000 0.942883 0.250000
O O10 0.106061 0.903196 0.335683
O O11 0.125466 0.916527 0.083955
O O12 0.118312 0.010892 0.237044
O O13 0.250000 0.078893 0.250000
O O14 0.381283 0.097053 0.091421
O O15 0.391919 0.120406 0.345423
O O16 0.500000 0.840455 0.025293
O O17 0.750000 0.352458 0.750000
O O18 0.834667 0.392821 0.553207
O O19 0.500000 0.429112 0.921854
O O20 0.381717 0.500000 0.000000
O O21 0.500000 0.155280 0.528126
#
# Coordination Sequence:
#
# PCOD9419755 Si02
#       8
#     8   8   8   8   8   8   8   8
#     4   9  17  31  54  84 115 144 177 220 269 317
#     4  11  22  40  57  82 112 147 196 239 273 320
#     4  11  21  39  61  86 113 141 178 229 286 342
#     4  11  23  39  61  82 113 145 176 229 290 348
#     4  12  23  38  60  83 110 145 185 230 283 338
#     4   9  19  33  55  80 111 145 187 226 262 315
#     4   9  17  31  54  84 115 144 177 220 269 317
#     4  12  23  38  60  83 110 145 185 230 283 338
#
# _framework density 17.788903000000001
#
# number of rings (size 3 to 8) (size 9 to 14) (size 15 to 20)
#    0.000    1.500    3.750    1.875    0.000    6.000 
#    0.000    2.500    5.500    0.000    0.000    0.000 
#    0.000    0.000    0.000    0.000    0.000    0.000 
#
# Total GULP energy -357408.942663 kJ/mol
# GULP energy per Si atom -5584.514729 kJ/mol
# Density = 1.774841 g / cm^3
# Si number density = 17.788903 Si / 1000 Ang^3
#
#
#
# Elastic Constant Matrix: (Units=GPa)
#
#
# Indices 1 2 3 4 5 6 
#
# 1 118.2512 66.9501 -4.7077 0.0000 0.0000 0.0000
# 2 66.9501 139.2280 8.6190 0.0000 0.0000 0.0000
# 3 -4.7077 8.6190 21.5592 0.0000 0.0000 0.0000
# 4 0.0000 0.0000 0.0000 18.8278 0.0000 0.0000
# 5 0.0000 0.0000 0.0000 0.0000 17.6190 0.0000
# 6 0.0000 0.0000 0.0000 0.0000 0.0000 -7.0490
#
#
#
# Elastic Compliance Matrix: (Units=1/GPa)
#
#
# Indices 1 2 3 4 5 6 
#
# 1 0.012146 -0.006157 0.005114 0.000000 0.000000 0.000000
# 2 -0.006157 0.010486 -0.005537 0.000000 0.000000 0.000000
# 3 0.005114 -0.005537 0.049714 0.000000 0.000000 0.000000
# 4 0.000000 0.000000 0.000000 0.053113 0.000000 0.000000
# 5 0.000000 0.000000 0.000000 0.000000 0.056757 0.000000
# 6 0.000000 0.000000 0.000000 0.000000 0.000000 -0.141864
#
#
# Mechanical properties :
#
#
# Convention : Reuss Voigt Hill
#
# Bulk Modulus (GPa) = 16.89588 46.75126 31.82357
# Shear Modulus (GPa) = 68.26799 19.75802 44.01300
#
# Velocity S-wave (km/s) = 6.20162 3.33632 4.97951
# Velocity P-wave (km/s) = 7.79735 6.41713 7.14067
#
# Compressibility (1/GPa) = 0.05918604
#
# Stress axis : x y z
#
# Youngs Moduli (GPa) = 82.33008 95.36477 20.11506
#
# Poissons Ratio (x) = 0.58719 -0.10286
# Poissons Ratio (y) = 0.50693 0.11137
# Poissons Ratio (z) = -0.42102 0.52800
#
# Static dielectric constant tensor:
#      x y z
#    x 1.624830 0.000000 0.000000 
#    y 0.000000 1.577110 0.000000 
#    z 0.000000 0.000000 1.588120 
# 
# From -- ./inp_files/8985.got.cif
#   From: 2010.05.17/outbox.cif.g08.bks.cpg/sg53_5_cif.got.tgz:8985.got - 2010.06.03 12:45:16.
