data_PCOD9419265
_publ_section_title
;
Structure prediction by ZEFSAII (Michael W. Deem and Ramdas Pophale) SiO2 
 PCOD9419265
Probable space group: P M N A
;
_chemical_formula_sum "Si O2"
_cell_formula_units_Z 24
_cell_length_a 20.462044
_cell_length_b 5.164928
_cell_length_c 10.664874
_cell_angle_alpha 90.000000
_cell_angle_beta 90.000000
_cell_angle_gamma 90.000000
_cell_volume 1127.117038
_symmetry_space_group_name_H-M "P M N A"
_symmetry_group_IT_number 53
_symmetry_cell_setting 'orthorhombic'
loop_
_space_group_symop_operation_xyz
x,y,z
1/2-x,-y,1/2+z
x,-y,-z
1/2-x,y,1/2-z
-x,-y,-z
1/2+x,y,1/2-z
-x,y,z
1/2+x,-y,1/2+z
loop_
_atom_site_type_symbol
_atom_site_label
_atom_site_fract_x
_atom_site_fract_y
_atom_site_fract_z
Si Si1 0.572571 0.676601 0.620282
Si Si2 0.885422 0.567062 0.367710
Si Si3 0.676023 0.921355 0.778661
O O1 0.586061 0.500000 0.500000
O O2 0.500000 0.792973 0.608037
O O3 0.572674 0.496071 0.744686
O O4 0.630652 0.874196 0.655364
O O5 0.917562 0.500000 0.500000
O O6 0.827656 0.352995 0.351067
O O7 0.858611 0.854577 0.357343
O O8 0.750000 0.991032 0.750000
#
# Coordination Sequence:
#
# PCOD9419265 Si02
#       3
#     8   8   8
#     4   9  22  43  65  93 129 173 219 264 321 390
#     4  10  22  41  62  94 125 164 212 269 326 386
#     4  10  22  41  64  95 126 169 212 271 325 385
#
# _framework density 21.293261999999999
#
# number of rings (size 3 to 8) (size 9 to 14) (size 15 to 20)
#    2.000    0.333    0.000    2.000    0.000    4.667 
#    6.000    5.000    0.000    0.000    0.000    0.000 
#    0.000    0.000    0.000    0.000    0.000    0.000 
#
# Total GULP energy -133611.580327 kJ/mol
# GULP energy per Si atom -5567.149180 kJ/mol
# Density = 2.124480 g / cm^3
# Si number density = 21.293262 Si / 1000 Ang^3
#
#
#
# Elastic Constant Matrix: (Units=GPa)
#
#
# Indices 1 2 3 4 5 6 
#
# 1 119.2967 30.6694 42.4902 0.0000 0.0000 0.0000
# 2 30.6694 86.7609 31.1989 0.0000 0.0000 0.0000
# 3 42.4902 31.1989 172.4877 0.0000 0.0000 0.0000
# 4 0.0000 0.0000 0.0000 32.9090 0.0000 0.0000
# 5 0.0000 0.0000 0.0000 0.0000 -32.9769 0.0000
# 6 0.0000 0.0000 0.0000 0.0000 0.0000 -11.1671
#
#
#
# Elastic Compliance Matrix: (Units=1/GPa)
#
#
# Indices 1 2 3 4 5 6 
#
# 1 0.009774 -0.002769 -0.001907 0.000000 0.000000 0.000000
# 2 -0.002769 0.013112 -0.001690 0.000000 0.000000 0.000000
# 3 -0.001907 -0.001690 0.006573 0.000000 0.000000 0.000000
# 4 0.000000 0.000000 0.000000 0.030387 0.000000 0.000000
# 5 0.000000 0.000000 0.000000 0.000000 -0.030324 0.000000
# 6 0.000000 0.000000 0.000000 0.000000 0.000000 -0.089548
#
#
# Mechanical properties :
#
#
# Convention : Reuss Voigt Hill
#
# Bulk Modulus (GPa) = 59.78090 65.25135 62.51613
# Shear Modulus (GPa) = -119.84574 16.03211 -51.90682
#
# Velocity S-wave (km/s) = -7.51037 2.74691 -4.94267
# Velocity P-wave (km/s) = 6.86087 6.38525 1.77484
#
# Compressibility (1/GPa) = 0.01672775
#
# Stress axis : x y z
#
# Youngs Moduli (GPa) = 102.31744 76.26373 152.14201
#
# Poissons Ratio (x) = 0.21119 0.29009
# Poissons Ratio (y) = 0.28334 0.25705
# Poissons Ratio (z) = 0.19509 0.12885
#
# Static dielectric constant tensor:
#      x y z
#    x 1.782690 0.000000 0.000000 
#    y 0.000000 1.749430 0.000000 
#    z 0.000000 0.000000 1.807520 
# 
# From -- ./inp_files/11303.got.cif
#   From: 2010.05.17/outbox.cif.g08.bks.cpg/sg53_6_cif.got.tgz:11303.got - 2010.06.03 12:45:16.
