data_PCOD9419040
_publ_section_title
;
Structure prediction by ZEFSAII (Michael W. Deem and Ramdas Pophale) SiO2 
 PCOD9419040
Probable space group: P M N A
;
_chemical_formula_sum "Si O2"
_cell_formula_units_Z 54
_cell_length_a 15.641964
_cell_length_b 11.734842
_cell_length_c 12.296205
_cell_angle_alpha 90.000000
_cell_angle_beta 90.000000
_cell_angle_gamma 90.000000
_cell_volume 2257.041911
_symmetry_space_group_name_H-M "P M N A"
_symmetry_group_IT_number 53
_symmetry_cell_setting 'orthorhombic'
loop_
_space_group_symop_operation_xyz
x,y,z
1/2-x,-y,1/2+z
x,-y,-z
1/2-x,y,1/2-z
-x,-y,-z
1/2+x,y,1/2-z
-x,y,z
1/2+x,-y,1/2+z
loop_
_atom_site_type_symbol
_atom_site_label
_atom_site_fract_x
_atom_site_fract_y
_atom_site_fract_z
Si Si1 0.000000 0.500000 0.000000
Si Si2 0.838542 0.546012 0.611654
Si Si3 0.500000 0.242292 0.627965
Si Si4 0.861281 0.475206 0.150890
Si Si5 0.598425 0.042613 0.223063
Si Si6 0.156577 0.204577 0.714926
Si Si7 0.872973 0.786420 0.923588
Si Si8 0.827448 0.201307 0.458543
O O1 0.073919 0.451436 0.919540
O O2 0.874539 0.500000 0.500000
O O3 0.737754 0.512256 0.620659
O O4 0.877274 0.505162 0.723383
O O5 0.845074 0.681420 0.605400
O O6 0.423091 0.253677 0.719807
O O7 0.572457 0.206618 0.532311
O O8 0.884662 0.343230 0.122613
O O9 0.500000 0.005955 0.213532
O O10 0.604670 0.128393 0.325187
O O11 0.628182 0.103594 0.112109
O O12 0.653511 0.930374 0.241451
O O13 0.250000 0.251664 0.750000
O O14 0.146850 0.213555 0.584134
O O15 0.774743 0.809853 0.952935
#
# Coordination Sequence:
#
# PCOD9419040 Si02
#       8
#     2   8   4   8   8   8   8   8
#     4  12  22  40  66 110 132 174 216 298 336 392
#     4  10  21  46  71 101 133 185 228 278 341 420
#     4  12  25  45  67 100 139 182 233 286 339 415
#     4  10  22  41  71 101 139 174 232 279 340 413
#     4  12  25  41  73 102 133 183 235 290 349 410
#     4  12  26  46  65 104 147 184 233 289 355 417
#     4  11  22  45  70  97 135 188 238 279 334 420
#     4  11  24  44  71  98 138 185 232 284 349 417
#
# _framework density 23.925121000000001
#
# number of rings (size 3 to 8) (size 9 to 14) (size 15 to 20)
#    0.000    0.889    5.185    2.222    1.037    1.778 
#    8.000    0.370    0.000    0.000    0.000    0.000 
#    0.000    0.000    0.000    0.000    0.000    0.000 
#
# Total GULP energy -300971.251940 kJ/mol
# GULP energy per Si atom -5573.541703 kJ/mol
# Density = 2.387067 g / cm^3
# Si number density = 23.925121 Si / 1000 Ang^3
#
#
#
# Elastic Constant Matrix: (Units=GPa)
#
#
# Indices 1 2 3 4 5 6 
#
# 1 97.0646 26.0399 49.0507 0.0000 0.0000 0.0000
# 2 26.0399 61.0673 28.5898 0.0000 0.0000 0.0000
# 3 49.0507 28.5898 211.1676 0.0000 0.0000 0.0000
# 4 0.0000 0.0000 0.0000 17.5210 0.0000 0.0000
# 5 0.0000 0.0000 0.0000 0.0000 51.4661 0.0000
# 6 0.0000 0.0000 0.0000 0.0000 0.0000 56.8112
#
#
#
# Elastic Compliance Matrix: (Units=1/GPa)
#
#
# Indices 1 2 3 4 5 6 
#
# 1 0.012644 -0.004288 -0.002356 0.000000 0.000000 0.000000
# 2 -0.004288 0.018938 -0.001568 0.000000 0.000000 0.000000
# 3 -0.002356 -0.001568 0.005495 0.000000 0.000000 0.000000
# 4 0.000000 0.000000 0.000000 0.057074 0.000000 0.000000
# 5 0.000000 0.000000 0.000000 0.000000 0.019430 0.000000
# 6 0.000000 0.000000 0.000000 0.000000 0.000000 0.017602
#
#
# Mechanical properties :
#
#
# Convention : Reuss Voigt Hill
#
# Bulk Modulus (GPa) = 48.42186 64.07336 56.24761
# Shear Modulus (GPa) = 32.36406 42.86761 37.61583
#
# Velocity S-wave (km/s) = 3.68193 4.23749 3.96944
# Velocity P-wave (km/s) = 6.19341 7.12606 6.67604
#
# Compressibility (1/GPa) = 0.02065183
#
# Stress axis : x y z
#
# Youngs Moduli (GPa) = 79.09157 52.80396 181.97743
#
# Poissons Ratio (x) = 0.22644 0.42880
# Poissons Ratio (y) = 0.33916 0.28533
# Poissons Ratio (z) = 0.18636 0.08279
#
# Static dielectric constant tensor:
#      x y z
#    x 1.876800 0.000000 0.000000 
#    y 0.000000 2.140210 0.000000 
#    z 0.000000 0.000000 1.936360 
# 
# From -- ./inp_files/16100.got.cif
#   From: 2010.05.17/outbox.cif.g08.bks.cpg/sg53_9_cif.got.tgz:16100.got - 2010.06.03 12:45:16.
