data_PCOD9419036
_publ_section_title
;
Structure prediction by ZEFSAII (Michael W. Deem and Ramdas Pophale) SiO2 
 PCOD9419036
Probable space group: P M N A
;
_chemical_formula_sum "Si O2"
_cell_formula_units_Z 54
_cell_length_a 31.070147
_cell_length_b 5.748583
_cell_length_c 13.711564
_cell_angle_alpha 90.000000
_cell_angle_beta 90.000000
_cell_angle_gamma 90.000000
_cell_volume 2449.013106
_symmetry_space_group_name_H-M "P M N A"
_symmetry_group_IT_number 53
_symmetry_cell_setting 'orthorhombic'
loop_
_space_group_symop_operation_xyz
x,y,z
1/2-x,-y,1/2+z
x,-y,-z
1/2-x,y,1/2-z
-x,-y,-z
1/2+x,y,1/2-z
-x,y,z
1/2+x,-y,1/2+z
loop_
_atom_site_type_symbol
_atom_site_label
_atom_site_fract_x
_atom_site_fract_y
_atom_site_fract_z
Si Si1 0.083172 0.127609 0.164761
Si Si2 0.323252 0.748405 0.950934
Si Si3 0.296237 0.928326 0.752540
Si Si4 0.000000 0.500000 0.500000
Si Si5 0.835971 0.361859 0.097456
Si Si6 0.000000 0.747822 0.946366
Si Si7 0.875996 0.728820 0.244905
Si Si8 0.914738 0.366986 0.376942
O O1 0.122419 0.195147 0.093080
O O2 0.041808 0.237515 0.119273
O O3 0.084765 0.223894 0.275582
O O4 0.087088 0.852528 0.180902
O O5 0.301692 0.755313 0.843724
O O6 0.375310 0.737505 0.938924
O O7 0.310931 0.500000 0.000000
O O8 0.312127 0.000000 0.000000
O O9 0.250000 0.049748 0.750000
O O10 0.300315 0.793346 0.649966
O O11 0.337763 0.090936 0.765518
O O12 0.039309 0.611317 0.570365
O O13 0.852652 0.541113 0.178397
O O14 0.825101 0.500000 0.000000
O O15 0.000000 0.500000 0.000000
O O16 0.000000 0.000000 0.000000
O O17 0.897430 0.618267 0.339664
#
# Coordination Sequence:
#
# PCOD9419036 Si02
#       8
#     8   8   8   2   8   4   8   8
#     4  10  23  41  67  94 139 185 234 297 373 430
#     4  12  25  47  77 105 148 202 243 296 386 450
#     4  11  25  45  69 107 142 190 244 310 372 458
#     4  12  26  38  70 104 138 190 274 306 344 478
#     4  10  22  41  72  97 136 181 244 296 374 443
#     4  12  29  43  64 105 141 185 246 302 359 445
#     4  10  21  44  71  93 142 192 234 300 390 434
#     4  11  23  43  68 101 141 192 244 310 370 435
#
# _framework density 22.049696000000001
#
# number of rings (size 3 to 8) (size 9 to 14) (size 15 to 20)
#    0.000    1.185    5.185    1.778    6.222    3.556 
#    2.667    2.593    0.000    0.000    0.000    0.000 
#    0.000    0.000    0.000    0.000    0.000    0.000 
#
# Total GULP energy -300671.638043 kJ/mol
# GULP energy per Si atom -5567.993297 kJ/mol
# Density = 2.199951 g / cm^3
# Si number density = 22.049696 Si / 1000 Ang^3
#
#
#
# Elastic Constant Matrix: (Units=GPa)
#
#
# Indices 1 2 3 4 5 6 
#
# 1 97.3683 2.8166 -0.3288 0.0000 0.0000 0.0000
# 2 2.8166 80.3719 6.8521 0.0000 0.0000 0.0000
# 3 -0.3288 6.8521 51.8139 0.0000 0.0000 0.0000
# 4 0.0000 0.0000 0.0000 32.5434 0.0000 0.0000
# 5 0.0000 0.0000 0.0000 0.0000 8.1975 0.0000
# 6 0.0000 0.0000 0.0000 0.0000 0.0000 -0.2285
#
#
#
# Elastic Compliance Matrix: (Units=1/GPa)
#
#
# Indices 1 2 3 4 5 6 
#
# 1 0.010281 -0.000370 0.000114 0.000000 0.000000 0.000000
# 2 -0.000370 0.012597 -0.001668 0.000000 0.000000 0.000000
# 3 0.000114 -0.001668 0.019521 0.000000 0.000000 0.000000
# 4 0.000000 0.000000 0.000000 0.030728 0.000000 0.000000
# 5 0.000000 0.000000 0.000000 0.000000 0.121988 0.000000
# 6 0.000000 0.000000 0.000000 0.000000 0.000000 -4.376245
#
#
# Mechanical properties :
#
#
# Convention : Reuss Voigt Hill
#
# Bulk Modulus (GPa) = 25.93922 27.58153 26.76038
# Shear Modulus (GPa) = -1.20064 22.78344 10.79140
#
# Velocity S-wave (km/s) = -0.73871 3.21795 2.21467
# Velocity P-wave (km/s) = 3.32595 5.13253 4.32463
#
# Compressibility (1/GPa) = 0.03855166
#
# Stress axis : x y z
#
# Youngs Moduli (GPa) = 97.26332 79.38174 51.22639
#
# Poissons Ratio (x) = 0.02937 -0.00585
# Poissons Ratio (y) = 0.03599 0.08546
# Poissons Ratio (z) = -0.01111 0.13243
#
# Static dielectric constant tensor:
#      x y z
#    x 1.805530 0.000000 0.000000 
#    y 0.000000 2.026710 0.000000 
#    z 0.000000 0.000000 1.862950 
# 
# From -- ./inp_files/25171.got.cif
#   From: 2010.05.17/outbox.cif.g08.bks.cpg/sg53_13_cif.got.tgz:25171.got - 2010.06.03 12:45:16.
