data_PCOD9419529
_publ_section_title
;
Structure prediction by ZEFSAII (Michael W. Deem and Ramdas Pophale) SiO2 
 PCOD9419529
Probable space group: P M N A
;
_chemical_formula_sum "Si O2"
_cell_formula_units_Z 32
_cell_length_a 9.445151
_cell_length_b 12.048957
_cell_length_c 13.205121
_cell_angle_alpha 90.000000
_cell_angle_beta 90.000000
_cell_angle_gamma 90.000000
_cell_volume 1502.798472
_symmetry_space_group_name_H-M "P M N A"
_symmetry_group_IT_number 53
_symmetry_cell_setting 'orthorhombic'
loop_
_space_group_symop_operation_xyz
x,y,z
1/2-x,-y,1/2+z
x,-y,-z
1/2-x,y,1/2-z
-x,-y,-z
1/2+x,y,1/2-z
-x,y,z
1/2+x,-y,1/2+z
loop_
_atom_site_type_symbol
_atom_site_label
_atom_site_fract_x
_atom_site_fract_y
_atom_site_fract_z
Si Si1 0.500000 0.830743 0.243131
Si Si2 0.750000 0.029468 0.750000
Si Si3 0.500000 0.340425 0.161189
Si Si4 0.737189 0.622724 0.010724
Si Si5 0.000000 0.129660 0.184515
Si Si6 0.000000 0.410790 0.678746
Si Si7 0.000000 0.219188 0.961907
O O1 0.640550 0.885110 0.194779
O O2 0.500000 0.697616 0.247222
O O3 0.500000 0.856976 0.362928
O O4 0.638932 0.944006 0.702599
O O5 0.500000 0.237530 0.239419
O O6 0.500000 0.461985 0.216150
O O7 0.637550 0.342887 0.085615
O O8 0.632933 0.606301 0.105178
O O9 0.801523 0.500000 0.000000
O O10 0.858170 0.708334 0.035412
O O11 0.000000 0.159779 0.068424
#
# Coordination Sequence:
#
# PCOD9419529 Si02
#       7
#     4   4   4   8   4   4   4
#     4  11  23  42  62  88 120 157 199 244 297 354
#     4  10  24  42  62  80 112 154 200 246 288 350
#     4   9  19  39  64  86 117 162 205 239 286 358
#     4   9  19  35  57  90 126 158 193 240 297 354
#     4  11  23  42  62  88 120 157 199 244 297 354
#     4   9  19  39  64  86 117 162 205 239 286 358
#     4  12  23  35  58  90 124 150 189 251 306 346
#
# _framework density 21.293607999999999
#
# number of rings (size 3 to 8) (size 9 to 14) (size 15 to 20)
#    0.000    2.000    0.000    4.875    0.000    4.000 
#    0.000   11.250    0.000   12.000    0.000    0.000 
#    0.000    0.000    0.000    0.000    0.000    0.000 
#
# Total GULP energy -178365.800178 kJ/mol
# GULP energy per Si atom -5573.931256 kJ/mol
# Density = 2.124514 g / cm^3
# Si number density = 21.293608 Si / 1000 Ang^3
#
#
#
# Elastic Constant Matrix: (Units=GPa)
#
#
# Indices 1 2 3 4 5 6 
#
# 1 133.1964 59.7851 12.8239 0.0000 0.0000 0.0000
# 2 59.7851 153.3970 51.8056 0.0000 0.0000 0.0000
# 3 12.8239 51.8056 73.4819 0.0000 0.0000 0.0000
# 4 0.0000 0.0000 0.0000 22.5563 0.0000 0.0000
# 5 0.0000 0.0000 0.0000 0.0000 -23.1689 0.0000
# 6 0.0000 0.0000 0.0000 0.0000 0.0000 37.3465
#
#
#
# Elastic Compliance Matrix: (Units=1/GPa)
#
#
# Indices 1 2 3 4 5 6 
#
# 1 0.009181 -0.003986 0.001208 0.000000 0.000000 0.000000
# 2 -0.003986 0.010287 -0.006557 0.000000 0.000000 0.000000
# 3 0.001208 -0.006557 0.018021 0.000000 0.000000 0.000000
# 4 0.000000 0.000000 0.000000 0.044334 0.000000 0.000000
# 5 0.000000 0.000000 0.000000 0.000000 -0.043161 0.000000
# 6 0.000000 0.000000 0.000000 0.000000 0.000000 0.026776
#
#
# Mechanical properties :
#
#
# Convention : Reuss Voigt Hill
#
# Bulk Modulus (GPa) = 53.13920 67.65603 60.39762
# Shear Modulus (GPa) = 55.32269 23.05749 39.19009
#
# Velocity S-wave (km/s) = 5.10267 3.29422 4.29472
# Velocity P-wave (km/s) = 7.72826 6.80522 7.28138
#
# Compressibility (1/GPa) = 0.01881850
#
# Stress axis : x y z
#
# Youngs Moduli (GPa) = 108.92636 97.21110 55.49219
#
# Poissons Ratio (x) = 0.38748 -0.06703
# Poissons Ratio (y) = 0.43418 0.36385
# Poissons Ratio (z) = -0.13158 0.63739
#
# Static dielectric constant tensor:
#      x y z
#    x 1.760230 0.000000 0.000000 
#    y 0.000000 1.848770 0.000000 
#    z 0.000000 0.000000 1.786250 
# 
# From -- ./inp_files/19690.got.cif
#   From: 2010.05.17/outbox.cif.g08.bks.cpg/sg53_10_cif.got.tgz:19690.got - 2010.06.03 12:45:16.
