data_PCOD9419943
_publ_section_title
;
Structure prediction by ZEFSAII (Michael W. Deem and Ramdas Pophale) SiO2 
 PCOD9419943
Probable space group: P M N A
;
_chemical_formula_sum "Si O2"
_cell_formula_units_Z 24
_cell_length_a 15.805861
_cell_length_b 5.203735
_cell_length_c 11.404227
_cell_angle_alpha 90.000000
_cell_angle_beta 90.000000
_cell_angle_gamma 90.000000
_cell_volume 937.992107
_symmetry_space_group_name_H-M "P M N A"
_symmetry_group_IT_number 53
_symmetry_cell_setting 'orthorhombic'
loop_
_space_group_symop_operation_xyz
x,y,z
1/2-x,-y,1/2+z
x,-y,-z
1/2-x,y,1/2-z
-x,-y,-z
1/2+x,y,1/2-z
-x,y,z
1/2+x,-y,1/2+z
loop_
_atom_site_type_symbol
_atom_site_label
_atom_site_fract_x
_atom_site_fract_y
_atom_site_fract_z
Si Si1 0.100041 0.880782 0.668513
Si Si2 0.697549 0.396923 0.876906
Si Si3 0.100388 0.232882 0.068912
O O1 0.120482 0.600089 0.620921
O O2 0.130171 0.822615 0.801067
O O3 0.000000 0.942839 0.660073
O O4 0.156729 0.113880 0.620901
O O5 0.750000 0.408425 0.750000
O O6 0.740806 0.500000 0.000000
O O7 0.000000 0.183960 0.081717
O O8 0.101157 0.500000 0.000000
O O9 0.141863 0.000000 0.000000
#
# Coordination Sequence:
#
# PCOD9419943 Si02
#       3
#     8   8   8
#     4  11  24  44  74 110 144 186 249 318 378 443
#     4  12  28  49  73 104 148 200 248 304 380 460
#     4   9  17  31  55  93 138 177 217 275 349 421
#
# _framework density 25.586569000000001
#
# number of rings (size 3 to 8) (size 9 to 14) (size 15 to 20)
#    0.000    1.333    0.000    5.000    0.000   13.333 
#    0.000    0.000    0.000    1.000    0.000    0.000 
#    0.000    0.000    0.000    0.000    0.000    0.000 
#
# Total GULP energy -133646.559506 kJ/mol
# GULP energy per Si atom -5568.606646 kJ/mol
# Density = 2.552833 g / cm^3
# Si number density = 25.586569 Si / 1000 Ang^3
#
#
#
# Elastic Constant Matrix: (Units=GPa)
#
#
# Indices 1 2 3 4 5 6 
#
# 1 98.3957 23.1579 10.7303 0.0000 0.0000 0.0000
# 2 23.1579 198.8235 67.0915 0.0000 0.0000 0.0000
# 3 10.7303 67.0915 196.5842 0.0000 0.0000 0.0000
# 4 0.0000 0.0000 0.0000 53.9679 0.0000 0.0000
# 5 0.0000 0.0000 0.0000 0.0000 17.2771 0.0000
# 6 0.0000 0.0000 0.0000 0.0000 0.0000 93.3342
#
#
#
# Elastic Compliance Matrix: (Units=1/GPa)
#
#
# Indices 1 2 3 4 5 6 
#
# 1 0.010455 -0.001159 -0.000175 0.000000 0.000000 0.000000
# 2 -0.001159 0.005813 -0.001921 0.000000 0.000000 0.000000
# 3 -0.000175 -0.001921 0.005752 0.000000 0.000000 0.000000
# 4 0.000000 0.000000 0.000000 0.018530 0.000000 0.000000
# 5 0.000000 0.000000 0.000000 0.000000 0.057880 0.000000
# 6 0.000000 0.000000 0.000000 0.000000 0.000000 0.010714
#
#
# Mechanical properties :
#
#
# Convention : Reuss Voigt Hill
#
# Bulk Modulus (GPa) = 64.47201 77.30697 70.88949
# Shear Modulus (GPa) = 41.38317 59.10409 50.24363
#
# Velocity S-wave (km/s) = 4.02603 4.81142 4.43614
# Velocity P-wave (km/s) = 6.84574 7.81958 7.34881
#
# Compressibility (1/GPa) = 0.01551061
#
# Stress axis : x y z
#
# Youngs Moduli (GPa) = 95.64954 172.04005 173.85577
#
# Poissons Ratio (x) = 0.19932 0.03047
# Poissons Ratio (y) = 0.11082 0.33389
# Poissons Ratio (z) = 0.01676 0.33041
#
# Static dielectric constant tensor:
#      x y z
#    x 2.077400 0.000000 0.000000 
#    y 0.000000 1.953440 0.000000 
#    z 0.000000 0.000000 2.176210 
# 
# From -- ./inp_files/16335.got.cif
#   From: 2010.05.17/outbox.cif.g08.bks.cpg/sg53_9_cif.got.tgz:16335.got - 2010.06.03 12:45:16.
