data_PCOD9419269
_publ_section_title
;
Structure prediction by ZEFSAII (Michael W. Deem and Ramdas Pophale) SiO2 
 PCOD9419269
Probable space group: P M N A
;
_chemical_formula_sum "Si O2"
_cell_formula_units_Z 36
_cell_length_a 14.049525
_cell_length_b 25.150533
_cell_length_c 5.016818
_cell_angle_alpha 90.000000
_cell_angle_beta 90.000000
_cell_angle_gamma 90.000000
_cell_volume 1772.707902
_symmetry_space_group_name_H-M "P M N A"
_symmetry_group_IT_number 53
_symmetry_cell_setting 'orthorhombic'
loop_
_space_group_symop_operation_xyz
x,y,z
1/2-x,-y,1/2+z
x,-y,-z
1/2-x,y,1/2-z
-x,-y,-z
1/2+x,y,1/2-z
-x,y,z
1/2+x,-y,1/2+z
loop_
_atom_site_type_symbol
_atom_site_label
_atom_site_fract_x
_atom_site_fract_y
_atom_site_fract_z
Si Si1 0.500000 0.634484 0.911055
Si Si2 0.315758 0.774683 0.511625
Si Si3 0.000000 0.040482 0.767085
Si Si4 0.000000 0.295733 0.907726
Si Si5 0.182069 0.438078 0.499745
Si Si6 0.817646 0.104634 0.000487
O O1 0.500000 0.653799 0.606100
O O2 0.500000 0.685400 0.103371
O O3 0.407578 0.599982 0.979622
O O4 0.250000 0.754064 0.750000
O O5 0.407026 0.738881 0.466164
O O6 0.346254 0.835439 0.584126
O O7 0.250000 0.775357 0.250000
O O8 0.906662 0.074951 0.854748
O O9 0.000000 0.000000 0.500000
O O10 0.000000 0.000000 0.000000
O O11 0.150919 0.500000 0.500000
O O12 0.250000 0.428205 0.750000
O O13 0.250000 0.429993 0.250000
O O14 0.750000 0.109830 0.750000
O O15 0.750000 0.082846 0.250000
#
# Coordination Sequence:
#
# PCOD9419269 Si02
#       6
#     4   8   4   4   8   8
#     4  12  25  38  59  90 124 158 194 247 314 370
#     4  10  22  41  64  88 119 162 208 252 298 358
#     4  12  25  40  63  96 130 164 202 256 319 374
#     4  12  25  38  59  92 126 160 195 249 313 368
#     4  10  22  41  63  85 114 157 206 252 298 359
#     4  10  22  42  66  90 121 165 213 257 303 365
#
# _framework density 20.307912999999999
#
# number of rings (size 3 to 8) (size 9 to 14) (size 15 to 20)
#    0.000    1.333    0.000    5.000    0.000    7.111 
#    0.000   13.333    0.000    0.000    0.000    0.000 
#    0.000    0.000    0.000    0.000    0.000    0.000 
#
# Total GULP energy -200600.655834 kJ/mol
# GULP energy per Si atom -5572.240440 kJ/mol
# Density = 2.026169 g / cm^3
# Si number density = 20.307913 Si / 1000 Ang^3
#
#
#
# Elastic Constant Matrix: (Units=GPa)
#
#
# Indices 1 2 3 4 5 6 
#
# 1 129.0359 66.6506 20.2684 0.0000 0.0000 0.0000
# 2 66.6506 62.0513 3.8841 0.0000 0.0000 0.0000
# 3 20.2684 3.8841 123.5736 0.0000 0.0000 0.0000
# 4 0.0000 0.0000 0.0000 51.1377 0.0000 0.0000
# 5 0.0000 0.0000 0.0000 0.0000 36.4130 0.0000
# 6 0.0000 0.0000 0.0000 0.0000 0.0000 68.0332
#
#
#
# Elastic Compliance Matrix: (Units=1/GPa)
#
#
# Indices 1 2 3 4 5 6 
#
# 1 0.018069 -0.019260 -0.002358 0.000000 0.000000 0.000000
# 2 -0.019260 0.036678 0.002006 0.000000 0.000000 0.000000
# 3 -0.002358 0.002006 0.008416 0.000000 0.000000 0.000000
# 4 0.000000 0.000000 0.000000 0.019555 0.000000 0.000000
# 5 0.000000 0.000000 0.000000 0.000000 0.027463 0.000000
# 6 0.000000 0.000000 0.000000 0.000000 0.000000 0.014699
#
#
# Mechanical properties :
#
#
# Convention : Reuss Voigt Hill
#
# Bulk Modulus (GPa) = 41.77438 55.14077 48.45758
# Shear Modulus (GPa) = 29.05570 46.04064 37.54817
#
# Velocity S-wave (km/s) = 3.78664 4.76660 4.30460
# Velocity P-wave (km/s) = 6.30344 7.58323 6.97276
#
# Compressibility (1/GPa) = 0.02393812
#
# Stress axis : x y z
#
# Youngs Moduli (GPa) = 55.34437 27.26430 118.82011
#
# Poissons Ratio (x) = 0.52512 0.28021
# Poissons Ratio (y) = 1.06595 -0.23838
# Poissons Ratio (z) = 0.13052 -0.05470
#
# Static dielectric constant tensor:
#      x y z
#    x 1.699850 0.000000 0.000000 
#    y 0.000000 1.726490 0.000000 
#    z 0.000000 0.000000 1.695550 
# 
# From -- ./inp_files/721.got.cif
#   From: 2010.05.17/outbox.cif.g08.bks.cpg/sg53_1_cif.got.tgz:721.got - 2010.06.03 12:45:16.
