data_PCOD9419581
_publ_section_title
;
Structure prediction by ZEFSAII (Michael W. Deem and Ramdas Pophale) SiO2 
 PCOD9419581
Probable space group: P M N A
;
_chemical_formula_sum "Si O2"
_cell_formula_units_Z 48
_cell_length_a 31.941217
_cell_length_b 7.486537
_cell_length_c 10.145006
_cell_angle_alpha 90.000000
_cell_angle_beta 90.000000
_cell_angle_gamma 90.000000
_cell_volume 2425.966184
_symmetry_space_group_name_H-M "P M N A"
_symmetry_group_IT_number 53
_symmetry_cell_setting 'orthorhombic'
loop_
_space_group_symop_operation_xyz
x,y,z
1/2-x,-y,1/2+z
x,-y,-z
1/2-x,y,1/2-z
-x,-y,-z
1/2+x,y,1/2-z
-x,y,z
1/2+x,-y,1/2+z
loop_
_atom_site_type_symbol
_atom_site_label
_atom_site_fract_x
_atom_site_fract_y
_atom_site_fract_z
Si Si1 0.345085 0.792217 0.032432
Si Si2 0.383239 0.756690 0.760834
Si Si3 0.547309 0.517803 0.341823
Si Si4 0.747499 0.671802 0.093952
Si Si5 0.398450 0.835133 0.281366
Si Si6 0.164460 0.283418 0.004769
O O1 0.296579 0.762680 0.063608
O O2 0.371958 0.750808 0.161366
O O3 0.363452 0.703029 0.901014
O O4 0.350280 0.000000 0.000000
O O5 0.418108 0.615694 0.716535
O O6 0.345484 0.763408 0.655017
O O7 0.402996 0.956000 0.752529
O O8 0.549450 0.500000 0.500000
O O9 0.500000 0.475624 0.299708
O O10 0.560124 0.718852 0.301936
O O11 0.750000 0.630958 0.250000
O O12 0.790118 0.770905 0.050291
O O13 0.747378 0.500000 0.000000
O O14 0.370723 0.803659 0.412252
O O15 0.161018 0.500000 0.000000
#
# Coordination Sequence:
#
# PCOD9419581 Si02
#       6
#     8   8   8   8   8   8
#     4  10  25  42  61  90 127 170 213 260 310 368
#     4  11  23  40  66  94 123 167 211 252 317 380
#     4  11  24  42  66  97 128 157 204 266 320 384
#     4  11  25  39  60  91 126 167 216 261 306 359
#     4  11  21  42  65  91 125 166 206 257 315 372
#     4  11  21  38  61  90 126 166 214 258 303 369
#
# _framework density 19.785933
#
# number of rings (size 3 to 8) (size 9 to 14) (size 15 to 20)
#    0.000    1.167    5.000    0.500    7.000    2.000 
#    0.000    3.333    0.000    3.000    0.000    0.000 
#    0.000    0.000    0.000    0.000    0.000    0.000 
#
# Total GULP energy -268063.801495 kJ/mol
# GULP energy per Si atom -5584.662531 kJ/mol
# Density = 1.974090 g / cm^3
# Si number density = 19.785933 Si / 1000 Ang^3
#
#
#
# Elastic Constant Matrix: (Units=GPa)
#
#
# Indices 1 2 3 4 5 6 
#
# 1 99.2397 7.7068 30.6360 0.0000 0.0000 0.0000
# 2 7.7068 64.7368 1.9985 0.0000 0.0000 0.0000
# 3 30.6360 1.9985 102.8277 0.0000 0.0000 0.0000
# 4 0.0000 0.0000 0.0000 24.5502 0.0000 0.0000
# 5 0.0000 0.0000 0.0000 0.0000 -6.2609 0.0000
# 6 0.0000 0.0000 0.0000 0.0000 0.0000 4.9627
#
#
#
# Elastic Compliance Matrix: (Units=1/GPa)
#
#
# Indices 1 2 3 4 5 6 
#
# 1 0.011194 -0.001230 -0.003311 0.000000 0.000000 0.000000
# 2 -0.001230 0.015592 0.000064 0.000000 0.000000 0.000000
# 3 -0.003311 0.000064 0.010710 0.000000 0.000000 0.000000
# 4 0.000000 0.000000 0.000000 0.040733 0.000000 0.000000
# 5 0.000000 0.000000 0.000000 0.000000 -0.159721 0.000000
# 6 0.000000 0.000000 0.000000 0.000000 0.000000 0.201501
#
#
# Mechanical properties :
#
#
# Convention : Reuss Voigt Hill
#
# Bulk Modulus (GPa) = 35.03851 38.60967 36.82409
# Shear Modulus (GPa) = 36.10650 19.74794 27.92722
#
# Velocity S-wave (km/s) = 4.27647 3.16267 3.76103
# Velocity P-wave (km/s) = 6.49088 5.73521 6.12471
#
# Compressibility (1/GPa) = 0.02854003
#
# Stress axis : x y z
#
# Youngs Moduli (GPa) = 89.33051 64.13678 93.36790
#
# Poissons Ratio (x) = 0.07892 0.30917
# Poissons Ratio (y) = 0.10992 -0.00594
# Poissons Ratio (z) = 0.29580 -0.00408
#
# Static dielectric constant tensor:
#      x y z
#    x 1.695780 0.000000 0.000000 
#    y 0.000000 1.735700 0.000000 
#    z 0.000000 0.000000 1.705680 
# 
# From -- ./inp_files/12968.got.cif
#   From: 2010.05.17/outbox.cif.g08.bks.cpg/sg53_7_cif.got.tgz:12968.got - 2010.06.03 12:45:16.
