data_PCOD9419721
_publ_section_title
;
Structure prediction by ZEFSAII (Michael W. Deem and Ramdas Pophale) SiO2 
 PCOD9419721
Probable space group: P M N A
;
_chemical_formula_sum "Si O2"
_cell_formula_units_Z 32
_cell_length_a 8.626904
_cell_length_b 21.659534
_cell_length_c 9.283606
_cell_angle_alpha 90.000000
_cell_angle_beta 90.000000
_cell_angle_gamma 90.000000
_cell_volume 1734.685604
_symmetry_space_group_name_H-M "P M N A"
_symmetry_group_IT_number 53
_symmetry_cell_setting 'orthorhombic'
loop_
_space_group_symop_operation_xyz
x,y,z
1/2-x,-y,1/2+z
x,-y,-z
1/2-x,y,1/2-z
-x,-y,-z
1/2+x,y,1/2-z
-x,y,z
1/2+x,-y,1/2+z
loop_
_atom_site_type_symbol
_atom_site_label
_atom_site_fract_x
_atom_site_fract_y
_atom_site_fract_z
Si Si1 0.812902 0.440746 0.911739
Si Si2 0.315188 0.822703 0.086822
Si Si3 0.313950 0.938451 0.588667
Si Si4 0.686113 0.305652 0.586434
O O1 0.750000 0.444235 0.750000
O O2 0.771214 0.373097 0.975424
O O3 0.000000 0.442533 0.906114
O O4 0.757387 0.500000 0.000000
O O5 0.250000 0.828436 0.250000
O O6 0.500000 0.823108 0.093664
O O7 0.257777 0.756853 0.024099
O O8 0.253733 0.879039 0.992403
O O9 0.250000 0.942376 0.750000
O O10 0.500000 0.934043 0.592059
O O11 0.271187 0.000000 0.500000
O O12 0.750000 0.307473 0.750000
O O13 0.500000 0.299968 0.588689
#
# Coordination Sequence:
#
# PCOD9419721 Si02
#       4
#     8   8   8   8
#     4   9  18  32  50  74 103 136 175 220 267 316
#     4  11  21  35  57  83 111 142 180 223 268 319
#     4  11  24  41  61  85 113 144 179 219 264 315
#     4   9  16  29  50  74 103 137 176 220 265 316
#
# _framework density 18.447149
#
# number of rings (size 3 to 8) (size 9 to 14) (size 15 to 20)
#    0.000    2.000    0.000    6.000    0.000    5.500 
#    0.000    1.250    0.000    3.000    0.000    0.000 
#    0.000    0.000    0.000    0.000    0.000    0.000 
#
# Total GULP energy -178535.730960 kJ/mol
# GULP energy per Si atom -5579.241593 kJ/mol
# Density = 1.840516 g / cm^3
# Si number density = 18.447149 Si / 1000 Ang^3
#
#
#
# Elastic Constant Matrix: (Units=GPa)
#
#
# Indices 1 2 3 4 5 6 
#
# 1 80.3139 71.9868 33.5274 0.0000 0.0000 0.0000
# 2 71.9868 238.3922 83.6473 0.0000 0.0000 0.0000
# 3 33.5274 83.6473 79.5063 0.0000 0.0000 0.0000
# 4 0.0000 0.0000 0.0000 42.9512 0.0000 0.0000
# 5 0.0000 0.0000 0.0000 0.0000 22.5164 0.0000
# 6 0.0000 0.0000 0.0000 0.0000 0.0000 89.2215
#
#
#
# Elastic Compliance Matrix: (Units=1/GPa)
#
#
# Indices 1 2 3 4 5 6 
#
# 1 0.017479 -0.004267 -0.002881 0.000000 0.000000 0.000000
# 2 -0.004267 0.007691 -0.006292 0.000000 0.000000 0.000000
# 3 -0.002881 -0.006292 0.020413 0.000000 0.000000 0.000000
# 4 0.000000 0.000000 0.000000 0.023282 0.000000 0.000000
# 5 0.000000 0.000000 0.000000 0.000000 0.044412 0.000000
# 6 0.000000 0.000000 0.000000 0.000000 0.000000 0.011208
#
#
# Mechanical properties :
#
#
# Convention : Reuss Voigt Hill
#
# Bulk Modulus (GPa) = 53.47310 86.28171 69.87741
# Shear Modulus (GPa) = 31.72588 44.87453 38.30020
#
# Velocity S-wave (km/s) = 4.15158 4.93749 4.56149
# Velocity P-wave (km/s) = 7.21325 8.90949 8.10586
#
# Compressibility (1/GPa) = 0.01870099
#
# Stress axis : x y z
#
# Youngs Moduli (GPa) = 57.21305 130.02027 48.98886
#
# Poissons Ratio (x) = 0.55478 0.14116
# Poissons Ratio (y) = 0.24412 0.30826
# Poissons Ratio (z) = 0.16486 0.81813
#
# Static dielectric constant tensor:
#      x y z
#    x 1.615150 0.000000 0.000000 
#    y 0.000000 1.687630 0.000000 
#    z 0.000000 0.000000 1.614470 
# 
# From -- ./inp_files/6019.got.cif
#   From: 2010.05.17/outbox.cif.g08.bks.cpg/sg53_4_cif.got.tgz:6019.got - 2010.06.03 12:45:16.
