data_PCOD9419284
_publ_section_title
;
Structure prediction by ZEFSAII (Michael W. Deem and Ramdas Pophale) SiO2 
 PCOD9419284
Probable space group: P M N A
;
_chemical_formula_sum "Si O2"
_cell_formula_units_Z 40
_cell_length_a 8.654854
_cell_length_b 12.819874
_cell_length_c 18.390945
_cell_angle_alpha 90.000000
_cell_angle_beta 90.000000
_cell_angle_gamma 90.000000
_cell_volume 2040.551445
_symmetry_space_group_name_H-M "P M N A"
_symmetry_group_IT_number 53
_symmetry_cell_setting 'orthorhombic'
loop_
_space_group_symop_operation_xyz
x,y,z
1/2-x,-y,1/2+z
x,-y,-z
1/2-x,y,1/2-z
-x,-y,-z
1/2+x,y,1/2-z
-x,y,z
1/2+x,-y,1/2+z
loop_
_atom_site_type_symbol
_atom_site_label
_atom_site_fract_x
_atom_site_fract_y
_atom_site_fract_z
Si Si1 0.817003 0.287010 0.172307
Si Si2 0.815799 0.870460 0.068421
Si Si3 0.815008 0.312595 0.668698
Si Si4 0.684806 0.474460 0.083242
Si Si5 0.684038 0.905801 0.909364
O O1 0.750000 0.320692 0.250000
O O2 0.772382 0.374549 0.113729
O O3 0.739319 0.178673 0.148594
O O4 0.000000 0.274675 0.176378
O O5 0.759235 0.777098 0.119095
O O6 0.000000 0.868572 0.059701
O O7 0.763214 0.981874 0.100760
O O8 0.737237 0.865733 0.988978
O O9 0.750000 0.308085 0.750000
O O10 0.781334 0.424732 0.632543
O O11 0.000000 0.299024 0.669481
O O12 0.500000 0.454028 0.086488
O O13 0.724411 0.500000 0.000000
O O14 0.500000 0.917563 0.908415
#
# Coordination Sequence:
#
# PCOD9419284 Si02
#       5
#     8   8   8   8   8
#     4  12  25  41  62  90 124 160 201 249 303 360
#     4  11  22  39  63  92 123 157 202 250 299 355
#     4  11  23  39  60  88 123 162 203 248 301 358
#     4  10  22  41  65  91 121 158 200 246 298 358
#     4  11  22  40  64  90 122 160 202 246 298 356
#
# _framework density 19.602544999999999
#
# number of rings (size 3 to 8) (size 9 to 14) (size 15 to 20)
#    0.000    1.000    0.000    9.000    0.000    6.000 
#    0.000    4.000    0.000    0.000    0.000    0.000 
#    0.000    0.000    0.000    0.000    0.000    0.000 
#
# Total GULP energy -223900.552538 kJ/mol
# GULP energy per Si atom -5597.513813 kJ/mol
# Density = 1.955793 g / cm^3
# Si number density = 19.602545 Si / 1000 Ang^3
#
#
#
# Elastic Constant Matrix: (Units=GPa)
#
#
# Indices 1 2 3 4 5 6 
#
# 1 82.3670 13.9157 0.7310 0.0000 0.0000 0.0000
# 2 13.9157 41.7504 -1.6919 0.0000 0.0000 0.0000
# 3 0.7310 -1.6919 24.1698 0.0000 0.0000 0.0000
# 4 0.0000 0.0000 0.0000 -5.8376 0.0000 0.0000
# 5 0.0000 0.0000 0.0000 0.0000 -76.0694 0.0000
# 6 0.0000 0.0000 0.0000 0.0000 0.0000 -534.0744
#
#
#
# Elastic Compliance Matrix: (Units=1/GPa)
#
#
# Indices 1 2 3 4 5 6 
#
# 1 0.012877 -0.004320 -0.000692 0.000000 0.000000 0.000000
# 2 -0.004320 0.025469 0.001913 0.000000 0.000000 0.000000
# 3 -0.000692 0.001913 0.041529 0.000000 0.000000 0.000000
# 4 0.000000 0.000000 0.000000 -0.171304 0.000000 0.000000
# 5 0.000000 0.000000 0.000000 0.000000 -0.013146 0.000000
# 6 0.000000 0.000000 0.000000 0.000000 0.000000 -0.001872
#
#
# Mechanical properties :
#
#
# Convention : Reuss Voigt Hill
#
# Bulk Modulus (GPa) = 13.57252 19.35521 16.46387
# Shear Modulus (GPa) = -66.05780 -114.17412 -90.11596
#
# Velocity S-wave (km/s) = -5.81135 -7.64009 -6.78759
# Velocity P-wave (km/s) = 6.17172 8.24213 7.28089
#
# Compressibility (1/GPa) = 0.07367827
#
# Stress axis : x y z
#
# Youngs Moduli (GPa) = 77.65923 39.26297 24.07962
#
# Poissons Ratio (x) = 0.16961 0.01666
# Poissons Ratio (y) = 0.33548 -0.04608
# Poissons Ratio (z) = 0.05373 -0.07513
#
# Static dielectric constant tensor:
#      x y z
#    x 1.660760 0.000000 0.000000 
#    y 0.000000 1.644890 0.000000 
#    z 0.000000 0.000000 1.684600 
# 
# From -- ./inp_files/25846.got.cif
#   From: 2010.05.17/outbox.cif.g08.bks.cpg/sg53_13_cif.got.tgz:25846.got - 2010.06.03 12:45:16.
