data_PCOD9419586
_publ_section_title
;
Structure prediction by ZEFSAII (Michael W. Deem and Ramdas Pophale) SiO2 
 PCOD9419586
Probable space group: P M N A
;
_chemical_formula_sum "Si O2"
_cell_formula_units_Z 40
_cell_length_a 18.840067
_cell_length_b 9.555044
_cell_length_c 11.335833
_cell_angle_alpha 90.000000
_cell_angle_beta 90.000000
_cell_angle_gamma 90.000000
_cell_volume 2040.650235
_symmetry_space_group_name_H-M "P M N A"
_symmetry_group_IT_number 53
_symmetry_cell_setting 'orthorhombic'
loop_
_space_group_symop_operation_xyz
x,y,z
1/2-x,-y,1/2+z
x,-y,-z
1/2-x,y,1/2-z
-x,-y,-z
1/2+x,y,1/2-z
-x,y,z
1/2+x,-y,1/2+z
loop_
_atom_site_type_symbol
_atom_site_label
_atom_site_fract_x
_atom_site_fract_y
_atom_site_fract_z
Si Si1 0.841121 0.655870 0.027018
Si Si2 0.916975 0.932907 0.622567
Si Si3 0.181958 0.574084 0.382411
Si Si4 0.671963 0.287454 0.258842
Si Si5 0.082893 0.782622 0.247606
O O1 0.760916 0.631732 0.081289
O O2 0.886928 0.740572 0.120426
O O3 0.869061 0.500000 0.000000
O O4 0.843977 0.722123 0.897279
O O5 0.878496 0.796884 0.671821
O O6 0.000000 0.900987 0.603144
O O7 0.889371 0.000000 0.500000
O O8 0.910769 0.054646 0.720291
O O9 0.154717 0.500000 0.500000
O O10 0.178411 0.448941 0.285597
O O11 0.131721 0.696618 0.338408
O O12 0.750000 0.223786 0.250000
O O13 0.000000 0.744168 0.258729
#
# Coordination Sequence:
#
# PCOD9419586 Si02
#       5
#     8   8   8   8   8
#     4  11  22  40  66  96 133 163 210 275 324 384
#     4  10  25  47  65  91 136 177 217 268 320 385
#     4  11  21  39  68  92 128 165 213 271 322 381
#     4  12  22  40  66 100 125 170 216 264 330 380
#     4  11  24  42  63  91 131 174 212 264 326 380
#
# _framework density 19.601595
#
# number of rings (size 3 to 8) (size 9 to 14) (size 15 to 20)
#    0.000    1.000    6.000    1.800    0.000    4.800 
#    0.000    2.000    0.000    0.000    0.000    0.000 
#    0.000    0.000    0.000    0.000    0.000    0.000 
#
# Total GULP energy -223210.302780 kJ/mol
# GULP energy per Si atom -5580.257570 kJ/mol
# Density = 1.955698 g / cm^3
# Si number density = 19.601595 Si / 1000 Ang^3
#
#
#
# Elastic Constant Matrix: (Units=GPa)
#
#
# Indices 1 2 3 4 5 6 
#
# 1 54.0129 34.4152 14.0925 0.0000 0.0000 0.0000
# 2 34.4152 56.9211 7.6825 0.0000 0.0000 0.0000
# 3 14.0925 7.6825 89.4203 0.0000 0.0000 0.0000
# 4 0.0000 0.0000 0.0000 33.2538 0.0000 0.0000
# 5 0.0000 0.0000 0.0000 0.0000 24.0122 0.0000
# 6 0.0000 0.0000 0.0000 0.0000 0.0000 69.3856
#
#
#
# Elastic Compliance Matrix: (Units=1/GPa)
#
#
# Indices 1 2 3 4 5 6 
#
# 1 0.031061 -0.018332 -0.003320 0.000000 0.000000 0.000000
# 2 -0.018332 0.028593 0.000432 0.000000 0.000000 0.000000
# 3 -0.003320 0.000432 0.011669 0.000000 0.000000 0.000000
# 4 0.000000 0.000000 0.000000 0.030072 0.000000 0.000000
# 5 0.000000 0.000000 0.000000 0.000000 0.041646 0.000000
# 6 0.000000 0.000000 0.000000 0.000000 0.000000 0.014412
#
#
# Mechanical properties :
#
#
# Convention : Reuss Voigt Hill
#
# Bulk Modulus (GPa) = 34.62047 34.74831 34.68439
# Shear Modulus (GPa) = 23.86414 34.94126 29.40270
#
# Velocity S-wave (km/s) = 3.49300 4.22663 3.87721
# Velocity P-wave (km/s) = 5.82825 6.44864 6.14628
#
# Compressibility (1/GPa) = 0.02888464
#
# Stress axis : x y z
#
# Youngs Moduli (GPa) = 32.19510 34.97322 85.69541
#
# Poissons Ratio (x) = 0.64111 0.28452
# Poissons Ratio (y) = 0.59019 -0.03706
# Poissons Ratio (z) = 0.10689 -0.01512
#
# Static dielectric constant tensor:
#      x y z
#    x 1.687870 0.000000 0.000000 
#    y 0.000000 1.678360 0.000000 
#    z 0.000000 0.000000 1.758120 
# 
# From -- ./inp_files/16667.got.cif
#   From: 2010.05.17/outbox.cif.g08.bks.cpg/sg53_9_cif.got.tgz:16667.got - 2010.06.03 12:45:16.
