data_PCOD9419491
_publ_section_title
;
Structure prediction by ZEFSAII (Michael W. Deem and Ramdas Pophale) SiO2 
 PCOD9419491
Probable space group: P M N A
;
_chemical_formula_sum "Si O2"
_cell_formula_units_Z 64
_cell_length_a 8.746206
_cell_length_b 24.050080
_cell_length_c 15.727580
_cell_angle_alpha 90.000000
_cell_angle_beta 90.000000
_cell_angle_gamma 90.000000
_cell_volume 3308.248547
_symmetry_space_group_name_H-M "P M N A"
_symmetry_group_IT_number 53
_symmetry_cell_setting 'orthorhombic'
loop_
_space_group_symop_operation_xyz
x,y,z
1/2-x,-y,1/2+z
x,-y,-z
1/2-x,y,1/2-z
-x,-y,-z
1/2+x,y,1/2-z
-x,y,z
1/2+x,-y,1/2+z
loop_
_atom_site_type_symbol
_atom_site_label
_atom_site_fract_x
_atom_site_fract_y
_atom_site_fract_z
Si Si1 0.318688 0.434066 0.002909
Si Si2 0.682828 0.135846 0.838758
Si Si3 0.317617 0.248264 0.589318
Si Si4 0.683227 0.064970 0.006395
Si Si5 0.817956 0.371049 0.841682
Si Si6 0.182834 0.749264 0.600214
Si Si7 0.182351 0.367406 0.160439
Si Si8 0.818049 0.134320 0.160994
O O1 0.500000 0.423590 0.010913
O O2 0.257555 0.406299 0.916829
O O3 0.292820 0.500000 0.000000
O O4 0.235084 0.406035 0.082753
O O5 0.750000 0.114767 0.750000
O O6 0.500000 0.141077 0.832719
O O7 0.755409 0.195781 0.859115
O O8 0.719192 0.096064 0.918181
O O9 0.500000 0.242904 0.575906
O O10 0.288585 0.306105 0.637371
O O11 0.234979 0.249893 0.498153
O O12 0.500000 0.070344 0.020419
O O13 0.768167 0.095173 0.083338
O O14 0.720615 0.000000 0.000000
O O15 0.750000 0.385097 0.750000
O O16 0.000000 0.379628 0.842233
O O17 0.251508 0.694031 0.642189
O O18 0.247979 0.804807 0.642961
O O19 0.000000 0.748607 0.605985
O O20 0.250000 0.387484 0.250000
O O21 0.000000 0.364882 0.164290
O O22 0.750000 0.113439 0.250000
O O23 0.000000 0.138320 0.165897
#
# Coordination Sequence:
#
# PCOD9419491 Si02
#       8
#     8   8   8   8   8   8   8   8
#     4  11  25  45  68  94 126 167 216 267 318 375
#     4  11  23  39  63  92 127 168 209 260 317 375
#     4  11  22  38  63  96 130 165 207 255 314 382
#     4  10  23  44  66  91 126 168 215 267 319 375
#     4  11  24  41  65  95 130 169 211 260 315 377
#     4  12  23  39  65  96 132 169 207 256 319 383
#     4  12  25  43  67  97 131 169 213 261 318 379
#     4  12  25  42  66  95 130 168 213 263 317 382
#
# _framework density 19.345583000000001
#
# number of rings (size 3 to 8) (size 9 to 14) (size 15 to 20)
#    0.000    0.750    2.500    5.625    0.000    5.250 
#    0.000    1.250    0.000    0.000    0.000    0.000 
#    0.000    0.000    0.000    0.000    0.000    0.000 
#
# Total GULP energy -358290.871604 kJ/mol
# GULP energy per Si atom -5598.294869 kJ/mol
# Density = 1.930155 g / cm^3
# Si number density = 19.345583 Si / 1000 Ang^3
#
#
#
# Elastic Constant Matrix: (Units=GPa)
#
#
# Indices 1 2 3 4 5 6 
#
# 1 144.5106 81.0487 90.5049 0.0000 0.0000 0.0000
# 2 81.0487 103.6462 61.8537 0.0000 0.0000 0.0000
# 3 90.5049 61.8537 177.8706 0.0000 0.0000 0.0000
# 4 0.0000 0.0000 0.0000 -10.3381 0.0000 0.0000
# 5 0.0000 0.0000 0.0000 0.0000 37.8737 0.0000
# 6 0.0000 0.0000 0.0000 0.0000 0.0000 -9.9125
#
#
#
# Elastic Compliance Matrix: (Units=1/GPa)
#
#
# Indices 1 2 3 4 5 6 
#
# 1 0.014591 -0.008807 -0.004362 0.000000 0.000000 0.000000
# 2 -0.008807 0.017490 -0.001601 0.000000 0.000000 0.000000
# 3 -0.004362 -0.001601 0.008398 0.000000 0.000000 0.000000
# 4 0.000000 0.000000 0.000000 -0.096730 0.000000 0.000000
# 5 0.000000 0.000000 0.000000 0.000000 0.026404 0.000000
# 6 0.000000 0.000000 0.000000 0.000000 0.000000 -0.100882
#
#
# Mechanical properties :
#
#
# Convention : Reuss Voigt Hill
#
# Bulk Modulus (GPa) = 91.40490 99.20466 95.30478
# Shear Modulus (GPa) = -51.25917 16.36595 -17.44661
#
# Velocity S-wave (km/s) = -5.15307 2.91173 -3.00632
# Velocity P-wave (km/s) = 3.45624 7.91807 6.10907
#
# Compressibility (1/GPa) = 0.01094033
#
# Stress axis : x y z
#
# Youngs Moduli (GPa) = 68.53646 57.17450 119.07362
#
# Poissons Ratio (x) = 0.50352 0.51936
# Poissons Ratio (y) = 0.60358 0.19065
# Poissons Ratio (z) = 0.29893 0.09154
#
# Static dielectric constant tensor:
#      x y z
#    x 1.646370 0.000000 0.000000 
#    y 0.000000 1.649280 0.000000 
#    z 0.000000 0.000000 1.667010 
# 
# From -- ./inp_files/20921.got.cif
#   From: 2010.05.17/outbox.cif.g08.bks.cpg/sg53_11_cif.got.tgz:20921.got - 2010.06.03 12:45:16.
