data_PCOD9419062
_publ_section_title
;
Structure prediction by ZEFSAII (Michael W. Deem and Ramdas Pophale) SiO2 
 PCOD9419062
Probable space group: P M N A
;
_chemical_formula_sum "Si O2"
_cell_formula_units_Z 48
_cell_length_a 15.341793
_cell_length_b 11.227453
_cell_length_c 15.789635
_cell_angle_alpha 90.000000
_cell_angle_beta 90.000000
_cell_angle_gamma 90.000000
_cell_volume 2719.752942
_symmetry_space_group_name_H-M "P M N A"
_symmetry_group_IT_number 53
_symmetry_cell_setting 'orthorhombic'
loop_
_space_group_symop_operation_xyz
x,y,z
1/2-x,-y,1/2+z
x,-y,-z
1/2-x,y,1/2-z
-x,-y,-z
1/2+x,y,1/2-z
-x,y,z
1/2+x,-y,1/2+z
loop_
_atom_site_type_symbol
_atom_site_label
_atom_site_fract_x
_atom_site_fract_y
_atom_site_fract_z
Si Si1 0.000000 0.791762 0.497654
Si Si2 0.649549 0.385035 0.560007
Si Si3 0.000000 0.791762 0.002342
Si Si4 0.500000 0.982665 0.624200
Si Si5 0.604473 0.339980 0.750000
Si Si6 0.147821 0.059393 0.750000
Si Si7 0.649550 0.614964 0.060008
Si Si8 0.000000 0.017338 0.375799
O O1 0.083523 0.714302 0.473327
O O2 0.000000 0.847913 0.590718
O O3 0.000000 0.910163 0.442172
O O4 0.635899 0.500000 0.500000
O O5 0.583523 0.285698 0.526670
O O6 0.632280 0.400877 0.661157
O O7 0.750000 0.348231 0.551106
O O8 0.000000 0.910162 0.057825
O O9 0.000000 0.847915 0.909279
O O10 0.409965 0.007610 0.673558
O O11 0.500000 0.331496 0.750001
O O12 0.639621 0.203805 0.750002
O O13 0.632281 0.400880 0.838842
O O14 0.250000 0.028763 0.750000
O O15 0.090035 0.007605 0.673560
O O16 0.635899 0.500000 0.000000
#
# Coordination Sequence:
#
# PCOD9419062 Si02
#       8
#     4   8   4   4   8   8   8   4
#     4  11  21  38  57  83 124 151 191 240 305 345
#     4  11  23  39  62  92 121 156 202 246 296 356
#     4  11  21  38  57  83 124 151 191 240 305 345
#     4  10  22  36  55  89 115 148 195 247 289 365
#     4  12  20  37  63  87 119 155 203 249 294 351
#     4  11  19  36  59  82 114 155 202 248 294 344
#     4  11  23  39  62  92 121 156 202 246 296 356
#     4  10  22  36  55  89 115 148 195 247 289 365
#
# _framework density 17.648662000000002
#
# number of rings (size 3 to 8) (size 9 to 14) (size 15 to 20)
#    0.000    1.000    6.667    2.000    0.000    1.333 
#    0.000    6.667    0.000    0.000    0.000    0.000 
#    0.000    0.000    0.000    0.000    0.000    0.000 
#
# Total GULP energy -267468.591081 kJ/mol
# GULP energy per Si atom -5572.262314 kJ/mol
# Density = 1.760849 g / cm^3
# Si number density = 17.648662 Si / 1000 Ang^3
#
#
#
# Elastic Constant Matrix: (Units=GPa)
#
#
# Indices 1 2 3 4 5 6 
#
# 1 176.7600 66.4545 60.5953 0.0000 0.0000 0.0000
# 2 66.4545 81.6109 67.9574 0.0000 0.0000 0.0000
# 3 60.5953 67.9574 117.0476 0.0000 0.0000 0.0000
# 4 0.0000 0.0000 0.0000 34.8607 0.0000 0.0000
# 5 0.0000 0.0000 0.0000 0.0000 20.5113 0.0000
# 6 0.0000 0.0000 0.0000 0.0000 0.0000 327.6002
#
#
#
# Elastic Compliance Matrix: (Units=1/GPa)
#
#
# Indices 1 2 3 4 5 6 
#
# 1 0.008184 -0.006071 -0.000712 0.000000 0.000000 0.000000
# 2 -0.006071 0.028226 -0.013245 0.000000 0.000000 0.000000
# 3 -0.000712 -0.013245 0.016602 0.000000 0.000000 0.000000
# 4 0.000000 0.000000 0.000000 0.028686 0.000000 0.000000
# 5 0.000000 0.000000 0.000000 0.000000 0.048754 0.000000
# 6 0.000000 0.000000 0.000000 0.000000 0.000000 0.003053
#
#
# Mechanical properties :
#
#
# Convention : Reuss Voigt Hill
#
# Bulk Modulus (GPa) = 77.18445 85.04808 81.11627
# Shear Modulus (GPa) = 28.10908 88.62185 58.36547
#
# Velocity S-wave (km/s) = 3.99520 7.09391 5.75696
# Velocity P-wave (km/s) = 8.06914 10.74207 9.50008
#
# Compressibility (1/GPa) = 0.01295598
#
# Stress axis : x y z
#
# Youngs Moduli (GPa) = 122.18974 35.42823 60.23389
#
# Poissons Ratio (x) = 0.21510 0.04288
# Poissons Ratio (y) = 0.74186 0.79779
# Poissons Ratio (z) = 0.08698 0.46924
#
# Static dielectric constant tensor:
#      x y z
#    x 1.576460 0.000000 0.000000 
#    y 0.000000 1.575750 0.000000 
#    z 0.000000 0.000000 1.830050 
# 
# From -- ./inp_files/28325.got.cif
#   From: 2010.05.17/outbox.cif.g08.bks.cpg/sg53_15_cif.got.tgz:28325.got - 2010.06.03 12:45:16.
