data_PCOD9419178
_publ_section_title
;
Structure prediction by ZEFSAII (Michael W. Deem and Ramdas Pophale) SiO2 
 PCOD9419178
Probable space group: P M N A
;
_chemical_formula_sum "Si O2"
_cell_formula_units_Z 56
_cell_length_a 8.646220
_cell_length_b 19.827055
_cell_length_c 16.305957
_cell_angle_alpha 90.000000
_cell_angle_beta 90.000000
_cell_angle_gamma 90.000000
_cell_volume 2795.315199
_symmetry_space_group_name_H-M "P M N A"
_symmetry_group_IT_number 53
_symmetry_cell_setting 'orthorhombic'
loop_
_space_group_symop_operation_xyz
x,y,z
1/2-x,-y,1/2+z
x,-y,-z
1/2-x,y,1/2-z
-x,-y,-z
1/2+x,y,1/2-z
-x,y,z
1/2+x,-y,1/2+z
loop_
_atom_site_type_symbol
_atom_site_label
_atom_site_fract_x
_atom_site_fract_y
_atom_site_fract_z
Si Si1 0.685002 0.791171 0.416695
Si Si2 0.184077 0.794748 0.592114
Si Si3 0.685069 0.927811 0.157261
Si Si4 0.313770 0.654508 0.836534
Si Si5 0.683863 0.652810 0.337326
Si Si6 0.813401 0.421281 0.502337
Si Si7 0.316105 0.931977 0.657915
O O1 0.500000 0.793032 0.428991
O O2 0.770445 0.773037 0.500788
O O3 0.745276 0.863750 0.388691
O O4 0.720797 0.732033 0.352200
O O5 0.230779 0.732987 0.650632
O O6 0.268984 0.864433 0.611200
O O7 0.000000 0.804879 0.598798
O O8 0.750000 0.925380 0.250000
O O9 0.500000 0.924954 0.157915
O O10 0.741384 0.999731 0.122356
O O11 0.250000 0.629176 0.750000
O O12 0.500000 0.651418 0.834594
O O13 0.261366 0.614361 0.917682
O O14 0.750000 0.630282 0.250000
O O15 0.500000 0.645773 0.336033
O O16 0.748036 0.613315 0.416061
O O17 0.772011 0.500000 0.500000
O O18 0.000000 0.415687 0.505372
O O19 0.250000 0.924627 0.750000
O O20 0.500000 0.939767 0.661038
#
# Coordination Sequence:
#
# PCOD9419178 Si02
#       7
#     8   8   8   8   8   8   8
#     4  11  23  39  60  89 121 160 207 261 318 373
#     4  11  22  38  60  87 119 159 207 261 317 373
#     4  11  22  38  59  84 116 157 204 257 314 376
#     4  10  22  39  63  93 126 167 209 259 313 373
#     4  11  24  41  66  96 130 171 215 263 316 378
#     4  10  22  43  68  96 132 170 211 260 315 374
#     4  11  22  38  58  83 117 157 204 258 313 375
#
# _framework density 20.033518999999998
#
# number of rings (size 3 to 8) (size 9 to 14) (size 15 to 20)
#    0.000    1.286    1.429    5.571    0.000    7.143 
#    0.000    4.286    0.000    0.000    0.000    0.000 
#    0.000    0.000    0.000    0.000    0.000    0.000 
#
# Total GULP energy -313089.052742 kJ/mol
# GULP energy per Si atom -5590.875942 kJ/mol
# Density = 1.998792 g / cm^3
# Si number density = 20.033519 Si / 1000 Ang^3
#
#
#
# Elastic Constant Matrix: (Units=GPa)
#
#
# Indices 1 2 3 4 5 6 
#
# 1 44.7469 29.9452 9.4585 0.0000 0.0000 0.0000
# 2 29.9452 114.0560 52.1500 0.0000 0.0000 0.0000
# 3 9.4585 52.1500 125.1572 0.0000 0.0000 0.0000
# 4 0.0000 0.0000 0.0000 20.4464 0.0000 0.0000
# 5 0.0000 0.0000 0.0000 0.0000 35.6724 0.0000
# 6 0.0000 0.0000 0.0000 0.0000 0.0000 23.2389
#
#
#
# Elastic Compliance Matrix: (Units=1/GPa)
#
#
# Indices 1 2 3 4 5 6 
#
# 1 0.027242 -0.007673 0.001138 0.000000 0.000000 0.000000
# 2 -0.007673 0.012992 -0.004834 0.000000 0.000000 0.000000
# 3 0.001138 -0.004834 0.009918 0.000000 0.000000 0.000000
# 4 0.000000 0.000000 0.000000 0.048908 0.000000 0.000000
# 5 0.000000 0.000000 0.000000 0.000000 0.028033 0.000000
# 6 0.000000 0.000000 0.000000 0.000000 0.000000 0.043031
#
#
# Mechanical properties :
#
#
# Convention : Reuss Voigt Hill
#
# Bulk Modulus (GPa) = 36.47519 51.89637 44.18578
# Shear Modulus (GPa) = 24.75248 28.69863 26.72555
#
# Velocity S-wave (km/s) = 3.51886 3.78898 3.65642
# Velocity P-wave (km/s) = 5.89546 6.71587 6.31899
#
# Compressibility (1/GPa) = 0.02741590
#
# Stress axis : x y z
#
# Youngs Moduli (GPa) = 36.70798 76.96916 100.82669
#
# Poissons Ratio (x) = 0.59057 -0.11477
# Poissons Ratio (y) = 0.28165 0.48736
# Poissons Ratio (z) = -0.04179 0.37204
#
# Static dielectric constant tensor:
#      x y z
#    x 1.675530 0.000000 0.000000 
#    y 0.000000 1.713820 0.000000 
#    z 0.000000 0.000000 1.788870 
# 
# From -- ./inp_files/20538.got.cif
#   From: 2010.05.17/outbox.cif.g08.bks.cpg/sg53_11_cif.got.tgz:20538.got - 2010.06.03 12:45:16.
