data_PCOD9419816
_publ_section_title
;
Structure prediction by ZEFSAII (Michael W. Deem and Ramdas Pophale) SiO2 
 PCOD9419816
Probable space group: P M N A
;
_chemical_formula_sum "Si O2"
_cell_formula_units_Z 40
_cell_length_a 16.670026
_cell_length_b 13.836629
_cell_length_c 8.126995
_cell_angle_alpha 90.000000
_cell_angle_beta 90.000000
_cell_angle_gamma 90.000000
_cell_volume 1874.548003
_symmetry_space_group_name_H-M "P M N A"
_symmetry_group_IT_number 53
_symmetry_cell_setting 'orthorhombic'
loop_
_space_group_symop_operation_xyz
x,y,z
1/2-x,-y,1/2+z
x,-y,-z
1/2-x,y,1/2-z
-x,-y,-z
1/2+x,y,1/2-z
-x,y,z
1/2+x,-y,1/2+z
loop_
_atom_site_type_symbol
_atom_site_label
_atom_site_fract_x
_atom_site_fract_y
_atom_site_fract_z
Si Si1 0.665759 0.233062 0.148897
Si Si2 0.260438 0.398217 0.943744
Si Si3 0.158359 0.964939 0.752387
Si Si4 0.091024 0.331692 0.049256
Si Si5 0.408878 0.130074 0.576964
O O1 0.750000 0.227905 0.250000
O O2 0.643721 0.120435 0.120626
O O3 0.601530 0.281877 0.271476
O O4 0.687772 0.306229 0.003516
O O5 0.250000 0.397243 0.750000
O O6 0.297994 0.500000 0.000000
O O7 0.171328 0.393621 0.026007
O O8 0.250000 0.996395 0.750000
O O9 0.107566 0.062351 0.767647
O O10 0.143808 0.908980 0.925765
O O11 0.000000 0.370765 0.033364
O O12 0.101675 0.244591 0.916110
O O13 0.500000 0.114818 0.523425
#
# Coordination Sequence:
#
# PCOD9419816 Si02
#       5
#     8   8   8   8   8
#     4   8  16  32  52  78 108 142 186 235 287 341
#     4  11  22  38  60  83 113 152 193 242 299 356
#     4   9  15  25  46  75 105 137 183 234 269 318
#     4   9  18  34  57  83 113 149 192 242 289 341
#     4   9  17  30  49  77 112 150 188 226 280 340
#
# _framework density 21.338477999999999
#
# number of rings (size 3 to 8) (size 9 to 14) (size 15 to 20)
#    0.000    2.800    0.000    4.200    0.000    2.000 
#    0.000    1.000    0.000    2.400    0.000   14.000 
#    0.000    1.600    0.000    0.000    0.000    0.000 
#
# Total GULP energy -222745.157311 kJ/mol
# GULP energy per Si atom -5568.628933 kJ/mol
# Density = 2.128991 g / cm^3
# Si number density = 21.338478 Si / 1000 Ang^3
#
#
#
# Elastic Constant Matrix: (Units=GPa)
#
#
# Indices 1 2 3 4 5 6 
#
# 1 71.7372 -2.2942 -2.0735 0.0000 0.0000 0.0000
# 2 -2.2942 92.9745 28.2451 0.0000 0.0000 0.0000
# 3 -2.0735 28.2451 74.5021 0.0000 0.0000 0.0000
# 4 0.0000 0.0000 0.0000 28.7818 0.0000 0.0000
# 5 0.0000 0.0000 0.0000 0.0000 18.2987 0.0000
# 6 0.0000 0.0000 0.0000 0.0000 0.0000 14.9297
#
#
#
# Elastic Compliance Matrix: (Units=1/GPa)
#
#
# Indices 1 2 3 4 5 6 
#
# 1 0.013956 0.000256 0.000291 0.000000 0.000000 0.000000
# 2 0.000256 0.012160 -0.004603 0.000000 0.000000 0.000000
# 3 0.000291 -0.004603 0.015176 0.000000 0.000000 0.000000
# 4 0.000000 0.000000 0.000000 0.034744 0.000000 0.000000
# 5 0.000000 0.000000 0.000000 0.000000 0.054649 0.000000
# 6 0.000000 0.000000 0.000000 0.000000 0.000000 0.066981
#
#
# Mechanical properties :
#
#
# Convention : Reuss Voigt Hill
#
# Bulk Modulus (GPa) = 30.13792 31.88538 31.01165
# Shear Modulus (GPa) = 23.05870 26.75779 24.90824
#
# Velocity S-wave (km/s) = 3.29084 3.54498 3.42027
# Velocity P-wave (km/s) = 5.34733 5.63303 5.49203
#
# Compressibility (1/GPa) = 0.03318079
#
# Stress axis : x y z
#
# Youngs Moduli (GPa) = 71.65182 82.23453 65.89494
#
# Poissons Ratio (x) = -0.02104 -0.01920
# Poissons Ratio (y) = -0.01833 0.30332
# Poissons Ratio (z) = -0.02088 0.37853
#
# Static dielectric constant tensor:
#      x y z
#    x 1.755600 0.000000 0.000000 
#    y 0.000000 1.898360 0.000000 
#    z 0.000000 0.000000 1.804940 
# 
# From -- ./inp_files/9804.got.cif
#   From: 2010.05.17/outbox.cif.g08.bks.cpg/sg53_5_cif.got.tgz:9804.got - 2010.06.03 12:45:16.
