data_PCOD9419432
_publ_section_title
;
Structure prediction by ZEFSAII (Michael W. Deem and Ramdas Pophale) SiO2 
 PCOD9419432
Probable space group: P M N A
;
_chemical_formula_sum "Si O2"
_cell_formula_units_Z 56
_cell_length_a 15.244321
_cell_length_b 9.784644
_cell_length_c 17.138761
_cell_angle_alpha 90.000000
_cell_angle_beta 90.000000
_cell_angle_gamma 90.000000
_cell_volume 2556.421944
_symmetry_space_group_name_H-M "P M N A"
_symmetry_group_IT_number 53
_symmetry_cell_setting 'orthorhombic'
loop_
_space_group_symop_operation_xyz
x,y,z
1/2-x,-y,1/2+z
x,-y,-z
1/2-x,y,1/2-z
-x,-y,-z
1/2+x,y,1/2-z
-x,y,z
1/2+x,-y,1/2+z
loop_
_atom_site_type_symbol
_atom_site_label
_atom_site_fract_x
_atom_site_fract_y
_atom_site_fract_z
Si Si1 0.648467 0.048540 0.229768
Si Si2 0.907365 0.180241 0.846019
Si Si3 0.655178 0.640822 0.216578
Si Si4 0.781033 0.845402 0.015425
Si Si5 0.897032 0.635945 0.755421
Si Si6 0.896534 0.623112 0.937597
Si Si7 0.897668 0.855259 0.411834
O O1 0.750000 0.026941 0.250000
O O2 0.628994 0.208390 0.238212
O O3 0.598983 0.956291 0.293954
O O4 0.624449 0.983144 0.145866
O O5 0.906245 0.305685 0.786275
O O6 0.824435 0.191152 0.901704
O O7 0.000000 0.180451 0.890275
O O8 0.750000 0.681556 0.250000
O O9 0.651819 0.479154 0.205566
O O10 0.622879 0.723458 0.141906
O O11 0.675750 0.844870 0.021091
O O12 0.828186 0.742769 0.957244
O O13 0.808880 0.000000 0.000000
O O14 0.881946 0.595797 0.846081
O O15 0.000000 0.623618 0.739685
O O16 0.000000 0.661756 0.944607
O O17 0.882416 0.500000 0.000000
O O18 0.000000 0.860214 0.434534
#
# Coordination Sequence:
#
# PCOD9419432 Si02
#       7
#     8   8   8   8   8   8   8
#     4  11  20  37  58  89 123 155 193 253 317 359
#     4  11  20  36  61  88 122 157 194 247 305 364
#     4  11  20  38  63  94 120 158 200 251 308 366
#     4  12  24  40  61  88 123 165 210 249 291 354
#     4  11  22  36  59  94 125 155 192 247 318 371
#     4  10  23  41  62  91 128 163 197 241 302 372
#     4  11  23  42  64  88 119 160 211 257 296 352
#
# _framework density 21.905616999999999
#
# number of rings (size 3 to 8) (size 9 to 14) (size 15 to 20)
#    0.000    1.000    2.857    6.857    0.000    3.714 
#    0.000    0.000    0.000    0.429    0.000    0.000 
#    0.000    0.000    0.000    0.000    0.000    0.000 
#
# Total GULP energy -313009.269874 kJ/mol
# GULP energy per Si atom -5589.451248 kJ/mol
# Density = 2.185576 g / cm^3
# Si number density = 21.905617 Si / 1000 Ang^3
#
#
#
# Elastic Constant Matrix: (Units=GPa)
#
#
# Indices 1 2 3 4 5 6 
#
# 1 145.0152 13.3335 1.8565 0.0000 0.0000 0.0000
# 2 13.3335 134.6509 16.4660 0.0000 0.0000 0.0000
# 3 1.8565 16.4660 26.8778 0.0000 0.0000 0.0000
# 4 0.0000 0.0000 0.0000 14.9850 0.0000 0.0000
# 5 0.0000 0.0000 0.0000 0.0000 15.9734 0.0000
# 6 0.0000 0.0000 0.0000 0.0000 0.0000 -44.4142
#
#
#
# Elastic Compliance Matrix: (Units=1/GPa)
#
#
# Indices 1 2 3 4 5 6 
#
# 1 0.006959 -0.000681 -0.000063 0.000000 0.000000 0.000000
# 2 -0.000681 0.008095 -0.004912 0.000000 0.000000 0.000000
# 3 -0.000063 -0.004912 0.040219 0.000000 0.000000 0.000000
# 4 0.000000 0.000000 0.000000 0.066733 0.000000 0.000000
# 5 0.000000 0.000000 0.000000 0.000000 0.062604 0.000000
# 6 0.000000 0.000000 0.000000 0.000000 0.000000 -0.022515
#
#
# Mechanical properties :
#
#
# Convention : Reuss Voigt Hill
#
# Bulk Modulus (GPa) = 22.74810 41.09513 31.92162
# Shear Modulus (GPa) = 26.58706 15.63471 21.11089
#
# Velocity S-wave (km/s) = 3.48761 2.67447 3.10775
# Velocity P-wave (km/s) = 5.15995 5.32333 5.24228
#
# Compressibility (1/GPa) = 0.04395971
#
# Stress axis : x y z
#
# Youngs Moduli (GPa) = 143.69280 123.53677 24.86391
#
# Poissons Ratio (x) = 0.08418 0.00157
# Poissons Ratio (y) = 0.09791 0.12213
# Poissons Ratio (z) = 0.00909 0.60681
#
# Static dielectric constant tensor:
#      x y z
#    x 1.812910 0.000000 0.000000 
#    y 0.000000 1.783470 0.000000 
#    z 0.000000 0.000000 1.808140 
# 
# From -- ./inp_files/32455.got.cif
#   From: 2010.05.17/outbox.cif.g08.bks.cpg/sg53_17_cif.got.tgz:32455.got - 2010.06.03 12:45:16.
