data_PCOD9419307
_publ_section_title
;
Structure prediction by ZEFSAII (Michael W. Deem and Ramdas Pophale) SiO2 
 PCOD9419307
Probable space group: P M N A
;
_chemical_formula_sum "Si O2"
_cell_formula_units_Z 40
_cell_length_a 14.983222
_cell_length_b 6.844828
_cell_length_c 17.386262
_cell_angle_alpha 90.000000
_cell_angle_beta 90.000000
_cell_angle_gamma 90.000000
_cell_volume 1783.092912
_symmetry_space_group_name_H-M "P M N A"
_symmetry_group_IT_number 53
_symmetry_cell_setting 'orthorhombic'
loop_
_space_group_symop_operation_xyz
x,y,z
1/2-x,-y,1/2+z
x,-y,-z
1/2-x,y,1/2-z
-x,-y,-z
1/2+x,y,1/2-z
-x,y,z
1/2+x,-y,1/2+z
loop_
_atom_site_type_symbol
_atom_site_label
_atom_site_fract_x
_atom_site_fract_y
_atom_site_fract_z
Si Si1 0.606781 0.513446 0.867427
Si Si2 0.821295 0.119145 0.692348
Si Si3 0.212115 0.155066 0.446681
Si Si4 0.601961 0.704133 0.543797
Si Si5 0.395038 0.756330 0.721114
O O1 0.500000 0.536861 0.878116
O O2 0.629548 0.286183 0.855965
O O3 0.659300 0.645212 0.929548
O O4 0.638370 0.611394 0.786835
O O5 0.750000 0.212597 0.750000
O O6 0.777996 0.966172 0.632621
O O7 0.876542 0.976114 0.749279
O O8 0.307480 0.197544 0.486835
O O9 0.160631 0.000000 0.500000
O O10 0.596609 0.500000 0.500000
O O11 0.500000 0.789219 0.538562
O O12 0.627340 0.695464 0.634295
O O13 0.500000 0.732068 0.723000
#
# Coordination Sequence:
#
# PCOD9419307 Si02
#       5
#     8   8   8   8   8
#     4  10  24  42  67  97 130 173 227 284 338 401
#     4  11  22  38  67  98 128 178 222 281 332 401
#     4  11  26  43  66  97 135 177 222 283 342 404
#     4  10  22  41  67  97 137 181 220 268 336 411
#     4   9  19  40  64  94 131 168 219 276 331 398
#
# _framework density 22.432931
#
# number of rings (size 3 to 8) (size 9 to 14) (size 15 to 20)
#    0.000    1.800    2.000    0.600    5.600    1.600 
#    0.000    1.000    0.000    0.000    0.000    0.000 
#    0.000    0.000    0.000    0.000    0.000    0.000 
#
# Total GULP energy -222801.574696 kJ/mol
# GULP energy per Si atom -5570.039367 kJ/mol
# Density = 2.238187 g / cm^3
# Si number density = 22.432931 Si / 1000 Ang^3
#
#
#
# Elastic Constant Matrix: (Units=GPa)
#
#
# Indices 1 2 3 4 5 6 
#
# 1 78.9265 50.2030 14.0193 0.0000 0.0000 0.0000
# 2 50.2030 143.2293 51.3363 0.0000 0.0000 0.0000
# 3 14.0193 51.3363 75.8749 0.0000 0.0000 0.0000
# 4 0.0000 0.0000 0.0000 38.6950 0.0000 0.0000
# 5 0.0000 0.0000 0.0000 0.0000 0.2065 0.0000
# 6 0.0000 0.0000 0.0000 0.0000 0.0000 42.8575
#
#
#
# Elastic Compliance Matrix: (Units=1/GPa)
#
#
# Indices 1 2 3 4 5 6 
#
# 1 0.016379 -0.006147 0.001133 0.000000 0.000000 0.000000
# 2 -0.006147 0.011524 -0.006661 0.000000 0.000000 0.000000
# 3 0.001133 -0.006661 0.017477 0.000000 0.000000 0.000000
# 4 0.000000 0.000000 0.000000 0.025843 0.000000 0.000000
# 5 0.000000 0.000000 0.000000 0.000000 4.841637 0.000000
# 6 0.000000 0.000000 0.000000 0.000000 0.000000 0.023333
#
#
# Mechanical properties :
#
#
# Convention : Reuss Voigt Hill
#
# Bulk Modulus (GPa) = 45.39486 58.79423 52.09454
# Shear Modulus (GPa) = 1.00667 28.51662 14.76164
#
# Velocity S-wave (km/s) = 0.67061 3.56925 2.56800
# Velocity P-wave (km/s) = 4.56939 6.57661 5.66265
#
# Compressibility (1/GPa) = 0.02202893
#
# Stress axis : x y z
#
# Youngs Moduli (GPa) = 61.05516 86.77685 57.21738
#
# Poissons Ratio (x) = 0.53340 -0.06480
# Poissons Ratio (y) = 0.37529 0.38114
# Poissons Ratio (z) = -0.06915 0.57804
#
# Static dielectric constant tensor:
#      x y z
#    x 1.846270 0.000000 0.000000 
#    y 0.000000 1.838950 0.000000 
#    z 0.000000 0.000000 1.920510 
# 
# From -- ./inp_files/32682.got.cif
#   From: 2010.05.17/outbox.cif.g08.bks.cpg/sg53_17_cif.got.tgz:32682.got - 2010.06.03 12:45:16.
