data_PCOD9419338
_publ_section_title
;
Structure prediction by ZEFSAII (Michael W. Deem and Ramdas Pophale) SiO2 
 PCOD9419338
Probable space group: P M N A
;
_chemical_formula_sum "Si O2"
_cell_formula_units_Z 40
_cell_length_a 16.096799
_cell_length_b 14.645567
_cell_length_c 8.851533
_cell_angle_alpha 90.000000
_cell_angle_beta 90.000000
_cell_angle_gamma 90.000000
_cell_volume 2086.720122
_symmetry_space_group_name_H-M "P M N A"
_symmetry_group_IT_number 53
_symmetry_cell_setting 'orthorhombic'
loop_
_space_group_symop_operation_xyz
x,y,z
1/2-x,-y,1/2+z
x,-y,-z
1/2-x,y,1/2-z
-x,-y,-z
1/2+x,y,1/2-z
-x,y,z
1/2+x,-y,1/2+z
loop_
_atom_site_type_symbol
_atom_site_label
_atom_site_fract_x
_atom_site_fract_y
_atom_site_fract_z
Si Si1 0.000000 0.938870 0.308665
Si Si2 0.833503 0.025817 0.173609
Si Si3 0.867011 0.229559 0.163803
Si Si4 0.500000 0.758788 0.402954
Si Si5 0.750000 0.391279 0.250000
Si Si6 0.355799 0.500000 0.000000
Si Si7 0.000000 0.625082 0.363241
Si Si8 0.000000 0.199651 0.424055
O O1 0.000000 0.893463 0.476667
O O2 0.000000 0.849125 0.200589
O O3 0.083606 0.995285 0.265316
O O4 0.750000 0.985743 0.250000
O O5 0.820042 0.134172 0.158882
O O6 0.846388 0.000000 0.000000
O O7 0.815100 0.321381 0.175598
O O8 0.922565 0.214802 0.313314
O O9 0.922287 0.236334 0.014611
O O10 0.500000 0.665997 0.305326
O O11 0.701881 0.449468 0.123128
O O12 0.418479 0.432641 0.909206
O O13 0.000000 0.716072 0.462745
#
# Coordination Sequence:
#
# PCOD9419338 Si02
#       8
#     4   8   8   4   4   4   4   4
#     4  11  23  43  69  99 139 182 232 267 332 393
#     4  12  26  43  64  99 139 183 229 277 324 398
#     4  11  23  43  66  95 137 170 224 272 336 391
#     4  10  22  42  70  96 130 183 215 273 331 400
#     4  12  26  44  66 102 128 174 214 288 348 392
#     4  11  26  46  68  95 134 166 222 283 336 416
#     4  10  22  46  68  97 129 174 220 272 334 412
#     4  10  22  42  69  96 129 179 221 272 335 401
#
# _framework density 19.168837
#
# number of rings (size 3 to 8) (size 9 to 14) (size 15 to 20)
#    0.000    1.000    5.000    1.500    5.600    0.800 
#    0.000    1.000    0.000    0.000    0.000    0.000 
#    0.000    0.000    0.000    0.000    0.000    0.000 
#
# Total GULP energy -223184.490642 kJ/mol
# GULP energy per Si atom -5579.612266 kJ/mol
# Density = 1.912521 g / cm^3
# Si number density = 19.168837 Si / 1000 Ang^3
#
#
#
# Elastic Constant Matrix: (Units=GPa)
#
#
# Indices 1 2 3 4 5 6 
#
# 1 110.2179 52.7966 63.8355 0.0000 0.0000 0.0000
# 2 52.7966 128.9913 58.0640 0.0000 0.0000 0.0000
# 3 63.8355 58.0640 134.1957 0.0000 0.0000 0.0000
# 4 0.0000 0.0000 0.0000 34.5017 0.0000 0.0000
# 5 0.0000 0.0000 0.0000 0.0000 198.9226 0.0000
# 6 0.0000 0.0000 0.0000 0.0000 0.0000 86.7152
#
#
#
# Elastic Compliance Matrix: (Units=1/GPa)
#
#
# Indices 1 2 3 4 5 6 
#
# 1 0.013559 -0.003287 -0.005028 0.000000 0.000000 0.000000
# 2 -0.003287 0.010424 -0.002947 0.000000 0.000000 0.000000
# 3 -0.005028 -0.002947 0.011119 0.000000 0.000000 0.000000
# 4 0.000000 0.000000 0.000000 0.028984 0.000000 0.000000
# 5 0.000000 0.000000 0.000000 0.000000 0.005027 0.000000
# 6 0.000000 0.000000 0.000000 0.000000 0.000000 0.011532
#
#
# Mechanical properties :
#
#
# Convention : Reuss Voigt Hill
#
# Bulk Modulus (GPa) = 79.49679 80.31082 79.90380
# Shear Modulus (GPa) = 46.57157 77.27516 61.92336
#
# Velocity S-wave (km/s) = 4.93439 6.35613 5.68984
# Velocity P-wave (km/s) = 8.60385 9.79054 9.21632
#
# Compressibility (1/GPa) = 0.01257912
#
# Stress axis : x y z
#
# Youngs Moduli (GPa) = 73.74970 95.93036 89.93883
#
# Poissons Ratio (x) = 0.31529 0.45221
# Poissons Ratio (y) = 0.24239 0.26505
# Poissons Ratio (z) = 0.37081 0.28270
#
# Static dielectric constant tensor:
#      x y z
#    x 1.671450 0.000000 0.000000 
#    y 0.000000 1.671270 0.000000 
#    z 0.000000 0.000000 1.662950 
# 
# From -- ./inp_files/8518.got.cif
#   From: 2010.05.17/outbox.cif.g08.bks.cpg/sg53_5_cif.got.tgz:8518.got - 2010.06.03 12:45:16.
