data_PCOD9419667
_publ_section_title
;
Structure prediction by ZEFSAII (Michael W. Deem and Ramdas Pophale) SiO2 
 PCOD9419667
Probable space group: P M N A
;
_chemical_formula_sum "Si O2"
_cell_formula_units_Z 32
_cell_length_a 14.688077
_cell_length_b 9.202435
_cell_length_c 9.935059
_cell_angle_alpha 90.000000
_cell_angle_beta 90.000000
_cell_angle_gamma 90.000000
_cell_volume 1342.882919
_symmetry_space_group_name_H-M "P M N A"
_symmetry_group_IT_number 53
_symmetry_cell_setting 'orthorhombic'
loop_
_space_group_symop_operation_xyz
x,y,z
1/2-x,-y,1/2+z
x,-y,-z
1/2-x,y,1/2-z
-x,-y,-z
1/2+x,y,1/2-z
-x,y,z
1/2+x,-y,1/2+z
loop_
_atom_site_type_symbol
_atom_site_label
_atom_site_fract_x
_atom_site_fract_y
_atom_site_fract_z
Si Si1 0.796680 0.829702 0.128461
Si Si2 0.000000 0.083017 0.797502
Si Si3 0.500000 0.725227 0.730299
Si Si4 0.000000 0.787299 0.496728
Si Si5 0.191165 0.373103 0.113282
Si Si6 0.660867 0.000000 0.000000
O O1 0.750000 0.737506 0.250000
O O2 0.902577 0.872713 0.137995
O O3 0.780478 0.759634 0.982852
O O4 0.723929 0.959553 0.122858
O O5 0.000000 0.187100 0.663535
O O6 0.000000 0.094620 0.217978
O O7 0.500000 0.667733 0.886853
O O8 0.411063 0.661371 0.660170
O O9 0.908033 0.871829 0.533636
O O10 0.250000 0.390236 0.250000
O O11 0.193346 0.500000 0.000000
#
# Coordination Sequence:
#
# PCOD9419667 Si02
#       6
#     8   4   4   4   8   4
#     4  12  24  42  71 103 147 192 232 294 358 425
#     4  12  24  40  72 119 153 175 232 282 368 463
#     4  12  23  45  73 105 149 190 222 299 364 432
#     4  11  20  39  67 110 154 180 229 272 353 469
#     4  12  29  50  73  99 139 187 257 304 351 411
#     4  11  20  37  64 106 150 185 222 271 360 440
#
# _framework density 23.829329999999999
#
# number of rings (size 3 to 8) (size 9 to 14) (size 15 to 20)
#    0.000    0.250    5.000    4.875    0.000    3.500 
#    0.000    0.625    0.000    0.000    0.000    0.000 
#    0.000    0.000    0.000    0.000    0.000    0.000 
#
# Total GULP energy -178185.015380 kJ/mol
# GULP energy per Si atom -5568.281731 kJ/mol
# Density = 2.377509 g / cm^3
# Si number density = 23.829330 Si / 1000 Ang^3
#
#
#
# Elastic Constant Matrix: (Units=GPa)
#
#
# Indices 1 2 3 4 5 6 
#
# 1 216.6527 44.4304 93.0145 0.0000 0.0000 0.0000
# 2 44.4304 36.8100 41.7588 0.0000 0.0000 0.0000
# 3 93.0145 41.7588 192.1623 0.0000 0.0000 0.0000
# 4 0.0000 0.0000 0.0000 26.8960 0.0000 0.0000
# 5 0.0000 0.0000 0.0000 0.0000 -6.2018 0.0000
# 6 0.0000 0.0000 0.0000 0.0000 0.0000 36.2225
#
#
#
# Elastic Compliance Matrix: (Units=1/GPa)
#
#
# Indices 1 2 3 4 5 6 
#
# 1 0.006645 -0.005802 -0.001956 0.000000 0.000000 0.000000
# 2 -0.005802 0.041121 -0.006128 0.000000 0.000000 0.000000
# 3 -0.001956 -0.006128 0.007482 0.000000 0.000000 0.000000
# 4 0.000000 0.000000 0.000000 0.037180 0.000000 0.000000
# 5 0.000000 0.000000 0.000000 0.000000 -0.161244 0.000000
# 6 0.000000 0.000000 0.000000 0.000000 0.000000 0.027607
#
#
# Mechanical properties :
#
#
# Convention : Reuss Voigt Hill
#
# Bulk Modulus (GPa) = 36.39313 89.33693 62.86503
# Shear Modulus (GPa) = -1168.97414 29.14476 -569.91469
#
# Velocity S-wave (km/s) = -22.17264 3.50102 -15.48174
# Velocity P-wave (km/s) = 25.30209 7.34266 17.12135
#
# Compressibility (1/GPa) = 0.02747771
#
# Stress axis : x y z
#
# Youngs Moduli (GPa) = 150.48421 24.31825 133.65194
#
# Poissons Ratio (x) = 0.14110 0.26138
# Poissons Ratio (y) = 0.87316 0.81895
# Poissons Ratio (z) = 0.29430 0.14901
#
# Static dielectric constant tensor:
#      x y z
#    x 1.836620 0.000000 0.000000 
#    y 0.000000 2.233900 0.000000 
#    z 0.000000 0.000000 2.243050 
# 
# From -- ./inp_files/8206.got.cif
#   From: 2010.05.17/outbox.cif.g08.bks.cpg/sg53_5_cif.got.tgz:8206.got - 2010.06.03 12:45:16.
