data_PCOD9419113
_publ_section_title
;
Structure prediction by ZEFSAII (Michael W. Deem and Ramdas Pophale) SiO2 
 PCOD9419113
Probable space group: P M N A
;
_chemical_formula_sum "Si O2"
_cell_formula_units_Z 28
_cell_length_a 11.357322
_cell_length_b 4.871843
_cell_length_c 21.287452
_cell_angle_alpha 90.000000
_cell_angle_beta 90.000000
_cell_angle_gamma 90.000000
_cell_volume 1177.857916
_symmetry_space_group_name_H-M "P M N A"
_symmetry_group_IT_number 53
_symmetry_cell_setting 'orthorhombic'
loop_
_space_group_symop_operation_xyz
x,y,z
1/2-x,-y,1/2+z
x,-y,-z
1/2-x,y,1/2-z
-x,-y,-z
1/2+x,y,1/2-z
-x,y,z
1/2+x,-y,1/2+z
loop_
_atom_site_type_symbol
_atom_site_label
_atom_site_fract_x
_atom_site_fract_y
_atom_site_fract_z
Si Si1 0.137390 0.387542 0.068073
Si Si2 0.252783 0.882264 0.379174
Si Si3 0.500000 0.472323 0.215332
Si Si4 0.250000 0.218767 0.250000
Si Si5 0.000000 0.023169 0.630107
O O1 0.207962 0.569541 0.118288
O O2 0.000000 0.439067 0.076643
O O3 0.163591 0.069664 0.078276
O O4 0.172700 0.500000 0.000000
O O5 0.120246 0.907899 0.403868
O O6 0.255167 0.020610 0.310787
O O7 0.374666 0.387345 0.246712
O O8 0.500000 0.788268 0.193824
O O9 0.500000 0.291117 0.151582
#
# Coordination Sequence:
#
# PCOD9419113 Si02
#       5
#     8   8   4   4   4
#     4  11  25  44  68  98 134 175 229 287 329 387
#     4  11  23  43  67  95 136 177 219 279 335 405
#     4  10  22  38  60  92 138 172 212 270 323 408
#     4  10  24  40  64 104 132 178 224 270 346 408
#     4  10  22  42  61  90 134 168 203 278 331 376
#
# _framework density 23.771967
#
# number of rings (size 3 to 8) (size 9 to 14) (size 15 to 20)
#    0.000    1.429    0.000    5.143    4.000   12.571 
#    0.000    4.286    0.000    0.000    0.000    0.000 
#    0.000    0.000    0.000    0.000    0.000    0.000 
#
# Total GULP energy -156709.255150 kJ/mol
# GULP energy per Si atom -5596.759113 kJ/mol
# Density = 2.371786 g / cm^3
# Si number density = 23.771967 Si / 1000 Ang^3
#
#
#
# Elastic Constant Matrix: (Units=GPa)
#
#
# Indices 1 2 3 4 5 6 
#
# 1 116.7543 0.4520 21.7895 0.0000 0.0000 0.0000
# 2 0.4520 78.3836 7.2559 0.0000 0.0000 0.0000
# 3 21.7895 7.2559 45.9900 0.0000 0.0000 0.0000
# 4 0.0000 0.0000 0.0000 22.4028 0.0000 0.0000
# 5 0.0000 0.0000 0.0000 0.0000 13.1580 0.0000
# 6 0.0000 0.0000 0.0000 0.0000 0.0000 65.9030
#
#
#
# Elastic Compliance Matrix: (Units=1/GPa)
#
#
# Indices 1 2 3 4 5 6 
#
# 1 0.009406 0.000364 -0.004514 0.000000 0.000000 0.000000
# 2 0.000364 0.012961 -0.002217 0.000000 0.000000 0.000000
# 3 -0.004514 -0.002217 0.024232 0.000000 0.000000 0.000000
# 4 0.000000 0.000000 0.000000 0.044637 0.000000 0.000000
# 5 0.000000 0.000000 0.000000 0.000000 0.076000 0.000000
# 6 0.000000 0.000000 0.000000 0.000000 0.000000 0.015174
#
#
# Mechanical properties :
#
#
# Convention : Reuss Voigt Hill
#
# Bulk Modulus (GPa) = 29.52948 33.34697 31.43823
# Shear Modulus (GPa) = 24.22096 34.40144 29.31120
#
# Velocity S-wave (km/s) = 3.19546 3.80826 3.51524
# Velocity P-wave (km/s) = 5.10525 5.77888 5.45248
#
# Compressibility (1/GPa) = 0.03386446
#
# Stress axis : x y z
#
# Youngs Moduli (GPa) = 106.31522 77.15507 41.26730
#
# Poissons Ratio (x) = -0.02805 0.18627
# Poissons Ratio (y) = -0.03866 0.09150
# Poissons Ratio (z) = 0.47989 0.17106
#
# Static dielectric constant tensor:
#      x y z
#    x 1.907010 0.000000 0.000000 
#    y 0.000000 1.818040 0.000000 
#    z 0.000000 0.000000 1.935860 
# 
# From -- ./inp_files/31523.got.cif
#   From: 2010.05.17/outbox.cif.g08.bks.cpg/sg53_16_cif.got.tgz:31523.got - 2010.06.03 12:45:16.
