data_PCOD9419419
_publ_section_title
;
Structure prediction by ZEFSAII (Michael W. Deem and Ramdas Pophale) SiO2 
 PCOD9419419
Probable space group: P M N A
;
_chemical_formula_sum "Si O2"
_cell_formula_units_Z 56
_cell_length_a 14.549058
_cell_length_b 12.587893
_cell_length_c 14.470539
_cell_angle_alpha 90.000000
_cell_angle_beta 90.000000
_cell_angle_gamma 90.000000
_cell_volume 2650.163242
_symmetry_space_group_name_H-M "P M N A"
_symmetry_group_IT_number 53
_symmetry_cell_setting 'orthorhombic'
loop_
_space_group_symop_operation_xyz
x,y,z
1/2-x,-y,1/2+z
x,-y,-z
1/2-x,y,1/2-z
-x,-y,-z
1/2+x,y,1/2-z
-x,y,z
1/2+x,-y,1/2+z
loop_
_atom_site_type_symbol
_atom_site_label
_atom_site_fract_x
_atom_site_fract_y
_atom_site_fract_z
Si Si1 0.352603 0.479304 0.269613
Si Si2 0.892860 0.282478 0.110056
Si Si3 0.738245 0.085090 0.361014
Si Si4 0.605009 0.416242 0.066926
Si Si5 0.611049 0.819808 0.982757
Si Si6 0.754088 0.848170 0.139801
Si Si7 0.899107 0.667811 0.095452
O O1 0.250000 0.516042 0.250000
O O2 0.353989 0.362662 0.313955
O O3 0.396170 0.464045 0.168990
O O4 0.393404 0.563687 0.341032
O O5 0.832807 0.175669 0.106418
O O6 0.000000 0.258496 0.130849
O O7 0.891116 0.347917 0.014286
O O8 0.750000 0.094608 0.250000
O O9 0.835689 0.102595 0.412640
O O10 0.708430 0.965290 0.385251
O O11 0.500000 0.404279 0.033951
O O12 0.639682 0.296912 0.056574
O O13 0.654365 0.500000 0.000000
O O14 0.500000 0.832723 0.983847
O O15 0.658984 0.832103 0.083097
O O16 0.750000 0.848356 0.250000
O O17 0.820620 0.751852 0.116447
O O18 0.000000 0.716280 0.111964
#
# Coordination Sequence:
#
# PCOD9419419 Si02
#       7
#     8   8   8   8   8   8   8
#     4  12  25  39  65  99 136 173 219 279 341 413
#     4  11  23  42  69  99 133 178 229 283 344 408
#     4  11  24  44  68 101 139 177 235 295 349 418
#     4  10  23  40  61  92 131 175 219 268 331 408
#     4  11  24  45  73 102 140 186 236 293 360 430
#     4  11  26  45  67  99 138 181 234 293 354 419
#     4  11  25  43  67  96 133 179 226 278 347 419
#
# _framework density 21.130773999999999
#
# number of rings (size 3 to 8) (size 9 to 14) (size 15 to 20)
#    0.000    1.000    1.429    4.714    4.000    5.143 
#    0.000    4.286    0.000    0.000    0.000    0.000 
#    0.000    0.000    0.000    0.000    0.000    0.000 
#
# Total GULP energy -312737.262185 kJ/mol
# GULP energy per Si atom -5584.593968 kJ/mol
# Density = 2.108268 g / cm^3
# Si number density = 21.130774 Si / 1000 Ang^3
#
#
#
# Elastic Constant Matrix: (Units=GPa)
#
#
# Indices 1 2 3 4 5 6 
#
# 1 93.9203 15.6527 26.4959 0.0000 0.0000 0.0000
# 2 15.6527 95.9769 23.7916 0.0000 0.0000 0.0000
# 3 26.4959 23.7916 109.9906 0.0000 0.0000 0.0000
# 4 0.0000 0.0000 0.0000 114.0694 0.0000 0.0000
# 5 0.0000 0.0000 0.0000 0.0000 36.3355 0.0000
# 6 0.0000 0.0000 0.0000 0.0000 0.0000 4.6636
#
#
#
# Elastic Compliance Matrix: (Units=1/GPa)
#
#
# Indices 1 2 3 4 5 6 
#
# 1 0.011567 -0.001263 -0.002513 0.000000 0.000000 0.000000
# 2 -0.001263 0.011148 -0.002107 0.000000 0.000000 0.000000
# 3 -0.002513 -0.002107 0.010153 0.000000 0.000000 0.000000
# 4 0.000000 0.000000 0.000000 0.008767 0.000000 0.000000
# 5 0.000000 0.000000 0.000000 0.000000 0.027521 0.000000
# 6 0.000000 0.000000 0.000000 0.000000 0.000000 0.214426
#
#
# Mechanical properties :
#
#
# Convention : Reuss Voigt Hill
#
# Bulk Modulus (GPa) = 47.39274 47.97425 47.68349
# Shear Modulus (GPa) = 16.53541 46.61019 31.57280
#
# Velocity S-wave (km/s) = 2.80040 4.70169 3.86963
# Velocity P-wave (km/s) = 5.73876 7.22684 6.52536
#
# Compressibility (1/GPa) = 0.02110028
#
# Stress axis : x y z
#
# Youngs Moduli (GPa) = 86.45389 89.70611 98.49498
#
# Poissons Ratio (x) = 0.11334 0.24752
# Poissons Ratio (y) = 0.10923 0.20752
# Poissons Ratio (z) = 0.21726 0.18900
#
# Static dielectric constant tensor:
#      x y z
#    x 1.705820 0.000000 0.000000 
#    y 0.000000 1.782000 0.000000 
#    z 0.000000 0.000000 1.792860 
# 
# From -- ./inp_files/22771.got.cif
#   From: 2010.05.17/outbox.cif.g08.bks.cpg/sg53_12_cif.got.tgz:22771.got - 2010.06.03 12:45:16.
