data_PCOD9419059
_publ_section_title
;
Structure prediction by ZEFSAII (Michael W. Deem and Ramdas Pophale) SiO2 
 PCOD9419059
Probable space group: P M N A
;
_chemical_formula_sum "Si O2"
_cell_formula_units_Z 48
_cell_length_a 31.731917
_cell_length_b 7.635661
_cell_length_c 10.018039
_cell_angle_alpha 90.000000
_cell_angle_beta 90.000000
_cell_angle_gamma 90.000000
_cell_volume 2427.312355
_symmetry_space_group_name_H-M "P M N A"
_symmetry_group_IT_number 53
_symmetry_cell_setting 'orthorhombic'
loop_
_space_group_symop_operation_xyz
x,y,z
1/2-x,-y,1/2+z
x,-y,-z
1/2-x,y,1/2-z
-x,-y,-z
1/2+x,y,1/2-z
-x,y,z
1/2+x,-y,1/2+z
loop_
_atom_site_type_symbol
_atom_site_label
_atom_site_fract_x
_atom_site_fract_y
_atom_site_fract_z
Si Si1 0.345724 0.711385 0.998711
Si Si2 0.385325 0.807524 0.725507
Si Si3 0.548623 0.490641 0.339706
Si Si4 0.744281 0.326479 0.907505
Si Si5 0.400913 0.803460 0.239758
Si Si6 0.164594 0.291043 0.968538
O O1 0.354230 0.778276 0.850165
O O2 0.347331 0.500000 0.000000
O O3 0.300319 0.763848 0.060198
O O4 0.383321 0.777984 0.091727
O O5 0.419076 0.651377 0.718232
O O6 0.358010 0.801462 0.591363
O O7 0.408300 0.993023 0.735319
O O8 0.555175 0.500000 0.500000
O O9 0.500000 0.446042 0.315348
O O10 0.560779 0.677036 0.276366
O O11 0.750000 0.369118 0.750000
O O12 0.787419 0.231334 0.948195
O O13 0.743292 0.500000 0.000000
O O14 0.362926 0.741153 0.337129
O O15 0.164685 0.500000 0.000000
#
# Coordination Sequence:
#
# PCOD9419059 Si02
#       6
#     8   8   8   8   8   8
#     4  11  22  41  65  91 133 174 215 265 319 376
#     4  12  24  40  66  99 127 170 216 262 323 390
#     4  11  24  44  70  98 129 165 209 269 330 391
#     4  10  22  35  61  94 128 173 226 266 311 370
#     4  12  22  42  66  96 129 167 213 264 321 387
#     4  11  20  39  64  89 131 173 216 265 314 373
#
# _framework density 19.774958999999999
#
# number of rings (size 3 to 8) (size 9 to 14) (size 15 to 20)
#    0.000    0.833    6.667    1.000    7.000    0.667 
#    0.000    8.333    0.000    2.000    0.000    0.000 
#    0.000    0.000    0.000    0.000    0.000    0.000 
#
# Total GULP energy -268253.670620 kJ/mol
# GULP energy per Si atom -5588.618138 kJ/mol
# Density = 1.972995 g / cm^3
# Si number density = 19.774959 Si / 1000 Ang^3
#
#
#
# Elastic Constant Matrix: (Units=GPa)
#
#
# Indices 1 2 3 4 5 6 
#
# 1 88.7537 8.0674 34.6836 0.0000 0.0000 0.0000
# 2 8.0674 88.8762 6.2955 0.0000 0.0000 0.0000
# 3 34.6836 6.2955 65.0781 0.0000 0.0000 0.0000
# 4 0.0000 0.0000 0.0000 21.0208 0.0000 0.0000
# 5 0.0000 0.0000 0.0000 0.0000 1.4313 0.0000
# 6 0.0000 0.0000 0.0000 0.0000 0.0000 -0.1361
#
#
#
# Elastic Compliance Matrix: (Units=1/GPa)
#
#
# Indices 1 2 3 4 5 6 
#
# 1 0.014282 -0.000762 -0.007538 0.000000 0.000000 0.000000
# 2 -0.000762 0.011370 -0.000694 0.000000 0.000000 0.000000
# 3 -0.007538 -0.000694 0.019451 0.000000 0.000000 0.000000
# 4 0.000000 0.000000 0.000000 0.047572 0.000000 0.000000
# 5 0.000000 0.000000 0.000000 0.000000 0.698659 0.000000
# 6 0.000000 0.000000 0.000000 0.000000 0.000000 -7.348935
#
#
# Mechanical properties :
#
#
# Convention : Reuss Voigt Hill
#
# Bulk Modulus (GPa) = 36.88023 37.86676 37.37349
# Shear Modulus (GPa) = -0.76563 17.37399 8.30418
#
# Velocity S-wave (km/s) = -0.62291 2.96731 2.05145
# Velocity P-wave (km/s) = 4.26299 5.56150 4.95497
#
# Compressibility (1/GPa) = 0.02711480
#
# Stress axis : x y z
#
# Youngs Moduli (GPa) = 70.01747 87.95123 51.41221
#
# Poissons Ratio (x) = 0.06706 0.38754
# Poissons Ratio (y) = 0.05339 0.03566
# Poissons Ratio (z) = 0.52779 0.06100
#
# Static dielectric constant tensor:
#      x y z
#    x 1.685000 0.000000 0.000000 
#    y 0.000000 1.711860 0.000000 
#    z 0.000000 0.000000 1.681170 
# 
# From -- ./inp_files/12967.got.cif
#   From: 2010.05.17/outbox.cif.g08.bks.cpg/sg53_7_cif.got.tgz:12967.got - 2010.06.03 12:45:16.
