data_PCOD9419247
_publ_section_title
;
Structure prediction by ZEFSAII (Michael W. Deem and Ramdas Pophale) SiO2 
 PCOD9419247
Probable space group: P M N A
;
_chemical_formula_sum "Si O2"
_cell_formula_units_Z 32
_cell_length_a 13.766710
_cell_length_b 11.503991
_cell_length_c 9.266842
_cell_angle_alpha 90.000000
_cell_angle_beta 90.000000
_cell_angle_gamma 90.000000
_cell_volume 1467.609301
_symmetry_space_group_name_H-M "P M N A"
_symmetry_group_IT_number 53
_symmetry_cell_setting 'orthorhombic'
loop_
_space_group_symop_operation_xyz
x,y,z
1/2-x,-y,1/2+z
x,-y,-z
1/2-x,y,1/2-z
-x,-y,-z
1/2+x,y,1/2-z
-x,y,z
1/2+x,-y,1/2+z
loop_
_atom_site_type_symbol
_atom_site_label
_atom_site_fract_x
_atom_site_fract_y
_atom_site_fract_z
Si Si1 0.886788 0.564625 0.800111
Si Si2 0.110678 0.294621 0.722061
Si Si3 0.890158 0.861814 0.989451
Si Si4 0.768414 0.297338 0.438179
O O1 0.873323 0.429617 0.763326
O O2 0.817725 0.607689 0.927890
O O3 0.849077 0.645731 0.667181
O O4 0.000000 0.581463 0.831376
O O5 0.117276 0.205756 0.856411
O O6 0.182746 0.272865 0.590627
O O7 0.000000 0.286131 0.668484
O O8 0.000000 0.834983 0.933519
O O9 0.797553 0.815059 0.900979
O O10 0.884355 0.000000 0.000000
#
# Coordination Sequence:
#
# PCOD9419247 Si02
#       4
#     8   8   8   8
#     4  10  23  39  61  98 140 175 212 271 334 398
#     4  10  22  40  65  97 133 174 220 274 333 395
#     4  10  23  43  65  92 128 171 225 281 330 390
#     4  11  22  37  67  92 133 174 223 270 329 399
#
# _framework density 21.804169000000002
#
# number of rings (size 3 to 8) (size 9 to 14) (size 15 to 20)
#    0.000    1.750    0.000    3.000   10.500    2.000 
#    9.000    3.750    0.000    1.500    0.000    0.000 
#    0.000    0.000    0.000    0.000    0.000    0.000 
#
# Total GULP energy -178526.902627 kJ/mol
# GULP energy per Si atom -5578.965707 kJ/mol
# Density = 2.175454 g / cm^3
# Si number density = 21.804169 Si / 1000 Ang^3
#
#
#
# Elastic Constant Matrix: (Units=GPa)
#
#
# Indices 1 2 3 4 5 6 
#
# 1 164.3832 31.1188 34.5200 0.0000 0.0000 0.0000
# 2 31.1188 142.7749 26.5743 0.0000 0.0000 0.0000
# 3 34.5200 26.5743 69.9254 0.0000 0.0000 0.0000
# 4 0.0000 0.0000 0.0000 18.9757 0.0000 0.0000
# 5 0.0000 0.0000 0.0000 0.0000 33.3044 0.0000
# 6 0.0000 0.0000 0.0000 0.0000 0.0000 41.6358
#
#
#
# Elastic Compliance Matrix: (Units=1/GPa)
#
#
# Indices 1 2 3 4 5 6 
#
# 1 0.006901 -0.000936 -0.003051 0.000000 0.000000 0.000000
# 2 -0.000936 0.007664 -0.002450 0.000000 0.000000 0.000000
# 3 -0.003051 -0.002450 0.016738 0.000000 0.000000 0.000000
# 4 0.000000 0.000000 0.000000 0.052699 0.000000 0.000000
# 5 0.000000 0.000000 0.000000 0.000000 0.030026 0.000000
# 6 0.000000 0.000000 0.000000 0.000000 0.000000 0.024018
#
#
# Mechanical properties :
#
#
# Convention : Reuss Voigt Hill
#
# Bulk Modulus (GPa) = 54.26468 62.38997 58.32733
# Shear Modulus (GPa) = 31.83385 37.77453 34.80419
#
# Velocity S-wave (km/s) = 3.82513 4.16678 3.99960
# Velocity P-wave (km/s) = 6.66709 7.19898 6.93813
#
# Compressibility (1/GPa) = 0.01842819
#
# Stress axis : x y z
#
# Youngs Moduli (GPa) = 144.89974 130.47672 59.74261
#
# Poissons Ratio (x) = 0.12216 0.18228
# Poissons Ratio (y) = 0.13567 0.14640
# Poissons Ratio (z) = 0.44211 0.31973
#
# Static dielectric constant tensor:
#      x y z
#    x 1.834120 0.000000 0.000000 
#    y 0.000000 1.826950 0.000000 
#    z 0.000000 0.000000 1.917410 
# 
# From -- ./inp_files/15528.got.cif
#   From: 2010.05.17/outbox.cif.g08.bks.cpg/sg53_8_cif.got.tgz:15528.got - 2010.06.03 12:45:16.
