data_PCOD9419765
_publ_section_title
;
Structure prediction by ZEFSAII (Michael W. Deem and Ramdas Pophale) SiO2 
 PCOD9419765
Probable space group: P M N A
;
_chemical_formula_sum "Si O2"
_cell_formula_units_Z 28
_cell_length_a 10.360161
_cell_length_b 11.578032
_cell_length_c 10.019986
_cell_angle_alpha 90.000000
_cell_angle_beta 90.000000
_cell_angle_gamma 90.000000
_cell_volume 1201.900082
_symmetry_space_group_name_H-M "P M N A"
_symmetry_group_IT_number 53
_symmetry_cell_setting 'orthorhombic'
loop_
_space_group_symop_operation_xyz
x,y,z
1/2-x,-y,1/2+z
x,-y,-z
1/2-x,y,1/2-z
-x,-y,-z
1/2+x,y,1/2-z
-x,y,z
1/2+x,-y,1/2+z
loop_
_atom_site_type_symbol
_atom_site_label
_atom_site_fract_x
_atom_site_fract_y
_atom_site_fract_z
Si Si1 0.280646 0.195164 0.526116
Si Si2 0.500000 0.133099 0.975484
Si Si3 0.750000 0.613836 0.250000
Si Si4 0.000000 0.214972 0.184107
Si Si5 0.500000 0.060647 0.684444
Si Si6 0.000000 0.525180 0.831743
O O1 0.255852 0.300425 0.624614
O O2 0.372622 0.223676 0.405909
O O3 0.137870 0.171111 0.471459
O O4 0.367845 0.097617 0.605635
O O5 0.500000 0.142284 0.814574
O O6 0.500000 0.000000 0.000000
O O7 0.624947 0.536830 0.271860
O O8 0.000000 0.076019 0.220342
O O9 0.000000 0.346454 0.236590
O O10 0.000000 0.500000 0.000000
#
# Coordination Sequence:
#
# PCOD9419765 Si02
#       6
#     8   4   4   4   4   4
#     4  11  21  40  69  93 126 170 225 272 333 415
#     4  12  22  35  57 101 134 162 209 271 332 405
#     4  12  22  44  72  94 122 184 236 274 336 420
#     4  11  24  45  68  95 138 179 217 286 345 400
#     4  11  21  40  64  96 128 175 213 266 355 405
#     4  12  25  48  70  97 136 182 236 287 338 407
#
# _framework density 23.296446
#
# number of rings (size 3 to 8) (size 9 to 14) (size 15 to 20)
#    0.000    0.571    5.714    5.143    0.000    0.000 
#   10.286    0.714    0.000    0.000    0.000    0.000 
#    0.000    0.000    0.000    0.000    0.000    0.000 
#
# Total GULP energy -156000.725428 kJ/mol
# GULP energy per Si atom -5571.454480 kJ/mol
# Density = 2.324342 g / cm^3
# Si number density = 23.296446 Si / 1000 Ang^3
#
#
#
# Elastic Constant Matrix: (Units=GPa)
#
#
# Indices 1 2 3 4 5 6 
#
# 1 242.8724 70.6224 22.0490 0.0000 0.0000 0.0000
# 2 70.6224 157.6627 9.2649 0.0000 0.0000 0.0000
# 3 22.0490 9.2649 34.8085 0.0000 0.0000 0.0000
# 4 0.0000 0.0000 0.0000 32.5458 0.0000 0.0000
# 5 0.0000 0.0000 0.0000 0.0000 6.4080 0.0000
# 6 0.0000 0.0000 0.0000 0.0000 0.0000 -16.6273
#
#
#
# Elastic Compliance Matrix: (Units=1/GPa)
#
#
# Indices 1 2 3 4 5 6 
#
# 1 0.004953 -0.002067 -0.002587 0.000000 0.000000 0.000000
# 2 -0.002067 0.007306 -0.000635 0.000000 0.000000 0.000000
# 3 -0.002587 -0.000635 0.030537 0.000000 0.000000 0.000000
# 4 0.000000 0.000000 0.000000 0.030726 0.000000 0.000000
# 5 0.000000 0.000000 0.000000 0.000000 0.156054 0.000000
# 6 0.000000 0.000000 0.000000 0.000000 0.000000 -0.060142
#
#
# Mechanical properties :
#
#
# Convention : Reuss Voigt Hill
#
# Bulk Modulus (GPa) = 31.03996 71.02400 51.03198
# Shear Modulus (GPa) = 26.21206 26.69247 26.45227
#
# Velocity S-wave (km/s) = 3.35797 3.38860 3.37332
# Velocity P-wave (km/s) = 5.32799 6.77225 6.09306
#
# Compressibility (1/GPa) = 0.03221653
#
# Stress axis : x y z
#
# Youngs Moduli (GPa) = 201.88821 136.87897 32.74743
#
# Poissons Ratio (x) = 0.28288 0.08473
# Poissons Ratio (y) = 0.41724 0.02081
# Poissons Ratio (z) = 0.52238 0.08698
#
# Static dielectric constant tensor:
#      x y z
#    x 1.735060 0.000000 0.000000 
#    y 0.000000 1.911620 0.000000 
#    z 0.000000 0.000000 2.053510 
# 
# From -- ./inp_files/19480.got.cif
#   From: 2010.05.17/outbox.cif.g08.bks.cpg/sg53_10_cif.got.tgz:19480.got - 2010.06.03 12:45:16.
