data_PCOD9419775
_publ_section_title
;
Structure prediction by ZEFSAII (Michael W. Deem and Ramdas Pophale) SiO2 
 PCOD9419775
Probable space group: P M N A
;
_chemical_formula_sum "Si O2"
_cell_formula_units_Z 40
_cell_length_a 19.407228
_cell_length_b 7.802370
_cell_length_c 11.850695
_cell_angle_alpha 90.000000
_cell_angle_beta 90.000000
_cell_angle_gamma 90.000000
_cell_volume 1794.460365
_symmetry_space_group_name_H-M "P M N A"
_symmetry_group_IT_number 53
_symmetry_cell_setting 'orthorhombic'
loop_
_space_group_symop_operation_xyz
x,y,z
1/2-x,-y,1/2+z
x,-y,-z
1/2-x,y,1/2-z
-x,-y,-z
1/2+x,y,1/2-z
-x,y,z
1/2+x,-y,1/2+z
loop_
_atom_site_type_symbol
_atom_site_label
_atom_site_fract_x
_atom_site_fract_y
_atom_site_fract_z
Si Si1 0.421936 0.693778 0.158162
Si Si2 0.693566 0.761094 0.581416
Si Si3 0.922630 0.685280 0.755463
Si Si4 0.683207 0.848803 0.329720
Si Si5 0.344393 0.184469 0.057473
O O1 0.500000 0.756909 0.143100
O O2 0.424510 0.495212 0.191178
O O3 0.382046 0.793883 0.256615
O O4 0.380047 0.714959 0.043239
O O5 0.633854 0.663830 0.646853
O O6 0.686779 0.745895 0.446833
O O7 0.774414 0.728775 0.603021
O O8 0.682492 0.955425 0.627210
O O9 0.895770 0.822127 0.663006
O O10 0.000000 0.726431 0.795591
O O11 0.750000 0.824411 0.250000
O O12 0.327178 0.000000 0.000000
#
# Coordination Sequence:
#
# PCOD9419775 Si02
#       5
#     8   8   8   8   8
#     4  11  25  44  66  96 138 179 220 274 330 394
#     4  11  23  41  69  98 132 172 219 279 331 393
#     4  11  26  44  63  98 141 178 220 268 332 403
#     4  11  21  42  68  97 132 171 221 275 329 396
#     4  12  22  43  70  99 132 172 226 283 331 384
#
# _framework density 22.290823
#
# number of rings (size 3 to 8) (size 9 to 14) (size 15 to 20)
#    0.000    0.800    4.000    4.200    0.000    8.800 
#    3.600    4.000    0.000    0.000    0.000    0.000 
#    0.000    0.000    0.000    0.000    0.000    0.000 
#
# Total GULP energy -223775.403061 kJ/mol
# GULP energy per Si atom -5594.385077 kJ/mol
# Density = 2.224009 g / cm^3
# Si number density = 22.290823 Si / 1000 Ang^3
#
#
#
# Elastic Constant Matrix: (Units=GPa)
#
#
# Indices 1 2 3 4 5 6 
#
# 1 180.9894 28.8636 62.6421 0.0000 0.0000 0.0000
# 2 28.8636 27.0745 20.8786 0.0000 0.0000 0.0000
# 3 62.6421 20.8786 133.5582 0.0000 0.0000 0.0000
# 4 0.0000 0.0000 0.0000 32.6206 0.0000 0.0000
# 5 0.0000 0.0000 0.0000 0.0000 25.7689 0.0000
# 6 0.0000 0.0000 0.0000 0.0000 0.0000 30.4879
#
#
#
# Elastic Compliance Matrix: (Units=1/GPa)
#
#
# Indices 1 2 3 4 5 6 
#
# 1 0.007335 -0.005875 -0.002522 0.000000 0.000000 0.000000
# 2 -0.005875 0.046704 -0.004545 0.000000 0.000000 0.000000
# 3 -0.002522 -0.004545 0.009381 0.000000 0.000000 0.000000
# 4 0.000000 0.000000 0.000000 0.030655 0.000000 0.000000
# 5 0.000000 0.000000 0.000000 0.000000 0.038806 0.000000
# 6 0.000000 0.000000 0.000000 0.000000 0.000000 0.032800
#
#
# Mechanical properties :
#
#
# Convention : Reuss Voigt Hill
#
# Bulk Modulus (GPa) = 26.64202 62.93232 44.78717
# Shear Modulus (GPa) = 24.50055 33.05800 28.77927
#
# Velocity S-wave (km/s) = 3.31891 3.85519 3.59706
# Velocity P-wave (km/s) = 5.16380 6.93616 6.11454
#
# Compressibility (1/GPa) = 0.03753469
#
# Stress axis : x y z
#
# Youngs Moduli (GPa) = 136.33376 21.41167 106.60100
#
# Poissons Ratio (x) = 0.12579 0.26883
# Poissons Ratio (y) = 0.80095 0.48455
# Poissons Ratio (z) = 0.34382 0.09733
#
# Static dielectric constant tensor:
#      x y z
#    x 1.826300 0.000000 0.000000 
#    y 0.000000 1.871500 0.000000 
#    z 0.000000 0.000000 1.800240 
# 
# From -- ./inp_files/16708.got.cif
#   From: 2010.05.17/outbox.cif.g08.bks.cpg/sg53_9_cif.got.tgz:16708.got - 2010.06.03 12:45:16.
