data_PCOD9419267
_publ_section_title
;
Structure prediction by ZEFSAII (Michael W. Deem and Ramdas Pophale) SiO2 
 PCOD9419267
Probable space group: P M N A
;
_chemical_formula_sum "Si O2"
_cell_formula_units_Z 56
_cell_length_a 14.043247
_cell_length_b 11.166289
_cell_length_c 16.456926
_cell_angle_alpha 90.000000
_cell_angle_beta 90.000000
_cell_angle_gamma 90.000000
_cell_volume 2580.626274
_symmetry_space_group_name_H-M "P M N A"
_symmetry_group_IT_number 53
_symmetry_cell_setting 'orthorhombic'
loop_
_space_group_symop_operation_xyz
x,y,z
1/2-x,-y,1/2+z
x,-y,-z
1/2-x,y,1/2-z
-x,-y,-z
1/2+x,y,1/2-z
-x,y,z
1/2+x,-y,1/2+z
loop_
_atom_site_type_symbol
_atom_site_label
_atom_site_fract_x
_atom_site_fract_y
_atom_site_fract_z
Si Si1 0.607256 0.373204 0.724025
Si Si2 0.794149 0.220046 0.909106
Si Si3 0.706270 0.387295 0.447276
Si Si4 0.613981 0.736921 0.696147
Si Si5 0.112646 0.407924 0.346899
Si Si6 0.894312 0.856683 0.341296
Si Si7 0.384984 0.003557 0.686604
O O1 0.500000 0.395307 0.690125
O O2 0.679519 0.328217 0.654269
O O3 0.631052 0.480818 0.785428
O O4 0.599966 0.257576 0.781908
O O5 0.684575 0.180059 0.905181
O O6 0.850143 0.104396 0.876039
O O7 0.813749 0.271780 0.997262
O O8 0.673614 0.500000 0.500000
O O9 0.654289 0.364935 0.362545
O O10 0.816637 0.406737 0.422620
O O11 0.500000 0.734147 0.688922
O O12 0.634928 0.706225 0.789765
O O13 0.647906 0.868747 0.671536
O O14 0.000000 0.410379 0.367468
O O15 0.859200 0.958860 0.279112
O O16 0.000000 0.883599 0.372563
O O17 0.500000 0.006069 0.684903
#
# Coordination Sequence:
#
# PCOD9419267 Si02
#       7
#     8   8   8   8   8   8   8
#     4   9  17  33  58  83 109 147 194 239 284 335
#     4  11  21  33  56  90 122 152 187 240 301 351
#     4  12  26  38  56  88 124 157 191 234 290 354
#     4  10  23  43  65  86 112 151 197 244 291 345
#     4  10  22  41  63  84 113 157 201 240 284 340
#     4   9  18  32  54  84 116 152 195 238 278 332
#     4   9  19  38  63  88 112 147 198 248 294 343
#
# _framework density 21.70016
#
# number of rings (size 3 to 8) (size 9 to 14) (size 15 to 20)
#    0.000    2.000    0.000    5.143    0.000    6.286 
#    0.000    1.429    0.000    0.000    0.000    6.000 
#    0.000    0.000    0.000    0.000    0.000    0.000 
#
# Total GULP energy -312697.392467 kJ/mol
# GULP energy per Si atom -5583.882008 kJ/mol
# Density = 2.165077 g / cm^3
# Si number density = 21.700160 Si / 1000 Ang^3
#
#
#
# Elastic Constant Matrix: (Units=GPa)
#
#
# Indices 1 2 3 4 5 6 
#
# 1 46.1796 5.7974 -10.6693 0.0000 0.0000 0.0000
# 2 5.7974 91.8918 9.7164 0.0000 0.0000 0.0000
# 3 -10.6693 9.7164 18.2684 0.0000 0.0000 0.0000
# 4 0.0000 0.0000 0.0000 17.2454 0.0000 0.0000
# 5 0.0000 0.0000 0.0000 0.0000 11.0564 0.0000
# 6 0.0000 0.0000 0.0000 0.0000 0.0000 24.9988
#
#
#
# Elastic Compliance Matrix: (Units=1/GPa)
#
#
# Indices 1 2 3 4 5 6 
#
# 1 0.026021 -0.003442 0.017028 0.000000 0.000000 0.000000
# 2 -0.003442 0.011986 -0.008385 0.000000 0.000000 0.000000
# 3 0.017028 -0.008385 0.069144 0.000000 0.000000 0.000000
# 4 0.000000 0.000000 0.000000 0.057987 0.000000 0.000000
# 5 0.000000 0.000000 0.000000 0.000000 0.090446 0.000000
# 6 0.000000 0.000000 0.000000 0.000000 0.000000 0.040002
#
#
# Mechanical properties :
#
#
# Convention : Reuss Voigt Hill
#
# Bulk Modulus (GPa) = 8.50695 18.44766 13.47731
# Shear Modulus (GPa) = 15.41458 20.75978 18.08718
#
# Velocity S-wave (km/s) = 2.66812 3.09636 2.89018
# Velocity P-wave (km/s) = 3.66341 4.61550 4.16674
#
# Compressibility (1/GPa) = 0.11755098
#
# Stress axis : x y z
#
# Youngs Moduli (GPa) = 38.43086 83.42943 14.46261
#
# Poissons Ratio (x) = 0.28717 -0.24626
# Poissons Ratio (y) = 0.13228 0.12127
# Poissons Ratio (z) = -0.65439 0.69959
#
# Static dielectric constant tensor:
#      x y z
#    x 1.842910 0.000000 0.000000 
#    y 0.000000 1.827870 0.000000 
#    z 0.000000 0.000000 1.726230 
# 
# From -- ./inp_files/22778.got.cif
#   From: 2010.05.17/outbox.cif.g08.bks.cpg/sg53_12_cif.got.tgz:22778.got - 2010.06.03 12:45:16.
