data_PCOD9419063
_publ_section_title
;
Structure prediction by ZEFSAII (Michael W. Deem and Ramdas Pophale) SiO2 
 PCOD9419063
Probable space group: P M N A
;
_chemical_formula_sum "Si O2"
_cell_formula_units_Z 58
_cell_length_a 15.135061
_cell_length_b 13.143097
_cell_length_c 13.790892
_cell_angle_alpha 90.000000
_cell_angle_beta 90.000000
_cell_angle_gamma 90.000000
_cell_volume 2743.305955
_symmetry_space_group_name_H-M "P M N A"
_symmetry_group_IT_number 53
_symmetry_cell_setting 'orthorhombic'
loop_
_space_group_symop_operation_xyz
x,y,z
1/2-x,-y,1/2+z
x,-y,-z
1/2-x,y,1/2-z
-x,-y,-z
1/2+x,y,1/2-z
-x,y,z
1/2+x,-y,1/2+z
loop_
_atom_site_type_symbol
_atom_site_label
_atom_site_fract_x
_atom_site_fract_y
_atom_site_fract_z
Si Si1 0.650026 0.612903 0.760857
Si Si2 0.865210 0.891640 0.040557
Si Si3 0.500000 0.500000 0.500000
Si Si4 0.850072 0.105109 0.544402
Si Si5 0.356902 0.177475 0.750171
Si Si6 0.128593 0.323128 0.052078
Si Si7 0.158655 0.326750 0.472620
Si Si8 0.102397 0.598867 0.318513
O O1 0.750000 0.651874 0.750000
O O2 0.604546 0.655596 0.664837
O O3 0.619309 0.639248 0.869480
O O4 0.649406 0.490844 0.760479
O O5 0.757485 0.896023 0.041899
O O6 0.890833 0.870179 0.151343
O O7 0.891857 0.792178 0.979564
O O8 0.895711 0.000000 0.000000
O O9 0.423379 0.590198 0.494370
O O10 0.882630 0.116304 0.654121
O O11 0.871531 0.210588 0.491001
O O12 0.881932 0.000000 0.500000
O O13 0.250000 0.178249 0.750000
O O14 0.384911 0.293604 0.765845
O O15 0.234574 0.334279 0.036349
O O16 0.133393 0.387786 0.570007
O O17 0.000000 0.572027 0.319014
#
# Coordination Sequence:
#
# PCOD9419063 Si02
#       8
#     8   8   2   8   8   8   8   8
#     4  10  22  36  56  83 116 159 192 237 299 353
#     4   9  18  35  58  84 118 153 198 248 293 349
#     4  12  28  40  62  84 120 160 196 250 280 360
#     4   8  15  30  56  89 114 148 194 247 295 350
#     4   9  18  33  56  85 115 155 202 245 298 351
#     4  10  24  39  59  88 119 156 202 240 299 349
#     4   9  20  39  59  85 121 153 193 245 300 357
#     4  11  23  36  59  87 117 156 201 247 298 359
#
# _framework density 21.142374
#
# number of rings (size 3 to 8) (size 9 to 14) (size 15 to 20)
#    0.000    2.483    0.000    1.655    6.759    2.207 
#    0.000    5.862    0.000    6.621    0.000    0.000 
#    0.000    0.000    0.000    0.000    0.000    0.000 
#
# Total GULP energy -323252.967369 kJ/mol
# GULP energy per Si atom -5573.327024 kJ/mol
# Density = 2.109425 g / cm^3
# Si number density = 21.142374 Si / 1000 Ang^3
#
#
#
# Elastic Constant Matrix: (Units=GPa)
#
#
# Indices 1 2 3 4 5 6 
#
# 1 56.2064 3.6667 5.7399 0.0000 0.0000 0.0000
# 2 3.6667 160.5872 87.1130 0.0000 0.0000 0.0000
# 3 5.7399 87.1130 133.1436 0.0000 0.0000 0.0000
# 4 0.0000 0.0000 0.0000 26.5314 0.0000 0.0000
# 5 0.0000 0.0000 0.0000 0.0000 -37.2714 0.0000
# 6 0.0000 0.0000 0.0000 0.0000 0.0000 -19.0101
#
#
#
# Elastic Compliance Matrix: (Units=1/GPa)
#
#
# Indices 1 2 3 4 5 6 
#
# 1 0.017870 0.000015 -0.000780 0.000000 0.000000 0.000000
# 2 0.000015 0.009653 -0.006317 0.000000 0.000000 0.000000
# 3 -0.000780 -0.006317 0.011677 0.000000 0.000000 0.000000
# 4 0.000000 0.000000 0.000000 0.037691 0.000000 0.000000
# 5 0.000000 0.000000 0.000000 0.000000 -0.026830 0.000000
# 6 0.000000 0.000000 0.000000 0.000000 0.000000 -0.052604
#
#
# Mechanical properties :
#
#
# Convention : Reuss Voigt Hill
#
# Bulk Modulus (GPa) = 39.94043 60.33072 50.13557
# Shear Modulus (GPa) = 250.40968 10.94450 130.67709
#
# Velocity S-wave (km/s) = 10.89481 2.27768 7.87034
# Velocity P-wave (km/s) = 13.31145 5.95940 10.31283
#
# Compressibility (1/GPa) = 0.02503729
#
# Stress axis : x y z
#
# Youngs Moduli (GPa) = 55.95892 103.59093 85.63720
#
# Poissons Ratio (x) = -0.00159 0.06683
# Poissons Ratio (y) = -0.00086 0.54094
# Poissons Ratio (z) = 0.04367 0.65435
#
# Static dielectric constant tensor:
#      x y z
#    x 1.760500 0.000000 0.000000 
#    y 0.000000 1.719230 0.000000 
#    z 0.000000 0.000000 1.781770 
# 
# From -- ./inp_files/23857.got.cif
#   From: 2010.05.17/outbox.cif.g08.bks.cpg/sg53_12_cif.got.tgz:23857.got - 2010.06.03 12:45:16.
