data_PCOD9419527
_publ_section_title
;
Structure prediction by ZEFSAII (Michael W. Deem and Ramdas Pophale) SiO2 
 PCOD9419527
Probable space group: P M N A
;
_chemical_formula_sum "Si O2"
_cell_formula_units_Z 24
_cell_length_a 17.211818
_cell_length_b 8.061700
_cell_length_c 7.755590
_cell_angle_alpha 90.000000
_cell_angle_beta 90.000000
_cell_angle_gamma 90.000000
_cell_volume 1076.138626
_symmetry_space_group_name_H-M "P M N A"
_symmetry_group_IT_number 53
_symmetry_cell_setting 'orthorhombic'
loop_
_space_group_symop_operation_xyz
x,y,z
1/2-x,-y,1/2+z
x,-y,-z
1/2-x,y,1/2-z
-x,-y,-z
1/2+x,y,1/2-z
-x,y,z
1/2+x,-y,1/2+z
loop_
_atom_site_type_symbol
_atom_site_label
_atom_site_fract_x
_atom_site_fract_y
_atom_site_fract_z
Si Si1 0.088220 0.826016 0.773957
Si Si2 0.857902 0.802841 0.132396
Si Si3 0.304766 0.313698 0.975314
O O1 0.146925 0.746230 0.638615
O O2 0.000000 0.818857 0.710661
O O3 0.113279 0.017140 0.805919
O O4 0.094329 0.748274 0.965172
O O5 0.769050 0.802390 0.063060
O O6 0.856899 0.690936 0.302572
O O7 0.275164 0.500000 0.000000
#
# Coordination Sequence:
#
# PCOD9419527 Si02
#       3
#     8   8   8
#     4  11  25  45  72 102 136 177 226 286 345 403
#     4  10  24  41  71  98 131 179 234 281 325 406
#     4  11  26  42  69 104 138 179 227 284 342 405
#
# _framework density 22.301960999999999
#
# number of rings (size 3 to 8) (size 9 to 14) (size 15 to 20)
#    0.000    1.333    0.000    4.000   28.000    4.667 
#    0.000    1.667    0.000    0.000    0.000    0.000 
#    0.000    0.000    0.000    0.000    0.000    0.000 
#
# Total GULP energy -134188.406952 kJ/mol
# GULP energy per Si atom -5591.183623 kJ/mol
# Density = 2.225120 g / cm^3
# Si number density = 22.301961 Si / 1000 Ang^3
#
#
#
# Elastic Constant Matrix: (Units=GPa)
#
#
# Indices 1 2 3 4 5 6 
#
# 1 85.3533 4.8216 4.5695 0.0000 0.0000 0.0000
# 2 4.8216 27.4709 7.5059 0.0000 0.0000 0.0000
# 3 4.5695 7.5059 103.9923 0.0000 0.0000 0.0000
# 4 0.0000 0.0000 0.0000 9.3125 0.0000 0.0000
# 5 0.0000 0.0000 0.0000 0.0000 12.8516 0.0000
# 6 0.0000 0.0000 0.0000 0.0000 0.0000 -21.4759
#
#
#
# Elastic Compliance Matrix: (Units=1/GPa)
#
#
# Indices 1 2 3 4 5 6 
#
# 1 0.011848 -0.001976 -0.000378 0.000000 0.000000 0.000000
# 2 -0.001976 0.037464 -0.002617 0.000000 0.000000 0.000000
# 3 -0.000378 -0.002617 0.009822 0.000000 0.000000 0.000000
# 4 0.000000 0.000000 0.000000 0.107382 0.000000 0.000000
# 5 0.000000 0.000000 0.000000 0.000000 0.077812 0.000000
# 6 0.000000 0.000000 0.000000 0.000000 0.000000 -0.046564
#
#
# Mechanical properties :
#
#
# Convention : Reuss Voigt Hill
#
# Bulk Modulus (GPa) = 20.32901 27.84560 24.08731
# Shear Modulus (GPa) = 22.31115 13.46561 17.88838
#
# Velocity S-wave (km/s) = 3.16636 2.45987 2.83521
# Velocity P-wave (km/s) = 4.74372 4.53660 4.64132
#
# Compressibility (1/GPa) = 0.04919078
#
# Stress axis : x y z
#
# Youngs Moduli (GPa) = 84.40324 26.69220 101.81629
#
# Poissons Ratio (x) = 0.05275 0.03848
# Poissons Ratio (y) = 0.16680 0.26648
# Poissons Ratio (z) = 0.03190 0.06986
#
# Static dielectric constant tensor:
#      x y z
#    x 1.815450 0.000000 0.000000 
#    y 0.000000 1.806570 0.000000 
#    z 0.000000 0.000000 1.862410 
# 
# From -- ./inp_files/9296.got.cif
#   From: 2010.05.17/outbox.cif.g08.bks.cpg/sg53_5_cif.got.tgz:9296.got - 2010.06.03 12:45:16.
