data_PCOD9419407
_publ_section_title
;
Structure prediction by ZEFSAII (Michael W. Deem and Ramdas Pophale) SiO2 
 PCOD9419407
Probable space group: P M N A
;
_chemical_formula_sum "Si O2"
_cell_formula_units_Z 32
_cell_length_a 29.086071
_cell_length_b 9.072739
_cell_length_c 5.606734
_cell_angle_alpha 90.000000
_cell_angle_beta 90.000000
_cell_angle_gamma 90.000000
_cell_volume 1479.562890
_symmetry_space_group_name_H-M "P M N A"
_symmetry_group_IT_number 53
_symmetry_cell_setting 'orthorhombic'
loop_
_space_group_symop_operation_xyz
x,y,z
1/2-x,-y,1/2+z
x,-y,-z
1/2-x,y,1/2-z
-x,-y,-z
1/2+x,y,1/2-z
-x,y,z
1/2+x,-y,1/2+z
loop_
_atom_site_type_symbol
_atom_site_label
_atom_site_fract_x
_atom_site_fract_y
_atom_site_fract_z
Si Si1 0.726180 0.678317 0.497145
Si Si2 0.897649 0.500000 0.500000
Si Si3 0.897939 0.000000 0.500000
Si Si4 0.554119 0.252474 0.694777
Si Si5 0.367587 0.246832 0.322867
O O1 0.724993 0.500000 0.500000
O O2 0.750000 0.724149 0.250000
O O3 0.674286 0.738620 0.497806
O O4 0.750000 0.723240 0.750000
O O5 0.929337 0.601706 0.333865
O O6 0.866575 0.389201 0.347509
O O7 0.929387 0.112653 0.649867
O O8 0.866934 0.098885 0.328467
O O9 0.500000 0.251103 0.655664
O O10 0.583369 0.248923 0.453415
#
# Coordination Sequence:
#
# PCOD9419407 Si02
#       5
#     8   4   4   8   8
#     4  10  23  40  71 106 136 171 224 285 351 412
#     4  10  23  38  66 100 136 172 224 278 351 398
#     4  10  25  42  66  90 134 180 232 272 343 406
#     4  11  23  41  65  95 133 178 227 281 342 409
#     4  11  24  42  68  97 136 177 224 283 340 410
#
# _framework density 21.628008999999999
#
# number of rings (size 3 to 8) (size 9 to 14) (size 15 to 20)
#    0.000    1.500    0.000    3.750   12.250    8.000 
#    0.000    0.000    5.500    0.000    0.000    0.000 
#    0.000    0.000    0.000    0.000    0.000    0.000 
#
# Total GULP energy -179121.431681 kJ/mol
# GULP energy per Si atom -5597.544740 kJ/mol
# Density = 2.157878 g / cm^3
# Si number density = 21.628009 Si / 1000 Ang^3
#
#
#
# Elastic Constant Matrix: (Units=GPa)
#
#
# Indices 1 2 3 4 5 6 
#
# 1 112.7190 23.9638 42.2947 0.0000 0.0000 0.0000
# 2 23.9638 108.5890 43.4543 0.0000 0.0000 0.0000
# 3 42.2947 43.4543 113.0063 0.0000 0.0000 0.0000
# 4 0.0000 0.0000 0.0000 -0.6613 0.0000 0.0000
# 5 0.0000 0.0000 0.0000 0.0000 32.8793 0.0000
# 6 0.0000 0.0000 0.0000 0.0000 0.0000 10.9489
#
#
#
# Elastic Compliance Matrix: (Units=1/GPa)
#
#
# Indices 1 2 3 4 5 6 
#
# 1 0.010390 -0.000871 -0.003554 0.000000 0.000000 0.000000
# 2 -0.000871 0.010957 -0.003887 0.000000 0.000000 0.000000
# 3 -0.003554 -0.003887 0.011674 0.000000 0.000000 0.000000
# 4 0.000000 0.000000 0.000000 -1.512110 0.000000 0.000000
# 5 0.000000 0.000000 0.000000 0.000000 0.030414 0.000000
# 6 0.000000 0.000000 0.000000 0.000000 0.000000 0.091333
#
#
# Mechanical properties :
#
#
# Convention : Reuss Voigt Hill
#
# Bulk Modulus (GPa) = 60.98670 61.52667 61.25668
# Shear Modulus (GPa) = -3.74461 23.60681 9.93110
#
# Velocity S-wave (km/s) = -1.31724 3.30736 2.14517
# Velocity P-wave (km/s) = 5.09369 6.56462 5.87537
#
# Compressibility (1/GPa) = 0.01639702
#
# Stress axis : x y z
#
# Youngs Moduli (GPa) = 96.24404 91.26756 85.66063
#
# Poissons Ratio (x) = 0.07947 0.30443
# Poissons Ratio (y) = 0.08381 0.33299
# Poissons Ratio (z) = 0.34204 0.35479
#
# Static dielectric constant tensor:
#      x y z
#    x 1.746360 0.000000 0.000000 
#    y 0.000000 1.760980 0.000000 
#    z 0.000000 0.000000 1.864720 
# 
# From -- ./inp_files/4955.got.cif
#   From: 2010.05.17/outbox.cif.g08.bks.cpg/sg53_3_cif.got.tgz:4955.got - 2010.06.03 12:45:16.
