data_PCOD9419033
_publ_section_title
;
Structure prediction by ZEFSAII (Michael W. Deem and Ramdas Pophale) SiO2 
 PCOD9419033
Probable space group: P M N A
;
_chemical_formula_sum "Si O2"
_cell_formula_units_Z 20
_cell_length_a 30.414411
_cell_length_b 5.196121
_cell_length_c 5.206108
_cell_angle_alpha 90.000000
_cell_angle_beta 90.000000
_cell_angle_gamma 90.000000
_cell_volume 822.757480
_symmetry_space_group_name_H-M "P M N A"
_symmetry_group_IT_number 53
_symmetry_cell_setting 'orthorhombic'
loop_
_space_group_symop_operation_xyz
x,y,z
1/2-x,-y,1/2+z
x,-y,-z
1/2-x,y,1/2-z
-x,-y,-z
1/2+x,y,1/2-z
-x,y,z
1/2+x,-y,1/2+z
loop_
_atom_site_type_symbol
_atom_site_label
_atom_site_fract_x
_atom_site_fract_y
_atom_site_fract_z
Si Si1 0.500000 0.251434 0.178585
Si Si2 0.096570 0.832989 0.766117
Si Si3 0.220656 0.000000 0.500000
Si Si4 0.338503 0.500000 0.000000
O O1 0.453804 0.244740 0.325251
O O2 0.500000 0.500000 0.000000
O O3 0.500000 0.000000 0.000000
O O4 0.127897 0.592557 0.718690
O O5 0.096444 0.000000 0.500000
O O6 0.113691 0.000000 0.000000
O O7 0.191307 0.747927 0.444131
O O8 0.250000 0.946114 0.750000
#
# Coordination Sequence:
#
# PCOD9419033 Si02
#       4
#     4   8   4   4
#     4  10  21  44  66 105 155 205 250 304 368 435
#     4  11  25  45  73 111 153 201 252 309 369 450
#     4  12  30  52  78 107 146 189 244 318 400 472
#     4  12  26  51  78 112 146 194 252 315 384 468
#
# _framework density 24.308499000000001
#
# number of rings (size 3 to 8) (size 9 to 14) (size 15 to 20)
#    0.000    0.800    4.000    1.800    2.800    4.800 
#    0.000    4.000    0.000    0.000    0.000    0.000 
#    0.000    0.000    0.000    0.000    0.000    0.000 
#
# Total GULP energy -112109.178202 kJ/mol
# GULP energy per Si atom -5605.458910 kJ/mol
# Density = 2.425317 g / cm^3
# Si number density = 24.308499 Si / 1000 Ang^3
#
#
#
# Elastic Constant Matrix: (Units=GPa)
#
#
# Indices 1 2 3 4 5 6 
#
# 1 176.3563 78.3160 45.7456 0.0000 0.0000 0.0000
# 2 78.3160 202.4369 57.8044 0.0000 0.0000 0.0000
# 3 45.7456 57.8044 141.9338 0.0000 0.0000 0.0000
# 4 0.0000 0.0000 0.0000 58.6712 0.0000 0.0000
# 5 0.0000 0.0000 0.0000 0.0000 -95.6558 0.0000
# 6 0.0000 0.0000 0.0000 0.0000 0.0000 63.0132
#
#
#
# Elastic Compliance Matrix: (Units=1/GPa)
#
#
# Indices 1 2 3 4 5 6 
#
# 1 0.007057 -0.002355 -0.001316 0.000000 0.000000 0.000000
# 2 -0.002355 0.006375 -0.001838 0.000000 0.000000 0.000000
# 3 -0.001316 -0.001838 0.008218 0.000000 0.000000 0.000000
# 4 0.000000 0.000000 0.000000 0.017044 0.000000 0.000000
# 5 0.000000 0.000000 0.000000 0.000000 -0.010454 0.000000
# 6 0.000000 0.000000 0.000000 0.000000 0.000000 0.015870
#
#
# Mechanical properties :
#
#
# Convention : Reuss Voigt Hill
#
# Bulk Modulus (GPa) = 94.02879 98.27322 96.15100
# Shear Modulus (GPa) = 85.22127 27.79645 56.50886
#
# Velocity S-wave (km/s) = 5.92742 3.38522 4.82670
# Velocity P-wave (km/s) = 9.25263 7.46960 8.40851
#
# Compressibility (1/GPa) = 0.01063504
#
# Stress axis : x y z
#
# Youngs Moduli (GPa) = 141.69922 156.85262 121.68465
#
# Poissons Ratio (x) = 0.36931 0.16009
# Poissons Ratio (y) = 0.33363 0.22361
# Poissons Ratio (z) = 0.18643 0.28823
#
# Static dielectric constant tensor:
#      x y z
#    x 1.957310 0.000000 0.000000 
#    y 0.000000 1.951820 0.000000 
#    z 0.000000 0.000000 1.999560 
# 
# From -- ./inp_files/4816.got.cif
#   From: 2010.05.17/outbox.cif.g08.bks.cpg/sg53_3_cif.got.tgz:4816.got - 2010.06.03 12:45:16.
