data_PCOD9419116
_publ_section_title
;
Structure prediction by ZEFSAII (Michael W. Deem and Ramdas Pophale) SiO2 
 PCOD9419116
Probable space group: P M N A
;
_chemical_formula_sum "Si O2"
_cell_formula_units_Z 48
_cell_length_a 23.244905
_cell_length_b 11.468134
_cell_length_c 7.307161
_cell_angle_alpha 90.000000
_cell_angle_beta 90.000000
_cell_angle_gamma 90.000000
_cell_volume 1947.911452
_symmetry_space_group_name_H-M "P M N A"
_symmetry_group_IT_number 53
_symmetry_cell_setting 'orthorhombic'
loop_
_space_group_symop_operation_xyz
x,y,z
1/2-x,-y,1/2+z
x,-y,-z
1/2-x,y,1/2-z
-x,-y,-z
1/2+x,y,1/2-z
-x,y,z
1/2+x,-y,1/2+z
loop_
_atom_site_type_symbol
_atom_site_label
_atom_site_fract_x
_atom_site_fract_y
_atom_site_fract_z
Si Si1 0.787427 0.757013 0.954980
Si Si2 0.937572 0.976988 0.718393
Si Si3 0.642801 0.453747 0.301951
Si Si4 0.830647 0.298429 0.654028
Si Si5 0.687837 0.007418 0.221975
Si Si6 0.065248 0.278389 0.399389
O O1 0.721799 0.736830 0.021421
O O2 0.821607 0.754245 0.145905
O O3 0.810118 0.645333 0.843477
O O4 0.800706 0.872245 0.836612
O O5 0.876644 0.025512 0.785382
O O6 0.933083 0.836013 0.728957
O O7 0.000000 0.016449 0.791927
O O8 0.940302 0.000000 0.500000
O O9 0.624274 0.500000 0.500000
O O10 0.667459 0.562555 0.188736
O O11 0.590181 0.390875 0.202377
O O12 0.889876 0.259543 0.562886
O O13 0.750000 0.946396 0.250000
O O14 0.682958 0.000000 0.000000
O O15 0.000000 0.293127 0.461955
#
# Coordination Sequence:
#
# PCOD9419116 Si02
#       6
#     8   8   8   8   8   8
#     4  10  22  43  67 100 140 179 234 302 358 428
#     4   9  19  39  70  98 126 179 242 296 363 435
#     4  10  22  38  61  98 138 187 244 296 356 423
#     4  10  23  39  64  99 142 186 232 290 360 437
#     4  11  23  45  71 104 138 180 235 300 373 438
#     4  11  22  39  63  95 139 191 244 300 364 432
#
# _framework density 24.641774999999999
#
# number of rings (size 3 to 8) (size 9 to 14) (size 15 to 20)
#    0.000    1.833    1.667    1.500    0.000    9.667 
#    9.000    3.333    0.000    0.500    0.000    0.000 
#    0.000    0.000    0.000    0.000    0.000    0.000 
#
# Total GULP energy -268416.133133 kJ/mol
# GULP energy per Si atom -5592.002774 kJ/mol
# Density = 2.458569 g / cm^3
# Si number density = 24.641775 Si / 1000 Ang^3
#
#
#
# Elastic Constant Matrix: (Units=GPa)
#
#
# Indices 1 2 3 4 5 6 
#
# 1 276.4794 55.8862 55.5973 0.0000 0.0000 0.0000
# 2 55.8862 158.4724 28.1394 0.0000 0.0000 0.0000
# 3 55.5973 28.1394 120.9733 0.0000 0.0000 0.0000
# 4 0.0000 0.0000 0.0000 51.6135 0.0000 0.0000
# 5 0.0000 0.0000 0.0000 0.0000 -10.9205 0.0000
# 6 0.0000 0.0000 0.0000 0.0000 0.0000 12.6719
#
#
#
# Elastic Compliance Matrix: (Units=1/GPa)
#
#
# Indices 1 2 3 4 5 6 
#
# 1 0.004188 -0.001184 -0.001649 0.000000 0.000000 0.000000
# 2 -0.001184 0.006917 -0.001065 0.000000 0.000000 0.000000
# 3 -0.001649 -0.001065 0.009272 0.000000 0.000000 0.000000
# 4 0.000000 0.000000 0.000000 0.019375 0.000000 0.000000
# 5 0.000000 0.000000 0.000000 0.000000 -0.091571 0.000000
# 6 0.000000 0.000000 0.000000 0.000000 0.000000 0.078915
#
#
# Mechanical properties :
#
#
# Convention : Reuss Voigt Hill
#
# Bulk Modulus (GPa) = 79.48763 92.79677 86.14220
# Shear Modulus (GPa) = 127.92625 38.42645 83.17635
#
# Velocity S-wave (km/s) = 7.21298 3.95321 5.81614
# Velocity P-wave (km/s) = 10.08448 7.65358 8.95193
#
# Compressibility (1/GPa) = 0.01258057
#
# Stress axis : x y z
#
# Youngs Moduli (GPa) = 238.78355 144.57407 107.85231
#
# Poissons Ratio (x) = 0.17118 0.17788
# Poissons Ratio (y) = 0.28273 0.11484
# Poissons Ratio (z) = 0.39382 0.15394
#
# Static dielectric constant tensor:
#      x y z
#    x 1.927930 0.000000 0.000000 
#    y 0.000000 2.037390 0.000000 
#    z 0.000000 0.000000 1.999350 
# 
# From -- ./inp_files/11743.got.cif
#   From: 2010.05.17/outbox.cif.g08.bks.cpg/sg53_6_cif.got.tgz:11743.got - 2010.06.03 12:45:16.
