data_PCOD9419892
_publ_section_title
;
Structure prediction by ZEFSAII (Michael W. Deem and Ramdas Pophale) SiO2 
 PCOD9419892
Probable space group: P M N A
;
_chemical_formula_sum "Si O2"
_cell_formula_units_Z 28
_cell_length_a 7.651131
_cell_length_b 9.594754
_cell_length_c 14.434192
_cell_angle_alpha 90.000000
_cell_angle_beta 90.000000
_cell_angle_gamma 90.000000
_cell_volume 1059.624424
_symmetry_space_group_name_H-M "P M N A"
_symmetry_group_IT_number 53
_symmetry_cell_setting 'orthorhombic'
loop_
_space_group_symop_operation_xyz
x,y,z
1/2-x,-y,1/2+z
x,-y,-z
1/2-x,y,1/2-z
-x,-y,-z
1/2+x,y,1/2-z
-x,y,z
1/2+x,-y,1/2+z
loop_
_atom_site_type_symbol
_atom_site_label
_atom_site_fract_x
_atom_site_fract_y
_atom_site_fract_z
Si Si1 0.793272 0.479687 0.645603
Si Si2 0.500000 0.042943 0.173339
Si Si3 0.804084 0.772530 0.901191
Si Si4 0.194337 0.164575 0.886409
O O1 0.750000 0.525699 0.750000
O O2 0.722468 0.607383 0.585321
O O3 0.709289 0.328212 0.635073
O O4 0.000000 0.465508 0.630787
O O5 0.652936 0.163162 0.160030
O O6 0.346378 0.922316 0.160235
O O7 0.000000 0.798330 0.865442
O O8 0.787873 0.842716 0.002325
O O9 0.000000 0.113728 0.859689
#
# Coordination Sequence:
#
# PCOD9419892 Si02
#       4
#     8   4   8   8
#     4  12  25  44  69  92 131 174 225 277 324 382
#     4  12  23  40  68 102 138 174 211 262 331 394
#     4  11  23  41  68 101 134 170 217 271 325 386
#     4  11  23  41  68 101 134 170 217 271 325 386
#
# _framework density 26.424457
#
# number of rings (size 3 to 8) (size 9 to 14) (size 15 to 20)
#    0.000    0.571    2.857    6.857    0.000    5.714 
#    0.000    1.429    0.000    0.000    0.000    0.000 
#    0.000    0.000    0.000    0.000    0.000    0.000 
#
# Total GULP energy -156266.159478 kJ/mol
# GULP energy per Si atom -5580.934267 kJ/mol
# Density = 2.636431 g / cm^3
# Si number density = 26.424457 Si / 1000 Ang^3
#
#
#
# Elastic Constant Matrix: (Units=GPa)
#
#
# Indices 1 2 3 4 5 6 
#
# 1 293.5388 68.0498 28.9192 0.0000 0.0000 0.0000
# 2 68.0498 230.4402 -13.8701 0.0000 0.0000 0.0000
# 3 28.9192 -13.8701 82.3169 0.0000 0.0000 0.0000
# 4 0.0000 0.0000 0.0000 -120.6346 0.0000 0.0000
# 5 0.0000 0.0000 0.0000 0.0000 -71.9997 0.0000
# 6 0.0000 0.0000 0.0000 0.0000 0.0000 210.6997
#
#
#
# Elastic Compliance Matrix: (Units=1/GPa)
#
#
# Indices 1 2 3 4 5 6 
#
# 1 0.003845 -0.001229 -0.001558 0.000000 0.000000 0.000000
# 2 -0.001229 0.004777 0.001237 0.000000 0.000000 0.000000
# 3 -0.001558 0.001237 0.012904 0.000000 0.000000 0.000000
# 4 0.000000 0.000000 0.000000 -0.008289 0.000000 0.000000
# 5 0.000000 0.000000 0.000000 0.000000 -0.013889 0.000000
# 6 0.000000 0.000000 0.000000 0.000000 0.000000 0.004746
#
#
# Mechanical properties :
#
#
# Convention : Reuss Voigt Hill
#
# Bulk Modulus (GPa) = 54.27393 85.83263 70.05328
# Shear Modulus (GPa) = 374.91421 38.49288 206.70355
#
# Velocity S-wave (km/s) = 11.92433 3.82083 8.85405
# Velocity P-wave (km/s) = 14.49724 7.21234 11.44962
#
# Compressibility (1/GPa) = 0.01842505
#
# Stress axis : x y z
#
# Youngs Moduli (GPa) = 260.06631 209.33784 77.49588
#
# Poissons Ratio (x) = 0.25733 0.12074
# Poissons Ratio (y) = 0.31969 -0.09584
# Poissons Ratio (z) = 0.40518 -0.25890
#
# Static dielectric constant tensor:
#      x y z
#    x 1.940890 0.000000 0.000000 
#    y 0.000000 2.011220 0.000000 
#    z 0.000000 0.000000 2.153200 
# 
# From -- ./inp_files/25627.got.cif
#   From: 2010.05.17/outbox.cif.g08.bks.cpg/sg53_13_cif.got.tgz:25627.got - 2010.06.03 12:45:16.
