data_PCOD9419147
_publ_section_title
;
Structure prediction by ZEFSAII (Michael W. Deem and Ramdas Pophale) SiO2 
 PCOD9419147
Probable space group: P M N A
;
_chemical_formula_sum "Si O2"
_cell_formula_units_Z 40
_cell_length_a 8.386768
_cell_length_b 26.715896
_cell_length_c 9.313781
_cell_angle_alpha 90.000000
_cell_angle_beta 90.000000
_cell_angle_gamma 90.000000
_cell_volume 2086.845973
_symmetry_space_group_name_H-M "P M N A"
_symmetry_group_IT_number 53
_symmetry_cell_setting 'orthorhombic'
loop_
_space_group_symop_operation_xyz
x,y,z
1/2-x,-y,1/2+z
x,-y,-z
1/2-x,y,1/2-z
-x,-y,-z
1/2+x,y,1/2-z
-x,y,z
1/2+x,-y,1/2+z
loop_
_atom_site_type_symbol
_atom_site_label
_atom_site_fract_x
_atom_site_fract_y
_atom_site_fract_z
Si Si1 0.692744 0.950695 0.586343
Si Si2 0.808762 0.244105 0.412624
Si Si3 0.808722 0.147886 0.913362
Si Si4 0.192658 0.452060 0.587355
Si Si5 0.192706 0.341010 0.586261
O O1 0.750000 0.951078 0.750000
O O2 0.500000 0.950789 0.587324
O O3 0.746220 0.900896 0.502374
O O4 0.746526 0.000000 0.500000
O O5 0.750000 0.239561 0.250000
O O6 0.750839 0.197595 0.507412
O O7 0.751608 0.295865 0.485724
O O8 0.000000 0.244270 0.412512
O O9 0.750000 0.145901 0.750000
O O10 0.000000 0.148116 0.912889
O O11 0.251912 0.500000 0.500000
O O12 0.250000 0.456471 0.750000
O O13 0.244026 0.396621 0.536192
O O14 0.000000 0.452765 0.584119
O O15 0.250000 0.333916 0.750000
O O16 0.000000 0.340265 0.587937
#
# Coordination Sequence:
#
# PCOD9419147 Si02
#       5
#     8   8   8   8   8
#     4  10  22  39  59  85 115 147 184 226 272 322
#     4  11  23  38  56  80 111 144 181 225 273 324
#     4  11  23  39  60  85 113 146 185 226 272 325
#     4   9  18  33  52  75 104 136 173 217 264 316
#     4   9  19  35  54  76 103 138 177 218 265 318
#
# _framework density 19.167683
#
# number of rings (size 3 to 8) (size 9 to 14) (size 15 to 20)
#    0.000    2.000    0.000    3.000    0.000    8.000 
#    0.000    0.000    0.000    0.000    0.000    0.000 
#    0.000    0.000    0.000    0.000    0.000    0.000 
#
# Total GULP energy -223401.760478 kJ/mol
# GULP energy per Si atom -5585.044012 kJ/mol
# Density = 1.912406 g / cm^3
# Si number density = 19.167683 Si / 1000 Ang^3
#
#
#
# Elastic Constant Matrix: (Units=GPa)
#
#
# Indices 1 2 3 4 5 6 
#
# 1 20.6768 31.4474 20.6963 0.0000 0.0000 0.0000
# 2 31.4474 224.0915 126.2131 0.0000 0.0000 0.0000
# 3 20.6963 126.2131 164.9887 0.0000 0.0000 0.0000
# 4 0.0000 0.0000 0.0000 43.3842 0.0000 0.0000
# 5 0.0000 0.0000 0.0000 0.0000 36.7438 0.0000
# 6 0.0000 0.0000 0.0000 0.0000 0.0000 28.7094
#
#
#
# Elastic Compliance Matrix: (Units=1/GPa)
#
#
# Indices 1 2 3 4 5 6 
#
# 1 0.061847 -0.007572 -0.001966 0.000000 0.000000 0.000000
# 2 -0.007572 0.008768 -0.005757 0.000000 0.000000 0.000000
# 3 -0.001966 -0.005757 0.010712 0.000000 0.000000 0.000000
# 4 0.000000 0.000000 0.000000 0.023050 0.000000 0.000000
# 5 0.000000 0.000000 0.000000 0.000000 0.027216 0.000000
# 6 0.000000 0.000000 0.000000 0.000000 0.000000 0.034832
#
#
# Mechanical properties :
#
#
# Convention : Reuss Voigt Hill
#
# Bulk Modulus (GPa) = 19.70960 85.16339 52.43650
# Shear Modulus (GPa) = 23.37255 37.19414 30.28335
#
# Velocity S-wave (km/s) = 3.49574 4.40985 3.97913
# Velocity P-wave (km/s) = 5.15739 8.39382 6.96616
#
# Compressibility (1/GPa) = 0.05073669
#
# Stress axis : x y z
#
# Youngs Moduli (GPa) = 16.16887 114.05513 93.35507
#
# Poissons Ratio (x) = 0.86364 0.18350
# Poissons Ratio (y) = 0.12243 0.53747
# Poissons Ratio (z) = 0.03178 0.65665
#
# Static dielectric constant tensor:
#      x y z
#    x 1.664220 0.000000 0.000000 
#    y 0.000000 1.688580 0.000000 
#    z 0.000000 0.000000 1.616940 
# 
# From -- ./inp_files/6270.got.cif
#   From: 2010.05.17/outbox.cif.g08.bks.cpg/sg53_4_cif.got.tgz:6270.got - 2010.06.03 12:45:16.
