data_PCOD9419469
_publ_section_title
;
Structure prediction by ZEFSAII (Michael W. Deem and Ramdas Pophale) SiO2 
 PCOD9419469
Probable space group: P M N A
;
_chemical_formula_sum "Si O2"
_cell_formula_units_Z 54
_cell_length_a 15.360184
_cell_length_b 15.589817
_cell_length_c 11.571785
_cell_angle_alpha 90.000000
_cell_angle_beta 90.000000
_cell_angle_gamma 90.000000
_cell_volume 2771.008075
_symmetry_space_group_name_H-M "P M N A"
_symmetry_group_IT_number 53
_symmetry_cell_setting 'orthorhombic'
loop_
_space_group_symop_operation_xyz
x,y,z
1/2-x,-y,1/2+z
x,-y,-z
1/2-x,y,1/2-z
-x,-y,-z
1/2+x,y,1/2-z
-x,y,z
1/2+x,-y,1/2+z
loop_
_atom_site_type_symbol
_atom_site_label
_atom_site_fract_x
_atom_site_fract_y
_atom_site_fract_z
Si Si1 0.756911 0.634160 0.925197
Si Si2 0.603152 0.417705 0.238467
Si Si3 0.601006 0.785102 0.321583
Si Si4 0.288798 0.824597 0.530954
Si Si5 0.833814 0.592640 0.170914
Si Si6 0.500000 0.000000 0.000000
Si Si7 0.658445 0.079787 0.867890
Si Si8 0.250000 0.925248 0.750000
O O1 0.836542 0.633068 0.832116
O O2 0.667975 0.592195 0.873643
O O3 0.739910 0.733612 0.955470
O O4 0.797648 0.591884 0.040048
O O5 0.500000 0.393232 0.223960
O O6 0.605490 0.514039 0.291044
O O7 0.500000 0.796828 0.303928
O O8 0.626849 0.806928 0.453476
O O9 0.626460 0.685929 0.305118
O O10 0.647236 0.847961 0.230574
O O11 0.233506 0.889129 0.452983
O O12 0.297485 0.866644 0.655645
O O13 0.750000 0.582105 0.250000
O O14 0.574734 0.062571 0.943853
O O15 0.682255 0.989790 0.808790
#
# Coordination Sequence:
#
# PCOD9419469 Si02
#       8
#     8   8   8   8   8   2   8   4
#     4  10  23  43  64  93 135 171 215 274 326 394
#     4  11  23  42  68  98 129 174 224 270 327 393
#     4  11  23  40  64  98 128 164 219 270 316 386
#     4  11  23  43  64  91 127 176 212 259 333 389
#     4  11  22  41  68  92 132 172 213 270 331 387
#     4  12  24  44  64 102 130 166 214 282 334 388
#     4  12  23  42  66  93 129 165 214 269 325 394
#     4  12  22  40  68  88 120 174 212 252 326 394
#
# _framework density 19.487492
#
# number of rings (size 3 to 8) (size 9 to 14) (size 15 to 20)
#    0.000    0.889    5.185    3.556    0.000    3.556 
#    2.667    2.963    0.000    0.000    0.000    0.000 
#    0.000    0.000    0.000    0.000    0.000    0.000 
#
# Total GULP energy -300673.771929 kJ/mol
# GULP energy per Si atom -5568.032814 kJ/mol
# Density = 1.944314 g / cm^3
# Si number density = 19.487492 Si / 1000 Ang^3
#
#
#
# Elastic Constant Matrix: (Units=GPa)
#
#
# Indices 1 2 3 4 5 6 
#
# 1 96.5771 -8.4865 9.2223 0.0000 0.0000 0.0000
# 2 -8.4865 71.6236 24.9352 0.0000 0.0000 0.0000
# 3 9.2223 24.9352 78.8581 0.0000 0.0000 0.0000
# 4 0.0000 0.0000 0.0000 47.0184 0.0000 0.0000
# 5 0.0000 0.0000 0.0000 0.0000 7.9071 0.0000
# 6 0.0000 0.0000 0.0000 0.0000 0.0000 17.9406
#
#
#
# Elastic Compliance Matrix: (Units=1/GPa)
#
#
# Indices 1 2 3 4 5 6 
#
# 1 0.010700 0.001914 -0.001857 0.000000 0.000000 0.000000
# 2 0.001914 0.016031 -0.005293 0.000000 0.000000 0.000000
# 3 -0.001857 -0.005293 0.014572 0.000000 0.000000 0.000000
# 4 0.000000 0.000000 0.000000 0.021268 0.000000 0.000000
# 5 0.000000 0.000000 0.000000 0.000000 0.126469 0.000000
# 6 0.000000 0.000000 0.000000 0.000000 0.000000 0.055739
#
#
# Mechanical properties :
#
#
# Convention : Reuss Voigt Hill
#
# Bulk Modulus (GPa) = 32.43366 33.15566 32.79466
# Shear Modulus (GPa) = 18.83037 29.33239 24.08138
#
# Velocity S-wave (km/s) = 3.11188 3.88389 3.51912
# Velocity P-wave (km/s) = 5.43978 6.09619 5.77731
#
# Compressibility (1/GPa) = 0.03083217
#
# Stress axis : x y z
#
# Youngs Moduli (GPa) = 93.45872 62.37748 68.62560
#
# Poissons Ratio (x) = -0.11940 0.12741
# Poissons Ratio (y) = -0.17890 0.36324
# Poissons Ratio (z) = 0.17352 0.33017
#
# Static dielectric constant tensor:
#      x y z
#    x 1.689160 0.000000 0.000000 
#    y 0.000000 1.738570 0.000000 
#    z 0.000000 0.000000 1.736820 
# 
# From -- ./inp_files/16104.got.cif
#   From: 2010.05.17/outbox.cif.g08.bks.cpg/sg53_9_cif.got.tgz:16104.got - 2010.06.03 12:45:16.
