data_PCOD9419973
_publ_section_title
;
Structure prediction by ZEFSAII (Michael W. Deem and Ramdas Pophale) SiO2 
 PCOD9419973
Probable space group: P M N A
;
_chemical_formula_sum "Si O2"
_cell_formula_units_Z 28
_cell_length_a 26.878055
_cell_length_b 5.097848
_cell_length_c 9.654598
_cell_angle_alpha 90.000000
_cell_angle_beta 90.000000
_cell_angle_gamma 90.000000
_cell_volume 1322.875325
_symmetry_space_group_name_H-M "P M N A"
_symmetry_group_IT_number 53
_symmetry_cell_setting 'orthorhombic'
loop_
_space_group_symop_operation_xyz
x,y,z
1/2-x,-y,1/2+z
x,-y,-z
1/2-x,y,1/2-z
-x,-y,-z
1/2+x,y,1/2-z
-x,y,z
1/2+x,-y,1/2+z
loop_
_atom_site_type_symbol
_atom_site_label
_atom_site_fract_x
_atom_site_fract_y
_atom_site_fract_z
Si Si1 0.323625 0.264638 0.589199
Si Si2 0.053906 0.747783 0.600394
Si Si3 0.250000 0.429743 0.250000
Si Si4 0.843284 0.926818 0.661812
O O1 0.347760 0.500000 0.500000
O O2 0.269833 0.378783 0.630850
O O3 0.320874 0.000000 0.500000
O O4 0.345705 0.177947 0.736984
O O5 0.057603 0.500000 0.500000
O O6 0.104731 0.774802 0.684265
O O7 0.000000 0.736054 0.674015
O O8 0.052861 0.000000 0.500000
O O9 0.204065 0.247302 0.294766
O O10 0.838998 0.000000 0.500000
#
# Coordination Sequence:
#
# PCOD9419973 Si02
#       4
#     8   8   4   8
#     4  12  28  45  61  92 138 182 220 274 339 403
#     4   9  20  40  66  99 133 166 219 291 348 390
#     4  12  28  42  68  96 138 182 226 278 324 418
#     4  11  27  42  71 101 134 179 231 279 337 411
#
# _framework density 21.166014000000001
#
# number of rings (size 3 to 8) (size 9 to 14) (size 15 to 20)
#    0.000    1.143    2.857    0.857   16.000    0.000 
#    0.000    0.000    0.000    1.714    0.000    0.000 
#    0.000    0.000    0.000    0.000    0.000    0.000 
#
# Total GULP energy -156378.797107 kJ/mol
# GULP energy per Si atom -5584.957040 kJ/mol
# Density = 2.111784 g / cm^3
# Si number density = 21.166014 Si / 1000 Ang^3
#
#
#
# Elastic Constant Matrix: (Units=GPa)
#
#
# Indices 1 2 3 4 5 6 
#
# 1 182.2471 44.4138 29.0736 0.0000 0.0000 0.0000
# 2 44.4138 162.8799 58.5417 0.0000 0.0000 0.0000
# 3 29.0736 58.5417 129.0593 0.0000 0.0000 0.0000
# 4 0.0000 0.0000 0.0000 18.1526 0.0000 0.0000
# 5 0.0000 0.0000 0.0000 0.0000 23.3058 0.0000
# 6 0.0000 0.0000 0.0000 0.0000 0.0000 67.8795
#
#
#
# Elastic Compliance Matrix: (Units=1/GPa)
#
#
# Indices 1 2 3 4 5 6 
#
# 1 0.005933 -0.001359 -0.000720 0.000000 0.000000 0.000000
# 2 -0.001359 0.007647 -0.003162 0.000000 0.000000 0.000000
# 3 -0.000720 -0.003162 0.009345 0.000000 0.000000 0.000000
# 4 0.000000 0.000000 0.000000 0.055089 0.000000 0.000000
# 5 0.000000 0.000000 0.000000 0.000000 0.042908 0.000000
# 6 0.000000 0.000000 0.000000 0.000000 0.000000 0.014732
#
#
# Mechanical properties :
#
#
# Convention : Reuss Voigt Hill
#
# Bulk Modulus (GPa) = 80.37422 82.02718 81.20070
# Shear Modulus (GPa) = 33.27043 44.67806 38.97425
#
# Velocity S-wave (km/s) = 3.96900 4.59937 4.29576
# Velocity P-wave (km/s) = 7.68502 8.18804 7.94051
#
# Compressibility (1/GPa) = 0.01244180
#
# Stress axis : x y z
#
# Youngs Moduli (GPa) = 168.54519 130.77551 107.00815
#
# Poissons Ratio (x) = 0.17772 0.07706
# Poissons Ratio (y) = 0.22905 0.33840
# Poissons Ratio (z) = 0.12137 0.41357
#
# Static dielectric constant tensor:
#      x y z
#    x 1.817460 0.000000 0.000000 
#    y 0.000000 1.811460 0.000000 
#    z 0.000000 0.000000 1.816860 
# 
# From -- ./inp_files/12067.got.cif
#   From: 2010.05.17/outbox.cif.g08.bks.cpg/sg53_7_cif.got.tgz:12067.got - 2010.06.03 12:45:16.
