data_PCOD9419457
_publ_section_title
;
Structure prediction by ZEFSAII (Michael W. Deem and Ramdas Pophale) SiO2 
 PCOD9419457
Probable space group: P M N A
;
_chemical_formula_sum "Si O2"
_cell_formula_units_Z 48
_cell_length_a 13.723165
_cell_length_b 9.275128
_cell_length_c 19.339160
_cell_angle_alpha 90.000000
_cell_angle_beta 90.000000
_cell_angle_gamma 90.000000
_cell_volume 2461.567806
_symmetry_space_group_name_H-M "P M N A"
_symmetry_group_IT_number 53
_symmetry_cell_setting 'orthorhombic'
loop_
_space_group_symop_operation_xyz
x,y,z
1/2-x,-y,1/2+z
x,-y,-z
1/2-x,y,1/2-z
-x,-y,-z
1/2+x,y,1/2-z
-x,y,z
1/2+x,-y,1/2+z
loop_
_atom_site_type_symbol
_atom_site_label
_atom_site_fract_x
_atom_site_fract_y
_atom_site_fract_z
Si Si1 0.887032 0.502348 0.213956
Si Si2 0.114747 0.834753 0.172978
Si Si3 0.283627 0.901669 0.068598
Si Si4 0.115447 0.953342 0.698146
Si Si5 0.889470 0.668111 0.515981
Si Si6 0.800245 0.653079 0.665371
O O1 0.868113 0.669345 0.196263
O O2 0.637018 0.468208 0.205856
O O3 0.810425 0.401370 0.173283
O O4 0.000000 0.470140 0.199584
O O5 0.182595 0.873694 0.108401
O O6 0.135937 0.941087 0.237337
O O7 0.000000 0.848688 0.156596
O O8 0.352449 0.973298 0.126436
O O9 0.332920 0.754776 0.042669
O O10 0.273674 0.000000 0.000000
O O11 0.000000 0.924622 0.697685
O O12 0.171543 0.802678 0.701901
O O13 0.894794 0.500000 0.500000
O O14 0.832029 0.677884 0.587511
O O15 0.000000 0.725278 0.523403
#
# Coordination Sequence:
#
# PCOD9419457 Si02
#       6
#     8   8   8   8   8   8
#     4  10  23  42  66  95 128 170 221 274 324 385
#     4  10  25  46  68  95 129 175 232 279 327 394
#     4  12  25  41  66  96 132 179 215 271 337 403
#     4  11  24  42  67  98 132 171 222 279 334 393
#     4  11  24  40  61  93 133 170 213 265 329 398
#     4  11  23  39  63  97 130 170 209 270 330 396
#
# _framework density 19.499768
#
# number of rings (size 3 to 8) (size 9 to 14) (size 15 to 20)
#    0.000    1.167    1.667    3.500   11.667    1.000 
#    0.000    0.833    0.000    3.000    0.000    0.000 
#    0.000    0.000    0.000    0.000    0.000    0.000 
#
# Total GULP energy -268277.366582 kJ/mol
# GULP energy per Si atom -5589.111804 kJ/mol
# Density = 1.945539 g / cm^3
# Si number density = 19.499768 Si / 1000 Ang^3
#
#
#
# Elastic Constant Matrix: (Units=GPa)
#
#
# Indices 1 2 3 4 5 6 
#
# 1 154.4738 70.5793 56.6519 0.0000 0.0000 0.0000
# 2 70.5793 111.0515 39.4854 0.0000 0.0000 0.0000
# 3 56.6519 39.4854 94.0597 0.0000 0.0000 0.0000
# 4 0.0000 0.0000 0.0000 24.9754 0.0000 0.0000
# 5 0.0000 0.0000 0.0000 0.0000 23.1901 0.0000
# 6 0.0000 0.0000 0.0000 0.0000 0.0000 28.5784
#
#
#
# Elastic Compliance Matrix: (Units=1/GPa)
#
#
# Indices 1 2 3 4 5 6 
#
# 1 0.010291 -0.005098 -0.004058 0.000000 0.000000 0.000000
# 2 -0.005098 0.013110 -0.002433 0.000000 0.000000 0.000000
# 3 -0.004058 -0.002433 0.014097 0.000000 0.000000 0.000000
# 4 0.000000 0.000000 0.000000 0.040039 0.000000 0.000000
# 5 0.000000 0.000000 0.000000 0.000000 0.043122 0.000000
# 6 0.000000 0.000000 0.000000 0.000000 0.000000 0.034991
#
#
# Mechanical properties :
#
#
# Convention : Reuss Voigt Hill
#
# Bulk Modulus (GPa) = 69.83229 77.00200 73.41715
# Shear Modulus (GPa) = 27.23282 28.20668 27.71975
#
# Velocity S-wave (km/s) = 3.74113 3.80743 3.77443
# Velocity P-wave (km/s) = 7.38586 7.67484 7.53174
#
# Compressibility (1/GPa) = 0.01432002
#
# Stress axis : x y z
#
# Youngs Moduli (GPa) = 97.17209 76.27942 70.93567
#
# Poissons Ratio (x) = 0.38884 0.28788
# Poissons Ratio (y) = 0.49534 0.17259
# Poissons Ratio (z) = 0.39436 0.18560
#
# Static dielectric constant tensor:
#      x y z
#    x 1.686150 0.000000 0.000000 
#    y 0.000000 1.700660 0.000000 
#    z 0.000000 0.000000 1.663430 
# 
# From -- ./inp_files/28291.got.cif
#   From: 2010.05.17/outbox.cif.g08.bks.cpg/sg53_15_cif.got.tgz:28291.got - 2010.06.03 12:45:16.
