data_PCOD9419206
_publ_section_title
;
Structure prediction by ZEFSAII (Michael W. Deem and Ramdas Pophale) SiO2 
 PCOD9419206
Probable space group: P M N A
;
_chemical_formula_sum "Si O2"
_cell_formula_units_Z 64
_cell_length_a 18.526571
_cell_length_b 28.008431
_cell_length_c 6.845058
_cell_angle_alpha 90.000000
_cell_angle_beta 90.000000
_cell_angle_gamma 90.000000
_cell_volume 3551.901866
_symmetry_space_group_name_H-M "P M N A"
_symmetry_group_IT_number 53
_symmetry_cell_setting 'orthorhombic'
loop_
_space_group_symop_operation_xyz
x,y,z
1/2-x,-y,1/2+z
x,-y,-z
1/2-x,y,1/2-z
-x,-y,-z
1/2+x,y,1/2-z
-x,y,z
1/2+x,-y,1/2+z
loop_
_atom_site_type_symbol
_atom_site_label
_atom_site_fract_x
_atom_site_fract_y
_atom_site_fract_z
Si Si1 0.416309 0.202618 0.454671
Si Si2 0.172684 0.628175 0.184676
Si Si3 0.586028 0.689259 0.616707
Si Si4 0.335370 0.865562 0.266005
Si Si5 0.085717 0.944158 0.975191
Si Si6 0.323608 0.455019 0.369471
Si Si7 0.413398 0.392757 0.076290
Si Si8 0.917914 0.120905 0.372567
O O1 0.500000 0.204607 0.523373
O O2 0.395953 0.254854 0.376324
O O3 0.366480 0.181153 0.624094
O O4 0.413890 0.164490 0.279827
O O5 0.250000 0.647866 0.250000
O O6 0.127876 0.608837 0.370198
O O7 0.125533 0.666400 0.068297
O O8 0.189429 0.586568 0.028132
O O9 0.500000 0.684977 0.590220
O O10 0.603109 0.656675 0.805911
O O11 0.250000 0.865131 0.250000
O O12 0.366493 0.910787 0.386465
O O13 0.366409 0.869847 0.050340
O O14 0.000000 0.935117 0.014899
O O15 0.098652 0.926054 0.754649
O O16 0.099573 0.000000 0.000000
O O17 0.346812 0.500000 0.500000
O O18 0.250000 0.465577 0.250000
O O19 0.381728 0.434691 0.214644
O O20 0.500000 0.396894 0.052836
O O21 0.000000 0.117273 0.445694
#
# Coordination Sequence:
#
# PCOD9419206 Si02
#       8
#     8   8   8   8   8   8   8   8
#     4   9  19  37  58  81 110 149 195 236 274 334
#     4  11  21  37  59  85 118 156 195 235 291 347
#     4   9  20  37  58  84 115 150 192 240 288 338
#     4  11  22  35  52  83 117 148 180 229 292 345
#     4   9  19  37  57  79 106 142 193 242 277 330
#     4  11  23  39  63  88 116 156 199 240 288 352
#     4  10  22  40  60  87 120 153 194 247 297 343
#     4   9  18  35  59  79 103 144 188 232 277 328
#
# _framework density 18.018515000000001
#
# number of rings (size 3 to 8) (size 9 to 14) (size 15 to 20)
#    0.000    2.125    1.250    2.625    0.000    4.750 
#    2.250    6.250    0.000    0.000    0.000    0.000 
#    0.000    0.000    0.000    0.000    0.000    0.000 
#
# Total GULP energy -357073.737052 kJ/mol
# GULP energy per Si atom -5579.277141 kJ/mol
# Density = 1.797750 g / cm^3
# Si number density = 18.018515 Si / 1000 Ang^3
#
#
#
# Elastic Constant Matrix: (Units=GPa)
#
#
# Indices 1 2 3 4 5 6 
#
# 1 71.7331 8.0790 45.8507 0.0000 0.0000 0.0000
# 2 8.0790 55.6943 3.8708 0.0000 0.0000 0.0000
# 3 45.8507 3.8708 83.9651 0.0000 0.0000 0.0000
# 4 0.0000 0.0000 0.0000 7.5452 0.0000 0.0000
# 5 0.0000 0.0000 0.0000 0.0000 116.8628 0.0000
# 6 0.0000 0.0000 0.0000 0.0000 0.0000 19.2012
#
#
#
# Elastic Compliance Matrix: (Units=1/GPa)
#
#
# Indices 1 2 3 4 5 6 
#
# 1 0.021713 -0.002333 -0.011749 0.000000 0.000000 0.000000
# 2 -0.002333 0.018264 0.000432 0.000000 0.000000 0.000000
# 3 -0.011749 0.000432 0.018306 0.000000 0.000000 0.000000
# 4 0.000000 0.000000 0.000000 0.132535 0.000000 0.000000
# 5 0.000000 0.000000 0.000000 0.000000 0.008557 0.000000
# 6 0.000000 0.000000 0.000000 0.000000 0.000000 0.052080
#
#
# Mechanical properties :
#
#
# Convention : Reuss Voigt Hill
#
# Bulk Modulus (GPa) = 32.27701 36.33260 34.30481
# Shear Modulus (GPa) = 17.29609 38.96132 28.12870
#
# Velocity S-wave (km/s) = 3.10160 4.65509 3.95536
# Velocity P-wave (km/s) = 5.54785 7.00721 6.31980
#
# Compressibility (1/GPa) = 0.03098180
#
# Stress axis : x y z
#
# Youngs Moduli (GPa) = 46.05447 54.75380 54.62755
#
# Poissons Ratio (x) = 0.12775 0.64184
# Poissons Ratio (y) = 0.10745 -0.02361
# Poissons Ratio (z) = 0.54111 -0.02366
#
# Static dielectric constant tensor:
#      x y z
#    x 1.534660 0.000000 0.000000 
#    y 0.000000 1.618790 0.000000 
#    z 0.000000 0.000000 1.601820 
# 
# From -- ./inp_files/3112.got.cif
#   From: 2010.05.17/outbox.cif.g08.bks.cpg/sg53_2_cif.got.tgz:3112.got - 2010.06.03 12:45:16.
