data_PCOD9419800
_publ_section_title
;
Structure prediction by ZEFSAII (Michael W. Deem and Ramdas Pophale) SiO2 
 PCOD9419800
Probable space group: P M N A
;
_chemical_formula_sum "Si O2"
_cell_formula_units_Z 48
_cell_length_a 9.890146
_cell_length_b 28.451945
_cell_length_c 8.586884
_cell_angle_alpha 90.000000
_cell_angle_beta 90.000000
_cell_angle_gamma 90.000000
_cell_volume 2416.296692
_symmetry_space_group_name_H-M "P M N A"
_symmetry_group_IT_number 53
_symmetry_cell_setting 'orthorhombic'
loop_
_space_group_symop_operation_xyz
x,y,z
1/2-x,-y,1/2+z
x,-y,-z
1/2-x,y,1/2-z
-x,-y,-z
1/2+x,y,1/2-z
-x,y,z
1/2+x,-y,1/2+z
loop_
_atom_site_type_symbol
_atom_site_label
_atom_site_fract_x
_atom_site_fract_y
_atom_site_fract_z
Si Si1 0.000000 0.776298 0.548698
Si Si2 0.000000 0.795782 0.925847
Si Si3 0.500000 0.884717 0.961162
Si Si4 0.268150 0.272874 0.438577
Si Si5 0.836215 0.377627 0.088800
Si Si6 0.841154 0.547167 0.398759
Si Si7 0.000000 0.095289 0.089250
Si Si8 0.737439 0.949523 0.065378
O O1 0.000000 0.786045 0.737579
O O2 0.125930 0.744773 0.500653
O O3 0.000000 0.829955 0.494864
O O4 0.128870 0.767739 0.984218
O O5 0.000000 0.850390 0.966510
O O6 0.500000 0.897057 0.776004
O O7 0.629871 0.909580 0.030218
O O8 0.250000 0.273146 0.250000
O O9 0.319885 0.324722 0.477764
O O10 0.750000 0.378400 0.250000
O O11 0.000000 0.387368 0.106487
O O12 0.750698 0.413567 0.983710
O O13 0.848118 0.500000 0.500000
O O14 0.750000 0.535203 0.250000
O O15 0.000000 0.561356 0.368755
O O16 0.872079 0.066973 0.024395
O O17 0.750000 0.953995 0.250000
O O18 0.693434 0.000000 0.000000
#
# Coordination Sequence:
#
# PCOD9419800 Si02
#       8
#     4   4   4   8   8   8   4   8
#     4   9  18  30  54  85 118 151 200 252 308 355
#     4   9  16  32  52  85 118 151 196 254 302 355
#     4  11  22  40  63  93 122 159 205 258 313 373
#     4   9  17  29  51  85 121 156 199 254 304 355
#     4  11  22  36  61  95 132 170 214 265 319 375
#     4  11  25  44  67  94 127 168 215 269 328 391
#     4  11  22  38  65  91 122 159 205 258 311 373
#     4  12  25  42  62  88 122 160 203 254 315 382
#
# _framework density 19.865107999999999
#
# number of rings (size 3 to 8) (size 9 to 14) (size 15 to 20)
#    0.000    1.500    0.833    5.000    4.667    5.333 
#    0.000    0.000    0.000    6.000    0.000    0.000 
#    0.000    0.000    0.000    0.000    0.000    0.000 
#
# Total GULP energy -267690.577429 kJ/mol
# GULP energy per Si atom -5576.887030 kJ/mol
# Density = 1.981989 g / cm^3
# Si number density = 19.865108 Si / 1000 Ang^3
#
#
#
# Elastic Constant Matrix: (Units=GPa)
#
#
# Indices 1 2 3 4 5 6 
#
# 1 159.8832 32.0265 16.1819 0.0000 0.0000 0.0000
# 2 32.0265 91.3187 15.5176 0.0000 0.0000 0.0000
# 3 16.1819 15.5176 64.0899 0.0000 0.0000 0.0000
# 4 0.0000 0.0000 0.0000 23.6109 0.0000 0.0000
# 5 0.0000 0.0000 0.0000 0.0000 7.1090 0.0000
# 6 0.0000 0.0000 0.0000 0.0000 0.0000 26.9558
#
#
#
# Elastic Compliance Matrix: (Units=1/GPa)
#
#
# Indices 1 2 3 4 5 6 
#
# 1 0.006813 -0.002187 -0.001191 0.000000 0.000000 0.000000
# 2 -0.002187 0.012123 -0.002383 0.000000 0.000000 0.000000
# 3 -0.001191 -0.002383 0.016481 0.000000 0.000000 0.000000
# 4 0.000000 0.000000 0.000000 0.042353 0.000000 0.000000
# 5 0.000000 0.000000 0.000000 0.000000 0.140667 0.000000
# 6 0.000000 0.000000 0.000000 0.000000 0.000000 0.037098
#
#
# Mechanical properties :
#
#
# Convention : Reuss Voigt Hill
#
# Bulk Modulus (GPa) = 41.84978 49.19375 45.52176
# Shear Modulus (GPa) = 18.18041 28.30618 23.24330
#
# Velocity S-wave (km/s) = 3.02850 3.77891 3.42432
# Velocity P-wave (km/s) = 5.77423 6.62252 6.21287
#
# Compressibility (1/GPa) = 0.02389499
#
# Stress axis : x y z
#
# Youngs Moduli (GPa) = 146.77422 82.49027 60.67710
#
# Poissons Ratio (x) = 0.18042 0.07225
# Poissons Ratio (y) = 0.32101 0.14459
# Poissons Ratio (z) = 0.17476 0.19657
#
# Static dielectric constant tensor:
#      x y z
#    x 2.062430 0.000000 0.000000 
#    y 0.000000 1.671110 0.000000 
#    z 0.000000 0.000000 1.731480 
# 
# From -- ./inp_files/6882.got.cif
#   From: 2010.05.17/outbox.cif.g08.bks.cpg/sg53_4_cif.got.tgz:6882.got - 2010.06.03 12:45:16.
