data_PCOD9419735
_publ_section_title
;
Structure prediction by ZEFSAII (Michael W. Deem and Ramdas Pophale) SiO2 
 PCOD9419735
Probable space group: P M N A
;
_chemical_formula_sum "Si O2"
_cell_formula_units_Z 48
_cell_length_a 8.585788
_cell_length_b 9.803018
_cell_length_c 30.977678
_cell_angle_alpha 90.000000
_cell_angle_beta 90.000000
_cell_angle_gamma 90.000000
_cell_volume 2607.286896
_symmetry_space_group_name_H-M "P M N A"
_symmetry_group_IT_number 53
_symmetry_cell_setting 'orthorhombic'
loop_
_space_group_symop_operation_xyz
x,y,z
1/2-x,-y,1/2+z
x,-y,-z
1/2-x,y,1/2-z
-x,-y,-z
1/2+x,y,1/2-z
-x,y,z
1/2+x,-y,1/2+z
loop_
_atom_site_type_symbol
_atom_site_label
_atom_site_fract_x
_atom_site_fract_y
_atom_site_fract_z
Si Si1 0.185041 0.192992 0.887294
Si Si2 0.186263 0.091834 0.360634
Si Si3 0.186103 0.510732 0.371048
Si Si4 0.314532 0.846719 0.017344
Si Si5 0.686489 0.311299 0.297981
Si Si6 0.186371 0.707740 0.934376
O O1 0.257232 0.062802 0.863173
O O2 0.258162 0.334361 0.871551
O O3 0.000000 0.194749 0.881988
O O4 0.228521 0.175668 0.937660
O O5 0.000000 0.099738 0.363266
O O6 0.247069 0.172224 0.318862
O O7 0.257287 0.173503 0.401536
O O8 0.253601 0.429662 0.329980
O O9 0.251309 0.431287 0.413069
O O10 0.000000 0.501219 0.370933
O O11 0.500000 0.833252 0.023997
O O12 0.256627 0.742663 0.980827
O O13 0.284237 0.000000 0.000000
O O14 0.750000 0.330461 0.250000
O O15 0.500000 0.308263 0.298485
O O16 0.000000 0.706174 0.935995
#
# Coordination Sequence:
#
# PCOD9419735 Si02
#       6
#     8   8   8   8   8   8
#     4  12  24  39  59  87 121 158 200 248 300 352
#     4  11  21  37  60  88 119 155 195 240 292 348
#     4  11  23  41  62  87 121 160 198 243 300 358
#     4  11  22  36  57  84 117 158 206 253 297 347
#     4  11  22  41  67  95 121 153 194 239 290 352
#     4  11  21  36  58  85 116 156 203 249 293 345
#
# _framework density 18.409941
#
# number of rings (size 3 to 8) (size 9 to 14) (size 15 to 20)
#    0.000    0.833    1.667   10.000    0.000    1.333 
#    0.000    4.167    0.000    0.000    0.000    0.000 
#    0.000    0.000    0.000    0.000    0.000    0.000 
#
# Total GULP energy -268569.170606 kJ/mol
# GULP energy per Si atom -5595.191054 kJ/mol
# Density = 1.836804 g / cm^3
# Si number density = 18.409941 Si / 1000 Ang^3
#
#
#
# Elastic Constant Matrix: (Units=GPa)
#
#
# Indices 1 2 3 4 5 6 
#
# 1 124.2094 27.8083 11.4466 0.0000 0.0000 0.0000
# 2 27.8083 123.7482 18.7903 0.0000 0.0000 0.0000
# 3 11.4466 18.7903 68.4675 0.0000 0.0000 0.0000
# 4 0.0000 0.0000 0.0000 13.0072 0.0000 0.0000
# 5 0.0000 0.0000 0.0000 0.0000 32.6556 0.0000
# 6 0.0000 0.0000 0.0000 0.0000 0.0000 32.6338
#
#
#
# Elastic Compliance Matrix: (Units=1/GPa)
#
#
# Indices 1 2 3 4 5 6 
#
# 1 0.008535 -0.001775 -0.000940 0.000000 0.000000 0.000000
# 2 -0.001775 0.008802 -0.002119 0.000000 0.000000 0.000000
# 3 -0.000940 -0.002119 0.015344 0.000000 0.000000 0.000000
# 4 0.000000 0.000000 0.000000 0.076881 0.000000 0.000000
# 5 0.000000 0.000000 0.000000 0.000000 0.030623 0.000000
# 6 0.000000 0.000000 0.000000 0.000000 0.000000 0.030643
#
#
# Mechanical properties :
#
#
# Convention : Reuss Voigt Hill
#
# Bulk Modulus (GPa) = 43.45328 48.05728 45.75528
# Shear Modulus (GPa) = 26.57238 32.88464 29.72851
#
# Velocity S-wave (km/s) = 3.80329 4.23098 4.02283
# Velocity P-wave (km/s) = 6.55295 7.07311 6.81799
#
# Compressibility (1/GPa) = 0.02301322
#
# Stress axis : x y z
#
# Youngs Moduli (GPa) = 117.16508 113.61606 65.17186
#
# Poissons Ratio (x) = 0.20170 0.06124
# Poissons Ratio (y) = 0.20800 0.13808
# Poissons Ratio (z) = 0.11010 0.24072
#
# Static dielectric constant tensor:
#      x y z
#    x 1.607510 0.000000 0.000000 
#    y 0.000000 1.630350 0.000000 
#    z 0.000000 0.000000 1.611080 
# 
# From -- ./inp_files/37767.got.cif
#   From: 2010.05.17/outbox.cif.g08.bks.cpg/sg53_19_cif.got.tgz:37767.got - 2010.06.03 12:45:16.
