data_PCOD9419733
_publ_section_title
;
Structure prediction by ZEFSAII (Michael W. Deem and Ramdas Pophale) SiO2 
 PCOD9419733
Probable space group: P M N A
;
_chemical_formula_sum "Si O2"
_cell_formula_units_Z 56
_cell_length_a 8.472056
_cell_length_b 15.083155
_cell_length_c 23.242180
_cell_angle_alpha 90.000000
_cell_angle_beta 90.000000
_cell_angle_gamma 90.000000
_cell_volume 2970.009730
_symmetry_space_group_name_H-M "P M N A"
_symmetry_group_IT_number 53
_symmetry_cell_setting 'orthorhombic'
loop_
_space_group_symop_operation_xyz
x,y,z
1/2-x,-y,1/2+z
x,-y,-z
1/2-x,y,1/2-z
-x,-y,-z
1/2+x,y,1/2-z
-x,y,z
1/2+x,-y,1/2+z
loop_
_atom_site_type_symbol
_atom_site_label
_atom_site_fract_x
_atom_site_fract_y
_atom_site_fract_z
Si Si1 0.311485 0.693724 0.688470
Si Si2 0.808029 0.901756 0.518919
Si Si3 0.190571 0.614957 0.053998
Si Si4 0.188761 0.205015 0.591820
Si Si5 0.687303 0.928290 0.311917
Si Si6 0.691975 0.412758 0.424290
Si Si7 0.189441 0.119504 0.350444
O O1 0.250000 0.660016 0.750000
O O2 0.500000 0.688803 0.688828
O O3 0.252439 0.640244 0.631937
O O4 0.260076 0.795793 0.681222
O O5 0.757818 0.833852 0.469933
O O6 0.755701 0.878576 0.582948
O O7 0.000000 0.902778 0.520108
O O8 0.756739 0.000000 0.500000
O O9 0.259752 0.693296 0.092182
O O10 0.235570 0.516697 0.075340
O O11 0.000000 0.619857 0.054770
O O12 0.242851 0.623875 0.986925
O O13 0.261149 0.142439 0.640332
O O14 0.000000 0.197636 0.595286
O O15 0.750000 0.899120 0.250000
O O16 0.500000 0.936621 0.311047
O O17 0.759776 0.024790 0.325602
O O18 0.500000 0.409148 0.424303
O O19 0.000000 0.125217 0.348441
#
# Coordination Sequence:
#
# PCOD9419733 Si02
#       7
#     8   8   8   8   8   8   8
#     4  11  22  37  55  81 113 149 191 233 278 334
#     4   9  17  32  54  80 112 148 180 219 273 326
#     4   9  17  35  61  87 111 144 185 232 290 342
#     4  11  21  36  57  85 117 149 184 227 277 333
#     4  12  25  41  58  78 106 147 192 235 275 326
#     4   8  17  35  60  84 112 146 186 234 285 340
#     4  11  21  37  59  83 113 150 187 228 278 332
#
# _framework density 18.855157999999999
#
# number of rings (size 3 to 8) (size 9 to 14) (size 15 to 20)
#    0.000    1.857    1.429    4.714    0.000    0.000 
#    0.000    7.143    0.000    1.714    0.000    0.000 
#    0.000    0.000    0.000    0.000    0.000    0.000 
#
# Total GULP energy -312762.493636 kJ/mol
# GULP energy per Si atom -5585.044529 kJ/mol
# Density = 1.881224 g / cm^3
# Si number density = 18.855158 Si / 1000 Ang^3
#
#
#
# Elastic Constant Matrix: (Units=GPa)
#
#
# Indices 1 2 3 4 5 6 
#
# 1 42.7368 10.3673 21.5933 0.0000 0.0000 0.0000
# 2 10.3673 98.1089 46.0646 0.0000 0.0000 0.0000
# 3 21.5933 46.0646 110.5554 0.0000 0.0000 0.0000
# 4 0.0000 0.0000 0.0000 20.3288 0.0000 0.0000
# 5 0.0000 0.0000 0.0000 0.0000 22.6602 0.0000
# 6 0.0000 0.0000 0.0000 0.0000 0.0000 -14.1128
#
#
#
# Elastic Compliance Matrix: (Units=1/GPa)
#
#
# Indices 1 2 3 4 5 6 
#
# 1 0.025977 -0.000451 -0.004886 0.000000 0.000000 0.000000
# 2 -0.000451 0.012680 -0.005195 0.000000 0.000000 0.000000
# 3 -0.004886 -0.005195 0.012164 0.000000 0.000000 0.000000
# 4 0.000000 0.000000 0.000000 0.049191 0.000000 0.000000
# 5 0.000000 0.000000 0.000000 0.000000 0.044130 0.000000
# 6 0.000000 0.000000 0.000000 0.000000 0.000000 -0.070858
#
#
# Mechanical properties :
#
#
# Convention : Reuss Voigt Hill
#
# Bulk Modulus (GPa) = 33.60557 45.27240 39.43898
# Shear Modulus (GPa) = 47.95361 17.33364 32.64362
#
# Velocity S-wave (km/s) = 5.04855 3.03529 4.16538
# Velocity P-wave (km/s) = 7.20038 6.02883 6.64049
#
# Compressibility (1/GPa) = 0.02975698
#
# Stress axis : x y z
#
# Youngs Moduli (GPa) = 38.49554 78.86662 82.20898
#
# Poissons Ratio (x) = 0.03557 0.40166
# Poissons Ratio (y) = 0.01736 0.42708
# Poissons Ratio (z) = 0.18808 0.40972
#
# Static dielectric constant tensor:
#      x y z
#    x 1.639830 0.000000 0.000000 
#    y 0.000000 1.641270 0.000000 
#    z 0.000000 0.000000 1.658310 
# 
# From -- ./inp_files/30873.got.cif
#   From: 2010.05.17/outbox.cif.g08.bks.cpg/sg53_16_cif.got.tgz:30873.got - 2010.06.03 12:45:16.
