data_PCOD9419192
_publ_section_title
;
Structure prediction by ZEFSAII (Michael W. Deem and Ramdas Pophale) SiO2 
 PCOD9419192
Probable space group: P M N A
;
_chemical_formula_sum "Si O2"
_cell_formula_units_Z 54
_cell_length_a 29.549839
_cell_length_b 6.720789
_cell_length_c 12.591938
_cell_angle_alpha 90.000000
_cell_angle_beta 90.000000
_cell_angle_gamma 90.000000
_cell_volume 2500.736636
_symmetry_space_group_name_H-M "P M N A"
_symmetry_group_IT_number 53
_symmetry_cell_setting 'orthorhombic'
loop_
_space_group_symop_operation_xyz
x,y,z
1/2-x,-y,1/2+z
x,-y,-z
1/2-x,y,1/2-z
-x,-y,-z
1/2+x,y,1/2-z
-x,y,z
1/2+x,-y,1/2+z
loop_
_atom_site_type_symbol
_atom_site_label
_atom_site_fract_x
_atom_site_fract_y
_atom_site_fract_z
Si Si1 0.665709 0.906411 0.823986
Si Si2 0.850315 0.162622 0.094756
Si Si3 0.228249 0.784891 0.365353
Si Si4 0.425397 0.860675 0.171340
Si Si5 0.000000 0.000000 0.500000
Si Si6 0.708318 0.500000 0.500000
Si Si7 0.136893 0.468391 0.622655
Si Si8 0.049489 0.094874 0.117809
O O1 0.669839 0.945146 0.698172
O O2 0.655209 0.676154 0.835455
O O3 0.710978 0.987194 0.879829
O O4 0.619364 0.012196 0.858402
O O5 0.903173 0.212582 0.117118
O O6 0.823636 0.364917 0.073544
O O7 0.848027 0.000000 0.000000
O O8 0.250000 0.767474 0.250000
O O9 0.260747 0.664783 0.442990
O O10 0.180176 0.673586 0.368867
O O11 0.406028 0.636328 0.177523
O O12 0.443476 0.938459 0.285314
O O13 0.461024 0.903232 0.079400
O O14 0.124428 0.500000 0.500000
O O15 0.000000 0.192430 0.135361
O O16 0.047887 0.000000 0.000000
#
# Coordination Sequence:
#
# PCOD9419192 Si02
#       8
#     8   8   8   8   2   4   8   8
#     4  10  23  43  65  93 140 181 223 280 357 412
#     4  10  22  40  68 100 135 180 225 299 353 415
#     4  11  24  42  64  97 132 181 233 287 343 421
#     4  10  22  39  68 101 138 180 230 288 344 431
#     4  12  20  40  72 104 140 186 226 296 364 418
#     4  12  24  42  65 100 132 171 244 288 346 414
#     4  11  23  44  65  97 139 189 231 288 357 424
#     4   9  18  38  67  98 134 183 228 276 354 428
#
# _framework density 21.593634999999999
#
# number of rings (size 3 to 8) (size 9 to 14) (size 15 to 20)
#    0.000    1.630    1.481    2.667    0.000    9.481 
#    2.667    3.704    0.000    0.000    0.000    0.000 
#    0.000    0.000    0.000    0.000    0.000    0.000 
#
# Total GULP energy -300772.564532 kJ/mol
# GULP energy per Si atom -5569.862306 kJ/mol
# Density = 2.154449 g / cm^3
# Si number density = 21.593635 Si / 1000 Ang^3
#
#
#
# Elastic Constant Matrix: (Units=GPa)
#
#
# Indices 1 2 3 4 5 6 
#
# 1 157.7058 58.9390 49.7888 0.0000 0.0000 0.0000
# 2 58.9390 86.4784 25.8996 0.0000 0.0000 0.0000
# 3 49.7888 25.8996 102.0280 0.0000 0.0000 0.0000
# 4 0.0000 0.0000 0.0000 28.0757 0.0000 0.0000
# 5 0.0000 0.0000 0.0000 0.0000 51.1302 0.0000
# 6 0.0000 0.0000 0.0000 0.0000 0.0000 -8.3418
#
#
#
# Elastic Compliance Matrix: (Units=1/GPa)
#
#
# Indices 1 2 3 4 5 6 
#
# 1 0.009383 -0.005437 -0.003199 0.000000 0.000000 0.000000
# 2 -0.005437 0.015665 -0.001324 0.000000 0.000000 0.000000
# 3 -0.003199 -0.001324 0.011698 0.000000 0.000000 0.000000
# 4 0.000000 0.000000 0.000000 0.035618 0.000000 0.000000
# 5 0.000000 0.000000 0.000000 0.000000 0.019558 0.000000
# 6 0.000000 0.000000 0.000000 0.000000 0.000000 -0.119879
#
#
# Mechanical properties :
#
#
# Convention : Reuss Voigt Hill
#
# Bulk Modulus (GPa) = 59.42328 68.38522 63.90425
# Shear Modulus (GPa) = -2057.85740 28.27848 -1014.78946
#
# Velocity S-wave (km/s) = -30.90407 3.62273 -21.70181
# Velocity P-wave (km/s) = 35.29641 7.01689 24.46017
#
# Compressibility (1/GPa) = 0.01682842
#
# Stress axis : x y z
#
# Youngs Moduli (GPa) = 106.58068 63.83519 85.48428
#
# Poissons Ratio (x) = 0.34705 0.27342
# Poissons Ratio (y) = 0.57945 0.11314
# Poissons Ratio (z) = 0.34090 0.08449
#
# Static dielectric constant tensor:
#      x y z
#    x 1.906190 0.000000 0.000000 
#    y 0.000000 1.837680 0.000000 
#    z 0.000000 0.000000 1.843210 
# 
# From -- ./inp_files/25184.got.cif
#   From: 2010.05.17/outbox.cif.g08.bks.cpg/sg53_13_cif.got.tgz:25184.got - 2010.06.03 12:45:16.
