data_PCOD9419857
_publ_section_title
;
Structure prediction by ZEFSAII (Michael W. Deem and Ramdas Pophale) SiO2 
 PCOD9419857
Probable space group: P M N A
;
_chemical_formula_sum "Si O2"
_cell_formula_units_Z 48
_cell_length_a 22.389108
_cell_length_b 7.709184
_cell_length_c 11.808775
_cell_angle_alpha 90.000000
_cell_angle_beta 90.000000
_cell_angle_gamma 90.000000
_cell_volume 2038.215268
_symmetry_space_group_name_H-M "P M N A"
_symmetry_group_IT_number 53
_symmetry_cell_setting 'orthorhombic'
loop_
_space_group_symop_operation_xyz
x,y,z
1/2-x,-y,1/2+z
x,-y,-z
1/2-x,y,1/2-z
-x,-y,-z
1/2+x,y,1/2-z
-x,y,z
1/2+x,-y,1/2+z
loop_
_atom_site_type_symbol
_atom_site_label
_atom_site_fract_x
_atom_site_fract_y
_atom_site_fract_z
Si Si1 0.904674 0.587286 0.881306
Si Si2 0.155291 0.245409 0.438610
Si Si3 0.564914 0.462412 0.854062
Si Si4 0.431115 0.017046 0.370053
Si Si5 0.117257 0.887129 0.350968
Si Si6 0.762846 0.575164 0.873196
O O1 0.925096 0.466276 0.779817
O O2 0.930448 0.776007 0.853620
O O3 0.833086 0.607451 0.878156
O O4 0.921989 0.500000 0.000000
O O5 0.116694 0.414157 0.403828
O O6 0.168759 0.201998 0.571359
O O7 0.217446 0.262343 0.372415
O O8 0.116489 0.083058 0.395350
O O9 0.500000 0.534385 0.881378
O O10 0.568830 0.259080 0.884440
O O11 0.500000 0.955802 0.356503
O O12 0.412235 0.000000 0.500000
O O13 0.388177 0.916924 0.283009
O O14 0.750000 0.485068 0.750000
O O15 0.747938 0.500000 0.000000
#
# Coordination Sequence:
#
# PCOD9419857 Si02
#       6
#     8   8   8   8   8   8
#     4  11  24  42  70 103 142 189 247 301 369 446
#     4  11  25  46  72 101 149 189 244 310 374 442
#     4  12  24  41  70 105 144 191 241 300 373 446
#     4  11  23  43  68  99 149 194 242 310 365 436
#     4  11  24  43  69 105 141 191 244 300 370 445
#     4  11  22  44  77 105 143 195 244 314 378 449
#
# _framework density 23.550014999999998
#
# number of rings (size 3 to 8) (size 9 to 14) (size 15 to 20)
#    0.000    0.833    3.333    3.500    0.000    5.333 
#    3.000    4.167   25.667    0.000    0.000    0.000 
#    0.000    0.000    0.000    0.000    0.000    0.000 
#
# Total GULP energy -267351.630919 kJ/mol
# GULP energy per Si atom -5569.825644 kJ/mol
# Density = 2.349641 g / cm^3
# Si number density = 23.550015 Si / 1000 Ang^3
#
#
#
# Elastic Constant Matrix: (Units=GPa)
#
#
# Indices 1 2 3 4 5 6 
#
# 1 89.6706 15.1710 30.7668 0.0000 0.0000 0.0000
# 2 15.1710 109.6727 32.9267 0.0000 0.0000 0.0000
# 3 30.7668 32.9267 203.9701 0.0000 0.0000 0.0000
# 4 0.0000 0.0000 0.0000 44.9298 0.0000 0.0000
# 5 0.0000 0.0000 0.0000 0.0000 -14.7878 0.0000
# 6 0.0000 0.0000 0.0000 0.0000 0.0000 21.8208
#
#
#
# Elastic Compliance Matrix: (Units=1/GPa)
#
#
# Indices 1 2 3 4 5 6 
#
# 1 0.011900 -0.001164 -0.001607 0.000000 0.000000 0.000000
# 2 -0.001164 0.009696 -0.001390 0.000000 0.000000 0.000000
# 3 -0.001607 -0.001390 0.005369 0.000000 0.000000 0.000000
# 4 0.000000 0.000000 0.000000 0.022257 0.000000 0.000000
# 5 0.000000 0.000000 0.000000 0.000000 -0.067623 0.000000
# 6 0.000000 0.000000 0.000000 0.000000 0.000000 0.045828
#
#
# Mechanical properties :
#
#
# Convention : Reuss Voigt Hill
#
# Bulk Modulus (GPa) = 53.63418 62.33804 57.98611
# Shear Modulus (GPa) = 119.15071 32.02248 75.58660
#
# Velocity S-wave (km/s) = 7.12072 3.69150 5.67150
# Velocity P-wave (km/s) = 9.50948 6.68562 8.21972
#
# Compressibility (1/GPa) = 0.01864483
#
# Stress axis : x y z
#
# Youngs Moduli (GPa) = 84.03194 103.13278 186.23884
#
# Poissons Ratio (x) = 0.12001 0.29932
# Poissons Ratio (y) = 0.09778 0.25882
# Poissons Ratio (z) = 0.13505 0.14333
#
# Static dielectric constant tensor:
#      x y z
#    x 1.870490 0.000000 0.000000 
#    y 0.000000 1.949420 0.000000 
#    z 0.000000 0.000000 2.059370 
# 
# From -- ./inp_files/18262.got.cif
#   From: 2010.05.17/outbox.cif.g08.bks.cpg/sg53_10_cif.got.tgz:18262.got - 2010.06.03 12:45:16.
