data_PCOD9419348
_publ_section_title
;
Structure prediction by ZEFSAII (Michael W. Deem and Ramdas Pophale) SiO2 
 PCOD9419348
Probable space group: P M N A
;
_chemical_formula_sum "Si O2"
_cell_formula_units_Z 32
_cell_length_a 8.562310
_cell_length_b 15.571104
_cell_length_c 10.484372
_cell_angle_alpha 90.000000
_cell_angle_beta 90.000000
_cell_angle_gamma 90.000000
_cell_volume 1397.824907
_symmetry_space_group_name_H-M "P M N A"
_symmetry_group_IT_number 53
_symmetry_cell_setting 'orthorhombic'
loop_
_space_group_symop_operation_xyz
x,y,z
1/2-x,-y,1/2+z
x,-y,-z
1/2-x,y,1/2-z
-x,-y,-z
1/2+x,y,1/2-z
-x,y,z
1/2+x,-y,1/2+z
loop_
_atom_site_type_symbol
_atom_site_label
_atom_site_fract_x
_atom_site_fract_y
_atom_site_fract_z
Si Si1 0.819449 0.844147 0.111017
Si Si2 0.000000 0.263147 0.334717
Si Si3 0.752067 0.340449 0.531049
Si Si4 0.500000 0.454357 0.861216
Si Si5 0.000000 0.899684 0.532198
Si Si6 0.500000 0.592241 0.636441
O O1 0.750000 0.865052 0.250000
O O2 0.671538 0.872772 0.024009
O O3 0.000000 0.876826 0.093285
O O4 0.828743 0.741253 0.094118
O O5 0.857308 0.299705 0.418130
O O6 0.000000 0.159381 0.338258
O O7 0.000000 0.312662 0.201947
O O8 0.854083 0.390957 0.632935
O O9 0.645543 0.407357 0.456830
O O10 0.500000 0.522139 0.747326
O O11 0.500000 0.500000 0.000000
O O12 0.000000 0.000000 0.500000
#
# Coordination Sequence:
#
# PCOD9419348 Si02
#       6
#     8   4   8   4   4   4
#     4  11  22  44  75 103 137 189 240 288 354 433
#     4   9  20  38  68  88 129 177 218 270 346 407
#     4  10  22  43  64  96 128 179 236 289 349 415
#     4  11  24  42  61  96 141 178 224 308 365 405
#     4  10  23  44  69 108 154 177 215 295 358 430
#     4  12  21  43  70  89 133 181 240 290 351 427
#
# _framework density 22.892709
#
# number of rings (size 3 to 8) (size 9 to 14) (size 15 to 20)
#    0.000    1.500    5.000    1.500    0.000    0.500 
#    4.500    8.125    0.000    0.000    0.000    0.000 
#    0.000    0.000    0.000    0.000    0.000    0.000 
#
# Total GULP energy -178408.276447 kJ/mol
# GULP energy per Si atom -5575.258639 kJ/mol
# Density = 2.284060 g / cm^3
# Si number density = 22.892709 Si / 1000 Ang^3
#
#
#
# Elastic Constant Matrix: (Units=GPa)
#
#
# Indices 1 2 3 4 5 6 
#
# 1 184.2525 52.1183 37.7723 0.0000 0.0000 0.0000
# 2 52.1183 151.2727 24.8281 0.0000 0.0000 0.0000
# 3 37.7723 24.8281 42.6602 0.0000 0.0000 0.0000
# 4 0.0000 0.0000 0.0000 12.4762 0.0000 0.0000
# 5 0.0000 0.0000 0.0000 0.0000 26.8975 0.0000
# 6 0.0000 0.0000 0.0000 0.0000 0.0000 5.3364
#
#
#
# Elastic Compliance Matrix: (Units=1/GPa)
#
#
# Indices 1 2 3 4 5 6 
#
# 1 0.006936 -0.001528 -0.005252 0.000000 0.000000 0.000000
# 2 -0.001528 0.007645 -0.003097 0.000000 0.000000 0.000000
# 3 -0.005252 -0.003097 0.029894 0.000000 0.000000 0.000000
# 4 0.000000 0.000000 0.000000 0.080153 0.000000 0.000000
# 5 0.000000 0.000000 0.000000 0.000000 0.037178 0.000000
# 6 0.000000 0.000000 0.000000 0.000000 0.000000 0.187394
#
#
# Mechanical properties :
#
#
# Convention : Reuss Voigt Hill
#
# Bulk Modulus (GPa) = 40.45049 67.51363 53.98206
# Shear Modulus (GPa) = 13.25577 26.50647 19.88112
#
# Velocity S-wave (km/s) = 2.40893 3.40642 2.95014
# Velocity P-wave (km/s) = 5.04433 6.71021 5.93600
#
# Compressibility (1/GPa) = 0.02472158
#
# Stress axis : x y z
#
# Youngs Moduli (GPa) = 144.17093 130.80115 33.45163
#
# Poissons Ratio (x) = 0.19982 0.17570
# Poissons Ratio (y) = 0.22025 0.10359
# Poissons Ratio (z) = 0.75724 0.40507
#
# Static dielectric constant tensor:
#      x y z
#    x 1.783060 0.000000 0.000000 
#    y 0.000000 1.889490 0.000000 
#    z 0.000000 0.000000 1.824410 
# 
# From -- ./inp_files/13812.got.cif
#   From: 2010.05.17/outbox.cif.g08.bks.cpg/sg53_7_cif.got.tgz:13812.got - 2010.06.03 12:45:16.
