data_PCOD9419207
_publ_section_title
;
Structure prediction by ZEFSAII (Michael W. Deem and Ramdas Pophale) SiO2 
 PCOD9419207
Probable space group: P M N A
;
_chemical_formula_sum "Si O2"
_cell_formula_units_Z 48
_cell_length_a 9.463848
_cell_length_b 9.679627
_cell_length_c 28.240985
_cell_angle_alpha 90.000000
_cell_angle_beta 90.000000
_cell_angle_gamma 90.000000
_cell_volume 2587.058318
_symmetry_space_group_name_H-M "P M N A"
_symmetry_group_IT_number 53
_symmetry_cell_setting 'orthorhombic'
loop_
_space_group_symop_operation_xyz
x,y,z
1/2-x,-y,1/2+z
x,-y,-z
1/2-x,y,1/2-z
-x,-y,-z
1/2+x,y,1/2-z
-x,y,z
1/2+x,-y,1/2+z
loop_
_atom_site_type_symbol
_atom_site_label
_atom_site_fract_x
_atom_site_fract_y
_atom_site_fract_z
Si Si1 0.838233 0.939420 0.147342
Si Si2 0.832441 0.108875 0.960291
Si Si3 0.162728 0.551102 0.642085
Si Si4 0.660558 0.723279 0.202645
Si Si5 0.331027 0.600842 0.044287
Si Si6 0.833818 0.770340 0.799538
O O1 0.816907 0.960103 0.091457
O O2 0.729700 0.825975 0.165183
O O3 0.000000 0.889313 0.153613
O O4 0.821829 0.076810 0.178327
O O5 0.750525 0.254370 0.960406
O O6 0.000000 0.135546 0.967796
O O7 0.784398 0.000000 0.000000
O O8 0.162526 0.428691 0.680540
O O9 0.206580 0.481429 0.592435
O O10 0.264817 0.667613 0.662267
O O11 0.000000 0.601416 0.637045
O O12 0.750000 0.728911 0.250000
O O13 0.500000 0.764239 0.212418
O O14 0.500000 0.628107 0.046526
O O15 0.303534 0.500000 0.000000
O O16 0.750000 0.760571 0.750000
O O17 0.000000 0.739595 0.792129
#
# Coordination Sequence:
#
# PCOD9419207 Si02
#       6
#     8   8   8   8   8   8
#     4  10  22  40  60  87 121 157 198 246 295 351
#     4  10  22  40  63  91 124 158 198 246 297 355
#     4  10  22  40  60  87 121 156 198 246 295 352
#     4  11  22  37  60  87 116 152 196 244 297 356
#     4  10  22  41  63  91 124 157 198 246 297 355
#     4  11  24  40  60  87 120 158 202 246 297 355
#
# _framework density 18.553889999999999
#
# number of rings (size 3 to 8) (size 9 to 14) (size 15 to 20)
#    0.000    1.667    1.667    2.000    2.333    6.667 
#    0.000    0.000    0.000    0.000    0.000    0.000 
#    0.000    0.000    0.000    0.000    0.000    0.000 
#
# Total GULP energy -268109.485573 kJ/mol
# GULP energy per Si atom -5585.614283 kJ/mol
# Density = 1.851166 g / cm^3
# Si number density = 18.553890 Si / 1000 Ang^3
#
#
#
# Elastic Constant Matrix: (Units=GPa)
#
#
# Indices 1 2 3 4 5 6 
#
# 1 78.2254 34.2321 26.8934 0.0000 0.0000 0.0000
# 2 34.2321 50.5670 5.8787 0.0000 0.0000 0.0000
# 3 26.8934 5.8787 82.1336 0.0000 0.0000 0.0000
# 4 0.0000 0.0000 0.0000 25.2247 0.0000 0.0000
# 5 0.0000 0.0000 0.0000 0.0000 23.9829 0.0000
# 6 0.0000 0.0000 0.0000 0.0000 0.0000 54.0476
#
#
#
# Elastic Compliance Matrix: (Units=1/GPa)
#
#
# Indices 1 2 3 4 5 6 
#
# 1 0.020574 -0.013255 -0.005788 0.000000 0.000000 0.000000
# 2 -0.013255 0.028481 0.002302 0.000000 0.000000 0.000000
# 3 -0.005788 0.002302 0.013906 0.000000 0.000000 0.000000
# 4 0.000000 0.000000 0.000000 0.039644 0.000000 0.000000
# 5 0.000000 0.000000 0.000000 0.000000 0.041696 0.000000
# 6 0.000000 0.000000 0.000000 0.000000 0.000000 0.018502
#
#
# Mechanical properties :
#
#
# Convention : Reuss Voigt Hill
#
# Bulk Modulus (GPa) = 33.92311 38.32604 36.12458
# Shear Modulus (GPa) = 24.25867 30.24583 27.25225
#
# Velocity S-wave (km/s) = 3.61982 4.04191 3.83667
# Velocity P-wave (km/s) = 5.98281 6.51798 6.25612
#
# Compressibility (1/GPa) = 0.02947843
#
# Stress axis : x y z
#
# Youngs Moduli (GPa) = 48.60524 35.11074 71.91289
#
# Poissons Ratio (x) = 0.46539 0.41623
# Poissons Ratio (y) = 0.64426 -0.16552
# Poissons Ratio (z) = 0.28132 -0.08081
#
# Static dielectric constant tensor:
#      x y z
#    x 1.648370 0.000000 0.000000 
#    y 0.000000 1.604080 0.000000 
#    z 0.000000 0.000000 1.661620 
# 
# From -- ./inp_files/37725.got.cif
#   From: 2010.05.17/outbox.cif.g08.bks.cpg/sg53_19_cif.got.tgz:37725.got - 2010.06.03 12:45:16.
