data_PCOD9419039
_publ_section_title
;
Structure prediction by ZEFSAII (Michael W. Deem and Ramdas Pophale) SiO2 
 PCOD9419039
Probable space group: P M N A
;
_chemical_formula_sum "Si O2"
_cell_formula_units_Z 38
_cell_length_a 9.937096
_cell_length_b 17.430848
_cell_length_c 10.931779
_cell_angle_alpha 90.000000
_cell_angle_beta 90.000000
_cell_angle_gamma 90.000000
_cell_volume 1893.515413
_symmetry_space_group_name_H-M "P M N A"
_symmetry_group_IT_number 53
_symmetry_cell_setting 'orthorhombic'
loop_
_space_group_symop_operation_xyz
x,y,z
1/2-x,-y,1/2+z
x,-y,-z
1/2-x,y,1/2-z
-x,-y,-z
1/2+x,y,1/2-z
-x,y,z
1/2+x,-y,1/2+z
loop_
_atom_site_type_symbol
_atom_site_label
_atom_site_fract_x
_atom_site_fract_y
_atom_site_fract_z
Si Si1 0.500000 0.500000 0.500000
Si Si2 0.281050 0.378254 0.392009
Si Si3 0.500000 0.990641 0.648275
Si Si4 0.500000 0.839930 0.369470
Si Si5 0.500000 0.409778 0.981941
Si Si6 0.000000 0.735629 0.361201
Si Si7 0.750000 0.106332 0.250000
Si Si8 0.752765 0.787311 0.974200
O O1 0.382779 0.440547 0.446275
O O2 0.250000 0.390779 0.250000
O O3 0.135978 0.385014 0.453856
O O4 0.320521 0.290409 0.420573
O O5 0.630069 0.945500 0.696825
O O6 0.500000 0.000000 0.500000
O O7 0.500000 0.077956 0.696102
O O8 0.500000 0.771440 0.272127
O O9 0.632647 0.832002 0.451697
O O10 0.500000 0.358071 0.858637
O O11 0.500000 0.500000 0.000000
O O12 0.131058 0.764989 0.435086
O O13 0.796694 0.161396 0.360947
#
# Coordination Sequence:
#
# PCOD9419039 Si02
#       8
#     2   8   4   4   4   4   4   8
#     4  12  24  40  64 110 130 172 234 276 358 420
#     4  11  23  43  68  98 134 182 231 292 346 424
#     4  12  27  43  70 108 144 181 233 301 363 418
#     4  12  25  46  66 103 149 177 229 305 355 435
#     4  10  21  45  63  92 142 176 226 286 348 422
#     4  10  25  41  70  99 134 191 230 282 366 429
#     4  12  24  46  74 104 140 188 244 298 358 424
#     4  11  23  45  72  99 138 186 240 285 356 426
#
# _framework density 20.068491999999999
#
# number of rings (size 3 to 8) (size 9 to 14) (size 15 to 20)
#    0.000    0.842    4.211    2.526    2.947    0.000 
#    7.579    1.579    0.000    0.000    0.000    0.000 
#    0.000    0.000    0.000    0.000    0.000    0.000 
#
# Total GULP energy -211624.553116 kJ/mol
# GULP energy per Si atom -5569.067187 kJ/mol
# Density = 2.002282 g / cm^3
# Si number density = 20.068492 Si / 1000 Ang^3
#
#
#
# Elastic Constant Matrix: (Units=GPa)
#
#
# Indices 1 2 3 4 5 6 
#
# 1 114.1579 20.9011 23.1089 0.0000 0.0000 0.0000
# 2 20.9011 134.8844 38.8483 0.0000 0.0000 0.0000
# 3 23.1089 38.8483 88.3165 0.0000 0.0000 0.0000
# 4 0.0000 0.0000 0.0000 -1.7819 0.0000 0.0000
# 5 0.0000 0.0000 0.0000 0.0000 11.8128 0.0000
# 6 0.0000 0.0000 0.0000 0.0000 0.0000 48.3355
#
#
#
# Elastic Compliance Matrix: (Units=1/GPa)
#
#
# Indices 1 2 3 4 5 6 
#
# 1 0.009334 -0.000851 -0.002068 0.000000 0.000000 0.000000
# 2 -0.000851 0.008567 -0.003546 0.000000 0.000000 0.000000
# 3 -0.002068 -0.003546 0.013424 0.000000 0.000000 0.000000
# 4 0.000000 0.000000 0.000000 -0.561212 0.000000 0.000000
# 5 0.000000 0.000000 0.000000 0.000000 0.084654 0.000000
# 6 0.000000 0.000000 0.000000 0.000000 0.000000 0.020689
#
#
# Mechanical properties :
#
#
# Convention : Reuss Voigt Hill
#
# Bulk Modulus (GPa) = 54.36111 55.89725 55.12918
# Shear Modulus (GPa) = -12.33097 28.63998 8.15450
#
# Velocity S-wave (km/s) = -2.48149 3.78181 2.01796
# Velocity P-wave (km/s) = 4.35158 6.85443 5.74105
#
# Compressibility (1/GPa) = 0.01839550
#
# Stress axis : x y z
#
# Youngs Moduli (GPa) = 107.13269 116.72981 74.49481
#
# Poissons Ratio (x) = 0.09931 0.15407
# Poissons Ratio (y) = 0.09114 0.26414
# Poissons Ratio (z) = 0.22157 0.41389
#
# Static dielectric constant tensor:
#      x y z
#    x 1.680470 0.000000 0.000000 
#    y 0.000000 1.835010 0.000000 
#    z 0.000000 0.000000 1.694930 
# 
# From -- ./inp_files/13948.got.cif
#   From: 2010.05.17/outbox.cif.g08.bks.cpg/sg53_7_cif.got.tgz:13948.got - 2010.06.03 12:45:16.
