data_PCOD9419316
_publ_section_title
;
Structure prediction by ZEFSAII (Michael W. Deem and Ramdas Pophale) SiO2 
 PCOD9419316
Probable space group: P M N A
;
_chemical_formula_sum "Si O2"
_cell_formula_units_Z 64
_cell_length_a 23.398393
_cell_length_b 14.928689
_cell_length_c 7.250183
_cell_angle_alpha 90.000000
_cell_angle_beta 90.000000
_cell_angle_gamma 90.000000
_cell_volume 2532.542082
_symmetry_space_group_name_H-M "P M N A"
_symmetry_group_IT_number 53
_symmetry_cell_setting 'orthorhombic'
loop_
_space_group_symop_operation_xyz
x,y,z
1/2-x,-y,1/2+z
x,-y,-z
1/2-x,y,1/2-z
-x,-y,-z
1/2+x,y,1/2-z
-x,y,z
1/2+x,-y,1/2+z
loop_
_atom_site_type_symbol
_atom_site_label
_atom_site_fract_x
_atom_site_fract_y
_atom_site_fract_z
Si Si1 0.558918 0.812155 0.434733
Si Si2 0.401296 0.035639 0.812852
Si Si3 0.809594 0.582155 0.859390
Si Si4 0.694693 0.096082 0.316313
Si Si5 0.662021 0.794741 0.018667
Si Si6 0.067255 0.483222 0.219822
Si Si7 0.816059 0.234571 0.926019
Si Si8 0.437512 0.675458 0.093052
O O1 0.500000 0.806941 0.545559
O O2 0.562316 0.907963 0.332551
O O3 0.620693 0.790699 0.509723
O O4 0.557825 0.735694 0.277573
O O5 0.360275 0.111172 0.900480
O O6 0.362366 0.962001 0.710947
O O7 0.431160 0.000000 0.000000
O O8 0.750000 0.573762 0.750000
O O9 0.872836 0.573009 0.759438
O O10 0.802545 0.673786 0.973897
O O11 0.810714 0.500000 0.000000
O O12 0.750000 0.041446 0.250000
O O13 0.710418 0.139853 0.512629
O O14 0.691228 0.179428 0.171373
O O15 0.609735 0.727958 0.979107
O O16 0.688567 0.752762 0.205518
O O17 0.075121 0.574985 0.337653
O O18 0.000000 0.455795 0.258922
O O19 0.065714 0.500000 0.000000
O O20 0.500000 0.680451 0.007058
#
# Coordination Sequence:
#
# PCOD9419316 Si02
#       8
#     8   8   8   8   8   8   8   8
#     4   9  17  32  59  91 126 167 208 261 323 385
#     4   8  17  36  55  86 127 159 210 259 317 379
#     4  11  23  43  64  96 132 175 214 273 347 413
#     4  11  23  41  58  84 119 163 215 272 310 372
#     4   9  19  38  60  90 121 161 206 260 315 380
#     4   9  16  30  60  97 125 161 217 273 328 397
#     4  10  22  42  62  89 124 162 215 258 321 388
#     4   8  14  29  57  90 122 156 200 257 312 377
#
# _framework density 25.271049000000001
#
# number of rings (size 3 to 8) (size 9 to 14) (size 15 to 20)
#    0.000    2.875    0.000    3.375    0.000    4.250 
#   22.500    3.750    0.000    0.375    0.000    0.000 
#    0.000    0.000    0.000    0.000    0.000    0.250 
#
# Total GULP energy -356575.831721 kJ/mol
# GULP energy per Si atom -5571.497371 kJ/mol
# Density = 2.521353 g / cm^3
# Si number density = 25.271049 Si / 1000 Ang^3
#
#
#
# Elastic Constant Matrix: (Units=GPa)
#
#
# Indices 1 2 3 4 5 6 
#
# 1 124.3809 26.8510 45.7705 0.0000 0.0000 0.0000
# 2 26.8510 125.4603 55.8082 0.0000 0.0000 0.0000
# 3 45.7705 55.8082 75.6667 0.0000 0.0000 0.0000
# 4 0.0000 0.0000 0.0000 52.0357 0.0000 0.0000
# 5 0.0000 0.0000 0.0000 0.0000 32.9156 0.0000
# 6 0.0000 0.0000 0.0000 0.0000 0.0000 43.6390
#
#
#
# Elastic Compliance Matrix: (Units=1/GPa)
#
#
# Indices 1 2 3 4 5 6 
#
# 1 0.010403 0.000852 -0.006921 0.000000 0.000000 0.000000
# 2 0.000852 0.011932 -0.009316 0.000000 0.000000 0.000000
# 3 -0.006921 -0.009316 0.024274 0.000000 0.000000 0.000000
# 4 0.000000 0.000000 0.000000 0.019218 0.000000 0.000000
# 5 0.000000 0.000000 0.000000 0.000000 0.030381 0.000000
# 6 0.000000 0.000000 0.000000 0.000000 0.000000 0.022915
#
#
# Mechanical properties :
#
#
# Convention : Reuss Voigt Hill
#
# Bulk Modulus (GPa) = 63.13751 64.70749 63.92250
# Shear Modulus (GPa) = 32.22220 38.85660 35.53940
#
# Velocity S-wave (km/s) = 3.57468 3.92547 3.75417
# Velocity P-wave (km/s) = 6.48661 6.79755 6.64390
#
# Compressibility (1/GPa) = 0.01583845
#
# Stress axis : x y z
#
# Youngs Moduli (GPa) = 96.12858 83.80536 41.19668
#
# Poissons Ratio (x) = -0.07143 0.28513
# Poissons Ratio (y) = -0.08194 0.38380
# Poissons Ratio (z) = 0.66533 0.78076
#
# Static dielectric constant tensor:
#      x y z
#    x 1.084260 0.000000 0.000000 
#    y 0.000000 1.959330 0.000000 
#    z 0.000000 0.000000 2.066340 
# 
# From -- ./inp_files/11946.got.cif
#   From: 2010.05.17/outbox.cif.g08.bks.cpg/sg53_6_cif.got.tgz:11946.got - 2010.06.03 12:45:16.
