data_PCOD9419448
_publ_section_title
;
Structure prediction by ZEFSAII (Michael W. Deem and Ramdas Pophale) SiO2 
 PCOD9419448
Probable space group: P M N A
;
_chemical_formula_sum "Si O2"
_cell_formula_units_Z 48
_cell_length_a 8.728717
_cell_length_b 15.738532
_cell_length_c 18.119178
_cell_angle_alpha 90.000000
_cell_angle_beta 90.000000
_cell_angle_gamma 90.000000
_cell_volume 2489.161792
_symmetry_space_group_name_H-M "P M N A"
_symmetry_group_IT_number 53
_symmetry_cell_setting 'orthorhombic'
loop_
_space_group_symop_operation_xyz
x,y,z
1/2-x,-y,1/2+z
x,-y,-z
1/2-x,y,1/2-z
-x,-y,-z
1/2+x,y,1/2-z
-x,y,z
1/2+x,-y,1/2+z
loop_
_atom_site_type_symbol
_atom_site_label
_atom_site_fract_x
_atom_site_fract_y
_atom_site_fract_z
Si Si1 0.683336 0.001194 0.587247
Si Si2 0.316892 0.833862 0.167621
Si Si3 0.682410 0.331585 0.587637
Si Si4 0.683739 0.503011 0.167890
Si Si5 0.316268 0.835881 0.832284
Si Si6 0.316463 0.333591 0.075383
O O1 0.500000 0.005572 0.596736
O O2 0.746547 0.916558 0.625654
O O3 0.717178 0.000000 0.500000
O O4 0.759164 0.082936 0.624766
O O5 0.250000 0.835049 0.250000
O O6 0.500000 0.832803 0.170359
O O7 0.256250 0.750620 0.125877
O O8 0.500000 0.327711 0.595140
O O9 0.745988 0.415676 0.627174
O O10 0.730269 0.333246 0.502117
O O11 0.750000 0.496705 0.250000
O O12 0.500000 0.511742 0.171095
O O13 0.719977 0.417888 0.121982
O O14 0.250000 0.831328 0.750000
O O15 0.500000 0.844219 0.828889
O O16 0.279422 0.750042 0.877149
O O17 0.500000 0.333447 0.061188
#
# Coordination Sequence:
#
# PCOD9419448 Si02
#       6
#     8   8   8   8   8   8
#     4  11  24  42  64  92 125 161 203 251 303 361
#     4  12  25  43  66  91 123 161 204 253 306 364
#     4  12  25  41  63  92 125 161 204 253 306 365
#     4  11  23  41  64  91 125 163 206 254 305 362
#     4  11  23  40  63  91 124 162 204 250 302 360
#     4  10  23  42  64  91 124 163 205 252 305 360
#
# _framework density 19.2836
#
# number of rings (size 3 to 8) (size 9 to 14) (size 15 to 20)
#    0.000    0.833    0.000    7.500    0.000    8.667 
#    0.000    0.000    0.000    0.000    0.000    0.000 
#    0.000    0.000    0.000    0.000    0.000    0.000 
#
# Total GULP energy -268795.229375 kJ/mol
# GULP energy per Si atom -5599.900612 kJ/mol
# Density = 1.923971 g / cm^3
# Si number density = 19.283600 Si / 1000 Ang^3
#
#
#
# Elastic Constant Matrix: (Units=GPa)
#
#
# Indices 1 2 3 4 5 6 
#
# 1 139.6292 111.7362 119.9995 0.0000 0.0000 0.0000
# 2 111.7362 222.8855 123.6665 0.0000 0.0000 0.0000
# 3 119.9995 123.6665 206.7787 0.0000 0.0000 0.0000
# 4 0.0000 0.0000 0.0000 38.8351 0.0000 0.0000
# 5 0.0000 0.0000 0.0000 0.0000 34.8933 0.0000
# 6 0.0000 0.0000 0.0000 0.0000 0.0000 143.9943
#
#
#
# Elastic Compliance Matrix: (Units=1/GPa)
#
#
# Indices 1 2 3 4 5 6 
#
# 1 0.016874 -0.004529 -0.007084 0.000000 0.000000 0.000000
# 2 -0.004529 0.007930 -0.002115 0.000000 0.000000 0.000000
# 3 -0.007084 -0.002115 0.010212 0.000000 0.000000 0.000000
# 4 0.000000 0.000000 0.000000 0.025750 0.000000 0.000000
# 5 0.000000 0.000000 0.000000 0.000000 0.028659 0.000000
# 6 0.000000 0.000000 0.000000 0.000000 0.000000 0.006945
#
#
# Mechanical properties :
#
#
# Convention : Reuss Voigt Hill
#
# Bulk Modulus (GPa) = 132.25169 142.23311 137.24240
# Shear Modulus (GPa) = 39.57439 57.80396 48.68917
#
# Velocity S-wave (km/s) = 4.53507 5.48095 5.03029
# Velocity P-wave (km/s) = 9.80581 10.67582 10.25005
#
# Compressibility (1/GPa) = 0.00756134
#
# Stress axis : x y z
#
# Youngs Moduli (GPa) = 59.26307 126.10024 97.92590
#
# Poissons Ratio (x) = 0.57107 0.69370
# Poissons Ratio (y) = 0.26838 0.20708
# Poissons Ratio (z) = 0.41982 0.26666
#
# Static dielectric constant tensor:
#      x y z
#    x 1.646730 0.000000 0.000000 
#    y 0.000000 1.632550 0.000000 
#    z 0.000000 0.000000 1.628530 
# 
# From -- ./inp_files/26218.got.cif
#   From: 2010.05.17/outbox.cif.g08.bks.cpg/sg53_14_cif.got.tgz:26218.got - 2010.06.03 12:45:16.
