data_PCOD9419844
_publ_section_title
;
Structure prediction by ZEFSAII (Michael W. Deem and Ramdas Pophale) SiO2 
 PCOD9419844
Probable space group: P M N A
;
_chemical_formula_sum "Si O2"
_cell_formula_units_Z 32
_cell_length_a 14.508306
_cell_length_b 11.670426
_cell_length_c 9.176731
_cell_angle_alpha 90.000000
_cell_angle_beta 90.000000
_cell_angle_gamma 90.000000
_cell_volume 1553.786763
_symmetry_space_group_name_H-M "P M N A"
_symmetry_group_IT_number 53
_symmetry_cell_setting 'orthorhombic'
loop_
_space_group_symop_operation_xyz
x,y,z
1/2-x,-y,1/2+z
x,-y,-z
1/2-x,y,1/2-z
-x,-y,-z
1/2+x,y,1/2-z
-x,y,z
1/2+x,-y,1/2+z
loop_
_atom_site_type_symbol
_atom_site_label
_atom_site_fract_x
_atom_site_fract_y
_atom_site_fract_z
Si Si1 0.500000 0.850432 0.345388
Si Si2 0.695821 0.899331 0.396809
Si Si3 0.847032 0.500000 0.500000
Si Si4 0.796463 0.687337 0.890376
Si Si5 0.000000 0.390004 0.709961
Si Si6 0.500000 0.359223 0.453745
O O1 0.591177 0.923745 0.348712
O O2 0.500000 0.749177 0.222715
O O3 0.500000 0.774169 0.492346
O O4 0.750000 0.888411 0.250000
O O5 0.699043 0.778750 0.480323
O O6 0.730133 0.000000 0.500000
O O7 0.777837 0.409893 0.427378
O O8 0.912481 0.438108 0.620241
O O9 0.750000 0.745958 0.750000
O O10 0.900136 0.635320 0.874997
O O11 0.000000 0.422444 0.884760
#
# Coordination Sequence:
#
# PCOD9419844 Si02
#       6
#     4   8   4   8   4   4
#     4   8  18  38  67  87 122 168 213 257 317 389
#     4  11  22  41  67  94 128 167 216 269 326 389
#     4  11  24  37  64  96 138 163 222 273 320 380
#     4  11  25  40  63  95 129 175 218 272 320 390
#     4   9  20  41  63  97 124 177 215 267 323 392
#     4   8  21  40  64  82 130 169 220 248 329 387
#
# _framework density 20.594847000000001
#
# number of rings (size 3 to 8) (size 9 to 14) (size 15 to 20)
#    0.750    1.250    0.000    2.625    3.500    2.500 
#    0.000    1.875    0.000    0.000    0.000    0.000 
#    0.000    0.000    0.000    0.000    0.000    0.000 
#
# Total GULP energy -178405.600738 kJ/mol
# GULP energy per Si atom -5575.175023 kJ/mol
# Density = 2.054797 g / cm^3
# Si number density = 20.594847 Si / 1000 Ang^3
#
#
#
# Elastic Constant Matrix: (Units=GPa)
#
#
# Indices 1 2 3 4 5 6 
#
# 1 151.5874 1.9732 56.5480 0.0000 0.0000 0.0000
# 2 1.9732 37.4753 9.3917 0.0000 0.0000 0.0000
# 3 56.5480 9.3917 104.0681 0.0000 0.0000 0.0000
# 4 0.0000 0.0000 0.0000 32.5396 0.0000 0.0000
# 5 0.0000 0.0000 0.0000 0.0000 23.3788 0.0000
# 6 0.0000 0.0000 0.0000 0.0000 0.0000 92.4243
#
#
#
# Elastic Compliance Matrix: (Units=1/GPa)
#
#
# Indices 1 2 3 4 5 6 
#
# 1 0.008292 0.000709 -0.004570 0.000000 0.000000 0.000000
# 2 0.000709 0.027362 -0.002854 0.000000 0.000000 0.000000
# 3 -0.004570 -0.002854 0.012350 0.000000 0.000000 0.000000
# 4 0.000000 0.000000 0.000000 0.030732 0.000000 0.000000
# 5 0.000000 0.000000 0.000000 0.000000 0.042774 0.000000
# 6 0.000000 0.000000 0.000000 0.000000 0.000000 0.010820
#
#
# Mechanical properties :
#
#
# Convention : Reuss Voigt Hill
#
# Bulk Modulus (GPa) = 28.92406 47.66182 38.29294
# Shear Modulus (GPa) = 31.78942 44.68309 38.23626
#
# Velocity S-wave (km/s) = 3.93308 4.66298 4.31349
# Velocity P-wave (km/s) = 5.89070 7.22385 6.59107
#
# Compressibility (1/GPa) = 0.03457329
#
# Stress axis : x y z
#
# Youngs Moduli (GPa) = 120.59316 36.54674 80.97301
#
# Poissons Ratio (x) = -0.02590 0.37003
# Poissons Ratio (y) = -0.08546 0.23113
# Poissons Ratio (z) = 0.55109 0.10432
#
# Static dielectric constant tensor:
#      x y z
#    x 1.751480 0.000000 0.000000 
#    y 0.000000 1.779050 0.000000 
#    z 0.000000 0.000000 1.763980 
# 
# From -- ./inp_files/8203.got.cif
#   From: 2010.05.17/outbox.cif.g08.bks.cpg/sg53_5_cif.got.tgz:8203.got - 2010.06.03 12:45:16.
