data_PCOD9419859
_publ_section_title
;
Structure prediction by ZEFSAII (Michael W. Deem and Ramdas Pophale) SiO2 
 PCOD9419859
Probable space group: P M N A
;
_chemical_formula_sum "Si O2"
_cell_formula_units_Z 48
_cell_length_a 20.884812
_cell_length_b 9.438261
_cell_length_c 11.130599
_cell_angle_alpha 90.000000
_cell_angle_beta 90.000000
_cell_angle_gamma 90.000000
_cell_volume 2194.022565
_symmetry_space_group_name_H-M "P M N A"
_symmetry_group_IT_number 53
_symmetry_cell_setting 'orthorhombic'
loop_
_space_group_symop_operation_xyz
x,y,z
1/2-x,-y,1/2+z
x,-y,-z
1/2-x,y,1/2-z
-x,-y,-z
1/2+x,y,1/2-z
-x,y,z
1/2+x,-y,1/2+z
loop_
_atom_site_type_symbol
_atom_site_label
_atom_site_fract_x
_atom_site_fract_y
_atom_site_fract_z
Si Si1 0.894973 0.980971 0.628229
Si Si2 0.655220 0.829616 0.505749
Si Si3 0.891057 0.564955 0.373864
Si Si4 0.782568 0.211941 0.618569
Si Si5 0.078716 0.286890 0.235955
Si Si6 0.565945 0.793109 0.296968
O O1 0.894585 0.816686 0.659222
O O2 0.927356 0.000000 0.500000
O O3 0.830262 0.075704 0.617755
O O4 0.929308 0.050867 0.742295
O O5 0.730513 0.800510 0.487593
O O6 0.616771 0.764985 0.617439
O O7 0.623417 0.766100 0.385855
O O8 0.646433 0.000000 0.500000
O O9 0.912795 0.500000 0.500000
O O10 0.822756 0.642759 0.391773
O O11 0.898360 0.442547 0.274924
O O12 0.931257 0.693411 0.318396
O O13 0.750000 0.208101 0.750000
O O14 0.000000 0.281650 0.227708
O O15 0.500000 0.773518 0.365371
#
# Coordination Sequence:
#
# PCOD9419859 Si02
#       6
#     8   8   8   8   8   8
#     4  11  23  40  68 104 137 188 246 302 360 422
#     4  12  24  45  74 108 146 192 236 311 369 435
#     4  11  26  46  69 102 143 196 245 301 363 430
#     4  11  22  47  71  96 143 187 248 294 368 434
#     4  12  26  44  72 114 148 189 249 302 375 444
#     4  11  23  43  69  96 140 190 236 295 366 430
#
# _framework density 21.877623
#
# number of rings (size 3 to 8) (size 9 to 14) (size 15 to 20)
#    0.000    0.667    5.000    4.000    0.000    6.667 
#    0.000    4.167    0.000    0.000    0.000    0.000 
#    0.000    0.000    0.000    0.000    0.000    0.000 
#
# Total GULP energy -267859.053706 kJ/mol
# GULP energy per Si atom -5580.396952 kJ/mol
# Density = 2.182783 g / cm^3
# Si number density = 21.877623 Si / 1000 Ang^3
#
#
#
# Elastic Constant Matrix: (Units=GPa)
#
#
# Indices 1 2 3 4 5 6 
#
# 1 150.3511 36.0565 33.3501 0.0000 0.0000 0.0000
# 2 36.0565 94.0399 6.6181 0.0000 0.0000 0.0000
# 3 33.3501 6.6181 87.1804 0.0000 0.0000 0.0000
# 4 0.0000 0.0000 0.0000 37.2791 0.0000 0.0000
# 5 0.0000 0.0000 0.0000 0.0000 47.2487 0.0000
# 6 0.0000 0.0000 0.0000 0.0000 0.0000 2.2543
#
#
#
# Elastic Compliance Matrix: (Units=1/GPa)
#
#
# Indices 1 2 3 4 5 6 
#
# 1 0.007963 -0.002854 -0.002830 0.000000 0.000000 0.000000
# 2 -0.002854 0.011714 0.000203 0.000000 0.000000 0.000000
# 3 -0.002830 0.000203 0.012538 0.000000 0.000000 0.000000
# 4 0.000000 0.000000 0.000000 0.026825 0.000000 0.000000
# 5 0.000000 0.000000 0.000000 0.000000 0.021165 0.000000
# 6 0.000000 0.000000 0.000000 0.000000 0.000000 0.443589
#
#
# Mechanical properties :
#
#
# Convention : Reuss Voigt Hill
#
# Bulk Modulus (GPa) = 47.05360 53.73563 50.39462
# Shear Modulus (GPa) = 9.22784 34.39288 21.81036
#
# Velocity S-wave (km/s) = 2.05599 3.96922 3.16084
# Velocity P-wave (km/s) = 5.21445 6.75437 6.03374
#
# Compressibility (1/GPa) = 0.02125236
#
# Stress axis : x y z
#
# Youngs Moduli (GPa) = 125.57764 85.36912 79.76055
#
# Poissons Ratio (x) = 0.24365 0.22569
# Poissons Ratio (y) = 0.35841 -0.01616
# Poissons Ratio (z) = 0.35533 -0.01729
#
# Static dielectric constant tensor:
#      x y z
#    x 1.858170 0.000000 0.000000 
#    y 0.000000 1.766460 0.000000 
#    z 0.000000 0.000000 1.789140 
# 
# From -- ./inp_files/18288.got.cif
#   From: 2010.05.17/outbox.cif.g08.bks.cpg/sg53_10_cif.got.tgz:18288.got - 2010.06.03 12:45:16.
