data_PCOD9419358
_publ_section_title
;
Structure prediction by ZEFSAII (Michael W. Deem and Ramdas Pophale) SiO2 
 PCOD9419358
Probable space group: P M N A
;
_chemical_formula_sum "Si O2"
_cell_formula_units_Z 56
_cell_length_a 22.022094
_cell_length_b 9.694128
_cell_length_c 14.025083
_cell_angle_alpha 90.000000
_cell_angle_beta 90.000000
_cell_angle_gamma 90.000000
_cell_volume 2994.144817
_symmetry_space_group_name_H-M "P M N A"
_symmetry_group_IT_number 53
_symmetry_cell_setting 'orthorhombic'
loop_
_space_group_symop_operation_xyz
x,y,z
1/2-x,-y,1/2+z
x,-y,-z
1/2-x,y,1/2-z
-x,-y,-z
1/2+x,y,1/2-z
-x,y,z
1/2+x,-y,1/2+z
loop_
_atom_site_type_symbol
_atom_site_label
_atom_site_fract_x
_atom_site_fract_y
_atom_site_fract_z
Si Si1 0.697396 0.652520 0.958129
Si Si2 0.568722 0.145920 0.553368
Si Si3 0.000000 0.468236 0.342810
Si Si4 0.500000 0.276061 0.971512
Si Si5 0.884466 0.685119 0.733590
Si Si6 0.375723 0.129427 0.939528
Si Si7 0.072070 0.995770 0.255530
Si Si8 0.659937 0.353464 0.447266
O O1 0.661138 0.675448 0.857927
O O2 0.768641 0.681621 0.948563
O O3 0.688283 0.500000 0.000000
O O4 0.670202 0.749757 0.039608
O O5 0.500000 0.205655 0.546764
O O6 0.580333 0.095268 0.660800
O O7 0.617660 0.244939 0.504163
O O8 0.568231 0.000000 0.500000
O O9 0.940157 0.418308 0.288247
O O10 0.000000 0.627333 0.376895
O O11 0.000000 0.377929 0.439303
O O12 0.440674 0.183175 0.976874
O O13 0.857402 0.643174 0.835700
O O14 0.908327 0.843165 0.746652
O O15 0.387715 0.078673 0.834296
O O16 0.354779 0.000000 0.000000
O O17 0.000000 0.993360 0.279423
O O18 0.652238 0.500000 0.500000
#
# Coordination Sequence:
#
# PCOD9419358 Si02
#       8
#     8   8   4   4   8   8   8   8
#     4  11  25  45  66  92 134 175 210 265 325 388
#     4  10  22  43  69  92 127 169 210 267 322 369
#     4  11  22  34  65  97 129 174 213 261 326 404
#     4  11  21  36  56  98 140 173 201 263 330 385
#     4  12  22  42  67  95 128 171 219 263 327 386
#     4  12  22  37  64 100 135 169 210 259 320 393
#     4  11  22  39  64 100 136 169 208 264 329 383
#     4  11  27  47  67  92 126 171 228 272 313 375
#
# _framework density 18.70317
#
# number of rings (size 3 to 8) (size 9 to 14) (size 15 to 20)
#    0.000    0.857    5.714    1.500    1.000    3.143 
#    0.000    2.143    0.000    0.000    0.000    0.000 
#    0.000    0.000    0.000    0.000    0.000    0.000 
#
# Total GULP energy -312689.049989 kJ/mol
# GULP energy per Si atom -5583.733036 kJ/mol
# Density = 1.866060 g / cm^3
# Si number density = 18.703170 Si / 1000 Ang^3
#
#
#
# Elastic Constant Matrix: (Units=GPa)
#
#
# Indices 1 2 3 4 5 6 
#
# 1 116.5857 49.1121 55.6235 0.0000 0.0000 0.0000
# 2 49.1121 56.1457 19.5129 0.0000 0.0000 0.0000
# 3 55.6235 19.5129 121.8936 0.0000 0.0000 0.0000
# 4 0.0000 0.0000 0.0000 26.5753 0.0000 0.0000
# 5 0.0000 0.0000 0.0000 0.0000 10.0982 0.0000
# 6 0.0000 0.0000 0.0000 0.0000 0.0000 28.7768
#
#
#
# Elastic Compliance Matrix: (Units=1/GPa)
#
#
# Indices 1 2 3 4 5 6 
#
# 1 0.016471 -0.012490 -0.005517 0.000000 0.000000 0.000000
# 2 -0.012490 0.028332 0.001164 0.000000 0.000000 0.000000
# 3 -0.005517 0.001164 0.010535 0.000000 0.000000 0.000000
# 4 0.000000 0.000000 0.000000 0.037629 0.000000 0.000000
# 5 0.000000 0.000000 0.000000 0.000000 0.099028 0.000000
# 6 0.000000 0.000000 0.000000 0.000000 0.000000 0.034750
#
#
# Mechanical properties :
#
#
# Convention : Reuss Voigt Hill
#
# Bulk Modulus (GPa) = 46.18468 60.34689 53.26579
# Shear Modulus (GPa) = 18.68130 24.44850 21.56490
#
# Velocity S-wave (km/s) = 3.16386 3.61942 3.39928
# Velocity P-wave (km/s) = 6.17201 7.05710 6.62934
#
# Compressibility (1/GPa) = 0.02165220
#
# Stress axis : x y z
#
# Youngs Moduli (GPa) = 60.71275 35.29611 94.92232
#
# Poissons Ratio (x) = 0.44086 0.52366
# Poissons Ratio (y) = 0.75832 -0.11052
# Poissons Ratio (z) = 0.33494 -0.04110
#
# Static dielectric constant tensor:
#      x y z
#    x 1.640540 0.000000 0.000000 
#    y 0.000000 1.631740 0.000000 
#    z 0.000000 0.000000 1.629900 
# 
# From -- ./inp_files/24384.got.cif
#   From: 2010.05.17/outbox.cif.g08.bks.cpg/sg53_13_cif.got.tgz:24384.got - 2010.06.03 12:45:16.
