data_PCOD9419574
_publ_section_title
;
Structure prediction by ZEFSAII (Michael W. Deem and Ramdas Pophale) SiO2 
 PCOD9419574
Probable space group: P M N A
;
_chemical_formula_sum "Si O2"
_cell_formula_units_Z 36
_cell_length_a 19.444614
_cell_length_b 8.500150
_cell_length_c 9.387659
_cell_angle_alpha 90.000000
_cell_angle_beta 90.000000
_cell_angle_gamma 90.000000
_cell_volume 1551.612329
_symmetry_space_group_name_H-M "P M N A"
_symmetry_group_IT_number 53
_symmetry_cell_setting 'orthorhombic'
loop_
_space_group_symop_operation_xyz
x,y,z
1/2-x,-y,1/2+z
x,-y,-z
1/2-x,y,1/2-z
-x,-y,-z
1/2+x,y,1/2-z
-x,y,z
1/2+x,-y,1/2+z
loop_
_atom_site_type_symbol
_atom_site_label
_atom_site_fract_x
_atom_site_fract_y
_atom_site_fract_z
Si Si1 0.678852 0.067809 0.657722
Si Si2 0.649868 0.144316 0.098773
Si Si3 0.624031 0.419706 0.644366
Si Si4 0.750000 0.624929 0.750000
Si Si5 0.000000 0.524958 0.670654
Si Si6 0.000000 0.820123 0.555862
O O1 0.750000 0.083217 0.750000
O O2 0.643645 0.237051 0.641909
O O3 0.687090 0.000000 0.500000
O O4 0.634578 0.942089 0.750357
O O5 0.709977 0.266740 0.134780
O O6 0.581667 0.215221 0.025621
O O7 0.670764 0.000000 0.000000
O O8 0.597006 0.500000 0.500000
O O9 0.692565 0.517397 0.679847
O O10 0.566941 0.449005 0.762808
O O11 0.000000 0.500000 0.500000
O O12 0.000000 0.712763 0.699467
O O13 0.000000 0.000000 0.500000
#
# Coordination Sequence:
#
# PCOD9419574 Si02
#       6
#     8   8   8   4   4   4
#     4  12  27  48  73 109 150 196 251 310 380 456
#     4  11  25  44  78 108 154 195 253 310 374 455
#     4  12  29  49  76 112 155 202 256 315 394 459
#     4  12  24  44  76 116 150 198 250 314 384 456
#     4  12  29  53  78 111 154 201 261 326 386 464
#     4  10  24  47  74 110 147 202 248 307 377 453
#
# _framework density 23.201671999999999
#
# number of rings (size 3 to 8) (size 9 to 14) (size 15 to 20)
#    0.000    0.444    4.444    2.333    9.333    0.889 
#    0.000    1.111    0.000    0.000    0.000    0.000 
#    0.000    0.000    0.000    0.000    0.000    0.000 
#
# Total GULP energy -200783.621602 kJ/mol
# GULP energy per Si atom -5577.322822 kJ/mol
# Density = 2.314886 g / cm^3
# Si number density = 23.201672 Si / 1000 Ang^3
#
#
#
# Elastic Constant Matrix: (Units=GPa)
#
#
# Indices 1 2 3 4 5 6 
#
# 1 153.9746 69.2833 54.5649 0.0000 0.0000 0.0000
# 2 69.2833 154.9569 53.5190 0.0000 0.0000 0.0000
# 3 54.5649 53.5190 166.4796 0.0000 0.0000 0.0000
# 4 0.0000 0.0000 0.0000 45.9233 0.0000 0.0000
# 5 0.0000 0.0000 0.0000 0.0000 11.4064 0.0000
# 6 0.0000 0.0000 0.0000 0.0000 0.0000 28.6181
#
#
#
# Elastic Compliance Matrix: (Units=1/GPa)
#
#
# Indices 1 2 3 4 5 6 
#
# 1 0.008572 -0.003220 -0.001775 0.000000 0.000000 0.000000
# 2 -0.003220 0.008469 -0.001667 0.000000 0.000000 0.000000
# 3 -0.001775 -0.001667 0.007124 0.000000 0.000000 0.000000
# 4 0.000000 0.000000 0.000000 0.021775 0.000000 0.000000
# 5 0.000000 0.000000 0.000000 0.000000 0.087670 0.000000
# 6 0.000000 0.000000 0.000000 0.000000 0.000000 0.034943
#
#
# Mechanical properties :
#
#
# Convention : Reuss Voigt Hill
#
# Bulk Modulus (GPa) = 92.23156 92.23836 92.23496
# Shear Modulus (GPa) = 26.95552 37.05917 32.00735
#
# Velocity S-wave (km/s) = 3.41221 4.00091 3.71823
# Velocity P-wave (km/s) = 7.44061 7.82205 7.63371
#
# Compressibility (1/GPa) = 0.01084228
#
# Stress axis : x y z
#
# Youngs Moduli (GPa) = 116.65535 118.07945 140.36450
#
# Poissons Ratio (x) = 0.38020 0.24908
# Poissons Ratio (y) = 0.37562 0.23401
# Poissons Ratio (z) = 0.20701 0.19686
#
# Static dielectric constant tensor:
#      x y z
#    x 1.946290 0.000000 0.000000 
#    y 0.000000 2.363590 0.000000 
#    z 0.000000 0.000000 2.107900 
# 
# From -- ./inp_files/10625.got.cif
#   From: 2010.05.17/outbox.cif.g08.bks.cpg/sg53_6_cif.got.tgz:10625.got - 2010.06.03 12:45:16.
