data_PCOD9419194
_publ_section_title
;
Structure prediction by ZEFSAII (Michael W. Deem and Ramdas Pophale) SiO2 
 PCOD9419194
Probable space group: P M N A
;
_chemical_formula_sum "Si O2"
_cell_formula_units_Z 48
_cell_length_a 14.173161
_cell_length_b 9.683372
_cell_length_c 16.173190
_cell_angle_alpha 90.000000
_cell_angle_beta 90.000000
_cell_angle_gamma 90.000000
_cell_volume 2219.673133
_symmetry_space_group_name_H-M "P M N A"
_symmetry_group_IT_number 53
_symmetry_cell_setting 'orthorhombic'
loop_
_space_group_symop_operation_xyz
x,y,z
1/2-x,-y,1/2+z
x,-y,-z
1/2-x,y,1/2-z
-x,-y,-z
1/2+x,y,1/2-z
-x,y,z
1/2+x,-y,1/2+z
loop_
_atom_site_type_symbol
_atom_site_label
_atom_site_fract_x
_atom_site_fract_y
_atom_site_fract_z
Si Si1 0.500000 0.144156 0.182740
Si Si2 0.500000 0.156510 0.375431
Si Si3 0.695413 0.704032 0.071689
Si Si4 0.792379 0.541909 0.841714
Si Si5 0.500000 0.663890 0.978043
Si Si6 0.000000 0.528635 0.902856
Si Si7 0.196003 0.834636 0.929607
Si Si8 0.813317 0.033555 0.669184
O O1 0.500000 0.188035 0.278072
O O2 0.588521 0.043408 0.176393
O O3 0.500000 0.268890 0.115088
O O4 0.500000 0.307973 0.410895
O O5 0.404068 0.095071 0.409759
O O6 0.725339 0.551099 0.099792
O O7 0.598370 0.712059 0.019800
O O8 0.681528 0.804825 0.149548
O O9 0.780888 0.766122 0.017079
O O10 0.750000 0.528829 0.750000
O O11 0.791004 0.703144 0.867726
O O12 0.901264 0.491586 0.856661
O O13 0.500000 0.500000 0.000000
O O14 0.000000 0.500000 0.000000
O O15 0.268297 0.953418 0.907661
O O16 0.750000 0.009742 0.750000
#
# Coordination Sequence:
#
# PCOD9419194 Si02
#       8
#     4   4   8   8   4   4   8   8
#     4  12  25  44  69  98 134 177 230 279 347 417
#     4  10  22  39  69 103 123 176 230 289 323 407
#     4  12  26  43  66 101 143 178 226 288 359 411
#     4  11  24  42  68 101 138 184 228 292 348 419
#     4  12  27  43  70 106 141 181 232 292 353 432
#     4  10  22  42  67  98 143 178 226 282 362 411
#     4  11  22  42  69  97 132 178 236 279 338 416
#     4  12  25  45  68  96 135 181 227 282 345 417
#
# _framework density 21.624806
#
# number of rings (size 3 to 8) (size 9 to 14) (size 15 to 20)
#    0.000    0.667    3.333    5.500    2.333    1.333 
#    0.000    5.833    0.000    0.000    0.000    0.000 
#    0.000    0.000    0.000    0.000    0.000    0.000 
#
# Total GULP energy -267914.470317 kJ/mol
# GULP energy per Si atom -5581.551465 kJ/mol
# Density = 2.157559 g / cm^3
# Si number density = 21.624806 Si / 1000 Ang^3
#
#
#
# Elastic Constant Matrix: (Units=GPa)
#
#
# Indices 1 2 3 4 5 6 
#
# 1 121.3304 18.4023 39.3708 0.0000 0.0000 0.0000
# 2 18.4023 66.1639 16.4107 0.0000 0.0000 0.0000
# 3 39.3708 16.4107 107.7967 0.0000 0.0000 0.0000
# 4 0.0000 0.0000 0.0000 35.2746 0.0000 0.0000
# 5 0.0000 0.0000 0.0000 0.0000 37.6762 0.0000
# 6 0.0000 0.0000 0.0000 0.0000 0.0000 141.7980
#
#
#
# Elastic Compliance Matrix: (Units=1/GPa)
#
#
# Indices 1 2 3 4 5 6 
#
# 1 0.009566 -0.001865 -0.003210 0.000000 0.000000 0.000000
# 2 -0.001865 0.016070 -0.001766 0.000000 0.000000 0.000000
# 3 -0.003210 -0.001766 0.010718 0.000000 0.000000 0.000000
# 4 0.000000 0.000000 0.000000 0.028349 0.000000 0.000000
# 5 0.000000 0.000000 0.000000 0.000000 0.026542 0.000000
# 6 0.000000 0.000000 0.000000 0.000000 0.000000 0.007052
#
#
# Mechanical properties :
#
#
# Convention : Reuss Voigt Hill
#
# Bulk Modulus (GPa) = 44.10242 49.29537 46.69890
# Shear Modulus (GPa) = 41.82821 57.69025 49.75923
#
# Velocity S-wave (km/s) = 4.40280 5.17066 4.80210
# Velocity P-wave (km/s) = 6.80330 7.64806 7.23802
#
# Compressibility (1/GPa) = 0.02267449
#
# Stress axis : x y z
#
# Youngs Moduli (GPa) = 104.53247 62.22590 93.30155
#
# Poissons Ratio (x) = 0.11602 0.29951
# Poissons Ratio (y) = 0.19490 0.16473
# Poissons Ratio (z) = 0.33556 0.10986
#
# Static dielectric constant tensor:
#      x y z
#    x 2.031480 0.000000 0.000000 
#    y 0.000000 1.862610 0.000000 
#    z 0.000000 0.000000 1.613810 
# 
# From -- ./inp_files/28343.got.cif
#   From: 2010.05.17/outbox.cif.g08.bks.cpg/sg53_15_cif.got.tgz:28343.got - 2010.06.03 12:45:16.
