data_PCOD9419327
_publ_section_title
;
Structure prediction by ZEFSAII (Michael W. Deem and Ramdas Pophale) SiO2 
 PCOD9419327
Probable space group: P M N A
;
_chemical_formula_sum "Si O2"
_cell_formula_units_Z 60
_cell_length_a 21.649136
_cell_length_b 5.397953
_cell_length_c 23.359128
_cell_angle_alpha 90.000000
_cell_angle_beta 90.000000
_cell_angle_gamma 90.000000
_cell_volume 2729.771492
_symmetry_space_group_name_H-M "P M N A"
_symmetry_group_IT_number 53
_symmetry_cell_setting 'orthorhombic'
loop_
_space_group_symop_operation_xyz
x,y,z
1/2-x,-y,1/2+z
x,-y,-z
1/2-x,y,1/2-z
-x,-y,-z
1/2+x,y,1/2-z
-x,y,z
1/2+x,-y,1/2+z
loop_
_atom_site_type_symbol
_atom_site_label
_atom_site_fract_x
_atom_site_fract_y
_atom_site_fract_z
Si Si1 0.431720 0.750056 0.037760
Si Si2 0.771988 0.801903 0.918722
Si Si3 0.931677 0.043166 0.224112
Si Si4 0.431501 0.263562 0.605597
Si Si5 0.129261 0.000000 0.000000
Si Si6 0.196979 0.697015 0.401118
Si Si7 0.188963 0.207827 0.731664
Si Si8 0.347950 0.589661 0.674609
O O1 0.500000 0.765418 0.065627
O O2 0.372970 0.724267 0.078037
O O3 0.431596 0.500000 0.000000
O O4 0.424857 0.000000 0.000000
O O5 0.729203 0.557652 0.921988
O O6 0.805714 0.792194 0.856419
O O7 0.733991 0.058278 0.921308
O O8 0.824439 0.814321 0.967097
O O9 0.908496 0.314844 0.207600
O O10 0.000000 0.032716 0.249394
O O11 0.933359 0.907119 0.162431
O O12 0.875896 0.933067 0.261082
O O13 0.500000 0.378282 0.599617
O O14 0.413212 0.119727 0.548644
O O15 0.374876 0.440714 0.620779
O O16 0.195669 0.698465 0.332458
O O17 0.250000 0.055390 0.750000
O O18 0.186457 0.423066 0.779423
#
# Coordination Sequence:
#
# PCOD9419327 Si02
#       8
#     8   8   8   8   4   8   8   8
#     4  10  23  47  75 103 140 183 228 288 360 431
#     4  12  27  44  68 103 145 183 235 291 354 414
#     4  10  22  42  67  97 136 180 233 288 354 421
#     4  10  22  42  65  95 135 187 237 287 346 410
#     4  12  25  44  66 100 139 186 238 302 340 418
#     4  12  27  46  72 108 137 186 234 291 355 435
#     4  11  24  42  71  98 138 180 228 293 349 429
#     4  11  22  43  66  97 138 187 232 290 356 421
#
# _framework density 21.979859999999999
#
# number of rings (size 3 to 8) (size 9 to 14) (size 15 to 20)
#    0.000    1.067    2.667    3.000    4.667    3.200 
#    0.000    0.667    0.000    0.000    0.000    0.000 
#    0.000    0.000    0.000    0.000    0.000    0.000 
#
# Total GULP energy -335293.603073 kJ/mol
# GULP energy per Si atom -5588.226718 kJ/mol
# Density = 2.192983 g / cm^3
# Si number density = 21.979860 Si / 1000 Ang^3
#
#
#
# Elastic Constant Matrix: (Units=GPa)
#
#
# Indices 1 2 3 4 5 6 
#
# 1 133.5077 19.2408 9.1741 0.0000 0.0000 0.0000
# 2 19.2408 83.2058 8.9898 0.0000 0.0000 0.0000
# 3 9.1741 8.9898 42.6273 0.0000 0.0000 0.0000
# 4 0.0000 0.0000 0.0000 25.1361 0.0000 0.0000
# 5 0.0000 0.0000 0.0000 0.0000 35.2543 0.0000
# 6 0.0000 0.0000 0.0000 0.0000 0.0000 52.0186
#
#
#
# Elastic Compliance Matrix: (Units=1/GPa)
#
#
# Indices 1 2 3 4 5 6 
#
# 1 0.007822 -0.001665 -0.001332 0.000000 0.000000 0.000000
# 2 -0.001665 0.012653 -0.002310 0.000000 0.000000 0.000000
# 3 -0.001332 -0.002310 0.024233 0.000000 0.000000 0.000000
# 4 0.000000 0.000000 0.000000 0.039783 0.000000 0.000000
# 5 0.000000 0.000000 0.000000 0.000000 0.028365 0.000000
# 6 0.000000 0.000000 0.000000 0.000000 0.000000 0.019224
#
#
# Mechanical properties :
#
#
# Convention : Reuss Voigt Hill
#
# Bulk Modulus (GPa) = 29.33121 37.12779 33.22950
# Shear Modulus (GPa) = 32.45505 37.27753 34.86629
#
# Velocity S-wave (km/s) = 3.84680 4.12270 3.98714
# Velocity P-wave (km/s) = 5.75361 6.29211 6.02888
#
# Compressibility (1/GPa) = 0.03409338
#
# Stress axis : x y z
#
# Youngs Moduli (GPa) = 127.84984 79.03289 41.26590
#
# Poissons Ratio (x) = 0.13157 0.05498
# Poissons Ratio (y) = 0.21284 0.09533
# Poissons Ratio (z) = 0.17033 0.18258
#
# Static dielectric constant tensor:
#      x y z
#    x 1.875020 0.000000 0.000000 
#    y 0.000000 1.866680 0.000000 
#    z 0.000000 0.000000 1.782690 
# 
# From -- ./inp_files/35627.got.cif
#   From: 2010.05.17/outbox.cif.g08.bks.cpg/sg53_18_cif.got.tgz:35627.got - 2010.06.03 12:45:16.
