data_PCOD9419369
_publ_section_title
;
Structure prediction by ZEFSAII (Michael W. Deem and Ramdas Pophale) SiO2 
 PCOD9419369
Probable space group: P M N A
;
_chemical_formula_sum "Si O2"
_cell_formula_units_Z 56
_cell_length_a 21.933052
_cell_length_b 14.974246
_cell_length_c 7.236494
_cell_angle_alpha 90.000000
_cell_angle_beta 90.000000
_cell_angle_gamma 90.000000
_cell_volume 2376.688354
_symmetry_space_group_name_H-M "P M N A"
_symmetry_group_IT_number 53
_symmetry_cell_setting 'orthorhombic'
loop_
_space_group_symop_operation_xyz
x,y,z
1/2-x,-y,1/2+z
x,-y,-z
1/2-x,y,1/2-z
-x,-y,-z
1/2+x,y,1/2-z
-x,y,z
1/2+x,-y,1/2+z
loop_
_atom_site_type_symbol
_atom_site_label
_atom_site_fract_x
_atom_site_fract_y
_atom_site_fract_z
Si Si1 0.618361 0.624768 0.377813
Si Si2 0.568088 0.130220 0.142724
Si Si3 0.701494 0.901810 0.417356
Si Si4 0.932176 0.556094 0.769994
Si Si5 0.737639 0.713216 0.471036
Si Si6 0.627102 0.305398 0.016941
Si Si7 0.069504 0.937606 0.220940
O O1 0.614486 0.525795 0.291742
O O2 0.570456 0.616499 0.544124
O O3 0.680632 0.648252 0.482881
O O4 0.612800 0.692472 0.204328
O O5 0.500000 0.162126 0.189253
O O6 0.566909 0.091975 0.934318
O O7 0.611849 0.213841 0.122640
O O8 0.581475 0.045105 0.272354
O O9 0.750000 0.902106 0.250000
O O10 0.719851 0.813552 0.531776
O O11 0.708371 0.000000 0.500000
O O12 0.630333 0.893082 0.359926
O O13 0.913772 0.617811 0.602426
O O14 0.000000 0.519058 0.748928
O O15 0.750000 0.718936 0.250000
O O16 0.801259 0.679046 0.548758
O O17 0.000000 0.921607 0.148344
#
# Coordination Sequence:
#
# PCOD9419369 Si02
#       7
#     8   8   8   8   8   8   8
#     4  10  22  44  62  91 132 174 210 282 336 398
#     4   9  18  33  60  91 125 169 211 259 323 389
#     4  11  24  39  63  94 125 172 216 268 326 390
#     4  11  25  43  66  99 130 169 227 275 341 418
#     4   9  21  42  62  94 132 164 225 269 329 405
#     4  11  22  40  67  97 131 171 220 281 335 410
#     4   9  19  36  58  89 128 171 218 264 321 390
#
# _framework density 23.562197999999999
#
# number of rings (size 3 to 8) (size 9 to 14) (size 15 to 20)
#    0.000    2.000    0.000    5.143    4.000    4.857 
#   15.429    1.429    0.000    0.000    0.000    0.000 
#    0.000    0.000    0.000    0.000    0.000    0.000 
#
# Total GULP energy -312660.823982 kJ/mol
# GULP energy per Si atom -5583.229000 kJ/mol
# Density = 2.350857 g / cm^3
# Si number density = 23.562198 Si / 1000 Ang^3
#
#
#
# Elastic Constant Matrix: (Units=GPa)
#
#
# Indices 1 2 3 4 5 6 
#
# 1 117.4668 49.4556 21.8917 0.0000 0.0000 0.0000
# 2 49.4556 85.4610 5.3182 0.0000 0.0000 0.0000
# 3 21.8917 5.3182 57.8703 0.0000 0.0000 0.0000
# 4 0.0000 0.0000 0.0000 28.4000 0.0000 0.0000
# 5 0.0000 0.0000 0.0000 0.0000 29.0413 0.0000
# 6 0.0000 0.0000 0.0000 0.0000 0.0000 -53.9760
#
#
#
# Elastic Compliance Matrix: (Units=1/GPa)
#
#
# Indices 1 2 3 4 5 6 
#
# 1 0.012093 -0.006752 -0.003954 0.000000 0.000000 0.000000
# 2 -0.006752 0.015538 0.001126 0.000000 0.000000 0.000000
# 3 -0.003954 0.001126 0.018672 0.000000 0.000000 0.000000
# 4 0.000000 0.000000 0.000000 0.035211 0.000000 0.000000
# 5 0.000000 0.000000 0.000000 0.000000 0.034434 0.000000
# 6 0.000000 0.000000 0.000000 0.000000 0.000000 -0.018527
#
#
# Mechanical properties :
#
#
# Convention : Reuss Voigt Hill
#
# Bulk Modulus (GPa) = 36.84061 46.01435 41.42748
# Shear Modulus (GPa) = 39.79982 12.96857 26.38420
#
# Velocity S-wave (km/s) = 4.11437 2.34860 3.34992
# Velocity P-wave (km/s) = 6.18386 5.18901 5.70815
#
# Compressibility (1/GPa) = 0.02714396
#
# Stress axis : x y z
#
# Youngs Moduli (GPa) = 82.69551 64.35682 53.55532
#
# Poissons Ratio (x) = 0.43452 0.21176
# Poissons Ratio (y) = 0.55834 -0.06031
# Poissons Ratio (z) = 0.32698 -0.07248
#
# Static dielectric constant tensor:
#      x y z
#    x 1.893070 0.000000 0.000000 
#    y 0.000000 1.884870 0.000000 
#    z 0.000000 0.000000 1.970740 
# 
# From -- ./inp_files/11102.got.cif
#   From: 2010.05.17/outbox.cif.g08.bks.cpg/sg53_6_cif.got.tgz:11102.got - 2010.06.03 12:45:16.
