data_PCOD9419340
_publ_section_title
;
Structure prediction by ZEFSAII (Michael W. Deem and Ramdas Pophale) SiO2 
 PCOD9419340
Probable space group: P M N A
;
_chemical_formula_sum "Si O2"
_cell_formula_units_Z 48
_cell_length_a 27.977668
_cell_length_b 9.832785
_cell_length_c 8.579510
_cell_angle_alpha 90.000000
_cell_angle_beta 90.000000
_cell_angle_gamma 90.000000
_cell_volume 2360.209424
_symmetry_space_group_name_H-M "P M N A"
_symmetry_group_IT_number 53
_symmetry_cell_setting 'orthorhombic'
loop_
_space_group_symop_operation_xyz
x,y,z
1/2-x,-y,1/2+z
x,-y,-z
1/2-x,y,1/2-z
-x,-y,-z
1/2+x,y,1/2-z
-x,y,z
1/2+x,-y,1/2+z
loop_
_atom_site_type_symbol
_atom_site_label
_atom_site_fract_x
_atom_site_fract_y
_atom_site_fract_z
Si Si1 0.221189 0.135030 0.909003
Si Si2 0.553259 0.649104 0.427614
Si Si3 0.273849 0.642229 0.919618
Si Si4 0.137183 0.852203 0.585205
Si Si5 0.943140 0.345785 0.556972
Si Si6 0.380216 0.868443 0.549912
O O1 0.250000 0.129359 0.750000
O O2 0.233631 0.278498 0.984624
O O3 0.164128 0.128955 0.928015
O O4 0.238001 0.000000 0.000000
O O5 0.553188 0.500000 0.500000
O O6 0.500000 0.706358 0.447823
O O7 0.563982 0.652970 0.243660
O O8 0.591068 0.733723 0.522472
O O9 0.250000 0.621702 0.750000
O O10 0.317792 0.749009 0.928944
O O11 0.286727 0.500000 0.000000
O O12 0.091294 0.767326 0.520683
O O13 0.134017 0.877042 0.770340
O O14 0.141874 0.000000 0.500000
O O15 0.932393 0.500000 0.500000
O O16 0.000000 0.320657 0.525355
O O17 0.410377 0.000000 0.500000
#
# Coordination Sequence:
#
# PCOD9419340 Si02
#       6
#     8   8   8   8   8   8
#     4  11  25  43  70  97 133 179 222 275 331 401
#     4  10  22  42  69  99 138 181 222 277 339 398
#     4  12  26  47  66  98 135 178 225 280 336 399
#     4  12  26  45  71 100 138 181 229 279 340 403
#     4  10  22  43  71 104 138 181 230 278 339 404
#     4  11  25  43  65 102 133 176 228 276 335 400
#
# _framework density 20.337177000000001
#
# number of rings (size 3 to 8) (size 9 to 14) (size 15 to 20)
#    0.000    1.000    1.667    4.000    9.333    3.333 
#    3.000    0.000    0.000    0.000    0.000    0.000 
#    0.000    0.000    0.000    0.000    0.000    0.000 
#
# Total GULP energy -267909.305500 kJ/mol
# GULP energy per Si atom -5581.443865 kJ/mol
# Density = 2.029089 g / cm^3
# Si number density = 20.337177 Si / 1000 Ang^3
#
#
#
# Elastic Constant Matrix: (Units=GPa)
#
#
# Indices 1 2 3 4 5 6 
#
# 1 87.0138 64.4616 54.4252 0.0000 0.0000 0.0000
# 2 64.4616 152.5759 54.5231 0.0000 0.0000 0.0000
# 3 54.4252 54.5231 119.3573 0.0000 0.0000 0.0000
# 4 0.0000 0.0000 0.0000 40.6695 0.0000 0.0000
# 5 0.0000 0.0000 0.0000 0.0000 86.3843 0.0000
# 6 0.0000 0.0000 0.0000 0.0000 0.0000 70.6993
#
#
#
# Elastic Compliance Matrix: (Units=1/GPa)
#
#
# Indices 1 2 3 4 5 6 
#
# 1 0.020035 -0.006214 -0.006297 0.000000 0.000000 0.000000
# 2 -0.006214 0.009760 -0.001625 0.000000 0.000000 0.000000
# 3 -0.006297 -0.001625 0.011992 0.000000 0.000000 0.000000
# 4 0.000000 0.000000 0.000000 0.024588 0.000000 0.000000
# 5 0.000000 0.000000 0.000000 0.000000 0.011576 0.000000
# 6 0.000000 0.000000 0.000000 0.000000 0.000000 0.014144
#
#
# Mechanical properties :
#
#
# Convention : Reuss Voigt Hill
#
# Bulk Modulus (GPa) = 73.99380 78.41853 76.20616
# Shear Modulus (GPa) = 40.04092 51.91975 45.98033
#
# Velocity S-wave (km/s) = 4.44199 5.05815 4.76005
# Velocity P-wave (km/s) = 7.92281 8.52972 8.23186
#
# Compressibility (1/GPa) = 0.01351465
#
# Stress axis : x y z
#
# Youngs Moduli (GPa) = 49.91379 102.45672 83.39080
#
# Poissons Ratio (x) = 0.63669 0.52509
# Poissons Ratio (y) = 0.31017 0.13550
# Poissons Ratio (z) = 0.31430 0.16649
#
# Static dielectric constant tensor:
#      x y z
#    x 1.731160 0.000000 0.000000 
#    y 0.000000 -1.819410 0.000000 
#    z 0.000000 0.000000 1.716940 
# 
# From -- ./inp_files/13045.got.cif
#   From: 2010.05.17/outbox.cif.g08.bks.cpg/sg53_7_cif.got.tgz:13045.got - 2010.06.03 12:45:16.
