data_PCOD9419677
_publ_section_title
;
Structure prediction by ZEFSAII (Michael W. Deem and Ramdas Pophale) SiO2 
 PCOD9419677
Probable space group: P M N A
;
_chemical_formula_sum "Si O2"
_cell_formula_units_Z 64
_cell_length_a 7.558064
_cell_length_b 14.569806
_cell_length_c 29.081540
_cell_angle_alpha 90.000000
_cell_angle_beta 90.000000
_cell_angle_gamma 90.000000
_cell_volume 3202.445406
_symmetry_space_group_name_H-M "P M N A"
_symmetry_group_IT_number 53
_symmetry_cell_setting 'orthorhombic'
loop_
_space_group_symop_operation_xyz
x,y,z
1/2-x,-y,1/2+z
x,-y,-z
1/2-x,y,1/2-z
-x,-y,-z
1/2+x,y,1/2-z
-x,y,z
1/2+x,-y,1/2+z
loop_
_atom_site_type_symbol
_atom_site_label
_atom_site_fract_x
_atom_site_fract_y
_atom_site_fract_z
Si Si1 0.283807 0.723651 0.564913
Si Si2 0.700179 0.249493 0.198846
Si Si3 0.197428 0.884115 0.876195
Si Si4 0.786948 0.974274 0.197693
Si Si5 0.783921 0.399045 0.981440
Si Si6 0.786863 0.414602 0.146324
Si Si7 0.783310 0.382307 0.876012
Si Si8 0.787931 0.235460 0.801723
O O1 0.500000 0.727819 0.565401
O O2 0.221679 0.824430 0.581877
O O3 0.229185 0.681707 0.516209
O O4 0.230674 0.646274 0.602276
O O5 0.750000 0.226151 0.250000
O O6 0.500000 0.222523 0.189289
O O7 0.816228 0.195290 0.162481
O O8 0.722619 0.357195 0.189755
O O9 0.280380 0.965551 0.845518
O O10 0.000000 0.914013 0.890655
O O11 0.750000 0.007805 0.250000
O O12 0.000000 0.975613 0.193778
O O13 0.721353 0.869381 0.195052
O O14 0.728147 0.379279 0.929295
O O15 0.000000 0.401460 0.981711
O O16 0.728445 0.500000 0.000000
O O17 0.726731 0.518519 0.142858
O O18 0.000000 0.415331 0.146349
O O19 0.722739 0.301799 0.842096
O O20 0.000000 0.380689 0.876011
O O21 0.750000 0.269594 0.750000
O O22 0.000000 0.230619 0.806093
#
# Coordination Sequence:
#
# PCOD9419677 Si02
#       8
#     8   8   8   8   8   8   8   8
#     4   8  13  22  38  62  91 115 142 180 219 260
#     4  11  21  31  42  60  87 118 148 182 223 272
#     4   9  17  29  45  65  88 116 147 183 226 271
#     4   9  17  29  46  65  87 115 150 189 232 275
#     4   9  13  20  39  68  94 117 150 188 221 258
#     4   9  16  28  43  61  86 117 150 184 219 260
#     4   9  16  26  44  68  93 119 152 191 226 262
#     4   9  18  32  47  66  91 119 151 192 233 270
#
# _framework density 19.984728
#
# number of rings (size 3 to 8) (size 9 to 14) (size 15 to 20)
#    0.000    2.875    1.250    2.250    0.000    2.000 
#    0.000    1.875    0.000    0.750    0.000   15.750 
#    0.000    0.000    0.000   10.750    0.000   11.500 
#
# Total GULP energy -356598.862129 kJ/mol
# GULP energy per Si atom -5571.857221 kJ/mol
# Density = 1.993924 g / cm^3
# Si number density = 19.984728 Si / 1000 Ang^3
#
#
#
# Elastic Constant Matrix: (Units=GPa)
#
#
# Indices 1 2 3 4 5 6 
#
# 1 55.9393 2.7134 0.5201 0.0000 0.0000 0.0000
# 2 2.7134 107.5679 66.4200 0.0000 0.0000 0.0000
# 3 0.5201 66.4200 106.1475 0.0000 0.0000 0.0000
# 4 0.0000 0.0000 0.0000 36.7970 0.0000 0.0000
# 5 0.0000 0.0000 0.0000 0.0000 5.4882 0.0000
# 6 0.0000 0.0000 0.0000 0.0000 0.0000 -203.9694
#
#
#
# Elastic Compliance Matrix: (Units=1/GPa)
#
#
# Indices 1 2 3 4 5 6 
#
# 1 0.017905 -0.000648 0.000318 0.000000 0.000000 0.000000
# 2 -0.000648 0.015173 -0.009491 0.000000 0.000000 0.000000
# 3 0.000318 -0.009491 0.015358 0.000000 0.000000 0.000000
# 4 0.000000 0.000000 0.000000 0.027176 0.000000 0.000000
# 5 0.000000 0.000000 0.000000 0.000000 0.182210 0.000000
# 6 0.000000 0.000000 0.000000 0.000000 0.000000 -0.004903
#
#
# Mechanical properties :
#
#
# Convention : Reuss Voigt Hill
#
# Bulk Modulus (GPa) = 34.72977 45.44019 40.08498
# Shear Modulus (GPa) = 17.72036 -19.00344 -0.64154
#
# Velocity S-wave (km/s) = 2.98097 -3.08701 -0.56720
# Velocity P-wave (km/s) = 5.40963 3.17500 4.43536
#
# Compressibility (1/GPa) = 0.02879374
#
# Stress axis : x y z
#
# Youngs Moduli (GPa) = 55.85036 65.90478 65.11126
#
# Poissons Ratio (x) = 0.04269 -0.02068
# Poissons Ratio (y) = 0.03618 0.61799
# Poissons Ratio (z) = -0.01774 0.62552
#
# Static dielectric constant tensor:
#      x y z
#    x 1.553360 0.000000 0.000000 
#    y 0.000000 1.727930 0.000000 
#    z 0.000000 0.000000 1.698610 
# 
# From -- ./inp_files/38526.got.cif
#   From: 2010.05.17/outbox.cif.g08.bks.cpg/sg53_20_cif.got.tgz:38526.got - 2010.06.03 12:45:16.
