data_PCOD9419941
_publ_section_title
;
Structure prediction by ZEFSAII (Michael W. Deem and Ramdas Pophale) SiO2 
 PCOD9419941
Probable space group: P M N A
;
_chemical_formula_sum "Si O2"
_cell_formula_units_Z 20
_cell_length_a 11.252701
_cell_length_b 5.020481
_cell_length_c 16.244152
_cell_angle_alpha 90.000000
_cell_angle_beta 90.000000
_cell_angle_gamma 90.000000
_cell_volume 917.696661
_symmetry_space_group_name_H-M "P M N A"
_symmetry_group_IT_number 53
_symmetry_cell_setting 'orthorhombic'
loop_
_space_group_symop_operation_xyz
x,y,z
1/2-x,-y,1/2+z
x,-y,-z
1/2-x,y,1/2-z
-x,-y,-z
1/2+x,y,1/2-z
-x,y,z
1/2+x,-y,1/2+z
loop_
_atom_site_type_symbol
_atom_site_label
_atom_site_fract_x
_atom_site_fract_y
_atom_site_fract_z
Si Si1 0.000000 0.249634 0.938365
Si Si2 0.859662 0.353362 0.415592
Si Si3 0.244025 0.837693 0.156115
O O1 0.884501 0.238787 0.879781
O O2 0.000000 0.500000 0.000000
O O3 0.000000 0.000000 0.000000
O O4 0.823299 0.500000 0.500000
O O5 0.825542 0.574658 0.348656
O O6 0.000000 0.303702 0.418226
O O7 0.794658 0.077381 0.399228
O O8 0.250000 0.933098 0.250000
#
# Coordination Sequence:
#
# PCOD9419941 Si02
#       3
#     4   8   8
#     4  12  26  46  74 100 141 192 237 284 352 434
#     4  11  24  44  72 100 138 183 232 286 351 428
#     4  12  26  44  70 104 144 181 237 296 353 414
#
# _framework density 21.793693000000001
#
# number of rings (size 3 to 8) (size 9 to 14) (size 15 to 20)
#    0.000    0.400    0.000    9.600    5.600    3.200 
#    0.000    0.000    0.000    0.000    0.000    0.000 
#    0.000    0.000    0.000    0.000    0.000    0.000 
#
# Total GULP energy -112013.167928 kJ/mol
# GULP energy per Si atom -5600.658396 kJ/mol
# Density = 2.174409 g / cm^3
# Si number density = 21.793693 Si / 1000 Ang^3
#
#
#
# Elastic Constant Matrix: (Units=GPa)
#
#
# Indices 1 2 3 4 5 6 
#
# 1 125.1744 53.8478 60.6037 0.0000 0.0000 0.0000
# 2 53.8478 153.7143 28.0448 0.0000 0.0000 0.0000
# 3 60.6037 28.0448 119.2299 0.0000 0.0000 0.0000
# 4 0.0000 0.0000 0.0000 37.7492 0.0000 0.0000
# 5 0.0000 0.0000 0.0000 0.0000 -73.5791 0.0000
# 6 0.0000 0.0000 0.0000 0.0000 0.0000 35.4702
#
#
#
# Elastic Compliance Matrix: (Units=1/GPa)
#
#
# Indices 1 2 3 4 5 6 
#
# 1 0.011945 -0.003215 -0.005316 0.000000 0.000000 0.000000
# 2 -0.003215 0.007662 -0.000168 0.000000 0.000000 0.000000
# 3 -0.005316 -0.000168 0.011129 0.000000 0.000000 0.000000
# 4 0.000000 0.000000 0.000000 0.026491 0.000000 0.000000
# 5 0.000000 0.000000 0.000000 0.000000 -0.013591 0.000000
# 6 0.000000 0.000000 0.000000 0.000000 0.000000 0.028193
#
#
# Mechanical properties :
#
#
# Convention : Reuss Voigt Hill
#
# Bulk Modulus (GPa) = 74.96730 75.90124 75.43427
# Shear Modulus (GPa) = 53.37742 16.96954 35.17348
#
# Velocity S-wave (km/s) = 4.95432 2.79345 4.02173
# Velocity P-wave (km/s) = 8.19758 6.73106 7.50025
#
# Compressibility (1/GPa) = 0.01333915
#
# Stress axis : x y z
#
# Youngs Moduli (GPa) = 83.71463 130.50662 89.85850
#
# Poissons Ratio (x) = 0.41955 0.47765
# Poissons Ratio (y) = 0.26912 0.01512
# Poissons Ratio (z) = 0.44499 0.02196
#
# Static dielectric constant tensor:
#      x y z
#    x 1.778600 0.000000 0.000000 
#    y 0.000000 1.663770 0.000000 
#    z 0.000000 0.000000 1.921200 
# 
# From -- ./inp_files/21086.got.cif
#   From: 2010.05.17/outbox.cif.g08.bks.cpg/sg53_11_cif.got.tgz:21086.got - 2010.06.03 12:45:16.
