data_PCOD9419303
_publ_section_title
;
Structure prediction by ZEFSAII (Michael W. Deem and Ramdas Pophale) SiO2 
 PCOD9419303
Probable space group: P M N A
;
_chemical_formula_sum "Si O2"
_cell_formula_units_Z 40
_cell_length_a 13.537747
_cell_length_b 8.323824
_cell_length_c 14.413626
_cell_angle_alpha 90.000000
_cell_angle_beta 90.000000
_cell_angle_gamma 90.000000
_cell_volume 1624.211314
_symmetry_space_group_name_H-M "P M N A"
_symmetry_group_IT_number 53
_symmetry_cell_setting 'orthorhombic'
loop_
_space_group_symop_operation_xyz
x,y,z
1/2-x,-y,1/2+z
x,-y,-z
1/2-x,y,1/2-z
-x,-y,-z
1/2+x,y,1/2-z
-x,y,z
1/2+x,-y,1/2+z
loop_
_atom_site_type_symbol
_atom_site_label
_atom_site_fract_x
_atom_site_fract_y
_atom_site_fract_z
Si Si1 0.822357 0.330567 0.960046
Si Si2 0.390034 0.671918 0.101333
Si Si3 0.884426 0.497181 0.790442
Si Si4 0.891063 0.027608 0.314173
Si Si5 0.683590 0.164947 0.367049
O O1 0.703364 0.331966 0.965199
O O2 0.850569 0.344958 0.852718
O O3 0.861399 0.500000 0.000000
O O4 0.853904 0.188281 0.027935
O O5 0.500000 0.651994 0.061378
O O6 0.372663 0.542694 0.182701
O O7 0.389045 0.844663 0.152197
O O8 0.829817 0.657549 0.822892
O O9 0.000000 0.522342 0.807428
O O10 0.797687 0.112411 0.362000
O O11 0.873387 0.049287 0.204003
O O12 0.000000 0.094632 0.337266
#
# Coordination Sequence:
#
# PCOD9419303 Si02
#       5
#     8   8   8   8   8
#     4  10  23  38  63  97 127 160 212 263 320 365
#     4  10  23  43  66  92 127 170 214 260 311 379
#     4  10  22  41  67  92 124 170 217 264 314 371
#     4  10  23  42  63  90 127 170 209 251 318 381
#     4  10  23  39  61  98 123 165 208 262 312 373
#
# _framework density 24.627338999999999
#
# number of rings (size 3 to 8) (size 9 to 14) (size 15 to 20)
#    0.000    2.000    0.000    1.200   16.800    6.400 
#    0.000    2.000    0.000    3.600    0.000    0.000 
#    0.000    0.000    0.000    0.000    0.000    0.000 
#
# Total GULP energy -223656.631662 kJ/mol
# GULP energy per Si atom -5591.415792 kJ/mol
# Density = 2.457129 g / cm^3
# Si number density = 24.627339 Si / 1000 Ang^3
#
#
#
# Elastic Constant Matrix: (Units=GPa)
#
#
# Indices 1 2 3 4 5 6 
#
# 1 96.0448 32.2306 -5.3544 0.0000 0.0000 0.0000
# 2 32.2306 102.3815 15.0117 0.0000 0.0000 0.0000
# 3 -5.3544 15.0117 26.9570 0.0000 0.0000 0.0000
# 4 0.0000 0.0000 0.0000 26.4293 0.0000 0.0000
# 5 0.0000 0.0000 0.0000 0.0000 8.9591 0.0000
# 6 0.0000 0.0000 0.0000 0.0000 0.0000 29.9999
#
#
#
# Elastic Compliance Matrix: (Units=1/GPa)
#
#
# Indices 1 2 3 4 5 6 
#
# 1 0.012226 -0.004579 0.004978 0.000000 0.000000 0.000000
# 2 -0.004579 0.012351 -0.007787 0.000000 0.000000 0.000000
# 3 0.004978 -0.007787 0.042421 0.000000 0.000000 0.000000
# 4 0.000000 0.000000 0.000000 0.037837 0.000000 0.000000
# 5 0.000000 0.000000 0.000000 0.000000 0.111618 0.000000
# 6 0.000000 0.000000 0.000000 0.000000 0.000000 0.033333
#
#
# Mechanical properties :
#
#
# Convention : Reuss Voigt Hill
#
# Bulk Modulus (GPa) = 19.14890 34.35102 26.74996
# Shear Modulus (GPa) = 17.73245 25.31070 21.52157
#
# Velocity S-wave (km/s) = 2.68625 3.20933 2.95937
# Velocity P-wave (km/s) = 4.17296 5.26419 4.75001
#
# Compressibility (1/GPa) = 0.05222231
#
# Stress axis : x y z
#
# Youngs Moduli (GPa) = 81.79388 80.96759 23.57300
#
# Poissons Ratio (x) = 0.37073 -0.11735
# Poissons Ratio (y) = 0.37451 0.18357
# Poissons Ratio (z) = -0.40718 0.63051
#
# Static dielectric constant tensor:
#      x y z
#    x 1.936590 0.000000 0.000000 
#    y 0.000000 1.929140 0.000000 
#    z 0.000000 0.000000 1.989760 
# 
# From -- ./inp_files/22398.got.cif
#   From: 2010.05.17/outbox.cif.g08.bks.cpg/sg53_12_cif.got.tgz:22398.got - 2010.06.03 12:45:16.
