data_PCOD9419828
_publ_section_title
;
Structure prediction by ZEFSAII (Michael W. Deem and Ramdas Pophale) SiO2 
 PCOD9419828
Probable space group: P M N A
;
_chemical_formula_sum "Si O2"
_cell_formula_units_Z 40
_cell_length_a 8.575722
_cell_length_b 12.792430
_cell_length_c 18.172460
_cell_angle_alpha 90.000000
_cell_angle_beta 90.000000
_cell_angle_gamma 90.000000
_cell_volume 1993.597429
_symmetry_space_group_name_H-M "P M N A"
_symmetry_group_IT_number 53
_symmetry_cell_setting 'orthorhombic'
loop_
_space_group_symop_operation_xyz
x,y,z
1/2-x,-y,1/2+z
x,-y,-z
1/2-x,y,1/2-z
-x,-y,-z
1/2+x,y,1/2-z
-x,y,z
1/2+x,-y,1/2+z
loop_
_atom_site_type_symbol
_atom_site_label
_atom_site_fract_x
_atom_site_fract_y
_atom_site_fract_z
Si Si1 0.186672 0.484300 0.671505
Si Si2 0.186393 0.671594 0.562793
Si Si3 0.184214 0.282703 0.903323
Si Si4 0.186440 0.852455 0.832816
Si Si5 0.685517 0.079459 0.831658
O O1 0.250000 0.521950 0.750000
O O2 0.227365 0.566939 0.607825
O O3 0.259953 0.372694 0.652273
O O4 0.000000 0.475422 0.674457
O O5 0.269638 0.679856 0.484659
O O6 0.237312 0.768927 0.612964
O O7 0.000000 0.672159 0.551447
O O8 0.269381 0.174599 0.884153
O O9 0.000000 0.267526 0.897097
O O10 0.250000 0.835953 0.750000
O O11 0.000000 0.842693 0.833226
O O12 0.236281 0.970007 0.854337
O O13 0.750000 0.104100 0.750000
O O14 0.500000 0.065729 0.827917
#
# Coordination Sequence:
#
# PCOD9419828 Si02
#       5
#     8   8   8   8   8
#     4  11  24  42  65  91 121 158 202 249 298 357
#     4  11  24  42  63  90 124 161 202 249 303 359
#     4  12  25  41  62  90 124 160 201 249 304 362
#     4  11  22  39  63  92 124 160 204 250 300 356
#     4  11  22  40  64  90 122 160 204 251 301 356
#
# _framework density 20.064230999999999
#
# number of rings (size 3 to 8) (size 9 to 14) (size 15 to 20)
#    0.000    0.800    0.000    9.600    0.000    8.000 
#    0.000    4.000    0.000    0.000    0.000    0.000 
#    0.000    0.000    0.000    0.000    0.000    0.000 
#
# Total GULP energy -223978.857752 kJ/mol
# GULP energy per Si atom -5599.471444 kJ/mol
# Density = 2.001856 g / cm^3
# Si number density = 20.064231 Si / 1000 Ang^3
#
#
#
# Elastic Constant Matrix: (Units=GPa)
#
#
# Indices 1 2 3 4 5 6 
#
# 1 52.6213 -8.1225 -11.6480 0.0000 0.0000 0.0000
# 2 -8.1225 51.1227 1.8653 0.0000 0.0000 0.0000
# 3 -11.6480 1.8653 33.0912 0.0000 0.0000 0.0000
# 4 0.0000 0.0000 0.0000 16.2144 0.0000 0.0000
# 5 0.0000 0.0000 0.0000 0.0000 30.7291 0.0000
# 6 0.0000 0.0000 0.0000 0.0000 0.0000 35.5316
#
#
#
# Elastic Compliance Matrix: (Units=1/GPa)
#
#
# Indices 1 2 3 4 5 6 
#
# 1 0.021084 0.003085 0.007248 0.000000 0.000000 0.000000
# 2 0.003085 0.020053 -0.000044 0.000000 0.000000 0.000000
# 3 0.007248 -0.000044 0.032773 0.000000 0.000000 0.000000
# 4 0.000000 0.000000 0.000000 0.061673 0.000000 0.000000
# 5 0.000000 0.000000 0.000000 0.000000 0.032542 0.000000
# 6 0.000000 0.000000 0.000000 0.000000 0.000000 0.028144
#
#
# Mechanical properties :
#
#
# Convention : Reuss Voigt Hill
#
# Bulk Modulus (GPa) = 10.58339 11.22500 10.90419
# Shear Modulus (GPa) = 24.13267 26.81107 25.47187
#
# Velocity S-wave (km/s) = 3.47186 3.65946 3.56689
# Velocity P-wave (km/s) = 4.62147 4.84378 4.73393
#
# Compressibility (1/GPa) = 0.09448771
#
# Stress axis : x y z
#
# Youngs Moduli (GPa) = 47.42871 49.86883 30.51280
#
# Poissons Ratio (x) = -0.15387 -0.22115
# Poissons Ratio (y) = -0.14634 0.00135
# Poissons Ratio (z) = -0.34375 0.00221
#
# Static dielectric constant tensor:
#      x y z
#    x 1.661660 0.000000 0.000000 
#    y 0.000000 1.690600 0.000000 
#    z 0.000000 0.000000 1.696170 
# 
# From -- ./inp_files/25838.got.cif
#   From: 2010.05.17/outbox.cif.g08.bks.cpg/sg53_13_cif.got.tgz:25838.got - 2010.06.03 12:45:16.
