data_PCOD9419255
_publ_section_title
;
Structure prediction by ZEFSAII (Michael W. Deem and Ramdas Pophale) SiO2 
 PCOD9419255
Probable space group: P M N A
;
_chemical_formula_sum "Si O2"
_cell_formula_units_Z 20
_cell_length_a 31.474571
_cell_length_b 4.929130
_cell_length_c 5.192316
_cell_angle_alpha 90.000000
_cell_angle_beta 90.000000
_cell_angle_gamma 90.000000
_cell_volume 805.547598
_symmetry_space_group_name_H-M "P M N A"
_symmetry_group_IT_number 53
_symmetry_cell_setting 'orthorhombic'
loop_
_space_group_symop_operation_xyz
x,y,z
1/2-x,-y,1/2+z
x,-y,-z
1/2-x,y,1/2-z
-x,-y,-z
1/2+x,y,1/2-z
-x,y,z
1/2+x,-y,1/2+z
loop_
_atom_site_type_symbol
_atom_site_label
_atom_site_fract_x
_atom_site_fract_y
_atom_site_fract_z
Si Si1 0.091997 0.308321 0.252868
Si Si2 0.777864 0.500000 0.000000
Si Si3 0.500000 0.690504 0.750208
Si Si4 0.337579 0.000000 0.500000
O O1 0.095698 0.500000 0.500000
O O2 0.130532 0.102676 0.220750
O O3 0.045591 0.164867 0.253121
O O4 0.093667 0.500000 0.000000
O O5 0.750000 0.572743 0.750000
O O6 0.807714 0.751214 0.075147
O O7 0.500000 0.500000 0.500000
O O8 0.500000 0.500000 0.000000
#
# Coordination Sequence:
#
# PCOD9419255 Si02
#       4
#     8   4   4   4
#     4  10  22  40  68 106 147 192 242 293 351 432
#     4  12  30  52  76 105 142 183 238 310 390 458
#     4   8  16  35  60  96 147 193 233 286 348 412
#     4  12  26  49  78 108 142 190 244 307 372 448
#
# _framework density 24.827829999999999
#
# number of rings (size 3 to 8) (size 9 to 14) (size 15 to 20)
#    0.000    1.600    2.000    1.200    2.800    5.600 
#    0.000    0.000    0.000   14.400    0.000    0.000 
#    0.000    0.000    0.000    0.000    0.000    0.000 
#
# Total GULP energy -112085.085271 kJ/mol
# GULP energy per Si atom -5604.254264 kJ/mol
# Density = 2.477132 g / cm^3
# Si number density = 24.827830 Si / 1000 Ang^3
#
#
#
# Elastic Constant Matrix: (Units=GPa)
#
#
# Indices 1 2 3 4 5 6 
#
# 1 204.7440 67.5071 46.0267 0.0000 0.0000 0.0000
# 2 67.5071 109.1392 40.9126 0.0000 0.0000 0.0000
# 3 46.0267 40.9126 202.5809 0.0000 0.0000 0.0000
# 4 0.0000 0.0000 0.0000 50.3715 0.0000 0.0000
# 5 0.0000 0.0000 0.0000 0.0000 31.5759 0.0000
# 6 0.0000 0.0000 0.0000 0.0000 0.0000 111.1035
#
#
#
# Elastic Compliance Matrix: (Units=1/GPa)
#
#
# Indices 1 2 3 4 5 6 
#
# 1 0.006223 -0.003591 -0.000689 0.000000 0.000000 0.000000
# 2 -0.003591 0.011985 -0.001605 0.000000 0.000000 0.000000
# 3 -0.000689 -0.001605 0.005417 0.000000 0.000000 0.000000
# 4 0.000000 0.000000 0.000000 0.019852 0.000000 0.000000
# 5 0.000000 0.000000 0.000000 0.000000 0.031670 0.000000
# 6 0.000000 0.000000 0.000000 0.000000 0.000000 0.009001
#
#
# Mechanical properties :
#
#
# Convention : Reuss Voigt Hill
#
# Bulk Modulus (GPa) = 84.34161 91.70632 88.02397
# Shear Modulus (GPa) = 50.06573 62.74469 56.40521
#
# Velocity S-wave (km/s) = 4.49544 5.03257 4.77157
# Velocity P-wave (km/s) = 7.80958 8.41345 8.11713
#
# Compressibility (1/GPa) = 0.01185654
#
# Stress axis : x y z
#
# Youngs Moduli (GPa) = 160.69508 83.43535 184.60991
#
# Poissons Ratio (x) = 0.29962 0.12713
# Poissons Ratio (y) = 0.57706 0.29623
# Poissons Ratio (z) = 0.11066 0.13388
#
# Static dielectric constant tensor:
#      x y z
#    x 1.982550 0.000000 0.000000 
#    y 0.000000 2.062530 0.000000 
#    z 0.000000 0.000000 1.979830 
# 
# From -- ./inp_files/4739.got.cif
#   From: 2010.05.17/outbox.cif.g08.bks.cpg/sg53_3_cif.got.tgz:4739.got - 2010.06.03 12:45:16.
