data_PCOD9419615
_publ_section_title
;
Structure prediction by ZEFSAII (Michael W. Deem and Ramdas Pophale) SiO2 
 PCOD9419615
Probable space group: P M N A
;
_chemical_formula_sum "Si O2"
_cell_formula_units_Z 56
_cell_length_a 21.908071
_cell_length_b 8.988926
_cell_length_c 14.045346
_cell_angle_alpha 90.000000
_cell_angle_beta 90.000000
_cell_angle_gamma 90.000000
_cell_volume 2765.950395
_symmetry_space_group_name_H-M "P M N A"
_symmetry_group_IT_number 53
_symmetry_cell_setting 'orthorhombic'
loop_
_space_group_symop_operation_xyz
x,y,z
1/2-x,-y,1/2+z
x,-y,-z
1/2-x,y,1/2-z
-x,-y,-z
1/2+x,y,1/2-z
-x,y,z
1/2+x,-y,1/2+z
loop_
_atom_site_type_symbol
_atom_site_label
_atom_site_fract_x
_atom_site_fract_y
_atom_site_fract_z
Si Si1 0.620617 0.454123 0.902442
Si Si2 0.838021 0.342284 0.037133
Si Si3 0.430155 0.383796 0.286238
Si Si4 0.224261 0.667953 0.656129
Si Si5 0.868311 0.908884 0.737448
Si Si6 0.189975 0.903419 0.094216
Si Si7 0.668279 0.117459 0.911914
O O1 0.590774 0.504681 0.800162
O O2 0.680350 0.559152 0.899405
O O3 0.641699 0.284044 0.917304
O O4 0.585615 0.500000 0.000000
O O5 0.889448 0.376554 0.116851
O O6 0.779886 0.278130 0.093107
O O7 0.817190 0.500000 0.000000
O O8 0.847456 0.240477 0.944196
O O9 0.500000 0.415173 0.309005
O O10 0.420671 0.213305 0.250282
O O11 0.250000 0.586684 0.750000
O O12 0.186824 0.807114 0.696389
O O13 0.846201 0.998881 0.829449
O O14 0.876917 0.035412 0.660598
O O15 0.260502 0.868670 0.122290
O O16 0.193561 0.000000 0.000000
O O17 0.669498 0.000000 0.000000
#
# Coordination Sequence:
#
# PCOD9419615 Si02
#       7
#     8   8   8   8   8   8   8
#     4  11  23  40  66  98 132 168 217 274 344 409
#     4  12  24  39  65  96 134 174 222 271 332 402
#     4  11  26  48  67  85 127 186 240 279 319 379
#     4  11  18  37  62  94 136 175 204 268 339 420
#     4  11  22  38  64  94 133 169 216 266 337 395
#     4  11  20  35  60  98 135 167 198 253 333 414
#     4  11  22  35  62 100 136 161 193 264 350 422
#
# _framework density 20.246205
#
# number of rings (size 3 to 8) (size 9 to 14) (size 15 to 20)
#    0.000    0.857    4.286    6.857    2.000    1.714 
#    0.000    2.143    0.000    1.714    0.000    0.000 
#    0.000    0.000    0.000    0.000    0.000    0.000 
#
# Total GULP energy -311978.023537 kJ/mol
# GULP energy per Si atom -5571.036135 kJ/mol
# Density = 2.020012 g / cm^3
# Si number density = 20.246205 Si / 1000 Ang^3
#
#
#
# Elastic Constant Matrix: (Units=GPa)
#
#
# Indices 1 2 3 4 5 6 
#
# 1 60.3399 6.4347 8.4364 0.0000 0.0000 0.0000
# 2 6.4347 125.6713 43.0302 0.0000 0.0000 0.0000
# 3 8.4364 43.0302 79.3762 0.0000 0.0000 0.0000
# 4 0.0000 0.0000 0.0000 44.1736 0.0000 0.0000
# 5 0.0000 0.0000 0.0000 0.0000 -146.0530 0.0000
# 6 0.0000 0.0000 0.0000 0.0000 0.0000 8.5204
#
#
#
# Elastic Compliance Matrix: (Units=1/GPa)
#
#
# Indices 1 2 3 4 5 6 
#
# 1 0.016832 -0.000306 -0.001623 0.000000 0.000000 0.000000
# 2 -0.000306 0.009776 -0.005267 0.000000 0.000000 0.000000
# 3 -0.001623 -0.005267 0.015626 0.000000 0.000000 0.000000
# 4 0.000000 0.000000 0.000000 0.022638 0.000000 0.000000
# 5 0.000000 0.000000 0.000000 0.000000 -0.006847 0.000000
# 6 0.000000 0.000000 0.000000 0.000000 0.000000 0.117366
#
#
# Mechanical properties :
#
#
# Convention : Reuss Voigt Hill
#
# Bulk Modulus (GPa) = 35.91697 42.35444 39.13571
# Shear Modulus (GPa) = 25.11732 -4.83939 10.13896
#
# Velocity S-wave (km/s) = 3.52603 -1.54773 2.24025
# Velocity P-wave (km/s) = 5.86138 4.21559 5.10524
#
# Compressibility (1/GPa) = 0.02784199
#
# Stress axis : x y z
#
# Youngs Moduli (GPa) = 59.40945 102.28615 63.99513
#
# Poissons Ratio (x) = 0.03131 0.10387
# Poissons Ratio (y) = 0.01819 0.33708
# Poissons Ratio (z) = 0.09642 0.53878
#
# Static dielectric constant tensor:
#      x y z
#    x 1.711210 0.000000 0.000000 
#    y 0.000000 1.806070 0.000000 
#    z 0.000000 0.000000 1.861310 
# 
# From -- ./inp_files/24347.got.cif
#   From: 2010.05.17/outbox.cif.g08.bks.cpg/sg53_13_cif.got.tgz:24347.got - 2010.06.03 12:45:16.
