data_PCOD9419353
_publ_section_title
;
Structure prediction by ZEFSAII (Michael W. Deem and Ramdas Pophale) SiO2 
 PCOD9419353
Probable space group: P M N A
;
_chemical_formula_sum "Si O2"
_cell_formula_units_Z 28
_cell_length_a 14.255900
_cell_length_b 8.033572
_cell_length_c 11.651143
_cell_angle_alpha 90.000000
_cell_angle_beta 90.000000
_cell_angle_gamma 90.000000
_cell_volume 1334.356462
_symmetry_space_group_name_H-M "P M N A"
_symmetry_group_IT_number 53
_symmetry_cell_setting 'orthorhombic'
loop_
_space_group_symop_operation_xyz
x,y,z
1/2-x,-y,1/2+z
x,-y,-z
1/2-x,y,1/2-z
-x,-y,-z
1/2+x,y,1/2-z
-x,y,z
1/2+x,-y,1/2+z
loop_
_atom_site_type_symbol
_atom_site_label
_atom_site_fract_x
_atom_site_fract_y
_atom_site_fract_z
Si Si1 0.347924 0.000000 0.000000
Si Si2 0.293903 0.701629 0.865887
Si Si3 0.000000 0.667752 0.120889
Si Si4 0.500000 0.031668 0.799632
Si Si5 0.500000 0.344099 0.217484
Si Si6 0.842095 0.500000 0.000000
O O1 0.412533 0.962920 0.111567
O O2 0.290809 0.162267 0.034272
O O3 0.250000 0.776333 0.750000
O O4 0.402038 0.646120 0.851861
O O5 0.225492 0.552119 0.897320
O O6 0.000000 0.493659 0.192745
O O7 0.909123 0.649591 0.040578
O O8 0.000000 0.821254 0.207739
O O9 0.500000 0.848705 0.740858
#
# Coordination Sequence:
#
# PCOD9419353 Si02
#       6
#     4   8   4   4   4   4
#     4   9  22  40  64  97 128 168 226 267 326 395
#     4  11  23  41  63  95 132 164 221 272 320 389
#     4  11  23  45  67  92 143 172 215 271 325 394
#     4   9  21  43  67  98 125 172 225 267 327 390
#     4  10  22  43  67  90 132 168 210 285 313 374
#     4  11  26  41  62 104 126 177 224 253 334 406
#
# _framework density 20.983898
#
# number of rings (size 3 to 8) (size 9 to 14) (size 15 to 20)
#    0.000    1.714    2.857    0.857    4.000    5.143 
#    0.000    1.429    0.000    0.000    0.000    0.000 
#    0.000    0.000    0.000    0.000    0.000    0.000 
#
# Total GULP energy -156231.251257 kJ/mol
# GULP energy per Si atom -5579.687545 kJ/mol
# Density = 2.093614 g / cm^3
# Si number density = 20.983898 Si / 1000 Ang^3
#
#
#
# Elastic Constant Matrix: (Units=GPa)
#
#
# Indices 1 2 3 4 5 6 
#
# 1 141.1342 26.8681 20.5921 0.0000 0.0000 0.0000
# 2 26.8681 70.6476 25.6174 0.0000 0.0000 0.0000
# 3 20.5921 25.6174 41.1153 0.0000 0.0000 0.0000
# 4 0.0000 0.0000 0.0000 51.2915 0.0000 0.0000
# 5 0.0000 0.0000 0.0000 0.0000 14.2459 0.0000
# 6 0.0000 0.0000 0.0000 0.0000 0.0000 12.5408
#
#
#
# Elastic Compliance Matrix: (Units=1/GPa)
#
#
# Indices 1 2 3 4 5 6 
#
# 1 0.007861 -0.002018 -0.002680 0.000000 0.000000 0.000000
# 2 -0.002018 0.018804 -0.010705 0.000000 0.000000 0.000000
# 3 -0.002680 -0.010705 0.032334 0.000000 0.000000 0.000000
# 4 0.000000 0.000000 0.000000 0.019496 0.000000 0.000000
# 5 0.000000 0.000000 0.000000 0.000000 0.070195 0.000000
# 6 0.000000 0.000000 0.000000 0.000000 0.000000 0.079740
#
#
# Mechanical properties :
#
#
# Convention : Reuss Voigt Hill
#
# Bulk Modulus (GPa) = 35.47003 44.33913 39.90458
# Shear Modulus (GPa) = 18.61270 27.60361 23.10815
#
# Velocity S-wave (km/s) = 2.98148 3.63087 3.32208
# Velocity P-wave (km/s) = 5.36586 6.22524 5.81146
#
# Compressibility (1/GPa) = 0.02819282
#
# Stress axis : x y z
#
# Youngs Moduli (GPa) = 127.21738 53.18002 30.92715
#
# Poissons Ratio (x) = 0.10731 0.08287
# Poissons Ratio (y) = 0.25670 0.33109
# Poissons Ratio (z) = 0.34090 0.56932
#
# Static dielectric constant tensor:
#      x y z
#    x 1.779300 0.000000 0.000000 
#    y 0.000000 1.737940 0.000000 
#    z 0.000000 0.000000 1.779920 
# 
# From -- ./inp_files/15367.got.cif
#   From: 2010.05.17/outbox.cif.g08.bks.cpg/sg53_8_cif.got.tgz:15367.got - 2010.06.03 12:45:16.
