data_PCOD9419557
_publ_section_title
;
Structure prediction by ZEFSAII (Michael W. Deem and Ramdas Pophale) SiO2 
 PCOD9419557
Probable space group: P M N A
;
_chemical_formula_sum "Si O2"
_cell_formula_units_Z 48
_cell_length_a 16.389199
_cell_length_b 9.433689
_cell_length_c 12.620939
_cell_angle_alpha 90.000000
_cell_angle_beta 90.000000
_cell_angle_gamma 90.000000
_cell_volume 1951.331031
_symmetry_space_group_name_H-M "P M N A"
_symmetry_group_IT_number 53
_symmetry_cell_setting 'orthorhombic'
loop_
_space_group_symop_operation_xyz
x,y,z
1/2-x,-y,1/2+z
x,-y,-z
1/2-x,y,1/2-z
-x,-y,-z
1/2+x,y,1/2-z
-x,y,z
1/2+x,-y,1/2+z
loop_
_atom_site_type_symbol
_atom_site_label
_atom_site_fract_x
_atom_site_fract_y
_atom_site_fract_z
Si Si1 0.302805 0.137615 0.462154
Si Si2 0.093190 0.684269 0.130772
Si Si3 0.819781 0.641833 0.536978
Si Si4 0.903325 0.903838 0.770723
Si Si5 0.652569 0.581988 0.748770
Si Si6 0.594769 0.163593 0.860118
O O1 0.347014 0.236844 0.549192
O O2 0.241472 0.247913 0.408215
O O3 0.253669 0.000000 0.500000
O O4 0.365490 0.941453 0.615947
O O5 0.114328 0.522991 0.162672
O O6 0.098714 0.759743 0.245717
O O7 0.000000 0.695135 0.092037
O O8 0.773954 0.500000 0.500000
O O9 0.876277 0.570314 0.627320
O O10 0.858815 0.738862 0.445330
O O11 0.877040 0.741295 0.768464
O O12 0.000000 0.917630 0.773090
O O13 0.875671 0.005706 0.674528
O O14 0.750000 0.550018 0.750000
O O15 0.500000 0.153576 0.894385
#
# Coordination Sequence:
#
# PCOD9419557 Si02
#       6
#     8   8   8   8   8   8
#     4  12  26  44  73 105 141 189 242 306 374 443
#     4  11  24  44  72 104 138 186 241 297 364 438
#     4  12  26  46  71 103 142 189 244 305 372 443
#     4  11  25  46  70 104 145 186 238 302 368 438
#     4  12  25  45  69 102 146 187 235 298 366 433
#     4  10  24  44  70 103 139 185 241 297 363 441
#
# _framework density 24.598595
#
# number of rings (size 3 to 8) (size 9 to 14) (size 15 to 20)
#    0.000    0.667    5.000    2.000    2.333    2.333 
#    0.000    3.333    0.000    0.000    0.000    0.000 
#    0.000    0.000    0.000    0.000    0.000    0.000 
#
# Total GULP energy -267798.066889 kJ/mol
# GULP energy per Si atom -5579.126394 kJ/mol
# Density = 2.454261 g / cm^3
# Si number density = 24.598595 Si / 1000 Ang^3
#
#
#
# Elastic Constant Matrix: (Units=GPa)
#
#
# Indices 1 2 3 4 5 6 
#
# 1 58.7918 35.2033 35.6551 0.0000 0.0000 0.0000
# 2 35.2033 182.6291 33.5722 0.0000 0.0000 0.0000
# 3 35.6551 33.5722 92.2571 0.0000 0.0000 0.0000
# 4 0.0000 0.0000 0.0000 40.5669 0.0000 0.0000
# 5 0.0000 0.0000 0.0000 0.0000 17.1126 0.0000
# 6 0.0000 0.0000 0.0000 0.0000 0.0000 24.0719
#
#
#
# Elastic Compliance Matrix: (Units=1/GPa)
#
#
# Indices 1 2 3 4 5 6 
#
# 1 0.023746 -0.003097 -0.008050 0.000000 0.000000 0.000000
# 2 -0.003097 0.006272 -0.001085 0.000000 0.000000 0.000000
# 3 -0.008050 -0.001085 0.014345 0.000000 0.000000 0.000000
# 4 0.000000 0.000000 0.000000 0.024651 0.000000 0.000000
# 5 0.000000 0.000000 0.000000 0.000000 0.058437 0.000000
# 6 0.000000 0.000000 0.000000 0.000000 0.000000 0.041542
#
#
# Mechanical properties :
#
#
# Convention : Reuss Voigt Hill
#
# Bulk Modulus (GPa) = 50.25681 60.28213 55.26947
# Shear Modulus (GPa) = 24.98860 31.63342 28.31101
#
# Velocity S-wave (km/s) = 3.19071 3.58995 3.39620
# Velocity P-wave (km/s) = 5.83517 6.46090 6.15599
#
# Compressibility (1/GPa) = 0.01989780
#
# Stress axis : x y z
#
# Youngs Moduli (GPa) = 42.11249 159.43502 69.70883
#
# Poissons Ratio (x) = 0.49384 0.56116
# Poissons Ratio (y) = 0.13044 0.07566
# Poissons Ratio (z) = 0.33901 0.17304
#
# Static dielectric constant tensor:
#      x y z
#    x 1.921470 0.000000 0.000000 
#    y 0.000000 2.018390 0.000000 
#    z 0.000000 0.000000 2.226570 
# 
# From -- ./inp_files/23658.got.cif
#   From: 2010.05.17/outbox.cif.g08.bks.cpg/sg53_12_cif.got.tgz:23658.got - 2010.06.03 12:45:16.
