data_PCOD9419781
_publ_section_title
;
Structure prediction by ZEFSAII (Michael W. Deem and Ramdas Pophale) SiO2 
 PCOD9419781
Probable space group: P M N A
;
_chemical_formula_sum "Si O2"
_cell_formula_units_Z 28
_cell_length_a 14.820875
_cell_length_b 7.302440
_cell_length_c 9.944296
_cell_angle_alpha 90.000000
_cell_angle_beta 90.000000
_cell_angle_gamma 90.000000
_cell_volume 1076.256741
_symmetry_space_group_name_H-M "P M N A"
_symmetry_group_IT_number 53
_symmetry_cell_setting 'orthorhombic'
loop_
_space_group_symop_operation_xyz
x,y,z
1/2-x,-y,1/2+z
x,-y,-z
1/2-x,y,1/2-z
-x,-y,-z
1/2+x,y,1/2-z
-x,y,z
1/2+x,-y,1/2+z
loop_
_atom_site_type_symbol
_atom_site_label
_atom_site_fract_x
_atom_site_fract_y
_atom_site_fract_z
Si Si1 0.597197 0.785759 0.030639
Si Si2 0.604444 0.275310 0.400354
Si Si3 0.246773 0.500000 0.000000
Si Si4 0.147591 0.113358 0.803292
O O1 0.500000 0.728766 0.972161
O O2 0.683283 0.667372 0.993997
O O3 0.593104 0.778472 0.191656
O O4 0.611973 0.000000 0.000000
O O5 0.500000 0.329712 0.395256
O O6 0.675272 0.440268 0.383393
O O7 0.628657 0.193569 0.549136
O O8 0.620338 0.100838 0.305647
O O9 0.250000 0.124466 0.750000
#
# Coordination Sequence:
#
# PCOD9419781 Si02
#       4
#     8   8   4   8
#     4  11  24  46  72 104 145 186 235 297 364 434
#     4  11  24  44  72 105 142 187 241 293 354 428
#     4  12  24  44  70 106 140 188 240 292 354 424
#     4  11  21  44  74 100 140 189 234 291 357 423
#
# _framework density 26.016095
#
# number of rings (size 3 to 8) (size 9 to 14) (size 15 to 20)
#    0.000    0.857    2.857    6.000    0.000    0.000 
#   15.429    0.000    0.000    0.000    0.000    0.000 
#    0.000    0.000    0.000    0.000    0.000    0.000 
#
# Total GULP energy -156606.257025 kJ/mol
# GULP energy per Si atom -5593.080608 kJ/mol
# Density = 2.595688 g / cm^3
# Si number density = 26.016095 Si / 1000 Ang^3
#
#
#
# Elastic Constant Matrix: (Units=GPa)
#
#
# Indices 1 2 3 4 5 6 
#
# 1 300.5975 70.6311 15.4473 0.0000 0.0000 0.0000
# 2 70.6311 104.1437 -16.2092 0.0000 0.0000 0.0000
# 3 15.4473 -16.2092 60.5316 0.0000 0.0000 0.0000
# 4 0.0000 0.0000 0.0000 20.8691 0.0000 0.0000
# 5 0.0000 0.0000 0.0000 0.0000 11.7011 0.0000
# 6 0.0000 0.0000 0.0000 0.0000 0.0000 1.1578
#
#
#
# Elastic Compliance Matrix: (Units=1/GPa)
#
#
# Indices 1 2 3 4 5 6 
#
# 1 0.004156 -0.003113 -0.001894 0.000000 0.000000 0.000000
# 2 -0.003113 0.012352 0.004102 0.000000 0.000000 0.000000
# 3 -0.001894 0.004102 0.018102 0.000000 0.000000 0.000000
# 4 0.000000 0.000000 0.000000 0.047918 0.000000 0.000000
# 5 0.000000 0.000000 0.000000 0.000000 0.085462 0.000000
# 6 0.000000 0.000000 0.000000 0.000000 0.000000 0.863716
#
#
# Mechanical properties :
#
#
# Convention : Reuss Voigt Hill
#
# Bulk Modulus (GPa) = 30.48850 67.22344 48.85597
# Shear Modulus (GPa) = 4.78721 33.10584 18.94653
#
# Velocity S-wave (km/s) = 1.35797 3.57110 2.70156
# Velocity P-wave (km/s) = 3.76873 6.54973 5.34333
#
# Compressibility (1/GPa) = 0.03279925
#
# Stress axis : x y z
#
# Youngs Moduli (GPa) = 240.64331 80.95908 55.24217
#
# Poissons Ratio (x) = 0.25204 0.10463
# Poissons Ratio (y) = 0.74915 -0.22661
# Poissons Ratio (z) = 0.45580 -0.33210
#
# Static dielectric constant tensor:
#      x y z
#    x 2.039330 0.000000 0.000000 
#    y 0.000000 2.126300 0.000000 
#    z 0.000000 0.000000 2.102670 
# 
# From -- ./inp_files/15296.got.cif
#   From: 2010.05.17/outbox.cif.g08.bks.cpg/sg53_8_cif.got.tgz:15296.got - 2010.06.03 12:45:16.
