data_PCOD9419365
_publ_section_title
;
Structure prediction by ZEFSAII (Michael W. Deem and Ramdas Pophale) SiO2 
 PCOD9419365
Probable space group: P M N A
;
_chemical_formula_sum "Si O2"
_cell_formula_units_Z 48
_cell_length_a 18.194448
_cell_length_b 14.139064
_cell_length_c 8.881212
_cell_angle_alpha 90.000000
_cell_angle_beta 90.000000
_cell_angle_gamma 90.000000
_cell_volume 2284.713677
_symmetry_space_group_name_H-M "P M N A"
_symmetry_group_IT_number 53
_symmetry_cell_setting 'orthorhombic'
loop_
_space_group_symop_operation_xyz
x,y,z
1/2-x,-y,1/2+z
x,-y,-z
1/2-x,y,1/2-z
-x,-y,-z
1/2+x,y,1/2-z
-x,y,z
1/2+x,-y,1/2+z
loop_
_atom_site_type_symbol
_atom_site_label
_atom_site_fract_x
_atom_site_fract_y
_atom_site_fract_z
Si Si1 0.331832 0.994345 0.819622
Si Si2 0.418627 0.686989 0.121441
Si Si3 0.307736 0.760936 0.617071
Si Si4 0.583064 0.798230 0.819545
Si Si5 0.411634 0.157843 0.631703
Si Si6 0.269963 0.598211 0.075482
O O1 0.250000 0.998857 0.750000
O O2 0.381053 0.075574 0.741020
O O3 0.375323 0.103445 0.203046
O O4 0.324572 0.000000 0.000000
O O5 0.500000 0.646104 0.121986
O O6 0.406309 0.743347 0.276643
O O7 0.357135 0.613251 0.078028
O O8 0.415237 0.767135 0.991852
O O9 0.250000 0.791016 0.750000
O O10 0.374680 0.721716 0.717960
O O11 0.351903 0.831943 0.504060
O O12 0.266167 0.685182 0.514989
O O13 0.500000 0.807624 0.770186
O O14 0.500000 0.143453 0.596927
O O15 0.250000 0.601395 0.250000
O O16 0.248290 0.500000 0.000000
#
# Coordination Sequence:
#
# PCOD9419365 Si02
#       6
#     8   8   8   8   8   8
#     4  12  28  42  66 103 145 189 246 297 348 408
#     4  10  22  43  73 102 137 183 229 283 348 415
#     4  12  25  43  72 100 141 181 234 285 349 414
#     4  11  24  43  68 100 139 187 237 289 344 409
#     4  11  25  45  72 102 141 191 239 291 350 414
#     4  12  26  46  75 104 137 176 226 288 355 428
#
# _framework density 21.009197
#
# number of rings (size 3 to 8) (size 9 to 14) (size 15 to 20)
#    0.000    0.667    5.000    2.000    7.000    1.000 
#    0.000    1.667    0.000    2.500    0.000    0.000 
#    0.000    0.000    0.000    0.000    0.000    0.000 
#
# Total GULP energy -267792.907126 kJ/mol
# GULP energy per Si atom -5579.018898 kJ/mol
# Density = 2.096138 g / cm^3
# Si number density = 21.009197 Si / 1000 Ang^3
#
#
#
# Elastic Constant Matrix: (Units=GPa)
#
#
# Indices 1 2 3 4 5 6 
#
# 1 168.4223 39.9963 63.3620 0.0000 0.0000 0.0000
# 2 39.9963 37.3327 30.8007 0.0000 0.0000 0.0000
# 3 63.3620 30.8007 160.3885 0.0000 0.0000 0.0000
# 4 0.0000 0.0000 0.0000 23.5344 0.0000 0.0000
# 5 0.0000 0.0000 0.0000 0.0000 30.1306 0.0000
# 6 0.0000 0.0000 0.0000 0.0000 0.0000 144.3045
#
#
#
# Elastic Compliance Matrix: (Units=1/GPa)
#
#
# Indices 1 2 3 4 5 6 
#
# 1 0.008422 -0.007459 -0.001894 0.000000 0.000000 0.000000
# 2 -0.007459 0.038436 -0.004434 0.000000 0.000000 0.000000
# 3 -0.001894 -0.004434 0.007835 0.000000 0.000000 0.000000
# 4 0.000000 0.000000 0.000000 0.042491 0.000000 0.000000
# 5 0.000000 0.000000 0.000000 0.000000 0.033189 0.000000
# 6 0.000000 0.000000 0.000000 0.000000 0.000000 0.006930
#
#
# Mechanical properties :
#
#
# Convention : Reuss Voigt Hill
#
# Bulk Modulus (GPa) = 36.87835 70.49572 53.68704
# Shear Modulus (GPa) = 28.74921 55.05952 41.90436
#
# Velocity S-wave (km/s) = 3.70322 5.12486 4.47091
# Velocity P-wave (km/s) = 5.98971 8.28532 7.22922
#
# Compressibility (1/GPa) = 0.02711618
#
# Stress axis : x y z
#
# Youngs Moduli (GPa) = 118.74185 26.01707 127.63487
#
# Poissons Ratio (x) = 0.19407 0.24180
# Poissons Ratio (y) = 0.88575 0.56598
# Poissons Ratio (z) = 0.22496 0.11537
#
# Static dielectric constant tensor:
#      x y z
#    x 1.818870 0.000000 0.000000 
#    y 0.000000 1.745980 0.000000 
#    z 0.000000 0.000000 1.844030 
# 
# From -- ./inp_files/9938.got.cif
#   From: 2010.05.17/outbox.cif.g08.bks.cpg/sg53_5_cif.got.tgz:9938.got - 2010.06.03 12:45:16.
