data_PCOD9419963
_publ_section_title
;
Structure prediction by ZEFSAII (Michael W. Deem and Ramdas Pophale) SiO2 
 PCOD9419963
Probable space group: P M N A
;
_chemical_formula_sum "Si O2"
_cell_formula_units_Z 24
_cell_length_a 19.673149
_cell_length_b 8.258307
_cell_length_c 7.144135
_cell_angle_alpha 90.000000
_cell_angle_beta 90.000000
_cell_angle_gamma 90.000000
_cell_volume 1160.685496
_symmetry_space_group_name_H-M "P M N A"
_symmetry_group_IT_number 53
_symmetry_cell_setting 'orthorhombic'
loop_
_space_group_symop_operation_xyz
x,y,z
1/2-x,-y,1/2+z
x,-y,-z
1/2-x,y,1/2-z
-x,-y,-z
1/2+x,y,1/2-z
-x,y,z
1/2+x,-y,1/2+z
loop_
_atom_site_type_symbol
_atom_site_label
_atom_site_fract_x
_atom_site_fract_y
_atom_site_fract_z
Si Si1 0.694756 0.675994 0.087600
Si Si2 0.134062 0.000000 0.000000
Si Si3 0.080075 0.662309 0.116563
Si Si4 0.250000 0.103763 0.250000
O O1 0.750000 0.686186 0.250000
O O2 0.622054 0.684189 0.191548
O O3 0.698497 0.500000 0.000000
O O4 0.718540 0.794398 0.921621
O O5 0.093741 0.830836 0.005407
O O6 0.185684 0.005742 0.174301
O O7 0.000000 0.644630 0.150952
O O8 0.102560 0.500000 0.000000
#
# Coordination Sequence:
#
# PCOD9419963 Si02
#       4
#     8   4   8   4
#     4  12  22  42  71 105 138 183 232 290 348 411
#     4  12  23  44  68 104 139 184 230 296 349 408
#     4  11  25  46  70 102 143 186 235 288 349 421
#     4  12  24  40  70 104 144 174 234 298 344 412
#
# _framework density 20.677434999999999
#
# number of rings (size 3 to 8) (size 9 to 14) (size 15 to 20)
#    0.000    0.333    5.000    5.500    0.000    0.667 
#    0.000    5.000    0.000    0.000    0.000    0.000 
#    0.000    0.000    0.000    0.000    0.000    0.000 
#
# Total GULP energy -134081.130494 kJ/mol
# GULP energy per Si atom -5586.713771 kJ/mol
# Density = 2.063037 g / cm^3
# Si number density = 20.677435 Si / 1000 Ang^3
#
#
#
# Elastic Constant Matrix: (Units=GPa)
#
#
# Indices 1 2 3 4 5 6 
#
# 1 114.0653 38.5824 53.5811 0.0000 0.0000 0.0000
# 2 38.5824 154.1225 45.2621 0.0000 0.0000 0.0000
# 3 53.5811 45.2621 114.8455 0.0000 0.0000 0.0000
# 4 0.0000 0.0000 0.0000 43.9082 0.0000 0.0000
# 5 0.0000 0.0000 0.0000 0.0000 31.8999 0.0000
# 6 0.0000 0.0000 0.0000 0.0000 0.0000 31.7733
#
#
#
# Elastic Compliance Matrix: (Units=1/GPa)
#
#
# Indices 1 2 3 4 5 6 
#
# 1 0.011517 -0.001476 -0.004792 0.000000 0.000000 0.000000
# 2 -0.001476 0.007527 -0.002278 0.000000 0.000000 0.000000
# 3 -0.004792 -0.002278 0.011841 0.000000 0.000000 0.000000
# 4 0.000000 0.000000 0.000000 0.022775 0.000000 0.000000
# 5 0.000000 0.000000 0.000000 0.000000 0.031348 0.000000
# 6 0.000000 0.000000 0.000000 0.000000 0.000000 0.031473
#
#
# Mechanical properties :
#
#
# Convention : Reuss Voigt Hill
#
# Bulk Modulus (GPa) = 72.49687 73.09828 72.79758
# Shear Modulus (GPa) = 36.18770 37.89012 37.03891
#
# Velocity S-wave (km/s) = 4.18797 4.28534 4.23693
# Velocity P-wave (km/s) = 7.64999 7.74041 7.69534
#
# Compressibility (1/GPa) = 0.01379370
#
# Stress axis : x y z
#
# Youngs Moduli (GPa) = 86.82886 132.85930 84.45562
#
# Poissons Ratio (x) = 0.19609 0.40467
# Poissons Ratio (y) = 0.12815 0.19237
# Poissons Ratio (z) = 0.41604 0.30263
#
# Static dielectric constant tensor:
#      x y z
#    x 1.724960 0.000000 0.000000 
#    y 0.000000 1.808540 0.000000 
#    z 0.000000 0.000000 1.776360 
# 
# From -- ./inp_files/3261.got.cif
#   From: 2010.05.17/outbox.cif.g08.bks.cpg/sg53_2_cif.got.tgz:3261.got - 2010.06.03 12:45:16.
