data_PCOD9419131
_publ_section_title
;
Structure prediction by ZEFSAII (Michael W. Deem and Ramdas Pophale) SiO2 
 PCOD9419131
Probable space group: P M N A
;
_chemical_formula_sum "Si O2"
_cell_formula_units_Z 32
_cell_length_a 11.132562
_cell_length_b 7.684467
_cell_length_c 16.949674
_cell_angle_alpha 90.000000
_cell_angle_beta 90.000000
_cell_angle_gamma 90.000000
_cell_volume 1450.007411
_symmetry_space_group_name_H-M "P M N A"
_symmetry_group_IT_number 53
_symmetry_cell_setting 'orthorhombic'
loop_
_space_group_symop_operation_xyz
x,y,z
1/2-x,-y,1/2+z
x,-y,-z
1/2-x,y,1/2-z
-x,-y,-z
1/2+x,y,1/2-z
-x,y,z
1/2+x,-y,1/2+z
loop_
_atom_site_type_symbol
_atom_site_label
_atom_site_fract_x
_atom_site_fract_y
_atom_site_fract_z
Si Si1 0.754710 0.576675 0.657046
Si Si2 0.000000 0.546969 0.907844
Si Si3 0.631153 0.243619 0.803773
Si Si4 0.500000 0.961473 0.592918
Si Si5 0.765422 0.039961 0.407363
O O1 0.750000 0.624882 0.750000
O O2 0.626257 0.495299 0.630831
O O3 0.852061 0.424662 0.648527
O O4 0.777386 0.754558 0.609745
O O5 0.000000 0.754581 0.897647
O O6 0.000000 0.500000 0.000000
O O7 0.750000 0.242227 0.750000
O O8 0.500000 0.244074 0.765010
O O9 0.642365 0.076437 0.859384
O O10 0.630878 0.017940 0.621709
O O11 0.500000 0.000000 0.500000
O O12 0.773138 0.000000 0.500000
#
# Coordination Sequence:
#
# PCOD9419131 Si02
#       5
#     8   4   8   4   8
#     4  10  24  42  67 101 144 183 227 291 363 419
#     4  10  22  38  72 106 132 180 241 297 344 407
#     4  11  27  45  68  99 133 181 232 285 358 427
#     4   8  18  34  60 104 130 168 220 281 347 391
#     4  10  22  42  69 100 137 180 231 286 346 418
#
# _framework density 22.068853000000001
#
# number of rings (size 3 to 8) (size 9 to 14) (size 15 to 20)
#    0.000    2.000    0.000    0.750   19.250    1.500 
#    4.500    1.250    0.000    0.000    0.000    0.000 
#    0.000    0.000    0.000    0.000    0.000    0.000 
#
# Total GULP energy -178603.600412 kJ/mol
# GULP energy per Si atom -5581.362513 kJ/mol
# Density = 2.201862 g / cm^3
# Si number density = 22.068853 Si / 1000 Ang^3
#
#
#
# Elastic Constant Matrix: (Units=GPa)
#
#
# Indices 1 2 3 4 5 6 
#
# 1 154.6898 41.8772 47.6796 0.0000 0.0000 0.0000
# 2 41.8772 96.6413 23.8601 0.0000 0.0000 0.0000
# 3 47.6796 23.8601 74.0089 0.0000 0.0000 0.0000
# 4 0.0000 0.0000 0.0000 36.9843 0.0000 0.0000
# 5 0.0000 0.0000 0.0000 0.0000 26.7981 0.0000
# 6 0.0000 0.0000 0.0000 0.0000 0.0000 -48.0128
#
#
#
# Elastic Compliance Matrix: (Units=1/GPa)
#
#
# Indices 1 2 3 4 5 6 
#
# 1 0.008615 -0.002567 -0.004723 0.000000 0.000000 0.000000
# 2 -0.002567 0.012007 -0.002217 0.000000 0.000000 0.000000
# 3 -0.004723 -0.002217 0.017269 0.000000 0.000000 0.000000
# 4 0.000000 0.000000 0.000000 0.027038 0.000000 0.000000
# 5 0.000000 0.000000 0.000000 0.000000 0.037316 0.000000
# 6 0.000000 0.000000 0.000000 0.000000 0.000000 -0.020828
#
#
# Mechanical properties :
#
#
# Convention : Reuss Voigt Hill
#
# Bulk Modulus (GPa) = 52.97250 61.35265 57.16257
# Shear Modulus (GPa) = 46.84931 17.28213 32.06572
#
# Velocity S-wave (km/s) = 4.61246 2.80143 3.81594
# Velocity P-wave (km/s) = 7.24029 6.19071 6.73597
#
# Compressibility (1/GPa) = 0.01887772
#
# Stress axis : x y z
#
# Youngs Moduli (GPa) = 116.07434 83.28200 57.90655
#
# Poissons Ratio (x) = 0.21380 0.27347
# Poissons Ratio (y) = 0.29799 0.12839
# Poissons Ratio (z) = 0.54817 0.18466
#
# Static dielectric constant tensor:
#      x y z
#    x 1.858870 0.000000 0.000000 
#    y 0.000000 1.818510 0.000000 
#    z 0.000000 0.000000 1.748030 
# 
# From -- ./inp_files/21466.got.cif
#   From: 2010.05.17/outbox.cif.g08.bks.cpg/sg53_11_cif.got.tgz:21466.got - 2010.06.03 12:45:16.
