data_PCOD9419760
_publ_section_title
;
Structure prediction by ZEFSAII (Michael W. Deem and Ramdas Pophale) SiO2 
 PCOD9419760
Probable space group: P M N A
;
_chemical_formula_sum "Si O2"
_cell_formula_units_Z 48
_cell_length_a 8.545109
_cell_length_b 15.439437
_cell_length_c 19.378673
_cell_angle_alpha 90.000000
_cell_angle_beta 90.000000
_cell_angle_gamma 90.000000
_cell_volume 2556.660731
_symmetry_space_group_name_H-M "P M N A"
_symmetry_group_IT_number 53
_symmetry_cell_setting 'orthorhombic'
loop_
_space_group_symop_operation_xyz
x,y,z
1/2-x,-y,1/2+z
x,-y,-z
1/2-x,y,1/2-z
-x,-y,-z
1/2+x,y,1/2-z
-x,y,z
1/2+x,-y,1/2+z
loop_
_atom_site_type_symbol
_atom_site_label
_atom_site_fract_x
_atom_site_fract_y
_atom_site_fract_z
Si Si1 0.690396 0.970935 0.923623
Si Si2 0.187887 0.226656 0.420804
Si Si3 0.686032 0.276553 0.571462
Si Si4 0.688439 0.129487 0.827607
Si Si5 0.686288 0.380286 0.327468
Si Si6 0.687243 0.533045 0.077028
O O1 0.500000 0.970833 0.925131
O O2 0.738647 0.872615 0.908711
O O3 0.738603 0.041887 0.867590
O O4 0.743064 0.000000 0.000000
O O5 0.234629 0.252404 0.498544
O O6 0.264167 0.293855 0.368307
O O7 0.000000 0.232160 0.414497
O O8 0.500000 0.269649 0.564362
O O9 0.746641 0.210147 0.628945
O O10 0.733504 0.374556 0.589269
O O11 0.750000 0.130343 0.750000
O O12 0.500000 0.133026 0.827957
O O13 0.750000 0.377841 0.250000
O O14 0.500000 0.388064 0.327089
O O15 0.758468 0.461181 0.368841
O O16 0.500000 0.543054 0.079929
O O17 0.728485 0.500000 0.000000
#
# Coordination Sequence:
#
# PCOD9419760 Si02
#       6
#     8   8   8   8   8   8
#     4   9  18  36  64  93 122 164 211 257 309 371
#     4  11  21  39  66  95 127 167 213 260 314 373
#     4  12  24  39  63  96 128 165 212 260 310 372
#     4  11  23  42  64  91 128 166 209 262 320 376
#     4  12  26  44  65  94 132 168 209 261 317 374
#     4  11  23  41  68  96 125 165 211 257 312 374
#
# _framework density 18.77449
#
# number of rings (size 3 to 8) (size 9 to 14) (size 15 to 20)
#    0.000    1.000    3.333    4.500    0.000    2.000 
#    0.000    9.167    0.000    0.000    0.000    0.000 
#    0.000    0.000    0.000    0.000    0.000    0.000 
#
# Total GULP energy -268486.310103 kJ/mol
# GULP energy per Si atom -5593.464794 kJ/mol
# Density = 1.873176 g / cm^3
# Si number density = 18.774490 Si / 1000 Ang^3
#
#
#
# Elastic Constant Matrix: (Units=GPa)
#
#
# Indices 1 2 3 4 5 6 
#
# 1 40.5954 -1.3299 1.4201 0.0000 0.0000 0.0000
# 2 -1.3299 143.7615 52.8759 0.0000 0.0000 0.0000
# 3 1.4201 52.8759 136.7361 0.0000 0.0000 0.0000
# 4 0.0000 0.0000 0.0000 26.1003 0.0000 0.0000
# 5 0.0000 0.0000 0.0000 0.0000 28.8789 0.0000
# 6 0.0000 0.0000 0.0000 0.0000 0.0000 67.9233
#
#
#
# Elastic Compliance Matrix: (Units=1/GPa)
#
#
# Indices 1 2 3 4 5 6 
#
# 1 0.024660 0.000376 -0.000401 0.000000 0.000000 0.000000
# 2 0.000376 0.008115 -0.003142 0.000000 0.000000 0.000000
# 3 -0.000401 -0.003142 0.008533 0.000000 0.000000 0.000000
# 4 0.000000 0.000000 0.000000 0.038314 0.000000 0.000000
# 5 0.000000 0.000000 0.000000 0.000000 0.034627 0.000000
# 6 0.000000 0.000000 0.000000 0.000000 0.000000 0.014722
#
#
# Mechanical properties :
#
#
# Convention : Reuss Voigt Hill
#
# Bulk Modulus (GPa) = 28.59432 47.44724 38.02078
# Shear Modulus (GPa) = 34.02205 42.45562 38.23883
#
# Velocity S-wave (km/s) = 4.26154 4.76052 4.51793
# Velocity P-wave (km/s) = 6.28314 7.45277 6.89281
#
# Compressibility (1/GPa) = 0.03497198
#
# Stress axis : x y z
#
# Youngs Moduli (GPa) = 40.55203 123.22732 117.19834
#
# Poissons Ratio (x) = -0.04630 0.04704
# Poissons Ratio (y) = -0.01524 0.36824
# Poissons Ratio (z) = 0.01628 0.38718
#
# Static dielectric constant tensor:
#      x y z
#    x 1.631580 0.000000 0.000000 
#    y 0.000000 1.635350 0.000000 
#    z 0.000000 0.000000 1.607660 
# 
# From -- ./inp_files/26262.got.cif
#   From: 2010.05.17/outbox.cif.g08.bks.cpg/sg53_14_cif.got.tgz:26262.got - 2010.06.03 12:45:16.
