data_PCOD9419601
_publ_section_title
;
Structure prediction by ZEFSAII (Michael W. Deem and Ramdas Pophale) SiO2 
 PCOD9419601
Probable space group: P M N A
;
_chemical_formula_sum "Si O2"
_cell_formula_units_Z 38
_cell_length_a 16.749955
_cell_length_b 4.987778
_cell_length_c 20.470580
_cell_angle_alpha 90.000000
_cell_angle_beta 90.000000
_cell_angle_gamma 90.000000
_cell_volume 1710.215774
_symmetry_space_group_name_H-M "P M N A"
_symmetry_group_IT_number 53
_symmetry_cell_setting 'orthorhombic'
loop_
_space_group_symop_operation_xyz
x,y,z
1/2-x,-y,1/2+z
x,-y,-z
1/2-x,y,1/2-z
-x,-y,-z
1/2+x,y,1/2-z
-x,y,z
1/2+x,-y,1/2+z
loop_
_atom_site_type_symbol
_atom_site_label
_atom_site_fract_x
_atom_site_fract_y
_atom_site_fract_z
Si Si1 0.641100 0.572921 0.195210
Si Si2 0.088620 0.050303 0.380951
Si Si3 0.176653 0.270894 0.838759
Si Si4 0.209495 0.000000 0.500000
Si Si5 0.651158 0.756826 0.575798
Si Si6 0.500000 0.000000 0.500000
O O1 0.623307 0.277792 0.167794
O O2 0.730827 0.657259 0.174074
O O3 0.634561 0.635574 0.271997
O O4 0.584257 0.778026 0.159056
O O5 0.000000 0.131699 0.403974
O O6 0.149193 0.981627 0.439374
O O7 0.145492 0.460115 0.896162
O O8 0.167209 0.966668 0.863906
O O9 0.273153 0.783512 0.527181
O O10 0.570544 0.842480 0.541060
#
# Coordination Sequence:
#
# PCOD9419601 Si02
#       6
#     8   8   8   4   8   2
#     4  11  23  44  69  99 130 172 228 270 330 391
#     4  12  25  43  65 102 136 174 217 277 329 397
#     4  11  22  44  73  97 127 178 224 273 325 397
#     4  11  23  43  69  92 130 178 219 263 331 395
#     4  11  24  44  71  96 135 172 225 275 326 397
#     4  10  28  46  66 106 138 178 222 276 332 392
#
# _framework density 22.219421000000001
#
# number of rings (size 3 to 8) (size 9 to 14) (size 15 to 20)
#    0.000    0.842    4.211    2.211    0.000   10.947 
#   11.368    2.105    0.000    0.000    0.000    0.000 
#    0.000    0.000    0.000    0.000    0.000    0.000 
#
# Total GULP energy -211801.313678 kJ/mol
# GULP energy per Si atom -5573.718781 kJ/mol
# Density = 2.216885 g / cm^3
# Si number density = 22.219421 Si / 1000 Ang^3
#
#
#
# Elastic Constant Matrix: (Units=GPa)
#
#
# Indices 1 2 3 4 5 6 
#
# 1 146.2608 -15.7910 49.0548 0.0000 0.0000 0.0000
# 2 -15.7910 60.2468 30.5418 0.0000 0.0000 0.0000
# 3 49.0548 30.5418 125.0584 0.0000 0.0000 0.0000
# 4 0.0000 0.0000 0.0000 17.9874 0.0000 0.0000
# 5 0.0000 0.0000 0.0000 0.0000 -112.3990 0.0000
# 6 0.0000 0.0000 0.0000 0.0000 0.0000 -110.0905
#
#
#
# Elastic Compliance Matrix: (Units=1/GPa)
#
#
# Indices 1 2 3 4 5 6 
#
# 1 0.008896 0.004680 -0.004633 0.000000 0.000000 0.000000
# 2 0.004680 0.021406 -0.007064 0.000000 0.000000 0.000000
# 3 -0.004633 -0.007064 0.011538 0.000000 0.000000 0.000000
# 4 0.000000 0.000000 0.000000 0.055595 0.000000 0.000000
# 5 0.000000 0.000000 0.000000 0.000000 -0.008897 0.000000
# 6 0.000000 0.000000 0.000000 0.000000 0.000000 -0.009083
#
#
# Mechanical properties :
#
#
# Convention : Reuss Voigt Hill
#
# Bulk Modulus (GPa) = 35.96010 51.01967 43.48989
# Shear Modulus (GPa) = 48.65887 -23.04974 12.80456
#
# Velocity S-wave (km/s) = 4.68474 -3.22432 2.40318
# Velocity P-wave (km/s) = 6.74401 3.02489 5.22645
#
# Compressibility (1/GPa) = 0.02780860
#
# Stress axis : x y z
#
# Youngs Moduli (GPa) = 112.40873 46.71603 86.66666
#
# Poissons Ratio (x) = -0.21864 0.40149
# Poissons Ratio (y) = -0.52609 0.61218
# Poissons Ratio (z) = 0.52074 0.32998
#
# Static dielectric constant tensor:
#      x y z
#    x 1.872500 0.000000 0.000000 
#    y 0.000000 1.805230 0.000000 
#    z 0.000000 0.000000 1.923610 
# 
# From -- ./inp_files/28787.got.cif
#   From: 2010.05.17/outbox.cif.g08.bks.cpg/sg53_15_cif.got.tgz:28787.got - 2010.06.03 12:45:16.
