data_PCOD9419093
_publ_section_title
;
Structure prediction by ZEFSAII (Michael W. Deem and Ramdas Pophale) SiO2 
 PCOD9419093
Probable space group: P M N A
;
_chemical_formula_sum "Si O2"
_cell_formula_units_Z 44
_cell_length_a 23.806012
_cell_length_b 6.805284
_cell_length_c 14.046790
_cell_angle_alpha 90.000000
_cell_angle_beta 90.000000
_cell_angle_gamma 90.000000
_cell_volume 2275.673708
_symmetry_space_group_name_H-M "P M N A"
_symmetry_group_IT_number 53
_symmetry_cell_setting 'orthorhombic'
loop_
_space_group_symop_operation_xyz
x,y,z
1/2-x,-y,1/2+z
x,-y,-z
1/2-x,y,1/2-z
-x,-y,-z
1/2+x,y,1/2-z
-x,y,z
1/2+x,-y,1/2+z
loop_
_atom_site_type_symbol
_atom_site_label
_atom_site_fract_x
_atom_site_fract_y
_atom_site_fract_z
Si Si1 0.500000 0.427342 0.107969
Si Si2 0.000000 0.196021 0.937284
Si Si3 0.202528 0.581154 0.897452
Si Si4 0.750000 0.716159 0.250000
Si Si5 0.716742 0.056938 0.110573
Si Si6 0.906095 0.500000 0.000000
Si Si7 0.911393 0.089982 0.393234
Si Si8 0.500000 0.169102 0.785101
O O1 0.553965 0.289124 0.117769
O O2 0.500000 0.606455 0.180606
O O3 0.500000 0.500000 0.000000
O O4 0.000000 0.145399 0.826922
O O5 0.054201 0.330521 0.959573
O O6 0.000000 0.000000 0.000000
O O7 0.211148 0.424511 0.813799
O O8 0.235510 0.779573 0.870991
O O9 0.136621 0.594987 0.922707
O O10 0.226516 0.500000 0.000000
O O11 0.722180 0.863410 0.174563
O O12 0.653548 0.130420 0.127606
O O13 0.722344 0.000000 0.000000
O O14 0.915543 0.000000 0.500000
O O15 0.944540 0.934682 0.328036
#
# Coordination Sequence:
#
# PCOD9419093 Si02
#       8
#     4   4   8   4   8   4   8   4
#     4  11  19  39  64  91 137 172 203 268 330 386
#     4  11  26  48  72  96 131 182 240 289 347 389
#     4  10  23  45  67  98 138 173 225 285 345 407
#     4  12  24  42  68  94 130 182 226 270 350 416
#     4  11  23  43  67  99 137 178 224 277 341 418
#     4   9  24  48  72  96 134 175 234 296 344 397
#     4  10  22  37  63 100 135 171 219 263 333 416
#     4  11  23  42  64 100 129 179 226 273 338 397
#
# _framework density 19.334932999999999
#
# number of rings (size 3 to 8) (size 9 to 14) (size 15 to 20)
#    0.545    0.909    3.636    1.091    2.545    7.273 
#    6.545    0.000    0.000    0.000    0.000    0.000 
#    0.000    0.000    0.000    0.000    0.000    0.000 
#
# Total GULP energy -245553.604293 kJ/mol
# GULP energy per Si atom -5580.763734 kJ/mol
# Density = 1.929093 g / cm^3
# Si number density = 19.334933 Si / 1000 Ang^3
#
#
#
# Elastic Constant Matrix: (Units=GPa)
#
#
# Indices 1 2 3 4 5 6 
#
# 1 154.2478 67.9273 45.0145 0.0000 0.0000 0.0000
# 2 67.9273 116.7662 42.0392 0.0000 0.0000 0.0000
# 3 45.0145 42.0392 124.1457 0.0000 0.0000 0.0000
# 4 0.0000 0.0000 0.0000 38.8636 0.0000 0.0000
# 5 0.0000 0.0000 0.0000 0.0000 -12.2182 0.0000
# 6 0.0000 0.0000 0.0000 0.0000 0.0000 -5.2609
#
#
#
# Elastic Compliance Matrix: (Units=1/GPa)
#
#
# Indices 1 2 3 4 5 6 
#
# 1 0.009021 -0.004635 -0.001701 0.000000 0.000000 0.000000
# 2 -0.004635 0.012135 -0.002429 0.000000 0.000000 0.000000
# 3 -0.001701 -0.002429 0.009494 0.000000 0.000000 0.000000
# 4 0.000000 0.000000 0.000000 0.025731 0.000000 0.000000
# 5 0.000000 0.000000 0.000000 0.000000 -0.081845 0.000000
# 6 0.000000 0.000000 0.000000 0.000000 0.000000 -0.190080
#
#
# Mechanical properties :
#
#
# Convention : Reuss Voigt Hill
#
# Bulk Modulus (GPa) = 76.21959 78.34685 77.28322
# Shear Modulus (GPa) = -25.82104 20.28880 -2.76612
#
# Velocity S-wave (km/s) = -3.65836 3.24286 -1.19739
# Velocity P-wave (km/s) = 4.65419 7.39123 6.17624
#
# Compressibility (1/GPa) = 0.01311999
#
# Stress axis : x y z
#
# Youngs Moduli (GPa) = 110.85471 82.40661 105.32652
#
# Poissons Ratio (x) = 0.38197 0.17919
# Poissons Ratio (y) = 0.51384 0.25579
# Poissons Ratio (z) = 0.18859 0.20013
#
# Static dielectric constant tensor:
#      x y z
#    x 1.652460 0.000000 0.000000 
#    y 0.000000 1.668670 0.000000 
#    z 0.000000 0.000000 1.680550 
# 
# From -- ./inp_files/24886.got.cif
#   From: 2010.05.17/outbox.cif.g08.bks.cpg/sg53_13_cif.got.tgz:24886.got - 2010.06.03 12:45:16.
