data_PCOD9419696
_publ_section_title
;
Structure prediction by ZEFSAII (Michael W. Deem and Ramdas Pophale) SiO2 
 PCOD9419696
Probable space group: P M N A
;
_chemical_formula_sum "Si O2"
_cell_formula_units_Z 56
_cell_length_a 7.724947
_cell_length_b 20.289311
_cell_length_c 18.446017
_cell_angle_alpha 90.000000
_cell_angle_beta 90.000000
_cell_angle_gamma 90.000000
_cell_volume 2891.115301
_symmetry_space_group_name_H-M "P M N A"
_symmetry_group_IT_number 53
_symmetry_cell_setting 'orthorhombic'
loop_
_space_group_symop_operation_xyz
x,y,z
1/2-x,-y,1/2+z
x,-y,-z
1/2-x,y,1/2-z
-x,-y,-z
1/2+x,y,1/2-z
-x,y,z
1/2+x,-y,1/2+z
loop_
_atom_site_type_symbol
_atom_site_label
_atom_site_fract_x
_atom_site_fract_y
_atom_site_fract_z
Si Si1 0.201466 0.367752 0.831767
Si Si2 0.208076 0.051684 0.335795
Si Si3 0.797352 0.428376 0.517228
Si Si4 0.212062 0.293259 0.454766
Si Si5 0.291556 0.804672 0.834629
Si Si6 0.791003 0.229162 0.605270
Si Si7 0.791324 0.909190 0.335307
O O1 0.250000 0.386756 0.750000
O O2 0.288242 0.406842 0.898383
O O3 0.238746 0.289958 0.843448
O O4 0.000000 0.378768 0.841481
O O5 0.250000 0.051444 0.250000
O O6 0.272263 0.123175 0.361718
O O7 0.000000 0.051614 0.344536
O O8 0.272579 0.980652 0.363610
O O9 0.720831 0.500000 0.500000
O O10 0.724397 0.367088 0.470946
O O11 0.000000 0.431859 0.497698
O O12 0.271893 0.255695 0.383196
O O13 0.261855 0.249975 0.524625
O O14 0.000000 0.295474 0.453815
O O15 0.250000 0.797542 0.750000
O O16 0.500000 0.805998 0.840903
O O17 0.724829 0.157552 0.628210
O O18 0.000000 0.227105 0.606912
O O19 0.750000 0.905495 0.250000
O O20 0.000000 0.909507 0.342970
#
# Coordination Sequence:
#
# PCOD9419696 Si02
#       7
#     8   8   8   8   8   8   8
#     4  11  21  33  51  75 102 130 163 199 233 275
#     4   8  14  24  38  58  83 113 149 187 229 272
#     4   9  18  35  57  76  98 129 159 189 235 292
#     4   8  15  29  48  68  90 118 150 184 228 282
#     4   9  16  28  46  65  87 116 151 191 232 275
#     4   9  17  30  46  65  92 124 157 193 235 281
#     4   9  16  25  39  60  86 116 152 192 230 271
#
# _framework density 19.369688
#
# number of rings (size 3 to 8) (size 9 to 14) (size 15 to 20)
#    0.000    3.000    0.000    2.571    0.000    2.000 
#    0.000    4.286    0.000    6.000    0.000    0.000 
#    0.000   16.000    0.000    0.000    0.000    0.000 
#
# Total GULP energy -311887.944788 kJ/mol
# GULP energy per Si atom -5569.427586 kJ/mol
# Density = 1.932560 g / cm^3
# Si number density = 19.369688 Si / 1000 Ang^3
#
#
#
# Elastic Constant Matrix: (Units=GPa)
#
#
# Indices 1 2 3 4 5 6 
#
# 1 29.6765 2.9977 -8.8009 0.0000 0.0000 0.0000
# 2 2.9977 201.5509 75.4065 0.0000 0.0000 0.0000
# 3 -8.8009 75.4065 60.2411 0.0000 0.0000 0.0000
# 4 0.0000 0.0000 0.0000 16.1042 0.0000 0.0000
# 5 0.0000 0.0000 0.0000 0.0000 13.9975 0.0000
# 6 0.0000 0.0000 0.0000 0.0000 0.0000 6.6821
#
#
#
# Elastic Compliance Matrix: (Units=1/GPa)
#
#
# Indices 1 2 3 4 5 6 
#
# 1 0.037653 -0.004924 0.011665 0.000000 0.000000 0.000000
# 2 -0.004924 0.009976 -0.013206 0.000000 0.000000 0.000000
# 3 0.011665 -0.013206 0.034835 0.000000 0.000000 0.000000
# 4 0.000000 0.000000 0.000000 0.062096 0.000000 0.000000
# 5 0.000000 0.000000 0.000000 0.000000 0.071441 0.000000
# 6 0.000000 0.000000 0.000000 0.000000 0.000000 0.149654
#
#
# Mechanical properties :
#
#
# Convention : Reuss Voigt Hill
#
# Bulk Modulus (GPa) = 14.38170 47.85280 31.11725
# Shear Modulus (GPa) = 12.44512 22.14778 17.29645
#
# Velocity S-wave (km/s) = 2.53752 3.38512 2.99149
# Velocity P-wave (km/s) = 4.00329 6.32751 5.29451
#
# Compressibility (1/GPa) = 0.06953279
#
# Stress axis : x y z
#
# Youngs Moduli (GPa) = 26.55798 100.24348 28.70657
#
# Poissons Ratio (x) = 0.49362 -0.33486
# Poissons Ratio (y) = 0.13078 0.37911
# Poissons Ratio (z) = -0.30980 1.32386
#
# Static dielectric constant tensor:
#      x y z
#    x 1.706010 0.000000 0.000000 
#    y 0.000000 1.733150 0.000000 
#    z 0.000000 0.000000 1.683210 
# 
# From -- ./inp_files/26723.got.cif
#   From: 2010.05.17/outbox.cif.g08.bks.cpg/sg53_14_cif.got.tgz:26723.got - 2010.06.03 12:45:16.
