data_PCOD9419424
_publ_section_title
;
Structure prediction by ZEFSAII (Michael W. Deem and Ramdas Pophale) SiO2 
 PCOD9419424
Probable space group: P M N A
;
_chemical_formula_sum "Si O2"
_cell_formula_units_Z 32
_cell_length_a 14.483167
_cell_length_b 11.783132
_cell_length_c 7.922844
_cell_angle_alpha 90.000000
_cell_angle_beta 90.000000
_cell_angle_gamma 90.000000
_cell_volume 1352.089332
_symmetry_space_group_name_H-M "P M N A"
_symmetry_group_IT_number 53
_symmetry_cell_setting 'orthorhombic'
loop_
_space_group_symop_operation_xyz
x,y,z
1/2-x,-y,1/2+z
x,-y,-z
1/2-x,y,1/2-z
-x,-y,-z
1/2+x,y,1/2-z
-x,y,z
1/2+x,-y,1/2+z
loop_
_atom_site_type_symbol
_atom_site_label
_atom_site_fract_x
_atom_site_fract_y
_atom_site_fract_z
Si Si1 0.164686 0.500000 0.000000
Si Si2 0.000000 0.704609 0.278244
Si Si3 0.500000 0.815614 0.872730
Si Si4 0.307119 0.267379 0.594286
Si Si5 0.000000 0.447380 0.254571
Si Si6 0.838489 0.076401 0.158594
O O1 0.225876 0.394136 0.946605
O O2 0.093860 0.542283 0.856024
O O3 0.000000 0.798420 0.425584
O O4 0.088409 0.720482 0.159674
O O5 0.000000 0.573039 0.345002
O O6 0.500000 0.682615 0.816965
O O7 0.586157 0.883715 0.793875
O O8 0.250000 0.222196 0.750000
O O9 0.302354 0.189486 0.433297
O O10 0.750000 0.023198 0.250000
O O11 0.873112 0.000000 0.000000
#
# Coordination Sequence:
#
# PCOD9419424 Si02
#       6
#     4   4   4   8   4   8
#     4   9  18  36  62  93 134 174 212 275 328 405
#     4  10  23  40  66 103 141 174 215 277 334 410
#     4  12  22  43  70 102 132 180 229 269 340 413
#     4  11  22  42  65  94 135 178 225 276 338 400
#     4   9  17  37  63  95 137 176 211 268 336 398
#     4  12  27  47  70  96 133 176 229 287 338 392
#
# _framework density 23.667074
#
# number of rings (size 3 to 8) (size 9 to 14) (size 15 to 20)
#    0.000    1.250    2.500    4.500    0.000    1.000 
#    9.000    1.875    0.000    0.000    0.000    0.000 
#    0.000    0.000    0.000    0.000    0.000    0.000 
#
# Total GULP energy -178868.024322 kJ/mol
# GULP energy per Si atom -5589.625760 kJ/mol
# Density = 2.361321 g / cm^3
# Si number density = 23.667074 Si / 1000 Ang^3
#
#
#
# Elastic Constant Matrix: (Units=GPa)
#
#
# Indices 1 2 3 4 5 6 
#
# 1 70.9357 19.5115 10.8909 0.0000 0.0000 0.0000
# 2 19.5115 126.2600 39.4453 0.0000 0.0000 0.0000
# 3 10.8909 39.4453 77.8565 0.0000 0.0000 0.0000
# 4 0.0000 0.0000 0.0000 50.0981 0.0000 0.0000
# 5 0.0000 0.0000 0.0000 0.0000 22.2932 0.0000
# 6 0.0000 0.0000 0.0000 0.0000 0.0000 8.1785
#
#
#
# Elastic Compliance Matrix: (Units=1/GPa)
#
#
# Indices 1 2 3 4 5 6 
#
# 1 0.014800 -0.001949 -0.001083 0.000000 0.000000 0.000000
# 2 -0.001949 0.009666 -0.004625 0.000000 0.000000 0.000000
# 3 -0.001083 -0.004625 0.015339 0.000000 0.000000 0.000000
# 4 0.000000 0.000000 0.000000 0.019961 0.000000 0.000000
# 5 0.000000 0.000000 0.000000 0.000000 0.044857 0.000000
# 6 0.000000 0.000000 0.000000 0.000000 0.000000 0.122272
#
#
# Mechanical properties :
#
#
# Convention : Reuss Voigt Hill
#
# Bulk Modulus (GPa) = 40.83010 46.08307 43.45659
# Shear Modulus (GPa) = 19.97041 29.79426 24.88234
#
# Velocity S-wave (km/s) = 2.90798 3.55193 3.24597
# Velocity P-wave (km/s) = 5.34457 6.02788 5.69648
#
# Compressibility (1/GPa) = 0.02449173
#
# Stress axis : x y z
#
# Youngs Moduli (GPa) = 67.56960 103.45419 65.19475
#
# Poissons Ratio (x) = 0.20160 0.07060
# Poissons Ratio (y) = 0.13167 0.30150
# Poissons Ratio (z) = 0.07317 0.47844
#
# Static dielectric constant tensor:
#      x y z
#    x 1.819510 0.000000 0.000000 
#    y 0.000000 1.935440 0.000000 
#    z 0.000000 0.000000 0.517630 
# 
# From -- ./inp_files/8112.got.cif
#   From: 2010.05.17/outbox.cif.g08.bks.cpg/sg53_5_cif.got.tgz:8112.got - 2010.06.03 12:45:16.
