data_PCOD9419793
_publ_section_title
;
Structure prediction by ZEFSAII (Michael W. Deem and Ramdas Pophale) SiO2 
 PCOD9419793
Probable space group: P M N A
;
_chemical_formula_sum "Si O2"
_cell_formula_units_Z 48
_cell_length_a 7.758395
_cell_length_b 21.489371
_cell_length_c 14.232507
_cell_angle_alpha 90.000000
_cell_angle_beta 90.000000
_cell_angle_gamma 90.000000
_cell_volume 2372.886670
_symmetry_space_group_name_H-M "P M N A"
_symmetry_group_IT_number 53
_symmetry_cell_setting 'orthorhombic'
loop_
_space_group_symop_operation_xyz
x,y,z
1/2-x,-y,1/2+z
x,-y,-z
1/2-x,y,1/2-z
-x,-y,-z
1/2+x,y,1/2-z
-x,y,z
1/2+x,-y,1/2+z
loop_
_atom_site_type_symbol
_atom_site_label
_atom_site_fract_x
_atom_site_fract_y
_atom_site_fract_z
Si Si1 0.293845 0.352668 0.056077
Si Si2 0.196051 0.482428 0.389382
Si Si3 0.288824 0.903214 0.541453
Si Si4 0.792328 0.615387 0.349572
Si Si5 0.204873 0.220339 0.141343
Si Si6 0.706406 0.971374 0.357183
O O1 0.500000 0.362514 0.052709
O O2 0.223892 0.413617 0.111333
O O3 0.262499 0.287559 0.105250
O O4 0.232289 0.353989 0.947366
O O5 0.184375 0.500000 0.500000
O O6 0.280066 0.544496 0.348131
O O7 0.000000 0.478023 0.351591
O O8 0.500000 0.902079 0.542109
O O9 0.226273 0.837187 0.579601
O O10 0.233207 0.922629 0.436483
O O11 0.234294 0.959959 0.609688
O O12 0.750000 0.646166 0.250000
O O13 0.000000 0.611400 0.355372
O O14 0.250000 0.211323 0.250000
O O15 0.000000 0.219371 0.133168
O O16 0.750000 0.957720 0.250000
O O17 0.500000 0.972463 0.364058
#
# Coordination Sequence:
#
# PCOD9419793 Si02
#       6
#     8   8   8   8   8   8
#     4   9  18  34  52  71  98 131 166 203 244 292
#     4   7  12  26  47  67  89 120 157 199 245 287
#     4   8  17  33  52  73 102 136 164 195 240 291
#     4   9  17  30  50  73  97 127 163 204 249 295
#     4  11  22  36  53  73  98 130 165 201 244 294
#     4   9  16  31  54  78 102 130 164 201 242 284
#
# _framework density 20.228525999999999
#
# number of rings (size 3 to 8) (size 9 to 14) (size 15 to 20)
#    0.000    3.167    0.000    4.000    0.000    1.333 
#    0.000    7.500    0.000    7.000    0.000    0.000 
#    0.000    0.000    0.000    0.000    0.000    0.000 
#
# Total GULP energy -267425.331225 kJ/mol
# GULP energy per Si atom -5571.361067 kJ/mol
# Density = 2.018249 g / cm^3
# Si number density = 20.228526 Si / 1000 Ang^3
#
#
#
# Elastic Constant Matrix: (Units=GPa)
#
#
# Indices 1 2 3 4 5 6 
#
# 1 29.5506 2.6774 -3.3495 0.0000 0.0000 0.0000
# 2 2.6774 126.6710 48.5426 0.0000 0.0000 0.0000
# 3 -3.3495 48.5426 115.7497 0.0000 0.0000 0.0000
# 4 0.0000 0.0000 0.0000 21.3039 0.0000 0.0000
# 5 0.0000 0.0000 0.0000 0.0000 23.4340 0.0000
# 6 0.0000 0.0000 0.0000 0.0000 0.0000 16.1829
#
#
#
# Elastic Compliance Matrix: (Units=1/GPa)
#
#
# Indices 1 2 3 4 5 6 
#
# 1 0.034133 -0.001311 0.001537 0.000000 0.000000 0.000000
# 2 -0.001311 0.009456 -0.004004 0.000000 0.000000 0.000000
# 3 0.001537 -0.004004 0.010363 0.000000 0.000000 0.000000
# 4 0.000000 0.000000 0.000000 0.046940 0.000000 0.000000
# 5 0.000000 0.000000 0.000000 0.000000 0.042673 0.000000
# 6 0.000000 0.000000 0.000000 0.000000 0.000000 0.061793
#
#
# Mechanical properties :
#
#
# Convention : Reuss Voigt Hill
#
# Bulk Modulus (GPa) = 21.55233 40.85691 31.20462
# Shear Modulus (GPa) = 21.89343 27.12423 24.50883
#
# Velocity S-wave (km/s) = 3.29341 3.66579 3.48458
# Velocity P-wave (km/s) = 5.01394 6.17729 5.62577
#
# Compressibility (1/GPa) = 0.04639870
#
# Stress axis : x y z
#
# Youngs Moduli (GPa) = 29.29691 105.74767 96.49817
#
# Poissons Ratio (x) = 0.13860 -0.14835
# Poissons Ratio (y) = 0.03840 0.38635
# Poissons Ratio (z) = -0.04504 0.42339
#
# Static dielectric constant tensor:
#      x y z
#    x 1.766400 0.000000 0.000000 
#    y 0.000000 1.733880 0.000000 
#    z 0.000000 0.000000 1.729850 
# 
# From -- ./inp_files/20325.got.cif
#   From: 2010.05.17/outbox.cif.g08.bks.cpg/sg53_11_cif.got.tgz:20325.got - 2010.06.03 12:45:16.
