data_PCOD9419302
_publ_section_title
;
Structure prediction by ZEFSAII (Michael W. Deem and Ramdas Pophale) SiO2 
 PCOD9419302
Probable space group: P M N A
;
_chemical_formula_sum "Si O2"
_cell_formula_units_Z 56
_cell_length_a 16.931934
_cell_length_b 11.649347
_cell_length_c 14.520321
_cell_angle_alpha 90.000000
_cell_angle_beta 90.000000
_cell_angle_gamma 90.000000
_cell_volume 2864.074866
_symmetry_space_group_name_H-M "P M N A"
_symmetry_group_IT_number 53
_symmetry_cell_setting 'orthorhombic'
loop_
_space_group_symop_operation_xyz
x,y,z
1/2-x,-y,1/2+z
x,-y,-z
1/2-x,y,1/2-z
-x,-y,-z
1/2+x,y,1/2-z
-x,y,z
1/2+x,-y,1/2+z
loop_
_atom_site_type_symbol
_atom_site_label
_atom_site_fract_x
_atom_site_fract_y
_atom_site_fract_z
Si Si1 0.689517 0.819908 0.535470
Si Si2 0.090428 0.406350 0.080478
Si Si3 0.823716 0.827662 0.180021
Si Si4 0.906652 0.541475 0.599199
Si Si5 0.156224 0.574592 0.233025
Si Si6 0.182483 0.236585 0.323026
Si Si7 0.092972 0.938777 0.811319
O O1 0.647715 0.696386 0.551558
O O2 0.699452 0.840988 0.427389
O O3 0.771303 0.820666 0.591746
O O4 0.631765 0.904733 0.590822
O O5 0.124303 0.473868 0.167939
O O6 0.000000 0.366284 0.097708
O O7 0.088280 0.500000 0.000000
O O8 0.750000 0.835089 0.250000
O O9 0.858644 0.699867 0.190815
O O10 0.882344 0.930153 0.206054
O O11 0.876677 0.500000 0.500000
O O12 0.887676 0.440814 0.670715
O O13 0.864336 0.654905 0.637823
O O14 0.000000 0.562619 0.593569
O O15 0.250000 0.563567 0.250000
O O16 0.250000 0.274017 0.250000
O O17 0.130050 0.146279 0.265543
O O18 0.000000 0.924594 0.813988
#
# Coordination Sequence:
#
# PCOD9419302 Si02
#       7
#     8   8   8   8   8   8   8
#     4  11  22  40  67  95 122 161 212 254 309 363
#     4  11  22  37  59  92 131 162 193 245 312 373
#     4  11  25  41  62  93 123 166 208 258 309 362
#     4  11  24  39  61  91 125 163 203 252 307 367
#     4  11  23  39  61  90 125 163 206 251 306 369
#     4  10  22  41  67  92 121 163 205 258 304 369
#     4  11  24  43  66  92 124 160 206 258 314 371
#
# _framework density 19.552561000000001
#
# number of rings (size 3 to 8) (size 9 to 14) (size 15 to 20)
#    0.000    1.143    1.429    6.000    4.000    4.000 
#    0.000    0.000    0.000    0.857    0.000    0.000 
#    0.000    0.000    0.000    0.000    0.000    0.000 
#
# Total GULP energy -313086.347187 kJ/mol
# GULP energy per Si atom -5590.827628 kJ/mol
# Density = 1.950806 g / cm^3
# Si number density = 19.552561 Si / 1000 Ang^3
#
#
#
# Elastic Constant Matrix: (Units=GPa)
#
#
# Indices 1 2 3 4 5 6 
#
# 1 87.6903 36.0134 53.2692 0.0000 0.0000 0.0000
# 2 36.0134 82.9139 46.6539 0.0000 0.0000 0.0000
# 3 53.2692 46.6539 157.9468 0.0000 0.0000 0.0000
# 4 0.0000 0.0000 0.0000 23.9820 0.0000 0.0000
# 5 0.0000 0.0000 0.0000 0.0000 21.2577 0.0000
# 6 0.0000 0.0000 0.0000 0.0000 0.0000 15.9980
#
#
#
# Elastic Compliance Matrix: (Units=1/GPa)
#
#
# Indices 1 2 3 4 5 6 
#
# 1 0.015680 -0.004599 -0.003930 0.000000 0.000000 0.000000
# 2 -0.004599 0.015814 -0.003120 0.000000 0.000000 0.000000
# 3 -0.003930 -0.003120 0.008578 0.000000 0.000000 0.000000
# 4 0.000000 0.000000 0.000000 0.041698 0.000000 0.000000
# 5 0.000000 0.000000 0.000000 0.000000 0.047042 0.000000
# 6 0.000000 0.000000 0.000000 0.000000 0.000000 0.062508
#
#
# Mechanical properties :
#
#
# Convention : Reuss Voigt Hill
#
# Bulk Modulus (GPa) = 59.61585 66.71379 63.16482
# Shear Modulus (GPa) = 22.70574 25.08850 23.89712
#
# Velocity S-wave (km/s) = 3.41143 3.58597 3.49979
# Velocity P-wave (km/s) = 6.78774 7.16518 6.97901
#
# Compressibility (1/GPa) = 0.01677406
#
# Stress axis : x y z
#
# Youngs Moduli (GPa) = 63.77637 63.23547 116.57593
#
# Poissons Ratio (x) = 0.29084 0.45810
# Poissons Ratio (y) = 0.29333 0.36370
# Poissons Ratio (z) = 0.25062 0.19729
#
# Static dielectric constant tensor:
#      x y z
#    x 1.672360 0.000000 0.000000 
#    y 0.000000 1.697030 0.000000 
#    z 0.000000 0.000000 1.692230 
# 
# From -- ./inp_files/22829.got.cif
#   From: 2010.05.17/outbox.cif.g08.bks.cpg/sg53_12_cif.got.tgz:22829.got - 2010.06.03 12:45:16.
