data_PCOD9419576
_publ_section_title
;
Structure prediction by ZEFSAII (Michael W. Deem and Ramdas Pophale) SiO2 
 PCOD9419576
Probable space group: P M N A
;
_chemical_formula_sum "Si O2"
_cell_formula_units_Z 30
_cell_length_a 21.961805
_cell_length_b 4.964606
_cell_length_c 12.759393
_cell_angle_alpha 90.000000
_cell_angle_beta 90.000000
_cell_angle_gamma 90.000000
_cell_volume 1391.178423
_symmetry_space_group_name_H-M "P M N A"
_symmetry_group_IT_number 53
_symmetry_cell_setting 'orthorhombic'
loop_
_space_group_symop_operation_xyz
x,y,z
1/2-x,-y,1/2+z
x,-y,-z
1/2-x,y,1/2-z
-x,-y,-z
1/2+x,y,1/2-z
-x,y,z
1/2+x,-y,1/2+z
loop_
_atom_site_type_symbol
_atom_site_label
_atom_site_fract_x
_atom_site_fract_y
_atom_site_fract_z
Si Si1 0.114326 0.467744 0.802796
Si Si2 0.799892 0.500000 0.000000
Si Si3 0.500000 0.000000 0.000000
Si Si4 0.000000 0.252505 0.922704
Si Si5 0.214665 0.000000 0.500000
Si Si6 0.612958 0.018489 0.162385
O O1 0.158095 0.548688 0.898229
O O2 0.058684 0.297598 0.851635
O O3 0.096796 0.739456 0.741646
O O4 0.137567 0.250522 0.718932
O O5 0.758393 0.754088 0.028000
O O6 0.554137 0.959856 0.090132
O O7 0.000000 0.500000 0.000000
O O8 0.000000 0.000000 0.000000
O O9 0.169260 0.893583 0.589713
#
# Coordination Sequence:
#
# PCOD9419576 Si02
#       6
#     8   4   2   4   4   8
#     4  12  25  43  69 102 133 183 221 285 340 419
#     4  12  26  43  68  95 142 180 230 274 348 404
#     4  10  24  48  72 100 134 174 218 290 342 412
#     4  12  24  41  66  97 138 173 218 276 342 417
#     4  11  26  45  66  99 132 185 228 296 330 405
#     4  11  25  44  71  99 135 172 235 279 348 402
#
# _framework density 21.564453
#
# number of rings (size 3 to 8) (size 9 to 14) (size 15 to 20)
#    0.000    0.533    1.333    6.400    1.867   10.667 
#    0.000    0.000    0.000    0.000    0.000    0.000 
#    0.000    0.000    0.000    0.000    0.000    0.000 
#
# Total GULP energy -167110.996985 kJ/mol
# GULP energy per Si atom -5570.366566 kJ/mol
# Density = 2.151537 g / cm^3
# Si number density = 21.564453 Si / 1000 Ang^3
#
#
#
# Elastic Constant Matrix: (Units=GPa)
#
#
# Indices 1 2 3 4 5 6 
#
# 1 99.3029 -0.8564 28.8987 0.0000 0.0000 0.0000
# 2 -0.8564 107.7660 18.8835 0.0000 0.0000 0.0000
# 3 28.8987 18.8835 100.5057 0.0000 0.0000 0.0000
# 4 0.0000 0.0000 0.0000 27.9647 0.0000 0.0000
# 5 0.0000 0.0000 0.0000 0.0000 9.5918 0.0000
# 6 0.0000 0.0000 0.0000 0.0000 0.0000 23.5743
#
#
#
# Elastic Compliance Matrix: (Units=1/GPa)
#
#
# Indices 1 2 3 4 5 6 
#
# 1 0.011036 0.000666 -0.003298 0.000000 0.000000 0.000000
# 2 0.000666 0.009635 -0.002002 0.000000 0.000000 0.000000
# 3 -0.003298 -0.002002 0.011274 0.000000 0.000000 0.000000
# 4 0.000000 0.000000 0.000000 0.035759 0.000000 0.000000
# 5 0.000000 0.000000 0.000000 0.000000 0.104256 0.000000
# 6 0.000000 0.000000 0.000000 0.000000 0.000000 0.042419
#
#
# Mechanical properties :
#
#
# Convention : Reuss Voigt Hill
#
# Bulk Modulus (GPa) = 44.09818 44.60292 44.35055
# Shear Modulus (GPa) = 21.62561 29.60272 25.61416
#
# Velocity S-wave (km/s) = 3.17019 3.70909 3.45018
# Velocity P-wave (km/s) = 5.82186 6.25073 6.04010
#
# Compressibility (1/GPa) = 0.02267667
#
# Stress axis : x y z
#
# Youngs Moduli (GPa) = 90.61435 103.78387 88.69863
#
# Poissons Ratio (x) = -0.06908 0.29255
# Poissons Ratio (y) = -0.06032 0.17755
# Poissons Ratio (z) = 0.29887 0.20775
#
# Static dielectric constant tensor:
#      x y z
#    x 1.663760 0.000000 0.000000 
#    y 0.000000 1.804300 0.000000 
#    z 0.000000 0.000000 2.073200 
# 
# From -- ./inp_files/17459.got.cif
#   From: 2010.05.17/outbox.cif.g08.bks.cpg/sg53_9_cif.got.tgz:17459.got - 2010.06.03 12:45:16.
