data_PCOD9419298
_publ_section_title
;
Structure prediction by ZEFSAII (Michael W. Deem and Ramdas Pophale) SiO2 
 PCOD9419298
Probable space group: P M N A
;
_chemical_formula_sum "Si O2"
_cell_formula_units_Z 32
_cell_length_a 14.252963
_cell_length_b 8.079045
_cell_length_c 12.006887
_cell_angle_alpha 90.000000
_cell_angle_beta 90.000000
_cell_angle_gamma 90.000000
_cell_volume 1382.596994
_symmetry_space_group_name_H-M "P M N A"
_symmetry_group_IT_number 53
_symmetry_cell_setting 'orthorhombic'
loop_
_space_group_symop_operation_xyz
x,y,z
1/2-x,-y,1/2+z
x,-y,-z
1/2-x,y,1/2-z
-x,-y,-z
1/2+x,y,1/2-z
-x,y,z
1/2+x,-y,1/2+z
loop_
_atom_site_type_symbol
_atom_site_label
_atom_site_fract_x
_atom_site_fract_y
_atom_site_fract_z
Si Si1 0.500000 0.455888 0.743303
Si Si2 0.709136 0.000000 0.000000
Si Si3 0.836714 0.945189 0.183796
Si Si4 0.106748 0.337359 0.558495
Si Si5 0.500000 0.832792 0.716940
Si Si6 0.500000 0.239536 0.549665
O O1 0.412400 0.375813 0.810659
O O2 0.500000 0.649833 0.763292
O O3 0.500000 0.416972 0.612462
O O4 0.653632 0.837321 0.036368
O O5 0.776908 0.057496 0.099601
O O6 0.750000 0.862538 0.250000
O O7 0.908964 0.060802 0.250882
O O8 0.906973 0.839676 0.106688
O O9 0.150464 0.500000 0.500000
O O10 0.000000 0.324564 0.513752
O O11 0.500000 0.804178 0.581052
#
# Coordination Sequence:
#
# PCOD9419298 Si02
#       6
#     4   4   8   8   4   4
#     4  10  22  41  66  96 126 184 227 275 351 405
#     4  12  21  43  68 100 136 182 226 290 352 394
#     4  11  24  40  69  99 131 183 237 280 345 421
#     4   9  22  41  65 102 141 174 229 293 348 411
#     4  11  23  46  67  92 142 182 229 283 350 410
#     4  11  21  48  63  96 137 181 233 282 335 428
#
# _framework density 23.144850000000002
#
# number of rings (size 3 to 8) (size 9 to 14) (size 15 to 20)
#    0.750    0.750    2.500    3.000    3.500    0.000 
#    6.750    1.250    0.000    0.000    0.000    0.000 
#    0.000    0.000    0.000    0.000    0.000    0.000 
#
# Total GULP energy -178281.135045 kJ/mol
# GULP energy per Si atom -5571.285470 kJ/mol
# Density = 2.309217 g / cm^3
# Si number density = 23.144850 Si / 1000 Ang^3
#
#
#
# Elastic Constant Matrix: (Units=GPa)
#
#
# Indices 1 2 3 4 5 6 
#
# 1 140.1597 54.0963 29.7295 0.0000 0.0000 0.0000
# 2 54.0963 116.9679 8.4727 0.0000 0.0000 0.0000
# 3 29.7295 8.4727 100.3120 0.0000 0.0000 0.0000
# 4 0.0000 0.0000 0.0000 37.7014 0.0000 0.0000
# 5 0.0000 0.0000 0.0000 0.0000 534.7445 0.0000
# 6 0.0000 0.0000 0.0000 0.0000 0.0000 -15.0785
#
#
#
# Elastic Compliance Matrix: (Units=1/GPa)
#
#
# Indices 1 2 3 4 5 6 
#
# 1 0.009220 -0.004091 -0.002387 0.000000 0.000000 0.000000
# 2 -0.004091 0.010417 0.000333 0.000000 0.000000 0.000000
# 3 -0.002387 0.000333 0.010648 0.000000 0.000000 0.000000
# 4 0.000000 0.000000 0.000000 0.026524 0.000000 0.000000
# 5 0.000000 0.000000 0.000000 0.000000 0.001870 0.000000
# 6 0.000000 0.000000 0.000000 0.000000 0.000000 -0.066319
#
#
# Mechanical properties :
#
#
# Convention : Reuss Voigt Hill
#
# Bulk Modulus (GPa) = 55.57259 60.22630 57.89945
# Shear Modulus (GPa) = 469.47814 129.14953 299.31384
#
# Velocity S-wave (km/s) = 14.25776 7.47808 11.38432
# Velocity P-wave (km/s) = 17.17871 10.03196 14.06677
#
# Compressibility (1/GPa) = 0.01799448
#
# Stress axis : x y z
#
# Youngs Moduli (GPa) = 108.45850 95.99290 93.91226
#
# Poissons Ratio (x) = 0.39274 0.22417
# Poissons Ratio (y) = 0.44374 -0.03124
# Poissons Ratio (z) = 0.25889 -0.03193
#
# Static dielectric constant tensor:
#      x y z
#    x 1.836090 0.000000 0.000000 
#    y 0.000000 1.881810 0.000000 
#    z 0.000000 0.000000 2.032340 
# 
# From -- ./inp_files/21519.got.cif
#   From: 2010.05.17/outbox.cif.g08.bks.cpg/sg53_11_cif.got.tgz:21519.got - 2010.06.03 12:45:16.
