data_PCOD9419081
_publ_section_title
;
Structure prediction by ZEFSAII (Michael W. Deem and Ramdas Pophale) SiO2 
 PCOD9419081
Probable space group: P M N A
;
_chemical_formula_sum "Si O2"
_cell_formula_units_Z 56
_cell_length_a 17.496917
_cell_length_b 5.097305
_cell_length_c 28.795198
_cell_angle_alpha 90.000000
_cell_angle_beta 90.000000
_cell_angle_gamma 90.000000
_cell_volume 2568.160852
_symmetry_space_group_name_H-M "P M N A"
_symmetry_group_IT_number 53
_symmetry_cell_setting 'orthorhombic'
loop_
_space_group_symop_operation_xyz
x,y,z
1/2-x,-y,1/2+z
x,-y,-z
1/2-x,y,1/2-z
-x,-y,-z
1/2+x,y,1/2-z
-x,y,z
1/2+x,-y,1/2+z
loop_
_atom_site_type_symbol
_atom_site_label
_atom_site_fract_x
_atom_site_fract_y
_atom_site_fract_z
Si Si1 0.316409 0.460313 0.553301
Si Si2 0.290626 0.555472 0.707214
Si Si3 0.587390 0.046404 0.421590
Si Si4 0.314558 0.363310 0.124185
Si Si5 0.580826 0.761082 0.329957
Si Si6 0.589062 0.884807 0.137275
Si Si7 0.083058 0.902089 0.741771
O O1 0.294282 0.500000 0.500000
O O2 0.383055 0.668846 0.565335
O O3 0.245331 0.534427 0.586066
O O4 0.353659 0.173460 0.560107
O O5 0.250000 0.400571 0.750000
O O6 0.230476 0.689453 0.672671
O O7 0.342168 0.399195 0.670629
O O8 0.348392 0.736956 0.736202
O O9 0.500000 0.002984 0.437572
O O10 0.587421 0.998899 0.366012
O O11 0.359354 0.099193 0.110580
O O12 0.374254 0.597878 0.133739
O O13 0.500000 0.623795 0.341746
O O14 0.577045 0.860390 0.277713
O O15 0.500000 0.883978 0.123370
O O16 0.592410 0.985261 0.190563
O O17 0.000000 0.759428 0.743059
#
# Coordination Sequence:
#
# PCOD9419081 Si02
#       7
#     8   8   8   8   8   8   8
#     4  12  26  46  70  99 136 174 223 286 345 399
#     4  12  22  35  60  92 130 172 218 271 315 379
#     4  11  24  43  68  98 138 186 230 275 328 394
#     4  12  25  44  69  98 132 169 221 277 339 404
#     4  10  22  38  57  84 131 180 220 265 317 378
#     4  11  25  46  69  96 132 174 218 275 336 407
#     4  10  22  37  57  88 131 182 226 261 317 384
#
# _framework density 21.805486999999999
#
# number of rings (size 3 to 8) (size 9 to 14) (size 15 to 20)
#    0.000    0.857    2.857    4.286    2.000    2.286 
#    0.000    0.000    0.000    2.571    0.000    0.000 
#    0.000    0.000    0.000    0.000    0.000    0.000 
#
# Total GULP energy -312973.320401 kJ/mol
# GULP energy per Si atom -5588.809293 kJ/mol
# Density = 2.175586 g / cm^3
# Si number density = 21.805487 Si / 1000 Ang^3
#
#
#
# Elastic Constant Matrix: (Units=GPa)
#
#
# Indices 1 2 3 4 5 6 
#
# 1 109.3231 14.0975 28.8873 0.0000 0.0000 0.0000
# 2 14.0975 51.4399 -17.0862 0.0000 0.0000 0.0000
# 3 28.8873 -17.0862 60.2513 0.0000 0.0000 0.0000
# 4 0.0000 0.0000 0.0000 16.5069 0.0000 0.0000
# 5 0.0000 0.0000 0.0000 0.0000 6.2542 0.0000
# 6 0.0000 0.0000 0.0000 0.0000 0.0000 41.9683
#
#
#
# Elastic Compliance Matrix: (Units=1/GPa)
#
#
# Indices 1 2 3 4 5 6 
#
# 1 0.011791 -0.005640 -0.007253 0.000000 0.000000 0.000000
# 2 -0.005640 0.024160 0.009556 0.000000 0.000000 0.000000
# 3 -0.007253 0.009556 0.022784 0.000000 0.000000 0.000000
# 4 0.000000 0.000000 0.000000 0.060581 0.000000 0.000000
# 5 0.000000 0.000000 0.000000 0.000000 0.159893 0.000000
# 6 0.000000 0.000000 0.000000 0.000000 0.000000 0.023827
#
#
# Mechanical properties :
#
#
# Convention : Reuss Voigt Hill
#
# Bulk Modulus (GPa) = 19.20854 30.31239 24.76047
# Shear Modulus (GPa) = 15.28751 25.95360 20.62056
#
# Velocity S-wave (km/s) = 2.65067 3.45372 3.07849
# Velocity P-wave (km/s) = 4.26571 5.46220 4.90061
#
# Compressibility (1/GPa) = 0.05206017
#
# Stress axis : x y z
#
# Youngs Moduli (GPa) = 84.81059 41.39082 43.89001
#
# Poissons Ratio (x) = 0.23346 0.31832
# Poissons Ratio (y) = 0.47837 -0.41940
# Poissons Ratio (z) = 0.61510 -0.39552
#
# Static dielectric constant tensor:
#      x y z
#    x 1.897870 0.000000 0.000000 
#    y 0.000000 1.812140 0.000000 
#    z 0.000000 0.000000 1.791510 
# 
# From -- ./inp_files/38886.got.cif
#   From: 2010.05.17/outbox.cif.g08.bks.cpg/sg53_20_cif.got.tgz:38886.got - 2010.06.03 12:45:16.
