data_PCOD9419359
_publ_section_title
;
Structure prediction by ZEFSAII (Michael W. Deem and Ramdas Pophale) SiO2 
 PCOD9419359
Probable space group: P M N A
;
_chemical_formula_sum "Si O2"
_cell_formula_units_Z 56
_cell_length_a 14.533954
_cell_length_b 8.878366
_cell_length_c 19.101329
_cell_angle_alpha 90.000000
_cell_angle_beta 90.000000
_cell_angle_gamma 90.000000
_cell_volume 2464.792765
_symmetry_space_group_name_H-M "P M N A"
_symmetry_group_IT_number 53
_symmetry_cell_setting 'orthorhombic'
loop_
_space_group_symop_operation_xyz
x,y,z
1/2-x,-y,1/2+z
x,-y,-z
1/2-x,y,1/2-z
-x,-y,-z
1/2+x,y,1/2-z
-x,y,z
1/2+x,-y,1/2+z
loop_
_atom_site_type_symbol
_atom_site_label
_atom_site_fract_x
_atom_site_fract_y
_atom_site_fract_z
Si Si1 0.786752 0.339240 0.033770
Si Si2 0.769377 0.968987 0.823837
Si Si3 0.892053 0.188744 0.905663
Si Si4 0.398330 0.849104 0.140731
Si Si5 0.894937 0.180280 0.487141
Si Si6 0.642692 0.379475 0.734927
Si Si7 0.894745 0.690732 0.824153
O O1 0.853458 0.358133 0.100380
O O2 0.765579 0.500000 0.000000
O O3 0.840938 0.244978 0.974792
O O4 0.691564 0.253823 0.052418
O O5 0.750000 0.052296 0.750000
O O6 0.821091 0.816962 0.801992
O O7 0.842116 0.040291 0.877363
O O8 0.671272 0.010678 0.856369
O O9 0.877296 0.302022 0.840119
O O10 0.000000 0.169451 0.917974
O O11 0.500000 0.914370 0.140539
O O12 0.383615 0.761952 0.067748
O O13 0.392928 0.729753 0.203835
O O14 0.000000 0.214284 0.463635
O O15 0.888493 0.000000 0.500000
O O16 0.750000 0.396657 0.750000
O O17 0.604955 0.548207 0.727489
O O18 0.000000 0.746648 0.830458
#
# Coordination Sequence:
#
# PCOD9419359 Si02
#       7
#     8   8   8   8   8   8   8
#     4  12  25  42  68 101 142 185 232 288 350 417
#     4  12  24  44  66 100 136 177 229 290 348 415
#     4  12  23  41  70 100 134 181 232 285 344 420
#     4  11  21  39  73 102 127 178 236 286 349 425
#     4  10  22  43  70 100 135 178 233 294 352 416
#     4  12  22  43  69  97 136 179 233 287 344 415
#     4  12  28  45  66 102 146 185 228 292 359 420
#
# _framework density 22.719963
#
# number of rings (size 3 to 8) (size 9 to 14) (size 15 to 20)
#    0.000    0.429    5.714    3.429    0.000    1.429 
#    0.000    1.429    0.000    0.000    0.000    0.000 
#    0.000    0.000    0.000    0.000    0.000    0.000 
#
# Total GULP energy -312710.087238 kJ/mol
# GULP energy per Si atom -5584.108701 kJ/mol
# Density = 2.266825 g / cm^3
# Si number density = 22.719963 Si / 1000 Ang^3
#
#
#
# Elastic Constant Matrix: (Units=GPa)
#
#
# Indices 1 2 3 4 5 6 
#
# 1 206.2393 50.2840 21.3451 0.0000 0.0000 0.0000
# 2 50.2840 89.8994 21.2375 0.0000 0.0000 0.0000
# 3 21.3451 21.2375 70.8236 0.0000 0.0000 0.0000
# 4 0.0000 0.0000 0.0000 34.7230 0.0000 0.0000
# 5 0.0000 0.0000 0.0000 0.0000 18.7114 0.0000
# 6 0.0000 0.0000 0.0000 0.0000 0.0000 -9.5317
#
#
#
# Elastic Compliance Matrix: (Units=1/GPa)
#
#
# Indices 1 2 3 4 5 6 
#
# 1 0.005658 -0.002972 -0.000814 0.000000 0.000000 0.000000
# 2 -0.002972 0.013533 -0.003162 0.000000 0.000000 0.000000
# 3 -0.000814 -0.003162 0.015313 0.000000 0.000000 0.000000
# 4 0.000000 0.000000 0.000000 0.028799 0.000000 0.000000
# 5 0.000000 0.000000 0.000000 0.000000 0.053443 0.000000
# 6 0.000000 0.000000 0.000000 0.000000 0.000000 -0.104913
#
#
# Mechanical properties :
#
#
# Convention : Reuss Voigt Hill
#
# Bulk Modulus (GPa) = 48.52711 61.41062 54.96887
# Shear Modulus (GPa) = 153.37586 27.05358 90.21472
#
# Velocity S-wave (km/s) = 8.22518 3.45445 6.30820
# Velocity P-wave (km/s) = 10.56456 6.55737 8.79230
#
# Compressibility (1/GPa) = 0.02060704
#
# Stress axis : x y z
#
# Youngs Moduli (GPa) = 176.75192 73.89291 65.30343
#
# Poissons Ratio (x) = 0.21963 0.05315
# Poissons Ratio (y) = 0.52535 0.20651
# Poissons Ratio (z) = 0.14385 0.23367
#
# Static dielectric constant tensor:
#      x y z
#    x 1.883510 0.000000 0.000000 
#    y 0.000000 1.901580 0.000000 
#    z 0.000000 0.000000 1.930340 
# 
# From -- ./inp_files/32446.got.cif
#   From: 2010.05.17/outbox.cif.g08.bks.cpg/sg53_17_cif.got.tgz:32446.got - 2010.06.03 12:45:16.
