data_PCOD9419271
_publ_section_title
;
Structure prediction by ZEFSAII (Michael W. Deem and Ramdas Pophale) SiO2 
 PCOD9419271
Probable space group: P M N A
;
_chemical_formula_sum "Si O2"
_cell_formula_units_Z 32
_cell_length_a 18.124925
_cell_length_b 12.529701
_cell_length_c 7.337604
_cell_angle_alpha 90.000000
_cell_angle_beta 90.000000
_cell_angle_gamma 90.000000
_cell_volume 1666.369068
_symmetry_space_group_name_H-M "P M N A"
_symmetry_group_IT_number 53
_symmetry_cell_setting 'orthorhombic'
loop_
_space_group_symop_operation_xyz
x,y,z
1/2-x,-y,1/2+z
x,-y,-z
1/2-x,y,1/2-z
-x,-y,-z
1/2+x,y,1/2-z
-x,y,z
1/2+x,-y,1/2+z
loop_
_atom_site_type_symbol
_atom_site_label
_atom_site_fract_x
_atom_site_fract_y
_atom_site_fract_z
Si Si1 0.915389 0.495516 0.721551
Si Si2 0.088268 0.876882 0.022139
Si Si3 0.911765 0.734769 0.355942
Si Si4 0.337684 0.711565 0.752788
O O1 0.914206 0.500000 0.500000
O O2 0.892860 0.373512 0.756175
O O3 0.866255 0.591890 0.792535
O O4 0.000000 0.512590 0.779792
O O5 0.128947 0.798689 0.883148
O O6 0.000000 0.867891 0.990084
O O7 0.102343 0.834510 0.226104
O O8 0.109549 0.000000 0.000000
O O9 0.868496 0.736227 0.544631
O O10 0.000000 0.727937 0.394584
O O11 0.250000 0.713913 0.750000
#
# Coordination Sequence:
#
# PCOD9419271 Si02
#       4
#     8   8   8   8
#     4   8  15  33  59  84 114 152 194 234 283 350
#     4  10  22  41  63  87 111 151 213 252 276 339
#     4   9  19  39  64  87 116 155 196 245 294 339
#     4  11  22  37  55  89 123 159 187 238 304 355
#
# _framework density 19.203427999999999
#
# number of rings (size 3 to 8) (size 9 to 14) (size 15 to 20)
#    0.000    2.500    0.000    3.750    0.000    3.000 
#   18.000    7.500    0.000    0.000    0.000    0.000 
#    0.000    0.000    0.000    0.000    0.000    0.000 
#
# Total GULP energy -178666.041639 kJ/mol
# GULP energy per Si atom -5583.313801 kJ/mol
# Density = 1.915972 g / cm^3
# Si number density = 19.203428 Si / 1000 Ang^3
#
#
#
# Elastic Constant Matrix: (Units=GPa)
#
#
# Indices 1 2 3 4 5 6 
#
# 1 67.7248 39.7676 50.3377 0.0000 0.0000 0.0000
# 2 39.7676 100.5214 39.4945 0.0000 0.0000 0.0000
# 3 50.3377 39.4945 88.6284 0.0000 0.0000 0.0000
# 4 0.0000 0.0000 0.0000 30.3550 0.0000 0.0000
# 5 0.0000 0.0000 0.0000 0.0000 8.8449 0.0000
# 6 0.0000 0.0000 0.0000 0.0000 0.0000 141.3772
#
#
#
# Elastic Compliance Matrix: (Units=1/GPa)
#
#
# Indices 1 2 3 4 5 6 
#
# 1 0.028161 -0.005887 -0.013371 0.000000 0.000000 0.000000
# 2 -0.005887 0.013290 -0.002579 0.000000 0.000000 0.000000
# 3 -0.013371 -0.002579 0.020026 0.000000 0.000000 0.000000
# 4 0.000000 0.000000 0.000000 0.032944 0.000000 0.000000
# 5 0.000000 0.000000 0.000000 0.000000 0.113059 0.000000
# 6 0.000000 0.000000 0.000000 0.000000 0.000000 0.007073
#
#
# Mechanical properties :
#
#
# Convention : Reuss Voigt Hill
#
# Bulk Modulus (GPa) = 56.16770 57.34159 56.75465
# Shear Modulus (GPa) = 18.92779 44.60040 31.76409
#
# Velocity S-wave (km/s) = 3.14291 4.82448 4.07146
# Velocity P-wave (km/s) = 6.51788 7.80763 7.19173
#
# Compressibility (1/GPa) = 0.01780383
#
# Stress axis : x y z
#
# Youngs Moduli (GPa) = 35.51033 75.24214 49.93445
#
# Poissons Ratio (x) = 0.44299 0.66766
# Poissons Ratio (y) = 0.20907 0.12876
# Poissons Ratio (z) = 0.47480 0.19402
#
# Static dielectric constant tensor:
#      x y z
#    x 1.640790 0.000000 0.000000 
#    y 0.000000 1.685810 0.000000 
#    z 0.000000 0.000000 1.684270 
# 
# From -- ./inp_files/8038.got.cif
#   From: 2010.05.17/outbox.cif.g08.bks.cpg/sg53_5_cif.got.tgz:8038.got - 2010.06.03 12:45:16.
