data_PCOD9419874
_publ_section_title
;
Structure prediction by ZEFSAII (Michael W. Deem and Ramdas Pophale) SiO2 
 PCOD9419874
Probable space group: P M N A
;
_chemical_formula_sum "Si O2"
_cell_formula_units_Z 64
_cell_length_a 19.408816
_cell_length_b 10.040460
_cell_length_c 19.410866
_cell_angle_alpha 90.000000
_cell_angle_beta 90.000000
_cell_angle_gamma 90.000000
_cell_volume 3782.662244
_symmetry_space_group_name_H-M "P M N A"
_symmetry_group_IT_number 53
_symmetry_cell_setting 'orthorhombic'
loop_
_space_group_symop_operation_xyz
x,y,z
1/2-x,-y,1/2+z
x,-y,-z
1/2-x,y,1/2-z
-x,-y,-z
1/2+x,y,1/2-z
-x,y,z
1/2+x,-y,1/2+z
loop_
_atom_site_type_symbol
_atom_site_label
_atom_site_fract_x
_atom_site_fract_y
_atom_site_fract_z
Si Si1 0.920523 0.273474 0.270104
Si Si2 0.923244 0.274244 0.104265
Si Si3 0.201453 0.781966 0.317615
Si Si4 0.721377 0.869884 0.455990
Si Si5 0.419664 0.964641 0.232392
Si Si6 0.921585 0.041223 0.898135
Si Si7 0.199938 0.464811 0.315922
Si Si8 0.283539 0.378760 0.448945
O O1 0.919209 0.286256 0.187074
O O2 0.868994 0.380737 0.301746
O O3 0.000000 0.292432 0.291997
O O4 0.900958 0.118828 0.283916
O O5 0.862844 0.359892 0.072552
O O6 0.000000 0.313236 0.082181
O O7 0.913880 0.117104 0.088063
O O8 0.250000 0.798669 0.250000
O O9 0.238398 0.843209 0.384858
O O10 0.131501 0.862125 0.303201
O O11 0.189106 0.623364 0.326253
O O12 0.640508 0.882388 0.434683
O O13 0.735527 0.750542 0.507884
O O14 0.739769 0.000000 0.500000
O O15 0.500000 0.945980 0.213967
O O16 0.415086 0.945467 0.315324
O O17 0.000000 0.080248 0.917800
O O18 0.250000 0.449746 0.250000
O O19 0.238661 0.403540 0.381424
O O20 0.275278 0.500000 0.500000
#
# Coordination Sequence:
#
# PCOD9419874 Si02
#       8
#     8   8   8   8   8   8   8   8
#     4   9  19  36  62  91 114 145 198 246 285 339
#     4   9  18  35  57  83 117 158 197 231 278 348
#     4  11  23  39  60  86 119 154 199 242 287 345
#     4  12  24  37  57  89 117 157 199 237 291 346
#     4   9  19  36  62  91 117 144 191 252 292 333
#     4   9  18  35  57  85 118 155 195 233 283 346
#     4  11  23  39  61  84 115 161 199 239 289 343
#     4  12  24  39  54  82 126 153 192 244 291 341
#
# _framework density 16.9193
#
# number of rings (size 3 to 8) (size 9 to 14) (size 15 to 20)
#    0.000    1.750    5.000    1.500    1.750    2.000 
#    0.000    0.000    0.000    1.500    0.000    0.000 
#    0.000    0.000    0.000    0.000    0.000    0.000 
#
# Total GULP energy -357140.954399 kJ/mol
# GULP energy per Si atom -5580.327412 kJ/mol
# Density = 1.688079 g / cm^3
# Si number density = 16.919300 Si / 1000 Ang^3
#
#
#
# Elastic Constant Matrix: (Units=GPa)
#
#
# Indices 1 2 3 4 5 6 
#
# 1 92.1738 64.5066 58.7399 0.0000 0.0000 0.0000
# 2 64.5066 122.6797 65.8227 0.0000 0.0000 0.0000
# 3 58.7399 65.8227 108.0149 0.0000 0.0000 0.0000
# 4 0.0000 0.0000 0.0000 42.3265 0.0000 0.0000
# 5 0.0000 0.0000 0.0000 0.0000 30.9112 0.0000
# 6 0.0000 0.0000 0.0000 0.0000 0.0000 21.3526
#
#
#
# Elastic Compliance Matrix: (Units=1/GPa)
#
#
# Indices 1 2 3 4 5 6 
#
# 1 0.019902 -0.006920 -0.006606 0.000000 0.000000 0.000000
# 2 -0.006920 0.014518 -0.005083 0.000000 0.000000 0.000000
# 3 -0.006606 -0.005083 0.015948 0.000000 0.000000 0.000000
# 4 0.000000 0.000000 0.000000 0.023626 0.000000 0.000000
# 5 0.000000 0.000000 0.000000 0.000000 0.032351 0.000000
# 6 0.000000 0.000000 0.000000 0.000000 0.000000 0.046833
#
#
# Mechanical properties :
#
#
# Convention : Reuss Voigt Hill
#
# Bulk Modulus (GPa) = 76.05470 77.88965 76.97217
# Shear Modulus (GPa) = 25.67016 27.83801 26.75409
#
# Velocity S-wave (km/s) = 3.89937 4.06068 3.98084
# Velocity P-wave (km/s) = 8.08223 8.25357 8.16835
#
# Compressibility (1/GPa) = 0.01314843
#
# Stress axis : x y z
#
# Youngs Moduli (GPa) = 50.24644 68.88180 62.70388
#
# Poissons Ratio (x) = 0.47669 0.41420
# Poissons Ratio (y) = 0.34773 0.31875
# Poissons Ratio (z) = 0.33191 0.35015
#
# Static dielectric constant tensor:
#      x y z
#    x 1.563420 0.000000 0.000000 
#    y 0.000000 1.547940 0.000000 
#    z 0.000000 0.000000 1.565260 
# 
# From -- ./inp_files/32842.got.cif
#   From: 2010.05.17/outbox.cif.g08.bks.cpg/sg53_17_cif.got.tgz:32842.got - 2010.06.03 12:45:16.
