data_PCOD9419982
_publ_section_title
;
Structure prediction by ZEFSAII (Michael W. Deem and Ramdas Pophale) SiO2 
 PCOD9419982
Probable space group: P M N A
;
_chemical_formula_sum "Si O2"
_cell_formula_units_Z 40
_cell_length_a 25.846664
_cell_length_b 8.301367
_cell_length_c 7.578922
_cell_angle_alpha 90.000000
_cell_angle_beta 90.000000
_cell_angle_gamma 90.000000
_cell_volume 1626.153540
_symmetry_space_group_name_H-M "P M N A"
_symmetry_group_IT_number 53
_symmetry_cell_setting 'orthorhombic'
loop_
_space_group_symop_operation_xyz
x,y,z
1/2-x,-y,1/2+z
x,-y,-z
1/2-x,y,1/2-z
-x,-y,-z
1/2+x,y,1/2-z
-x,y,z
1/2+x,-y,1/2+z
loop_
_atom_site_type_symbol
_atom_site_label
_atom_site_fract_x
_atom_site_fract_y
_atom_site_fract_z
Si Si1 0.112967 0.323937 0.237287
Si Si2 0.207089 0.111176 0.852852
Si Si3 0.111891 0.293313 0.811920
Si Si4 0.500000 0.708148 0.309476
Si Si5 0.284730 0.672165 0.919993
Si Si6 0.500000 0.669765 0.736101
O O1 0.114059 0.520069 0.245038
O O2 0.161293 0.255447 0.345456
O O3 0.055800 0.270205 0.300751
O O4 0.116792 0.292004 0.026529
O O5 0.250000 0.006660 0.750000
O O6 0.161502 0.195965 0.747672
O O7 0.245861 0.237196 0.946599
O O8 0.182335 0.000000 0.000000
O O9 0.055903 0.222310 0.761598
O O10 0.500000 0.696167 0.523555
O O11 0.500000 0.523903 0.240796
O O12 0.250000 0.637449 0.750000
O O13 0.298139 0.500000 0.000000
#
# Coordination Sequence:
#
# PCOD9419982 Si02
#       6
#     8   8   8   4   8   4
#     4   9  16  29  55  83 113 144 181 226 274 323
#     4  12  26  41  56  79 112 150 188 233 284 336
#     4   9  16  32  54  84 112 143 182 232 274 327
#     4   7  12  24  51  80 110 138 177 227 277 315
#     4  12  22  35  56  83 112 149 189 228 274 330
#     4   7  12  24  45  82 114 139 173 222 275 321
#
# _framework density 24.597923999999999
#
# number of rings (size 3 to 8) (size 9 to 14) (size 15 to 20)
#    0.000    2.200    2.000    6.000    0.000    0.000 
#    0.000    1.000    0.000    1.200    0.000    1.400 
#    0.000    0.000    0.000    0.000    0.000    0.000 
#
# Total GULP energy -223393.103500 kJ/mol
# GULP energy per Si atom -5584.827588 kJ/mol
# Density = 2.454194 g / cm^3
# Si number density = 24.597924 Si / 1000 Ang^3
#
#
#
# Elastic Constant Matrix: (Units=GPa)
#
#
# Indices 1 2 3 4 5 6 
#
# 1 241.1904 16.1572 36.3681 0.0000 0.0000 0.0000
# 2 16.1572 25.2409 -1.9298 0.0000 0.0000 0.0000
# 3 36.3681 -1.9298 63.9581 0.0000 0.0000 0.0000
# 4 0.0000 0.0000 0.0000 16.2260 0.0000 0.0000
# 5 0.0000 0.0000 0.0000 0.0000 23.9658 0.0000
# 6 0.0000 0.0000 0.0000 0.0000 0.0000 12.1892
#
#
#
# Elastic Compliance Matrix: (Units=1/GPa)
#
#
# Indices 1 2 3 4 5 6 
#
# 1 0.004792 -0.003283 -0.002824 0.000000 0.000000 0.000000
# 2 -0.003283 0.041959 0.003133 0.000000 0.000000 0.000000
# 3 -0.002824 0.003133 0.017335 0.000000 0.000000 0.000000
# 4 0.000000 0.000000 0.000000 0.061629 0.000000 0.000000
# 5 0.000000 0.000000 0.000000 0.000000 0.041726 0.000000
# 6 0.000000 0.000000 0.000000 0.000000 0.000000 0.082040
#
#
# Mechanical properties :
#
#
# Convention : Reuss Voigt Hill
#
# Bulk Modulus (GPa) = 17.20030 47.95337 32.57683
# Shear Modulus (GPa) = 18.19440 29.12913 23.66176
#
# Velocity S-wave (km/s) = 2.72264 3.44497 3.10488
# Velocity P-wave (km/s) = 4.10992 5.94651 5.11138
#
# Compressibility (1/GPa) = 0.05813852
#
# Stress axis : x y z
#
# Youngs Moduli (GPa) = 208.68836 23.83254 57.68523
#
# Poissons Ratio (x) = 0.07825 0.16289
# Poissons Ratio (y) = 0.68517 -0.18072
# Poissons Ratio (z) = 0.58930 -0.07467
#
# Static dielectric constant tensor:
#      x y z
#    x 1.974420 0.000000 0.000000 
#    y 0.000000 1.916390 0.000000 
#    z 0.000000 0.000000 2.094860 
# 
# From -- ./inp_files/12335.got.cif
#   From: 2010.05.17/outbox.cif.g08.bks.cpg/sg53_7_cif.got.tgz:12335.got - 2010.06.03 12:45:16.
