data_PCOD9419679
_publ_section_title
;
Structure prediction by ZEFSAII (Michael W. Deem and Ramdas Pophale) SiO2 
 PCOD9419679
Probable space group: P M N A
;
_chemical_formula_sum "Si O2"
_cell_formula_units_Z 48
_cell_length_a 7.705895
_cell_length_b 18.428392
_cell_length_c 13.495578
_cell_angle_alpha 90.000000
_cell_angle_beta 90.000000
_cell_angle_gamma 90.000000
_cell_volume 1916.469970
_symmetry_space_group_name_H-M "P M N A"
_symmetry_group_IT_number 53
_symmetry_cell_setting 'orthorhombic'
loop_
_space_group_symop_operation_xyz
x,y,z
1/2-x,-y,1/2+z
x,-y,-z
1/2-x,y,1/2-z
-x,-y,-z
1/2+x,y,1/2-z
-x,y,z
1/2+x,-y,1/2+z
loop_
_atom_site_type_symbol
_atom_site_label
_atom_site_fract_x
_atom_site_fract_y
_atom_site_fract_z
Si Si1 0.302020 0.487340 0.617491
Si Si2 0.713479 0.824311 0.426912
Si Si3 0.202174 0.668036 0.081404
Si Si4 0.791392 0.865243 0.853758
Si Si5 0.806985 0.354628 0.358512
Si Si6 0.697431 0.019957 0.616443
O O1 0.316317 0.500000 0.500000
O O2 0.500000 0.490118 0.656850
O O3 0.223196 0.406638 0.626095
O O4 0.198630 0.557699 0.650113
O O5 0.500000 0.825143 0.424093
O O6 0.774124 0.746410 0.387961
O O7 0.765311 0.830295 0.543037
O O8 0.773361 0.899315 0.376023
O O9 0.207114 0.664012 0.960262
O O10 0.000000 0.666222 0.108678
O O11 0.750000 0.828290 0.750000
O O12 0.000000 0.871106 0.861655
O O13 0.713227 0.946756 0.847039
O O14 0.750000 0.328891 0.250000
O O15 0.000000 0.328854 0.377016
O O16 0.500000 0.024400 0.655828
O O17 0.683426 0.000000 0.500000
#
# Coordination Sequence:
#
# PCOD9419679 Si02
#       6
#     8   8   8   8   8   8
#     4   8  15  29  47  66  88 114 146 181 216 259
#     4   8  14  26  45  66  86 113 148 180 210 251
#     4   9  17  30  48  69  92 116 144 180 222 267
#     4   9  16  26  42  64  89 115 146 181 215 253
#     4  11  21  32  47  66  90 118 148 181 218 261
#     4   7  11  22  41  62  81 108 149 185 206 238
#
# _framework density 25.046049
#
# number of rings (size 3 to 8) (size 9 to 14) (size 15 to 20)
#    0.000    3.333    0.000    4.500    0.000    3.667 
#    0.000    2.500    0.000    6.500    0.000    2.333 
#    0.000    0.000    0.000    0.000    0.000    0.000 
#
# Total GULP energy -267542.614965 kJ/mol
# GULP energy per Si atom -5573.804478 kJ/mol
# Density = 2.498904 g / cm^3
# Si number density = 25.046049 Si / 1000 Ang^3
#
#
#
# Elastic Constant Matrix: (Units=GPa)
#
#
# Indices 1 2 3 4 5 6 
#
# 1 51.4685 6.6246 -5.2408 0.0000 0.0000 0.0000
# 2 6.6246 221.0791 -7.8475 0.0000 0.0000 0.0000
# 3 -5.2408 -7.8475 54.9760 0.0000 0.0000 0.0000
# 4 0.0000 0.0000 0.0000 -11.4282 0.0000 0.0000
# 5 0.0000 0.0000 0.0000 0.0000 8.0376 0.0000
# 6 0.0000 0.0000 0.0000 0.0000 0.0000 3.2975
#
#
#
# Elastic Compliance Matrix: (Units=1/GPa)
#
#
# Indices 1 2 3 4 5 6 
#
# 1 0.019680 -0.000526 0.001801 0.000000 0.000000 0.000000
# 2 -0.000526 0.004560 0.000601 0.000000 0.000000 0.000000
# 3 0.001801 0.000601 0.018447 0.000000 0.000000 0.000000
# 4 0.000000 0.000000 0.000000 -0.087503 0.000000 0.000000
# 5 0.000000 0.000000 0.000000 0.000000 0.124415 0.000000
# 6 0.000000 0.000000 0.000000 0.000000 0.000000 0.303259
#
#
# Mechanical properties :
#
#
# Convention : Reuss Voigt Hill
#
# Bulk Modulus (GPa) = 21.53308 34.95513 28.24411
# Shear Modulus (GPa) = 12.67148 22.24721 17.45935
#
# Velocity S-wave (km/s) = 2.25172 2.98359 2.64311
# Velocity P-wave (km/s) = 3.92128 5.08485 4.54049
#
# Compressibility (1/GPa) = 0.04644018
#
# Stress axis : x y z
#
# Youngs Moduli (GPa) = 50.81195 219.28134 54.20872
#
# Poissons Ratio (x) = 0.11530 -0.09763
# Poissons Ratio (y) = 0.02672 -0.03257
# Poissons Ratio (z) = -0.09151 -0.13175
#
# Static dielectric constant tensor:
#      x y z
#    x 1.920660 0.000000 0.000000 
#    y 0.000000 2.055000 0.000000 
#    z 0.000000 0.000000 2.025450 
# 
# From -- ./inp_files/20335.got.cif
#   From: 2010.05.17/outbox.cif.g08.bks.cpg/sg53_11_cif.got.tgz:20335.got - 2010.06.03 12:45:16.
