data_PCOD9419190
_publ_section_title
;
Structure prediction by ZEFSAII (Michael W. Deem and Ramdas Pophale) SiO2 
 PCOD9419190
Probable space group: P M N A
;
_chemical_formula_sum "Si O2"
_cell_formula_units_Z 32
_cell_length_a 14.344466
_cell_length_b 13.741474
_cell_length_c 6.927427
_cell_angle_alpha 90.000000
_cell_angle_beta 90.000000
_cell_angle_gamma 90.000000
_cell_volume 1365.493584
_symmetry_space_group_name_H-M "P M N A"
_symmetry_group_IT_number 53
_symmetry_cell_setting 'orthorhombic'
loop_
_space_group_symop_operation_xyz
x,y,z
1/2-x,-y,1/2+z
x,-y,-z
1/2-x,y,1/2-z
-x,-y,-z
1/2+x,y,1/2-z
-x,y,z
1/2+x,-y,1/2+z
loop_
_atom_site_type_symbol
_atom_site_label
_atom_site_fract_x
_atom_site_fract_y
_atom_site_fract_z
Si Si1 0.839208 0.918377 0.138932
Si Si2 0.104404 0.231876 0.115260
Si Si3 0.730546 0.614977 0.524237
Si Si4 0.103715 0.251158 0.573195
O O1 0.750000 0.960903 0.250000
O O2 0.884953 0.848178 0.301919
O O3 0.817532 0.837445 0.976771
O O4 0.885017 0.000000 0.000000
O O5 0.129633 0.334018 0.014213
O O6 0.105380 0.227807 0.344703
O O7 0.000000 0.201133 0.056797
O O8 0.730592 0.500000 0.500000
O O9 0.750000 0.633503 0.750000
O O10 0.813491 0.669181 0.407553
O O11 0.000000 0.291352 0.612475
#
# Coordination Sequence:
#
# PCOD9419190 Si02
#       4
#     8   8   8   8
#     4  12  27  42  73 103 138 185 235 289 360 426
#     4  10  23  45  69  97 140 187 235 289 349 417
#     4  10  22  39  67 102 140 187 236 286 355 415
#     4  10  23  45  68  97 141 184 233 293 348 418
#
# _framework density 23.434747999999999
#
# number of rings (size 3 to 8) (size 9 to 14) (size 15 to 20)
#    0.000    1.500    2.500    0.750    7.000    3.000 
#    0.000    2.500    0.000    0.000    0.000    0.000 
#    0.000    0.000    0.000    0.000    0.000    0.000 
#
# Total GULP energy -178163.073197 kJ/mol
# GULP energy per Si atom -5567.596037 kJ/mol
# Density = 2.338141 g / cm^3
# Si number density = 23.434748 Si / 1000 Ang^3
#
#
#
# Elastic Constant Matrix: (Units=GPa)
#
#
# Indices 1 2 3 4 5 6 
#
# 1 111.2521 59.5968 48.5058 0.0000 0.0000 0.0000
# 2 59.5968 131.0593 48.4080 0.0000 0.0000 0.0000
# 3 48.5058 48.4080 147.9972 0.0000 0.0000 0.0000
# 4 0.0000 0.0000 0.0000 43.4594 0.0000 0.0000
# 5 0.0000 0.0000 0.0000 0.0000 28.2943 0.0000
# 6 0.0000 0.0000 0.0000 0.0000 0.0000 5.5711
#
#
#
# Elastic Compliance Matrix: (Units=1/GPa)
#
#
# Indices 1 2 3 4 5 6 
#
# 1 0.012697 -0.004819 -0.002585 0.000000 0.000000 0.000000
# 2 -0.004819 0.010508 -0.001857 0.000000 0.000000 0.000000
# 3 -0.002585 -0.001857 0.008212 0.000000 0.000000 0.000000
# 4 0.000000 0.000000 0.000000 0.023010 0.000000 0.000000
# 5 0.000000 0.000000 0.000000 0.000000 0.035343 0.000000
# 6 0.000000 0.000000 0.000000 0.000000 0.000000 0.179496
#
#
# Mechanical properties :
#
#
# Convention : Reuss Voigt Hill
#
# Bulk Modulus (GPa) = 77.56065 78.14774 77.85419
# Shear Modulus (GPa) = 17.11821 31.05151 24.08486
#
# Velocity S-wave (km/s) = 2.70564 3.64403 3.20932
# Velocity P-wave (km/s) = 6.55202 7.15015 6.85761
#
# Compressibility (1/GPa) = 0.01289314
#
# Stress axis : x y z
#
# Youngs Moduli (GPa) = 78.75735 95.16980 121.77648
#
# Poissons Ratio (x) = 0.45862 0.31483
# Poissons Ratio (y) = 0.37953 0.22620
# Poissons Ratio (z) = 0.20361 0.17678
#
# Static dielectric constant tensor:
#      x y z
#    x 1.913870 0.000000 0.000000 
#    y 0.000000 1.952360 0.000000 
#    z 0.000000 0.000000 1.936220 
# 
# From -- ./inp_files/7994.got.cif
#   From: 2010.05.17/outbox.cif.g08.bks.cpg/sg53_4_cif.got.tgz:7994.got - 2010.06.03 12:45:16.
