data_PCOD9419396
_publ_section_title
;
Structure prediction by ZEFSAII (Michael W. Deem and Ramdas Pophale) SiO2 
 PCOD9419396
Probable space group: P M N A
;
_chemical_formula_sum "Si O2"
_cell_formula_units_Z 32
_cell_length_a 15.795100
_cell_length_b 13.613544
_cell_length_c 6.809178
_cell_angle_alpha 90.000000
_cell_angle_beta 90.000000
_cell_angle_gamma 90.000000
_cell_volume 1464.159085
_symmetry_space_group_name_H-M "P M N A"
_symmetry_group_IT_number 53
_symmetry_cell_setting 'orthorhombic'
loop_
_space_group_symop_operation_xyz
x,y,z
1/2-x,-y,1/2+z
x,-y,-z
1/2-x,y,1/2-z
-x,-y,-z
1/2+x,y,1/2-z
-x,y,z
1/2+x,-y,1/2+z
loop_
_atom_site_type_symbol
_atom_site_label
_atom_site_fract_x
_atom_site_fract_y
_atom_site_fract_z
Si Si1 0.000000 0.536204 0.284858
Si Si2 0.650586 0.000000 0.000000
Si Si3 0.146490 0.500000 0.000000
Si Si4 0.000000 0.244819 0.547558
Si Si5 0.683118 0.785646 0.923481
Si Si6 0.500000 0.042766 0.717394
Si Si7 0.250000 0.651426 0.250000
O O1 0.000000 0.500000 0.500000
O O2 0.918890 0.489030 0.178666
O O3 0.000000 0.654489 0.321043
O O4 0.586039 0.004346 0.817501
O O5 0.700881 0.899299 0.977020
O O6 0.204548 0.414776 0.913941
O O7 0.918385 0.230115 0.403010
O O8 0.000000 0.156963 0.710375
O O9 0.750000 0.758247 0.750000
O O10 0.693704 0.721623 0.119071
O O11 0.500000 0.000000 0.500000
#
# Coordination Sequence:
#
# PCOD9419396 Si02
#       7
#     4   4   4   4   8   4   4
#     4  11  25  49  77 104 139 197 249 311 386 450
#     4   9  22  44  66 109 146 184 250 291 358 453
#     4  11  28  48  72 103 146 190 252 317 368 443
#     4  10  22  48  72 113 151 184 265 304 367 471
#     4  11  26  46  75 107 153 198 242 315 373 448
#     4   9  19  41  73 102 145 192 228 306 366 429
#     4  12  28  44  70 108 142 194 254 306 380 448
#
# _framework density 21.855546
#
# number of rings (size 3 to 8) (size 9 to 14) (size 15 to 20)
#    0.000    1.500    2.500    0.750    8.750    4.000 
#    0.000    3.750    0.000    0.000    0.000    0.000 
#    0.000    0.000    0.000    0.000    0.000    0.000 
#
# Total GULP energy -178228.139208 kJ/mol
# GULP energy per Si atom -5569.629350 kJ/mol
# Density = 2.180580 g / cm^3
# Si number density = 21.855546 Si / 1000 Ang^3
#
#
#
# Elastic Constant Matrix: (Units=GPa)
#
#
# Indices 1 2 3 4 5 6 
#
# 1 101.2482 36.6690 36.2743 0.0000 0.0000 0.0000
# 2 36.6690 135.0214 52.6839 0.0000 0.0000 0.0000
# 3 36.2743 52.6839 140.1347 0.0000 0.0000 0.0000
# 4 0.0000 0.0000 0.0000 30.8877 0.0000 0.0000
# 5 0.0000 0.0000 0.0000 0.0000 48.0986 0.0000
# 6 0.0000 0.0000 0.0000 0.0000 0.0000 31.7593
#
#
#
# Elastic Compliance Matrix: (Units=1/GPa)
#
#
# Indices 1 2 3 4 5 6 
#
# 1 0.011461 -0.002291 -0.002105 0.000000 0.000000 0.000000
# 2 -0.002291 0.009137 -0.002842 0.000000 0.000000 0.000000
# 3 -0.002105 -0.002842 0.008749 0.000000 0.000000 0.000000
# 4 0.000000 0.000000 0.000000 0.032375 0.000000 0.000000
# 5 0.000000 0.000000 0.000000 0.000000 0.020791 0.000000
# 6 0.000000 0.000000 0.000000 0.000000 0.000000 0.031487
#
#
# Mechanical properties :
#
#
# Convention : Reuss Voigt Hill
#
# Bulk Modulus (GPa) = 67.24696 69.73984 68.49340
# Shear Modulus (GPa) = 37.47160 38.86760 38.16960
#
# Velocity S-wave (km/s) = 4.14516 4.22167 4.18359
# Velocity P-wave (km/s) = 7.33113 7.46606 7.39890
#
# Compressibility (1/GPa) = 0.01487056
#
# Stress axis : x y z
#
# Youngs Moduli (GPa) = 87.25443 109.44007 114.29238
#
# Poissons Ratio (x) = 0.25073 0.24062
# Poissons Ratio (y) = 0.19990 0.32484
# Poissons Ratio (z) = 0.18370 0.31105
#
# Static dielectric constant tensor:
#      x y z
#    x 2.333660 0.000000 0.000000 
#    y 0.000000 -0.627190 0.000000 
#    z 0.000000 0.000000 1.755550 
# 
# From -- ./inp_files/2025.got.cif
#   From: 2010.05.17/outbox.cif.g08.bks.cpg/sg53_2_cif.got.tgz:2025.got - 2010.06.03 12:45:16.
