data_PCOD9419939
_publ_section_title
;
Structure prediction by ZEFSAII (Michael W. Deem and Ramdas Pophale) SiO2 
 PCOD9419939
Probable space group: P M N A
;
_chemical_formula_sum "Si O2"
_cell_formula_units_Z 32
_cell_length_a 10.287729
_cell_length_b 14.372598
_cell_length_c 11.786918
_cell_angle_alpha 90.000000
_cell_angle_beta 90.000000
_cell_angle_gamma 90.000000
_cell_volume 1742.830118
_symmetry_space_group_name_H-M "P M N A"
_symmetry_group_IT_number 53
_symmetry_cell_setting 'orthorhombic'
loop_
_space_group_symop_operation_xyz
x,y,z
1/2-x,-y,1/2+z
x,-y,-z
1/2-x,y,1/2-z
-x,-y,-z
1/2+x,y,1/2-z
-x,y,z
1/2+x,-y,1/2+z
loop_
_atom_site_type_symbol
_atom_site_label
_atom_site_fract_x
_atom_site_fract_y
_atom_site_fract_z
Si Si1 0.252467 0.789908 0.612899
Si Si2 0.750000 0.683672 0.250000
Si Si3 0.000000 0.888396 0.499952
Si Si4 0.500000 0.111082 0.500545
Si Si5 0.155076 0.389806 0.983420
Si Si6 0.000000 0.810458 0.255310
O O1 0.250000 0.792448 0.750000
O O2 0.124606 0.838711 0.559115
O O3 0.374294 0.847444 0.562727
O O4 0.275578 0.683510 0.568601
O O5 0.781722 0.626900 0.138481
O O6 0.626314 0.747828 0.232931
O O7 0.000000 0.873124 0.365275
O O8 0.000000 0.000000 0.500000
O O9 0.500000 0.142950 0.631902
O O10 0.500000 0.000000 0.500000
O O11 0.000000 0.367111 0.983209
O O12 0.167232 0.500000 0.000000
#
# Coordination Sequence:
#
# PCOD9419939 Si02
#       6
#     8   4   4   4   8   4
#     4  12  25  45  65  99 139 174 218 276 333 396
#     4  12  20  44  66  98 128 172 222 282 320 390
#     4  12  27  44  65 102 133 174 221 277 328 386
#     4  12  25  46  69  96 131 186 225 267 340 398
#     4  11  24  44  69  98 132 178 219 272 344 398
#     4  12  22  42  72  90 134 172 226 276 324 388
#
# _framework density 18.360941
#
# number of rings (size 3 to 8) (size 9 to 14) (size 15 to 20)
#    0.000    0.250    7.500    1.500    5.250    0.000 
#    0.000    2.500    0.000    0.000    0.000    0.000 
#    0.000    0.000    0.000    0.000    0.000    0.000 
#
# Total GULP energy -178676.082843 kJ/mol
# GULP energy per Si atom -5583.627589 kJ/mol
# Density = 1.831915 g / cm^3
# Si number density = 18.360941 Si / 1000 Ang^3
#
#
#
# Elastic Constant Matrix: (Units=GPa)
#
#
# Indices 1 2 3 4 5 6 
#
# 1 171.0543 84.1182 74.0212 0.0000 0.0000 0.0000
# 2 84.1182 165.5845 94.0666 0.0000 0.0000 0.0000
# 3 74.0212 94.0666 215.7461 0.0000 0.0000 0.0000
# 4 0.0000 0.0000 0.0000 56.8055 0.0000 0.0000
# 5 0.0000 0.0000 0.0000 0.0000 51.9231 0.0000
# 6 0.0000 0.0000 0.0000 0.0000 0.0000 24.0166
#
#
#
# Elastic Compliance Matrix: (Units=1/GPa)
#
#
# Indices 1 2 3 4 5 6 
#
# 1 0.008059 -0.003354 -0.001303 0.000000 0.000000 0.000000
# 2 -0.003354 0.009424 -0.002958 0.000000 0.000000 0.000000
# 3 -0.001303 -0.002958 0.006372 0.000000 0.000000 0.000000
# 4 0.000000 0.000000 0.000000 0.017604 0.000000 0.000000
# 5 0.000000 0.000000 0.000000 0.000000 0.019259 0.000000
# 6 0.000000 0.000000 0.000000 0.000000 0.000000 0.041638
#
#
# Mechanical properties :
#
#
# Convention : Reuss Voigt Hill
#
# Bulk Modulus (GPa) = 115.94196 117.42189 116.68192
# Shear Modulus (GPa) = 41.50757 46.56096 44.03427
#
# Velocity S-wave (km/s) = 4.75978 5.04121 4.90251
# Velocity P-wave (km/s) = 9.66905 9.89827 9.78433
#
# Compressibility (1/GPa) = 0.00862501
#
# Stress axis : x y z
#
# Youngs Moduli (GPa) = 124.08117 106.11765 156.94446
#
# Poissons Ratio (x) = 0.35593 0.20444
# Poissons Ratio (y) = 0.41619 0.46423
# Poissons Ratio (z) = 0.16163 0.31389
#
# Static dielectric constant tensor:
#      x y z
#    x 1.621160 0.000000 0.000000 
#    y 0.000000 1.702520 0.000000 
#    z 0.000000 0.000000 1.931830 
# 
# From -- ./inp_files/13753.got.cif
#   From: 2010.05.17/outbox.cif.g08.bks.cpg/sg53_7_cif.got.tgz:13753.got - 2010.06.03 12:45:16.
