data_PCOD9419280
_publ_section_title
;
Structure prediction by ZEFSAII (Michael W. Deem and Ramdas Pophale) SiO2 
 PCOD9419280
Probable space group: P M N A
;
_chemical_formula_sum "Si O2"
_cell_formula_units_Z 40
_cell_length_a 14.265903
_cell_length_b 15.326716
_cell_length_c 8.305031
_cell_angle_alpha 90.000000
_cell_angle_beta 90.000000
_cell_angle_gamma 90.000000
_cell_volume 1815.890409
_symmetry_space_group_name_H-M "P M N A"
_symmetry_group_IT_number 53
_symmetry_cell_setting 'orthorhombic'
loop_
_space_group_symop_operation_xyz
x,y,z
1/2-x,-y,1/2+z
x,-y,-z
1/2-x,y,1/2-z
-x,-y,-z
1/2+x,y,1/2-z
-x,y,z
1/2+x,-y,1/2+z
loop_
_atom_site_type_symbol
_atom_site_label
_atom_site_fract_x
_atom_site_fract_y
_atom_site_fract_z
Si Si1 0.393428 0.258756 0.401738
Si Si2 0.215938 0.412683 0.933746
Si Si3 0.609674 0.843578 0.137541
Si Si4 0.897409 0.662537 0.545080
Si Si5 0.698193 0.899939 0.477883
O O1 0.500000 0.243614 0.455212
O O2 0.343776 0.327196 0.521303
O O3 0.395345 0.298874 0.224055
O O4 0.338989 0.167700 0.391577
O O5 0.250000 0.416433 0.750000
O O6 0.167059 0.500000 0.000000
O O7 0.312097 0.402457 0.032276
O O8 0.500000 0.868681 0.119777
O O9 0.647698 0.862166 0.316952
O O10 0.689327 0.892825 0.034515
O O11 0.616334 0.742804 0.080092
O O12 0.000000 0.624091 0.514085
O O13 0.671270 0.000000 0.500000
#
# Coordination Sequence:
#
# PCOD9419280 Si02
#       5
#     8   8   8   8   8
#     4  11  24  43  68  97 134 176 222 278 334 398
#     4  12  25  43  70 100 134 174 217 273 334 401
#     4  10  22  41  64  93 130 175 227 275 333 393
#     4  10  22  42  69  97 131 176 222 273 336 402
#     4  11  24  41  65  95 133 181 227 281 334 395
#
# _framework density 22.027759
#
# number of rings (size 3 to 8) (size 9 to 14) (size 15 to 20)
#    0.000    1.200    2.000    3.600    0.000    8.400 
#    0.000    2.000    0.000    0.000    0.000    0.000 
#    0.000    0.000    0.000    0.000    0.000    0.000 
#
# Total GULP energy -223553.589415 kJ/mol
# GULP energy per Si atom -5588.839735 kJ/mol
# Density = 2.197762 g / cm^3
# Si number density = 22.027759 Si / 1000 Ang^3
#
#
#
# Elastic Constant Matrix: (Units=GPa)
#
#
# Indices 1 2 3 4 5 6 
#
# 1 140.2556 40.0353 22.2925 0.0000 0.0000 0.0000
# 2 40.0353 111.5673 15.0134 0.0000 0.0000 0.0000
# 3 22.2925 15.0134 63.7290 0.0000 0.0000 0.0000
# 4 0.0000 0.0000 0.0000 15.1722 0.0000 0.0000
# 5 0.0000 0.0000 0.0000 0.0000 20.1723 0.0000
# 6 0.0000 0.0000 0.0000 0.0000 0.0000 100.5012
#
#
#
# Elastic Compliance Matrix: (Units=1/GPa)
#
#
# Indices 1 2 3 4 5 6 
#
# 1 0.008247 -0.002655 -0.002259 0.000000 0.000000 0.000000
# 2 -0.002655 0.010112 -0.001453 0.000000 0.000000 0.000000
# 3 -0.002259 -0.001453 0.016824 0.000000 0.000000 0.000000
# 4 0.000000 0.000000 0.000000 0.065910 0.000000 0.000000
# 5 0.000000 0.000000 0.000000 0.000000 0.049573 0.000000
# 6 0.000000 0.000000 0.000000 0.000000 0.000000 0.009950
#
#
# Mechanical properties :
#
#
# Convention : Reuss Voigt Hill
#
# Bulk Modulus (GPa) = 44.54952 52.24826 48.39889
# Shear Modulus (GPa) = 27.64971 43.04984 35.34978
#
# Velocity S-wave (km/s) = 3.54675 4.42559 4.01032
# Velocity P-wave (km/s) = 6.08611 7.06295 6.59265
#
# Compressibility (1/GPa) = 0.02244693
#
# Stress axis : x y z
#
# Youngs Moduli (GPa) = 121.25803 98.89613 59.43854
#
# Poissons Ratio (x) = 0.26260 0.13428
# Poissons Ratio (y) = 0.32198 0.08638
# Poissons Ratio (z) = 0.27395 0.14372
#
# Static dielectric constant tensor:
#      x y z
#    x 1.802550 0.000000 0.000000 
#    y 0.000000 1.822940 0.000000 
#    z 0.000000 0.000000 1.865780 
# 
# From -- ./inp_files/8371.got.cif
#   From: 2010.05.17/outbox.cif.g08.bks.cpg/sg53_5_cif.got.tgz:8371.got - 2010.06.03 12:45:16.
