data_PCOD9419220
_publ_section_title
;
Structure prediction by ZEFSAII (Michael W. Deem and Ramdas Pophale) SiO2 
 PCOD9419220
Probable space group: P M N A
;
_chemical_formula_sum "Si O2"
_cell_formula_units_Z 48
_cell_length_a 8.857132
_cell_length_b 16.767356
_cell_length_c 16.040728
_cell_angle_alpha 90.000000
_cell_angle_beta 90.000000
_cell_angle_gamma 90.000000
_cell_volume 2382.219509
_symmetry_space_group_name_H-M "P M N A"
_symmetry_group_IT_number 53
_symmetry_cell_setting 'orthorhombic'
loop_
_space_group_symop_operation_xyz
x,y,z
1/2-x,-y,1/2+z
x,-y,-z
1/2-x,y,1/2-z
-x,-y,-z
1/2+x,y,1/2-z
-x,y,z
1/2+x,-y,1/2+z
loop_
_atom_site_type_symbol
_atom_site_label
_atom_site_fract_x
_atom_site_fract_y
_atom_site_fract_z
Si Si1 0.320596 0.000566 0.338477
Si Si2 0.177664 0.832005 0.608651
Si Si3 0.323646 0.161781 0.565496
Si Si4 0.323891 0.595463 0.999707
Si Si5 0.821730 0.678417 0.160410
Si Si6 0.820617 0.671150 0.835161
O O1 0.250000 0.977786 0.250000
O O2 0.500000 0.013830 0.330968
O O3 0.241380 0.081537 0.367499
O O4 0.297574 0.927062 0.401160
O O5 0.215562 0.819941 0.511354
O O6 0.264801 0.762281 0.656305
O O7 0.000000 0.827031 0.625128
O O8 0.500000 0.167565 0.537658
O O9 0.302434 0.228091 0.636587
O O10 0.500000 0.619022 0.994691
O O11 0.252876 0.630375 0.084274
O O12 0.314276 0.500000 0.000000
O O13 0.239229 0.628213 0.918220
O O14 0.750000 0.661138 0.250000
O O15 0.000000 0.661564 0.162516
O O16 0.750000 0.637169 0.750000
O O17 0.000000 0.667526 0.831447
#
# Coordination Sequence:
#
# PCOD9419220 Si02
#       6
#     8   8   8   8   8   8
#     4  11  23  39  58  85 125 167 217 270 321 378
#     4  12  24  39  62  91 126 169 218 269 325 384
#     4  10  22  40  62  90 125 170 216 268 324 381
#     4  11  25  46  71 101 135 170 213 267 327 392
#     4  11  23  41  68  99 134 176 221 268 324 387
#     4  12  25  44  70  99 133 173 220 269 328 391
#
# _framework density 20.149279
#
# number of rings (size 3 to 8) (size 9 to 14) (size 15 to 20)
#    0.000    0.833    1.667    6.000    0.000    6.000 
#    0.000    0.000    0.000    0.000    0.000    0.000 
#    0.000    0.000    0.000    0.000    0.000    0.000 
#
# Total GULP energy -268663.734094 kJ/mol
# GULP energy per Si atom -5597.161127 kJ/mol
# Density = 2.010342 g / cm^3
# Si number density = 20.149279 Si / 1000 Ang^3
#
#
#
# Elastic Constant Matrix: (Units=GPa)
#
#
# Indices 1 2 3 4 5 6 
#
# 1 162.0789 49.6070 77.1577 0.0000 0.0000 0.0000
# 2 49.6070 71.1552 27.8040 0.0000 0.0000 0.0000
# 3 77.1577 27.8040 134.0423 0.0000 0.0000 0.0000
# 4 0.0000 0.0000 0.0000 3.7677 0.0000 0.0000
# 5 0.0000 0.0000 0.0000 0.0000 40.6674 0.0000
# 6 0.0000 0.0000 0.0000 0.0000 0.0000 28.3763
#
#
#
# Elastic Compliance Matrix: (Units=1/GPa)
#
#
# Indices 1 2 3 4 5 6 
#
# 1 0.009960 -0.005119 -0.004672 0.000000 0.000000 0.000000
# 2 -0.005119 0.017924 -0.000771 0.000000 0.000000 0.000000
# 3 -0.004672 -0.000771 0.010310 0.000000 0.000000 0.000000
# 4 0.000000 0.000000 0.000000 0.265412 0.000000 0.000000
# 5 0.000000 0.000000 0.000000 0.000000 0.024590 0.000000
# 6 0.000000 0.000000 0.000000 0.000000 0.000000 0.035241
#
#
# Mechanical properties :
#
#
# Convention : Reuss Voigt Hill
#
# Bulk Modulus (GPa) = 58.58198 75.15710 66.86954
# Shear Modulus (GPa) = 12.81230 28.74281 20.77755
#
# Velocity S-wave (km/s) = 2.52438 3.78099 3.21468
# Velocity P-wave (km/s) = 6.13464 7.51281 6.85843
#
# Compressibility (1/GPa) = 0.01707009
#
# Stress axis : x y z
#
# Youngs Moduli (GPa) = 100.39714 55.79181 96.99790
#
# Poissons Ratio (x) = 0.28558 0.45315
# Poissons Ratio (y) = 0.51389 0.07483
# Poissons Ratio (z) = 0.46903 0.04304
#
# Static dielectric constant tensor:
#      x y z
#    x 1.676480 0.000000 0.000000 
#    y 0.000000 1.713560 0.000000 
#    z 0.000000 0.000000 1.709480 
# 
# From -- ./inp_files/20161.got.cif
#   From: 2010.05.17/outbox.cif.g08.bks.cpg/sg53_11_cif.got.tgz:20161.got - 2010.06.03 12:45:16.
