data_PCOD9419646
_publ_section_title
;
Structure prediction by ZEFSAII (Michael W. Deem and Ramdas Pophale) SiO2 
 PCOD9419646
Probable space group: P M N A
;
_chemical_formula_sum "Si O2"
_cell_formula_units_Z 48
_cell_length_a 7.835421
_cell_length_b 17.331751
_cell_length_c 17.811431
_cell_angle_alpha 90.000000
_cell_angle_beta 90.000000
_cell_angle_gamma 90.000000
_cell_volume 2418.820218
_symmetry_space_group_name_H-M "P M N A"
_symmetry_group_IT_number 53
_symmetry_cell_setting 'orthorhombic'
loop_
_space_group_symop_operation_xyz
x,y,z
1/2-x,-y,1/2+z
x,-y,-z
1/2-x,y,1/2-z
-x,-y,-z
1/2+x,y,1/2-z
-x,y,z
1/2+x,-y,1/2+z
loop_
_atom_site_type_symbol
_atom_site_label
_atom_site_fract_x
_atom_site_fract_y
_atom_site_fract_z
Si Si1 0.307329 0.819051 0.426106
Si Si2 0.000000 0.401572 0.079463
Si Si3 0.294843 0.152880 0.097981
Si Si4 0.202888 0.685211 0.665079
Si Si5 0.000000 0.582651 0.098502
Si Si6 0.301199 0.013111 0.909545
Si Si7 0.307975 0.320950 0.833787
O O1 0.500000 0.792871 0.414878
O O2 0.270412 0.825862 0.514830
O O3 0.195159 0.755138 0.385640
O O4 0.285555 0.905461 0.393832
O O5 0.169977 0.360712 0.110929
O O6 0.000000 0.490453 0.104883
O O7 0.000000 0.397859 0.989745
O O8 0.500000 0.145456 0.091226
O O9 0.258234 0.224017 0.151918
O O10 0.231210 0.067908 0.121876
O O11 0.250000 0.664157 0.750000
O O12 0.000000 0.673276 0.650993
O O13 0.831178 0.619298 0.135093
O O14 0.500000 0.021933 0.889329
O O15 0.292803 0.000000 0.000000
O O16 0.250000 0.299001 0.750000
O O17 0.500000 0.352819 0.832271
#
# Coordination Sequence:
#
# PCOD9419646 Si02
#       7
#     8   4   8   8   4   8   8
#     4  11  20  32  55  88 124 164 216 265 313 374
#     4  11  26  46  72  99 134 162 209 265 314 386
#     4   9  19  34  56  84 120 167 218 266 315 369
#     4  11  23  42  65  96 130 173 214 260 319 382
#     4  11  26  48  70 103 128 164 211 261 320 382
#     4   8  15  30  49  78 118 163 213 265 313 363
#     4  12  24  44  67  95 131 171 212 263 319 385
#
# _framework density 19.844384000000002
#
# number of rings (size 3 to 8) (size 9 to 14) (size 15 to 20)
#    0.000    1.667    2.500    3.500    1.167    6.333 
#    0.000    2.500    0.000    2.000    0.000    0.000 
#    0.000    0.000    0.000    0.000    0.000    0.000 
#
# Total GULP energy -268008.768319 kJ/mol
# GULP energy per Si atom -5583.516007 kJ/mol
# Density = 1.979922 g / cm^3
# Si number density = 19.844384 Si / 1000 Ang^3
#
#
#
# Elastic Constant Matrix: (Units=GPa)
#
#
# Indices 1 2 3 4 5 6 
#
# 1 101.4191 29.9203 5.3153 0.0000 0.0000 0.0000
# 2 29.9203 69.1578 4.7718 0.0000 0.0000 0.0000
# 3 5.3153 4.7718 21.2199 0.0000 0.0000 0.0000
# 4 0.0000 0.0000 0.0000 -10.1325 0.0000 0.0000
# 5 0.0000 0.0000 0.0000 0.0000 20.0552 0.0000
# 6 0.0000 0.0000 0.0000 0.0000 0.0000 17.7396
#
#
#
# Elastic Compliance Matrix: (Units=1/GPa)
#
#
# Indices 1 2 3 4 5 6 
#
# 1 0.011368 -0.004796 -0.001769 0.000000 0.000000 0.000000
# 2 -0.004796 0.016711 -0.002557 0.000000 0.000000 0.000000
# 3 -0.001769 -0.002557 0.048143 0.000000 0.000000 0.000000
# 4 0.000000 0.000000 0.000000 -0.098692 0.000000 0.000000
# 5 0.000000 0.000000 0.000000 0.000000 0.049862 0.000000
# 6 0.000000 0.000000 0.000000 0.000000 0.000000 0.056371
#
#
# Mechanical properties :
#
#
# Convention : Reuss Voigt Hill
#
# Bulk Modulus (GPa) = 17.24757 30.20130 23.72443
# Shear Modulus (GPa) = 41.20906 15.65176 28.43041
#
# Velocity S-wave (km/s) = 4.56193 2.81147 3.78917
# Velocity P-wave (km/s) = 6.03809 5.07851 5.57897
#
# Compressibility (1/GPa) = 0.05797918
#
# Stress axis : x y z
#
# Youngs Moduli (GPa) = 87.96856 59.84067 20.77126
#
# Poissons Ratio (x) = 0.28700 0.03674
# Poissons Ratio (y) = 0.42190 0.05310
# Poissons Ratio (z) = 0.15561 0.15298
#
# Static dielectric constant tensor:
#      x y z
#    x 1.679420 0.000000 0.000000 
#    y 0.000000 1.715170 0.000000 
#    z 0.000000 0.000000 1.679250 
# 
# From -- ./inp_files/26308.got.cif
#   From: 2010.05.17/outbox.cif.g08.bks.cpg/sg53_14_cif.got.tgz:26308.got - 2010.06.03 12:45:16.
