data_PCOD9419222
_publ_section_title
;
Structure prediction by ZEFSAII (Michael W. Deem and Ramdas Pophale) SiO2 
 PCOD9419222
Probable space group: P M N A
;
_chemical_formula_sum "Si O2"
_cell_formula_units_Z 32
_cell_length_a 31.574681
_cell_length_b 9.066200
_cell_length_c 5.186202
_cell_angle_alpha 90.000000
_cell_angle_beta 90.000000
_cell_angle_gamma 90.000000
_cell_volume 1484.614491
_symmetry_space_group_name_H-M "P M N A"
_symmetry_group_IT_number 53
_symmetry_cell_setting 'orthorhombic'
loop_
_space_group_symop_operation_xyz
x,y,z
1/2-x,-y,1/2+z
x,-y,-z
1/2-x,y,1/2-z
-x,-y,-z
1/2+x,y,1/2-z
-x,y,z
1/2+x,-y,1/2+z
loop_
_atom_site_type_symbol
_atom_site_label
_atom_site_fract_x
_atom_site_fract_y
_atom_site_fract_z
Si Si1 0.300173 0.923434 0.251615
Si Si2 0.328122 0.593486 0.238420
Si Si3 0.950484 0.163683 0.078023
Si Si4 0.424771 0.339296 0.923537
O O1 0.250000 0.955476 0.250000
O O2 0.305652 0.749620 0.263468
O O3 0.319662 0.000000 0.500000
O O4 0.319024 0.000000 0.000000
O O5 0.326649 0.500000 0.500000
O O6 0.376559 0.631361 0.164481
O O7 0.309896 0.500000 0.000000
O O8 0.946390 0.264272 0.823076
O O9 0.000000 0.151571 0.151749
O O10 0.927307 0.236837 0.322745
O O11 0.935266 0.000000 0.000000
O O12 0.442955 0.500000 0.000000
#
# Coordination Sequence:
#
# PCOD9419222 Si02
#       4
#     8   8   8   8
#     4  10  22  40  62  91 124 157 198 244 290 347
#     4  11  23  40  61  88 122 157 198 245 292 349
#     4  11  24  41  61  87 118 153 197 247 299 357
#     4  11  23  40  60  87 120 154 197 246 295 352
#
# _framework density 21.554417000000001
#
# number of rings (size 3 to 8) (size 9 to 14) (size 15 to 20)
#    0.000    1.250    0.000    6.750    0.000    9.000 
#    0.000    0.000    0.000    0.000    0.000    0.000 
#    0.000    0.000    0.000    0.000    0.000    0.000 
#
# Total GULP energy -178963.544088 kJ/mol
# GULP energy per Si atom -5592.610753 kJ/mol
# Density = 2.150536 g / cm^3
# Si number density = 21.554417 Si / 1000 Ang^3
#
#
#
# Elastic Constant Matrix: (Units=GPa)
#
#
# Indices 1 2 3 4 5 6 
#
# 1 -19.4857 -36.6553 7.6452 0.0000 0.0000 0.0000
# 2 -36.6553 93.2071 93.0962 0.0000 0.0000 0.0000
# 3 7.6452 93.0962 228.9828 0.0000 0.0000 0.0000
# 4 0.0000 0.0000 0.0000 51.3458 0.0000 0.0000
# 5 0.0000 0.0000 0.0000 0.0000 130.1519 0.0000
# 6 0.0000 0.0000 0.0000 0.0000 0.0000 19.1695
#
#
#
# Elastic Compliance Matrix: (Units=1/GPa)
#
#
# Indices 1 2 3 4 5 6 
#
# 1 -0.020702 -0.014871 0.006737 0.000000 0.000000 0.000000
# 2 -0.014871 0.007383 -0.002505 0.000000 0.000000 0.000000
# 3 0.006737 -0.002505 0.005161 0.000000 0.000000 0.000000
# 4 0.000000 0.000000 0.000000 0.019476 0.000000 0.000000
# 5 0.000000 0.000000 0.000000 0.000000 0.007683 0.000000
# 6 0.000000 0.000000 0.000000 0.000000 0.000000 0.052166
#
#
# Mechanical properties :
#
#
# Convention : Reuss Voigt Hill
#
# Bulk Modulus (GPa) = -33.97152 47.87513 6.95180
# Shear Modulus (GPa) = 60.50964 56.04129 58.27547
#
# Velocity S-wave (km/s) = 5.30414 5.10454 5.20530
# Velocity P-wave (km/s) = 4.66013 7.54992 6.27368
#
# Compressibility (1/GPa) = -0.02943642
#
# Stress axis : x y z
#
# Youngs Moduli (GPa) = -48.30335 135.45185 193.77337
#
# Poissons Ratio (x) = 2.01426 -1.30547
# Poissons Ratio (y) = -0.71830 0.48541
# Poissons Ratio (z) = 0.32542 0.33931
#
# Static dielectric constant tensor:
#      x y z
#    x 1.790150 0.000000 0.000000 
#    y 0.000000 1.768250 0.000000 
#    z 0.000000 0.000000 1.758530 
# 
# From -- ./inp_files/4946.got.cif
#   From: 2010.05.17/outbox.cif.g08.bks.cpg/sg53_3_cif.got.tgz:4946.got - 2010.06.03 12:45:16.
