data_PCOD9419682
_publ_section_title
;
Structure prediction by ZEFSAII (Michael W. Deem and Ramdas Pophale) SiO2 
 PCOD9419682
Probable space group: P M N A
;
_chemical_formula_sum "Si O2"
_cell_formula_units_Z 40
_cell_length_a 14.934528
_cell_length_b 8.168985
_cell_length_c 12.010286
_cell_angle_alpha 90.000000
_cell_angle_beta 90.000000
_cell_angle_gamma 90.000000
_cell_volume 1465.254114
_symmetry_space_group_name_H-M "P M N A"
_symmetry_group_IT_number 53
_symmetry_cell_setting 'orthorhombic'
loop_
_space_group_symop_operation_xyz
x,y,z
1/2-x,-y,1/2+z
x,-y,-z
1/2-x,y,1/2-z
-x,-y,-z
1/2+x,y,1/2-z
-x,y,z
1/2+x,-y,1/2+z
loop_
_atom_site_type_symbol
_atom_site_label
_atom_site_fract_x
_atom_site_fract_y
_atom_site_fract_z
Si Si1 0.678313 0.190877 0.659485
Si Si2 0.109097 0.729356 0.537151
Si Si3 0.607473 0.521174 0.765747
Si Si4 0.602646 0.687947 0.546979
Si Si5 0.897204 0.051865 0.660044
O O1 0.750000 0.122480 0.750000
O O2 0.656345 0.370360 0.708330
O O3 0.671281 0.208304 0.527910
O O4 0.600991 0.075824 0.708168
O O5 0.139467 0.574482 0.611429
O O6 0.135172 0.788809 0.413132
O O7 0.000000 0.708845 0.538032
O O8 0.140227 0.885373 0.610087
O O9 0.500000 0.485068 0.769089
O O10 0.619328 0.669555 0.678016
O O11 0.605830 0.500000 0.500000
O O12 0.500000 0.742016 0.528390
O O13 0.000000 0.041774 0.624983
#
# Coordination Sequence:
#
# PCOD9419682 Si02
#       5
#     8   8   8   8   8
#     4  11  21  32  47  74 107 135 172 207 254 308
#     4   8  16  32  56  80  98 126 169 213 260 299
#     4   9  17  34  56  77  99 130 175 216 251 299
#     4   8  15  31  53  70  95 132 168 208 253 294
#     4   9  17  33  55  76 102 133 167 212 257 301
#
# _framework density 27.299022000000001
#
# number of rings (size 3 to 8) (size 9 to 14) (size 15 to 20)
#    0.000    3.000    0.000    4.200    0.000    0.800 
#   10.800    5.000    4.400    4.800    0.000    0.000 
#    0.000    0.000    0.000    0.000    0.000    0.000 
#
# Total GULP energy -222958.495286 kJ/mol
# GULP energy per Si atom -5573.962382 kJ/mol
# Density = 2.723689 g / cm^3
# Si number density = 27.299022 Si / 1000 Ang^3
#
#
#
# Elastic Constant Matrix: (Units=GPa)
#
#
# Indices 1 2 3 4 5 6 
#
# 1 53.9935 -15.9804 1.4602 0.0000 0.0000 0.0000
# 2 -15.9804 51.7326 -11.7024 0.0000 0.0000 0.0000
# 3 1.4602 -11.7024 132.6033 0.0000 0.0000 0.0000
# 4 0.0000 0.0000 0.0000 33.4017 0.0000 0.0000
# 5 0.0000 0.0000 0.0000 0.0000 -5.3111 0.0000
# 6 0.0000 0.0000 0.0000 0.0000 0.0000 -18.6341
#
#
#
# Elastic Compliance Matrix: (Units=1/GPa)
#
#
# Indices 1 2 3 4 5 6 
#
# 1 0.020399 0.006378 0.000338 0.000000 0.000000 0.000000
# 2 0.006378 0.021718 0.001846 0.000000 0.000000 0.000000
# 3 0.000338 0.001846 0.007701 0.000000 0.000000 0.000000
# 4 0.000000 0.000000 0.000000 0.029939 0.000000 0.000000
# 5 0.000000 0.000000 0.000000 0.000000 -0.188286 0.000000
# 6 0.000000 0.000000 0.000000 0.000000 0.000000 -0.053665
#
#
# Mechanical properties :
#
#
# Convention : Reuss Voigt Hill
#
# Bulk Modulus (GPa) = 14.93809 20.65379 17.79594
# Shear Modulus (GPa) = -31.84608 19.52809 -6.15899
#
# Velocity S-wave (km/s) = -3.41921 2.67749 -1.50367
# Velocity P-wave (km/s) = 3.17869 4.14014 1.87573
#
# Compressibility (1/GPa) = 0.06694296
#
# Stress axis : x y z
#
# Youngs Moduli (GPa) = 49.02131 46.04474 129.86145
#
# Poissons Ratio (x) = -0.29367 -0.04392
# Poissons Ratio (y) = -0.31265 -0.23978
# Poissons Ratio (z) = -0.01658 -0.08502
#
# Static dielectric constant tensor:
#      x y z
#    x 4.043340 0.000000 0.000000 
#    y 0.000000 2.198930 0.000000 
#    z 0.000000 0.000000 2.293230 
# 
# From -- ./inp_files/15770.got.cif
#   From: 2010.05.17/outbox.cif.g08.bks.cpg/sg53_8_cif.got.tgz:15770.got - 2010.06.03 12:45:16.
