data_PCOD9419486
_publ_section_title
;
Structure prediction by ZEFSAII (Michael W. Deem and Ramdas Pophale) SiO2 
 PCOD9419486
Probable space group: P M N A
;
_chemical_formula_sum "Si O2"
_cell_formula_units_Z 16
_cell_length_a 25.576739
_cell_length_b 5.018254
_cell_length_c 5.199735
_cell_angle_alpha 90.000000
_cell_angle_beta 90.000000
_cell_angle_gamma 90.000000
_cell_volume 667.388966
_symmetry_space_group_name_H-M "P M N A"
_symmetry_group_IT_number 53
_symmetry_cell_setting 'orthorhombic'
loop_
_space_group_symop_operation_xyz
x,y,z
1/2-x,-y,1/2+z
x,-y,-z
1/2-x,y,1/2-z
-x,-y,-z
1/2+x,y,1/2-z
-x,y,z
1/2+x,-y,1/2+z
loop_
_atom_site_type_symbol
_atom_site_label
_atom_site_fract_x
_atom_site_fract_y
_atom_site_fract_z
Si Si1 0.856975 0.500000 0.000000
Si Si2 0.215509 0.000000 0.000000
Si Si3 0.558580 0.185474 0.753927
O O1 0.896356 0.401034 0.779337
O O2 0.820622 0.251498 0.069086
O O3 0.250000 0.066596 0.750000
O O4 0.500000 0.303318 0.762709
O O5 0.561248 0.000000 0.500000
O O6 0.565737 0.000000 0.000000
#
# Coordination Sequence:
#
# PCOD9419486 Si02
#       3
#     4   4   8
#     4  12  25  50  78 104 148 198 247 306 390 444
#     4  12  30  50  73 106 141 190 258 324 372 440
#     4  10  23  43  71 112 152 190 240 295 367 460
#
# _framework density 23.974025999999999
#
# number of rings (size 3 to 8) (size 9 to 14) (size 15 to 20)
#    0.000    1.000    2.500    2.250    3.500    6.000 
#    0.000    7.500    0.000    0.000    0.000    0.000 
#    0.000    0.000    0.000    0.000    0.000    0.000 
#
# Total GULP energy -89749.968812 kJ/mol
# GULP energy per Si atom -5609.373051 kJ/mol
# Density = 2.391946 g / cm^3
# Si number density = 23.974026 Si / 1000 Ang^3
#
#
#
# Elastic Constant Matrix: (Units=GPa)
#
#
# Indices 1 2 3 4 5 6 
#
# 1 181.1808 81.6835 57.3387 0.0000 0.0000 0.0000
# 2 81.6835 132.5489 37.7475 0.0000 0.0000 0.0000
# 3 57.3387 37.7475 180.4951 0.0000 0.0000 0.0000
# 4 0.0000 0.0000 0.0000 36.3221 0.0000 0.0000
# 5 0.0000 0.0000 0.0000 0.0000 273.0325 0.0000
# 6 0.0000 0.0000 0.0000 0.0000 0.0000 82.9024
#
#
#
# Elastic Compliance Matrix: (Units=1/GPa)
#
#
# Indices 1 2 3 4 5 6 
#
# 1 0.008064 -0.004509 -0.001619 0.000000 0.000000 0.000000
# 2 -0.004509 0.010543 -0.000773 0.000000 0.000000 0.000000
# 3 -0.001619 -0.000773 0.006216 0.000000 0.000000 0.000000
# 4 0.000000 0.000000 0.000000 0.027531 0.000000 0.000000
# 5 0.000000 0.000000 0.000000 0.000000 0.003663 0.000000
# 6 0.000000 0.000000 0.000000 0.000000 0.000000 0.012062
#
#
# Mechanical properties :
#
#
# Convention : Reuss Voigt Hill
#
# Bulk Modulus (GPa) = 90.71859 94.19601 92.45730
# Shear Modulus (GPa) = 58.44231 99.61510 79.02870
#
# Velocity S-wave (km/s) = 4.94270 6.45302 5.74768
# Velocity P-wave (km/s) = 8.39620 9.74157 9.09380
#
# Compressibility (1/GPa) = 0.01102310
#
# Stress axis : x y z
#
# Youngs Moduli (GPa) = 124.00228 94.85093 160.87041
#
# Poissons Ratio (x) = 0.42765 0.26044
# Poissons Ratio (y) = 0.55908 0.12429
# Poissons Ratio (z) = 0.20075 0.07328
#
# Static dielectric constant tensor:
#      x y z
#    x 1.908040 0.000000 0.000000 
#    y 0.000000 1.931760 0.000000 
#    z 0.000000 0.000000 1.919240 
# 
# From -- ./inp_files/3140.got.cif
#   From: 2010.05.17/outbox.cif.g08.bks.cpg/sg53_2_cif.got.tgz:3140.got - 2010.06.03 12:45:16.
