data_PCOD9419510
_publ_section_title
;
Structure prediction by ZEFSAII (Michael W. Deem and Ramdas Pophale) SiO2 
 PCOD9419510
Probable space group: P M N A
;
_chemical_formula_sum "Si O2"
_cell_formula_units_Z 54
_cell_length_a 14.787870
_cell_length_b 11.372432
_cell_length_c 14.437909
_cell_angle_alpha 90.000000
_cell_angle_beta 90.000000
_cell_angle_gamma 90.000000
_cell_volume 2428.081572
_symmetry_space_group_name_H-M "P M N A"
_symmetry_group_IT_number 53
_symmetry_cell_setting 'orthorhombic'
loop_
_space_group_symop_operation_xyz
x,y,z
1/2-x,-y,1/2+z
x,-y,-z
1/2-x,y,1/2-z
-x,-y,-z
1/2+x,y,1/2-z
-x,y,z
1/2+x,-y,1/2+z
loop_
_atom_site_type_symbol
_atom_site_label
_atom_site_fract_x
_atom_site_fract_y
_atom_site_fract_z
Si Si1 0.659326 0.311142 0.531296
Si Si2 0.897821 0.882984 0.543707
Si Si3 0.750000 0.926418 0.250000
Si Si4 0.106921 0.943431 0.101654
Si Si5 0.500000 0.500000 0.500000
Si Si6 0.098352 0.230757 0.651251
Si Si7 0.277909 0.716044 0.856011
Si Si8 0.696696 0.546541 0.153709
O O1 0.629236 0.195551 0.587792
O O2 0.578115 0.400301 0.518485
O O3 0.697349 0.274564 0.430513
O O4 0.738402 0.382446 0.583916
O O5 0.899715 0.792582 0.458501
O O6 0.844788 0.822761 0.624850
O O7 0.000000 0.913183 0.572149
O O8 0.855512 0.000000 0.500000
O O9 0.681677 0.988210 0.323585
O O10 0.820594 0.843780 0.305515
O O11 0.000000 0.960280 0.126105
O O12 0.119637 0.000000 0.000000
O O13 0.112430 0.368138 0.669025
O O14 0.000000 0.191279 0.685629
O O15 0.250000 0.717924 0.750000
O O16 0.321781 0.587083 0.875166
O O17 0.750000 0.539689 0.250000
#
# Coordination Sequence:
#
# PCOD9419510 Si02
#       8
#     8   8   4   8   2   8   8   8
#     4  12  22  44  68  99 142 188 232 284 357 433
#     4  10  23  46  69  93 132 182 234 289 348 413
#     4  12  22  42  70 102 146 184 242 296 366 422
#     4  11  25  45  71 106 146 187 245 307 362 440
#     4  12  24  40  74 100 138 202 228 282 360 448
#     4  11  22  38  67 101 134 181 236 292 352 421
#     4  11  24  42  68 103 139 179 230 282 353 424
#     4  11  21  40  65 101 143 178 225 292 345 422
#
# _framework density 22.23978
#
# number of rings (size 3 to 8) (size 9 to 14) (size 15 to 20)
#    0.000    0.889    5.926    0.444    0.000    2.963 
#    8.000    1.481    0.000    1.333    0.000    0.000 
#    0.000    0.000    0.000    0.000    0.000    0.000 
#
# Total GULP energy -301461.164320 kJ/mol
# GULP energy per Si atom -5582.614154 kJ/mol
# Density = 2.218916 g / cm^3
# Si number density = 22.239780 Si / 1000 Ang^3
#
#
#
# Elastic Constant Matrix: (Units=GPa)
#
#
# Indices 1 2 3 4 5 6 
#
# 1 143.4128 26.3212 51.3929 0.0000 0.0000 0.0000
# 2 26.3212 98.8546 19.6139 0.0000 0.0000 0.0000
# 3 51.3929 19.6139 107.2722 0.0000 0.0000 0.0000
# 4 0.0000 0.0000 0.0000 34.1294 0.0000 0.0000
# 5 0.0000 0.0000 0.0000 0.0000 15.1531 0.0000
# 6 0.0000 0.0000 0.0000 0.0000 0.0000 35.2812
#
#
#
# Elastic Compliance Matrix: (Units=1/GPa)
#
#
# Indices 1 2 3 4 5 6 
#
# 1 0.008637 -0.001534 -0.003857 0.000000 0.000000 0.000000
# 2 -0.001534 0.010769 -0.001234 0.000000 0.000000 0.000000
# 3 -0.003857 -0.001234 0.011396 0.000000 0.000000 0.000000
# 4 0.000000 0.000000 0.000000 0.029300 0.000000 0.000000
# 5 0.000000 0.000000 0.000000 0.000000 0.065993 0.000000
# 6 0.000000 0.000000 0.000000 0.000000 0.000000 0.028344
#
#
# Mechanical properties :
#
#
# Convention : Reuss Voigt Hill
#
# Bulk Modulus (GPa) = 56.97826 60.46618 58.72222
# Shear Modulus (GPa) = 28.81178 33.72684 31.26931
#
# Velocity S-wave (km/s) = 3.60322 3.89846 3.75375
# Velocity P-wave (km/s) = 6.55641 6.89285 6.72673
#
# Compressibility (1/GPa) = 0.01755055
#
# Stress axis : x y z
#
# Youngs Moduli (GPa) = 115.78440 92.85713 87.75269
#
# Poissons Ratio (x) = 0.14247 0.33848
# Poissons Ratio (y) = 0.17765 0.10829
# Poissons Ratio (z) = 0.44661 0.11459
#
# Static dielectric constant tensor:
#      x y z
#    x 1.820440 0.000000 0.000000 
#    y 0.000000 1.840700 0.000000 
#    z 0.000000 0.000000 1.845550 
# 
# From -- ./inp_files/22867.got.cif
#   From: 2010.05.17/outbox.cif.g08.bks.cpg/sg53_12_cif.got.tgz:22867.got - 2010.06.03 12:45:16.
