data_PCOD9419970
_publ_section_title
;
Structure prediction by ZEFSAII (Michael W. Deem and Ramdas Pophale) SiO2 
 PCOD9419970
Probable space group: P M N A
;
_chemical_formula_sum "Si O2"
_cell_formula_units_Z 32
_cell_length_a 31.150788
_cell_length_b 5.107427
_cell_length_c 8.510976
_cell_angle_alpha 90.000000
_cell_angle_beta 90.000000
_cell_angle_gamma 90.000000
_cell_volume 1354.099479
_symmetry_space_group_name_H-M "P M N A"
_symmetry_group_IT_number 53
_symmetry_cell_setting 'orthorhombic'
loop_
_space_group_symop_operation_xyz
x,y,z
1/2-x,-y,1/2+z
x,-y,-z
1/2-x,y,1/2-z
-x,-y,-z
1/2+x,y,1/2-z
-x,y,z
1/2+x,-y,1/2+z
loop_
_atom_site_type_symbol
_atom_site_label
_atom_site_fract_x
_atom_site_fract_y
_atom_site_fract_z
Si Si1 0.363833 0.928095 0.176388
Si Si2 0.954067 0.379215 0.672220
Si Si3 0.089602 0.258798 0.104592
Si Si4 0.786558 0.748311 0.115586
O O1 0.411019 0.793580 0.175048
O O2 0.329661 0.774154 0.279744
O O3 0.373367 0.190202 0.273061
O O4 0.350346 0.000000 0.000000
O O5 0.954950 0.500000 0.500000
O O6 0.948904 0.615484 0.796013
O O7 0.000000 0.242177 0.700647
O O8 0.103896 0.500000 0.000000
O O9 0.080515 0.000000 0.000000
O O10 0.750000 0.741272 0.250000
O O11 0.785146 0.500000 0.000000
O O12 0.782864 0.000000 0.000000
#
# Coordination Sequence:
#
# PCOD9419970 Si02
#       4
#     8   8   8   8
#     4  12  27  48  81 114 159 210 265 320 392 461
#     4  11  26  47  74 111 157 216 274 324 385 459
#     4  12  26  46  72 110 153 201 259 329 390 449
#     4  12  30  54  86 121 159 200 253 320 392 476
#
# _framework density 23.631943
#
# number of rings (size 3 to 8) (size 9 to 14) (size 15 to 20)
#    0.000    0.250    5.000    2.250    7.000    3.500 
#    0.000    0.000    0.000    0.000    0.000    0.000 
#    0.000    0.000    0.000    0.000    0.000    0.000 
#
# Total GULP energy -179047.586036 kJ/mol
# GULP energy per Si atom -5595.237064 kJ/mol
# Density = 2.357816 g / cm^3
# Si number density = 23.631943 Si / 1000 Ang^3
#
#
#
# Elastic Constant Matrix: (Units=GPa)
#
#
# Indices 1 2 3 4 5 6 
#
# 1 178.6572 60.5718 77.1070 0.0000 0.0000 0.0000
# 2 60.5718 170.4244 98.5588 0.0000 0.0000 0.0000
# 3 77.1070 98.5588 226.9666 0.0000 0.0000 0.0000
# 4 0.0000 0.0000 0.0000 30.8549 0.0000 0.0000
# 5 0.0000 0.0000 0.0000 0.0000 91.7703 0.0000
# 6 0.0000 0.0000 0.0000 0.0000 0.0000 22.3364
#
#
#
# Elastic Compliance Matrix: (Units=1/GPa)
#
#
# Indices 1 2 3 4 5 6 
#
# 1 0.006816 -0.001447 -0.001687 0.000000 0.000000 0.000000
# 2 -0.001447 0.008142 -0.003044 0.000000 0.000000 0.000000
# 3 -0.001687 -0.003044 0.006301 0.000000 0.000000 0.000000
# 4 0.000000 0.000000 0.000000 0.032410 0.000000 0.000000
# 5 0.000000 0.000000 0.000000 0.000000 0.010897 0.000000
# 6 0.000000 0.000000 0.000000 0.000000 0.000000 0.044770
#
#
# Mechanical properties :
#
#
# Convention : Reuss Voigt Hill
#
# Bulk Modulus (GPa) = 112.32352 116.50259 114.41306
# Shear Modulus (GPa) = 40.10891 51.64637 45.87764
#
# Velocity S-wave (km/s) = 4.12422 4.67995 4.41084
# Velocity P-wave (km/s) = 8.38525 8.86614 8.62904
#
# Compressibility (1/GPa) = 0.00890285
#
# Stress axis : x y z
#
# Youngs Moduli (GPa) = 146.71220 122.81295 158.70087
#
# Poissons Ratio (x) = 0.17767 0.26779
# Poissons Ratio (y) = 0.21225 0.48314
# Poissons Ratio (z) = 0.24756 0.37388
#
# Static dielectric constant tensor:
#      x y z
#    x 1.965730 0.000000 0.000000 
#    y 0.000000 1.993490 0.000000 
#    z 0.000000 0.000000 1.917810 
# 
# From -- ./inp_files/12757.got.cif
#   From: 2010.05.17/outbox.cif.g08.bks.cpg/sg53_7_cif.got.tgz:12757.got - 2010.06.03 12:45:16.
