data_PCOD9419014
_publ_section_title
;
Structure prediction by ZEFSAII (Michael W. Deem and Ramdas Pophale) SiO2 
 PCOD9419014
Probable space group: P M N A
;
_chemical_formula_sum "Si O2"
_cell_formula_units_Z 36
_cell_length_a 14.245953
_cell_length_b 13.975038
_cell_length_c 9.581129
_cell_angle_alpha 90.000000
_cell_angle_beta 90.000000
_cell_angle_gamma 90.000000
_cell_volume 1907.485267
_symmetry_space_group_name_H-M "P M N A"
_symmetry_group_IT_number 53
_symmetry_cell_setting 'orthorhombic'
loop_
_space_group_symop_operation_xyz
x,y,z
1/2-x,-y,1/2+z
x,-y,-z
1/2-x,y,1/2-z
-x,-y,-z
1/2+x,y,1/2-z
-x,y,z
1/2+x,-y,1/2+z
loop_
_atom_site_type_symbol
_atom_site_label
_atom_site_fract_x
_atom_site_fract_y
_atom_site_fract_z
Si Si1 0.612760 0.391616 0.832312
Si Si2 0.264344 0.887248 0.973724
Si Si3 0.250000 0.237914 0.750000
Si Si4 0.886586 0.605947 0.657045
Si Si5 0.388362 0.808736 0.734735
O O1 0.500000 0.383706 0.825432
O O2 0.662036 0.310281 0.742654
O O3 0.640425 0.500218 0.792691
O O4 0.642689 0.379898 0.995393
O O5 0.352817 0.856082 0.878900
O O6 0.172185 0.857781 0.885635
O O7 0.262532 0.828704 0.116403
O O8 0.265916 0.000000 0.000000
O O9 0.861510 0.696406 0.751052
O O10 0.000000 0.604810 0.651089
O O11 0.500000 0.817448 0.717118
#
# Coordination Sequence:
#
# PCOD9419014 Si02
#       5
#     8   8   4   8   8
#     4   9  18  33  56  89 123 151 188 237 285 349
#     4  11  25  42  59  86 121 150 198 259 293 334
#     4  12  22  36  60  90 118 156 194 238 304 352
#     4   8  15  34  60  84 114 153 193 232 280 347
#     4  10  21  42  66  84 112 161 200 232 293 358
#
# _framework density 18.873017000000001
#
# number of rings (size 3 to 8) (size 9 to 14) (size 15 to 20)
#    0.000    2.222    2.222    2.667    0.000    3.556 
#    0.000    2.222    0.000    4.000    0.000    0.000 
#    0.000    0.000    0.000    0.000    0.000    0.000 
#
# Total GULP energy -200879.388772 kJ/mol
# GULP energy per Si atom -5579.983021 kJ/mol
# Density = 1.883006 g / cm^3
# Si number density = 18.873017 Si / 1000 Ang^3
#
#
#
# Elastic Constant Matrix: (Units=GPa)
#
#
# Indices 1 2 3 4 5 6 
#
# 1 72.7522 13.1555 -2.9362 0.0000 0.0000 0.0000
# 2 13.1555 155.1262 21.2478 0.0000 0.0000 0.0000
# 3 -2.9362 21.2478 35.5626 0.0000 0.0000 0.0000
# 4 0.0000 0.0000 0.0000 15.4451 0.0000 0.0000
# 5 0.0000 0.0000 0.0000 0.0000 22.3724 0.0000
# 6 0.0000 0.0000 0.0000 0.0000 0.0000 115.0691
#
#
#
# Elastic Compliance Matrix: (Units=1/GPa)
#
#
# Indices 1 2 3 4 5 6 
#
# 1 0.014095 -0.001475 0.002045 0.000000 0.000000 0.000000
# 2 -0.001475 0.007175 -0.004409 0.000000 0.000000 0.000000
# 3 0.002045 -0.004409 0.030923 0.000000 0.000000 0.000000
# 4 0.000000 0.000000 0.000000 0.064746 0.000000 0.000000
# 5 0.000000 0.000000 0.000000 0.000000 0.044698 0.000000
# 6 0.000000 0.000000 0.000000 0.000000 0.000000 0.008690
#
#
# Mechanical properties :
#
#
# Convention : Reuss Voigt Hill
#
# Bulk Modulus (GPa) = 22.46466 36.26390 29.36428
# Shear Modulus (GPa) = 25.92782 46.04222 35.98502
#
# Velocity S-wave (km/s) = 3.71051 4.94457 4.37131
# Velocity P-wave (km/s) = 5.50328 7.20102 6.40862
#
# Compressibility (1/GPa) = 0.04451436
#
# Stress axis : x y z
#
# Youngs Moduli (GPa) = 70.94901 139.36523 32.33882
#
# Poissons Ratio (x) = 0.20563 -0.06614
# Poissons Ratio (y) = 0.10468 0.14258
# Poissons Ratio (z) = -0.14511 0.61445
#
# Static dielectric constant tensor:
#      x y z
#    x 1.655020 0.000000 0.000000 
#    y 0.000000 1.656780 0.000000 
#    z 0.000000 0.000000 1.640370 
# 
# From -- ./inp_files/8267.got.cif
#   From: 2010.05.17/outbox.cif.g08.bks.cpg/sg53_5_cif.got.tgz:8267.got - 2010.06.03 12:45:16.
