data_PCOD9419776
_publ_section_title
;
Structure prediction by ZEFSAII (Michael W. Deem and Ramdas Pophale) SiO2 
 PCOD9419776
Probable space group: P M N A
;
_chemical_formula_sum "Si O2"
_cell_formula_units_Z 60
_cell_length_a 16.574907
_cell_length_b 15.425421
_cell_length_c 11.549330
_cell_angle_alpha 90.000000
_cell_angle_beta 90.000000
_cell_angle_gamma 90.000000
_cell_volume 2952.874007
_symmetry_space_group_name_H-M "P M N A"
_symmetry_group_IT_number 53
_symmetry_cell_setting 'orthorhombic'
loop_
_space_group_symop_operation_xyz
x,y,z
1/2-x,-y,1/2+z
x,-y,-z
1/2-x,y,1/2-z
-x,-y,-z
1/2+x,y,1/2-z
-x,y,z
1/2+x,-y,1/2+z
loop_
_atom_site_type_symbol
_atom_site_label
_atom_site_fract_x
_atom_site_fract_y
_atom_site_fract_z
Si Si1 0.159970 0.335662 0.789045
Si Si2 0.250000 0.386161 0.250000
Si Si3 0.406096 0.194064 0.888440
Si Si4 0.341996 0.952660 0.264690
Si Si5 0.093900 0.513103 0.860987
Si Si6 0.411939 0.862575 0.698776
Si Si7 0.184947 0.770160 0.609483
Si Si8 0.838881 0.813395 0.029746
O O1 0.250000 0.362693 0.750000
O O2 0.130740 0.268378 0.692652
O O3 0.103556 0.418017 0.804691
O O4 0.160595 0.279450 0.907111
O O5 0.329449 0.434698 0.304591
O O6 0.284417 0.324181 0.147915
O O7 0.500000 0.186903 0.866056
O O8 0.367577 0.102887 0.847696
O O9 0.387235 0.223128 0.018078
O O10 0.250000 0.982039 0.250000
O O11 0.344824 0.885283 0.371035
O O12 0.396369 0.035097 0.291492
O O13 0.000000 0.544936 0.843418
O O14 0.105346 0.500000 0.000000
O O15 0.500000 0.841528 0.745291
O O16 0.344593 0.815872 0.774671
O O17 0.405141 0.829665 0.567490
O O18 0.255871 0.818946 0.541066
#
# Coordination Sequence:
#
# PCOD9419776 Si02
#       8
#     8   4   8   8   8   8   8   8
#     4  11  21  43  72  99 133 173 219 271 335 405
#     4  12  26  46  74  96 136 184 226 284 348 412
#     4  11  23  40  67 100 133 170 220 276 334 400
#     4  11  22  42  68  92 128 174 224 277 332 398
#     4  11  26  45  71 107 138 173 223 282 344 411
#     4  12  27  40  60  96 136 175 223 281 336 392
#     4  12  23  44  64  92 129 180 223 266 341 404
#     4  11  21  42  69  94 126 174 225 271 323 401
#
# _framework density 20.319186999999999
#
# number of rings (size 3 to 8) (size 9 to 14) (size 15 to 20)
#    0.000    0.667    4.667    4.000    0.000    5.333 
#    0.000    1.333    0.000    2.000    0.000    0.000 
#    0.000    0.000    0.000    0.000    0.000    0.000 
#
# Total GULP energy -335051.911858 kJ/mol
# GULP energy per Si atom -5584.198531 kJ/mol
# Density = 2.027294 g / cm^3
# Si number density = 20.319187 Si / 1000 Ang^3
#
#
#
# Elastic Constant Matrix: (Units=GPa)
#
#
# Indices 1 2 3 4 5 6 
#
# 1 119.2877 22.1493 13.9692 0.0000 0.0000 0.0000
# 2 22.1493 64.0413 19.8450 0.0000 0.0000 0.0000
# 3 13.9692 19.8450 90.1106 0.0000 0.0000 0.0000
# 4 0.0000 0.0000 0.0000 5.3313 0.0000 0.0000
# 5 0.0000 0.0000 0.0000 0.0000 23.4165 0.0000
# 6 0.0000 0.0000 0.0000 0.0000 0.0000 1.3322
#
#
#
# Elastic Compliance Matrix: (Units=1/GPa)
#
#
# Indices 1 2 3 4 5 6 
#
# 1 0.009007 -0.002879 -0.000762 0.000000 0.000000 0.000000
# 2 -0.002879 0.017679 -0.003447 0.000000 0.000000 0.000000
# 3 -0.000762 -0.003447 0.011975 0.000000 0.000000 0.000000
# 4 0.000000 0.000000 0.000000 0.187572 0.000000 0.000000
# 5 0.000000 0.000000 0.000000 0.000000 0.042705 0.000000
# 6 0.000000 0.000000 0.000000 0.000000 0.000000 0.750664
#
#
# Mechanical properties :
#
#
# Convention : Reuss Voigt Hill
#
# Bulk Modulus (GPa) = 40.84306 42.81853 41.83080
# Shear Modulus (GPa) = 4.79874 20.51438 12.65656
#
# Velocity S-wave (km/s) = 1.53844 3.18088 2.49848
# Velocity P-wave (km/s) = 4.82702 5.88297 5.38096
#
# Compressibility (1/GPa) = 0.02448396
#
# Stress axis : x y z
#
# Youngs Moduli (GPa) = 111.02585 56.56490 83.50873
#
# Poissons Ratio (x) = 0.16285 0.06365
# Poissons Ratio (y) = 0.31963 0.28786
# Poissons Ratio (z) = 0.08463 0.19499
#
# Static dielectric constant tensor:
#      x y z
#    x 1.702520 0.000000 0.000000 
#    y 0.000000 1.710490 0.000000 
#    z 0.000000 0.000000 1.739560 
# 
# From -- ./inp_files/17059.got.cif
#   From: 2010.05.17/outbox.cif.g08.bks.cpg/sg53_9_cif.got.tgz:17059.got - 2010.06.03 12:45:16.
