data_PCOD9419476
_publ_section_title
;
Structure prediction by ZEFSAII (Michael W. Deem and Ramdas Pophale) SiO2 
 PCOD9419476
Probable space group: P M N A
;
_chemical_formula_sum "Si O2"
_cell_formula_units_Z 60
_cell_length_a 18.594711
_cell_length_b 5.047857
_cell_length_c 25.887648
_cell_angle_alpha 90.000000
_cell_angle_beta 90.000000
_cell_angle_gamma 90.000000
_cell_volume 2429.903749
_symmetry_space_group_name_H-M "P M N A"
_symmetry_group_IT_number 53
_symmetry_cell_setting 'orthorhombic'
loop_
_space_group_symop_operation_xyz
x,y,z
1/2-x,-y,1/2+z
x,-y,-z
1/2-x,y,1/2-z
-x,-y,-z
1/2+x,y,1/2-z
-x,y,z
1/2+x,-y,1/2+z
loop_
_atom_site_type_symbol
_atom_site_label
_atom_site_fract_x
_atom_site_fract_y
_atom_site_fract_z
Si Si1 0.000000 0.398364 0.719566
Si Si2 0.233490 0.084357 0.301656
Si Si3 0.377348 0.771217 0.303210
Si Si4 0.647501 0.734925 0.531573
Si Si5 0.718924 0.578405 0.904280
Si Si6 0.081199 0.711999 0.862825
Si Si7 0.618148 0.198097 0.851539
Si Si8 0.578176 0.843540 0.946231
O O1 0.065163 0.351094 0.762610
O O2 0.063426 0.402633 0.673928
O O3 0.250000 0.255654 0.250000
O O4 0.294667 0.859955 0.294049
O O5 0.150576 0.987922 0.306094
O O6 0.240503 0.231368 0.356415
O O7 0.373796 0.545071 0.346818
O O8 0.410152 0.049081 0.322744
O O9 0.609367 0.500000 0.500000
O O10 0.717695 0.590472 0.555119
O O11 0.602536 0.818263 0.581373
O O12 0.665010 0.000000 0.500000
O O13 0.690330 0.315791 0.876746
O O14 0.647133 0.666447 0.935008
O O15 0.000000 0.619601 0.863941
O O16 0.579741 0.037887 0.896721
O O17 0.500000 0.707005 0.947739
O O18 0.586520 0.000000 0.000000
#
# Coordination Sequence:
#
# PCOD9419476 Si02
#       8
#     4   8   8   8   8   8   8   8
#     4  12  24  46  71 109 149 197 253 298 384 436
#     4  11  24  44  69 100 141 186 246 305 371 435
#     4  12  25  47  73 108 146 202 244 304 364 456
#     4  12  28  47  78 112 147 194 251 315 380 446
#     4  11  26  43  71 101 141 194 244 310 365 451
#     4  12  25  48  76 109 150 193 247 300 376 452
#     4  11  25  44  66 105 145 182 247 313 363 447
#     4  10  23  43  66  95 137 188 241 299 375 440
#
# _framework density 24.692336999999998
#
# number of rings (size 3 to 8) (size 9 to 14) (size 15 to 20)
#    0.000    0.667    4.667    2.000    6.533    2.133 
#    4.800    1.333    0.000    0.000    0.000    0.000 
#    0.000    0.000    0.000    0.000    0.000    0.000 
#
# Total GULP energy -334257.789205 kJ/mol
# GULP energy per Si atom -5570.963153 kJ/mol
# Density = 2.463614 g / cm^3
# Si number density = 24.692337 Si / 1000 Ang^3
#
#
#
# Elastic Constant Matrix: (Units=GPa)
#
#
# Indices 1 2 3 4 5 6 
#
# 1 98.5361 1.3840 23.7337 0.0000 0.0000 0.0000
# 2 1.3840 58.8701 1.4045 0.0000 0.0000 0.0000
# 3 23.7337 1.4045 100.0282 0.0000 0.0000 0.0000
# 4 0.0000 0.0000 0.0000 18.1620 0.0000 0.0000
# 5 0.0000 0.0000 0.0000 0.0000 28.3974 0.0000
# 6 0.0000 0.0000 0.0000 0.0000 0.0000 17.2219
#
#
#
# Elastic Compliance Matrix: (Units=1/GPa)
#
#
# Indices 1 2 3 4 5 6 
#
# 1 0.010766 -0.000192 -0.002552 0.000000 0.000000 0.000000
# 2 -0.000192 0.016996 -0.000193 0.000000 0.000000 0.000000
# 3 -0.002552 -0.000193 0.010605 0.000000 0.000000 0.000000
# 4 0.000000 0.000000 0.000000 0.055060 0.000000 0.000000
# 5 0.000000 0.000000 0.000000 0.000000 0.035214 0.000000
# 6 0.000000 0.000000 0.000000 0.000000 0.000000 0.058065
#
#
# Mechanical properties :
#
#
# Convention : Reuss Voigt Hill
#
# Bulk Modulus (GPa) = 30.77590 34.49765 32.63677
# Shear Modulus (GPa) = 24.58068 28.15042 26.36555
#
# Velocity S-wave (km/s) = 3.15854 3.38012 3.27121
# Velocity P-wave (km/s) = 5.07865 5.40694 5.24536
#
# Compressibility (1/GPa) = 0.03249296
#
# Stress axis : x y z
#
# Youngs Moduli (GPa) = 92.88601 58.83845 94.29217
#
# Poissons Ratio (x) = 0.01131 0.24061
# Poissons Ratio (y) = 0.01785 0.01820
# Poissons Ratio (z) = 0.23702 0.01136
#
# Static dielectric constant tensor:
#      x y z
#    x 1.940210 0.000000 0.000000 
#    y 0.000000 2.001010 0.000000 
#    z 0.000000 0.000000 1.856830 
# 
# From -- ./inp_files/35637.got.cif
#   From: 2010.05.17/outbox.cif.g08.bks.cpg/sg53_18_cif.got.tgz:35637.got - 2010.06.03 12:45:16.
