data_PCOD9419525
_publ_section_title
;
Structure prediction by ZEFSAII (Michael W. Deem and Ramdas Pophale) SiO2 
 PCOD9419525
Probable space group: P M N A
;
_chemical_formula_sum "Si O2"
_cell_formula_units_Z 56
_cell_length_a 15.428504
_cell_length_b 11.007270
_cell_length_c 15.126166
_cell_angle_alpha 90.000000
_cell_angle_beta 90.000000
_cell_angle_gamma 90.000000
_cell_volume 2568.811869
_symmetry_space_group_name_H-M "P M N A"
_symmetry_group_IT_number 53
_symmetry_cell_setting 'orthorhombic'
loop_
_space_group_symop_operation_xyz
x,y,z
1/2-x,-y,1/2+z
x,-y,-z
1/2-x,y,1/2-z
-x,-y,-z
1/2+x,y,1/2-z
-x,y,z
1/2+x,-y,1/2+z
loop_
_atom_site_type_symbol
_atom_site_label
_atom_site_fract_x
_atom_site_fract_y
_atom_site_fract_z
Si Si1 0.903831 0.185756 0.126958
Si Si2 0.267950 0.392469 0.350892
Si Si3 0.643947 0.882976 0.061684
Si Si4 0.645350 0.022015 0.744660
Si Si5 0.646983 0.148479 0.560960
Si Si6 0.094166 0.637208 0.538659
Si Si7 0.595994 0.425607 0.590898
O O1 0.833821 0.289402 0.120182
O O2 0.000000 0.236280 0.125844
O O3 0.889430 0.110164 0.216907
O O4 0.888836 0.110887 0.036112
O O5 0.250000 0.374354 0.250000
O O6 0.179140 0.371545 0.401935
O O7 0.319978 0.518343 0.361509
O O8 0.617888 0.919060 0.162311
O O9 0.748741 0.867873 0.057965
O O10 0.606945 0.753458 0.027104
O O11 0.621654 0.000000 0.000000
O O12 0.750000 0.014276 0.750000
O O13 0.619518 0.094732 0.656142
O O14 0.616166 0.287144 0.569879
O O15 0.090798 0.500000 0.500000
O O16 0.000000 0.656977 0.582967
O O17 0.592200 0.500000 0.500000
O O18 0.500000 0.436913 0.633811
#
# Coordination Sequence:
#
# PCOD9419525 Si02
#       7
#     8   8   8   8   8   8   8
#     4  12  24  41  68 103 142 181 230 295 367 435
#     4  12  26  43  69 100 142 185 239 296 366 429
#     4  11  23  44  74 102 144 197 249 298 360 431
#     4  10  24  41  65 101 140 191 239 286 356 431
#     4  11  21  39  69 102 146 182 229 291 358 433
#     4  11  26  49  76 103 140 191 249 309 369 434
#     4  11  22  41  68 101 139 183 233 288 360 439
#
# _framework density 21.799961
#
# number of rings (size 3 to 8) (size 9 to 14) (size 15 to 20)
#    0.000    0.857    2.857    4.714    2.000    6.571 
#    0.000    1.429    0.000    0.000    0.000    0.000 
#    0.000    0.000    0.000    0.000    0.000    0.000 
#
# Total GULP energy -312562.684880 kJ/mol
# GULP energy per Si atom -5581.476516 kJ/mol
# Density = 2.175034 g / cm^3
# Si number density = 21.799961 Si / 1000 Ang^3
#
#
#
# Elastic Constant Matrix: (Units=GPa)
#
#
# Indices 1 2 3 4 5 6 
#
# 1 149.3652 29.7663 57.9112 0.0000 0.0000 0.0000
# 2 29.7663 100.8469 50.7075 0.0000 0.0000 0.0000
# 3 57.9112 50.7075 134.8100 0.0000 0.0000 0.0000
# 4 0.0000 0.0000 0.0000 182.8043 0.0000 0.0000
# 5 0.0000 0.0000 0.0000 0.0000 45.4470 0.0000
# 6 0.0000 0.0000 0.0000 0.0000 0.0000 72.7606
#
#
#
# Elastic Compliance Matrix: (Units=1/GPa)
#
#
# Indices 1 2 3 4 5 6 
#
# 1 0.008084 -0.000789 -0.003176 0.000000 0.000000 0.000000
# 2 -0.000789 0.012306 -0.004290 0.000000 0.000000 0.000000
# 3 -0.003176 -0.004290 0.010396 0.000000 0.000000 0.000000
# 4 0.000000 0.000000 0.000000 0.005470 0.000000 0.000000
# 5 0.000000 0.000000 0.000000 0.000000 0.022004 0.000000
# 6 0.000000 0.000000 0.000000 0.000000 0.000000 0.013744
#
#
# Mechanical properties :
#
#
# Convention : Reuss Voigt Hill
#
# Bulk Modulus (GPa) = 70.04829 73.53246 71.79038
# Shear Modulus (GPa) = 53.60754 76.64483 65.12618
#
# Velocity S-wave (km/s) = 4.96428 5.93587 5.47168
# Velocity P-wave (km/s) = 8.06603 8.98795 8.53944
#
# Compressibility (1/GPa) = 0.01427587
#
# Stress axis : x y z
#
# Youngs Moduli (GPa) = 123.70850 81.26172 96.19485
#
# Poissons Ratio (x) = 0.06413 0.30548
# Poissons Ratio (y) = 0.09763 0.41265
# Poissons Ratio (z) = 0.39285 0.34859
#
# Static dielectric constant tensor:
#      x y z
#    x 1.744510 0.000000 0.000000 
#    y 0.000000 1.422000 0.000000 
#    z 0.000000 0.000000 1.780270 
# 
# From -- ./inp_files/22834.got.cif
#   From: 2010.05.17/outbox.cif.g08.bks.cpg/sg53_12_cif.got.tgz:22834.got - 2010.06.03 12:45:16.
