data_PCOD9419945
_publ_section_title
;
Structure prediction by ZEFSAII (Michael W. Deem and Ramdas Pophale) SiO2 
 PCOD9419945
Probable space group: P M N A
;
_chemical_formula_sum "Si O2"
_cell_formula_units_Z 34
_cell_length_a 10.378003
_cell_length_b 12.071513
_cell_length_c 12.607635
_cell_angle_alpha 90.000000
_cell_angle_beta 90.000000
_cell_angle_gamma 90.000000
_cell_volume 1579.461795
_symmetry_space_group_name_H-M "P M N A"
_symmetry_group_IT_number 53
_symmetry_cell_setting 'orthorhombic'
loop_
_space_group_symop_operation_xyz
x,y,z
1/2-x,-y,1/2+z
x,-y,-z
1/2-x,y,1/2-z
-x,-y,-z
1/2+x,y,1/2-z
-x,y,z
1/2+x,-y,1/2+z
loop_
_atom_site_type_symbol
_atom_site_label
_atom_site_fract_x
_atom_site_fract_y
_atom_site_fract_z
Si Si1 0.750000 0.034099 0.250000
Si Si2 0.500000 0.237965 0.976199
Si Si3 0.250000 0.394879 0.250000
Si Si4 0.262200 0.211835 0.423699
Si Si5 0.500000 0.464996 0.740157
Si Si6 0.000000 0.743746 0.078127
Si Si7 0.500000 0.500000 0.000000
Si Si8 0.000000 0.892118 0.273623
O O1 0.800590 0.112695 0.154942
O O2 0.630111 0.961628 0.210340
O O3 0.500000 0.364641 0.016952
O O4 0.500000 0.214470 0.850665
O O5 0.369508 0.182043 0.017421
O O6 0.225842 0.314286 0.348153
O O7 0.369432 0.469372 0.284317
O O8 0.373885 0.249678 0.503787
O O9 0.500000 0.359586 0.660315
O O10 0.500000 0.470381 0.869508
O O11 0.000000 0.850635 0.153130
#
# Coordination Sequence:
#
# PCOD9419945 Si02
#       8
#     4   4   4   8   4   4   2   4
#     4  11  26  47  72  98 142 187 236 297 362 420
#     4  12  25  44  72  99 136 187 238 275 350 442
#     4  11  24  45  68 100 136 187 234 275 348 440
#     4  11  25  46  70  99 140 187 234 290 355 426
#     4  12  27  42  72  99 142 183 230 289 355 422
#     4  12  28  42  68 108 144 172 236 311 359 405
#     4  12  24  48  68 102 138 192 218 294 352 440
#     4  12  26  44  68 106 136 178 242 295 350 429
#
# _framework density 21.526319999999998
#
# number of rings (size 3 to 8) (size 9 to 14) (size 15 to 20)
#    0.000    0.471    3.529    3.529    3.294   12.235 
#    0.000    0.000    0.000    0.000    0.000    0.000 
#    0.000    0.000    0.000    0.000    0.000    0.000 
#
# Total GULP energy -189322.164730 kJ/mol
# GULP energy per Si atom -5568.298963 kJ/mol
# Density = 2.147733 g / cm^3
# Si number density = 21.526320 Si / 1000 Ang^3
#
#
#
# Elastic Constant Matrix: (Units=GPa)
#
#
# Indices 1 2 3 4 5 6 
#
# 1 128.5787 41.5752 36.8751 0.0000 0.0000 0.0000
# 2 41.5752 116.1638 51.1904 0.0000 0.0000 0.0000
# 3 36.8751 51.1904 140.4039 0.0000 0.0000 0.0000
# 4 0.0000 0.0000 0.0000 38.6821 0.0000 0.0000
# 5 0.0000 0.0000 0.0000 0.0000 57.7554 0.0000
# 6 0.0000 0.0000 0.0000 0.0000 0.0000 -3.0865
#
#
#
# Elastic Compliance Matrix: (Units=1/GPa)
#
#
# Indices 1 2 3 4 5 6 
#
# 1 0.009027 -0.002604 -0.001421 0.000000 0.000000 0.000000
# 2 -0.002604 0.011008 -0.003329 0.000000 0.000000 0.000000
# 3 -0.001421 -0.003329 0.008709 0.000000 0.000000 0.000000
# 4 0.000000 0.000000 0.000000 0.025852 0.000000 0.000000
# 5 0.000000 0.000000 0.000000 0.000000 0.017314 0.000000
# 6 0.000000 0.000000 0.000000 0.000000 0.000000 -0.323993
#
#
# Mechanical properties :
#
#
# Convention : Reuss Voigt Hill
#
# Bulk Modulus (GPa) = 71.25470 71.60308 71.42889
# Shear Modulus (GPa) = -21.48747 35.70392 7.10823
#
# Velocity S-wave (km/s) = -3.16285 4.07703 1.81914
# Velocity P-wave (km/s) = 4.45364 7.44971 6.13731
#
# Compressibility (1/GPa) = 0.01403416
#
# Stress axis : x y z
#
# Youngs Moduli (GPa) = 110.77775 90.84431 114.81791
#
# Poissons Ratio (x) = 0.23660 0.16319
# Poissons Ratio (y) = 0.28852 0.38227
# Poissons Ratio (z) = 0.15744 0.30245
#
# Static dielectric constant tensor:
#      x y z
#    x 1.772960 0.000000 0.000000 
#    y 0.000000 1.767480 0.000000 
#    z 0.000000 0.000000 1.801550 
# 
# From -- ./inp_files/14722.got.cif
#   From: 2010.05.17/outbox.cif.g08.bks.cpg/sg53_8_cif.got.tgz:14722.got - 2010.06.03 12:45:16.
