data_PCOD9419725
_publ_section_title
;
Structure prediction by ZEFSAII (Michael W. Deem and Ramdas Pophale) SiO2 
 PCOD9419725
Probable space group: P M N A
;
_chemical_formula_sum "Si O2"
_cell_formula_units_Z 32
_cell_length_a 8.610441
_cell_length_b 10.236428
_cell_length_c 20.104342
_cell_angle_alpha 90.000000
_cell_angle_beta 90.000000
_cell_angle_gamma 90.000000
_cell_volume 1771.999907
_symmetry_space_group_name_H-M "P M N A"
_symmetry_group_IT_number 53
_symmetry_cell_setting 'orthorhombic'
loop_
_space_group_symop_operation_xyz
x,y,z
1/2-x,-y,1/2+z
x,-y,-z
1/2-x,y,1/2-z
-x,-y,-z
1/2+x,y,1/2-z
-x,y,z
1/2+x,-y,1/2+z
loop_
_atom_site_type_symbol
_atom_site_label
_atom_site_fract_x
_atom_site_fract_y
_atom_site_fract_z
Si Si1 0.185872 0.827989 0.055319
Si Si2 0.186027 0.899240 0.590251
Si Si3 0.814451 0.331303 0.176378
Si Si4 0.813668 0.546649 0.424883
O O1 0.245981 0.691426 0.083694
O O2 0.000000 0.831171 0.052601
O O3 0.249014 0.953957 0.094576
O O4 0.252664 0.843823 0.980467
O O5 0.247609 0.803895 0.647069
O O6 0.000000 0.900388 0.588915
O O7 0.750000 0.353658 0.250000
O O8 0.757036 0.445229 0.127146
O O9 0.000000 0.326683 0.176809
O O10 0.775883 0.500000 0.500000
O O11 0.000000 0.548356 0.418517
#
# Coordination Sequence:
#
# PCOD9419725 Si02
#       4
#     8   8   8   8
#     4  11  21  35  59  91 122 155 199 251 303 354
#     4  11  21  37  59  87 121 158 199 248 302 358
#     4  12  25  42  63  89 123 163 206 251 307 370
#     4  11  22  38  62  91 124 161 204 253 307 361
#
# _framework density 18.058689999999999
#
# number of rings (size 3 to 8) (size 9 to 14) (size 15 to 20)
#    0.000    0.750    2.500    9.000    0.000    1.000 
#    0.000    1.250    0.000    0.000    0.000    0.000 
#    0.000    0.000    0.000    0.000    0.000    0.000 
#
# Total GULP energy -179017.067141 kJ/mol
# GULP energy per Si atom -5594.283348 kJ/mol
# Density = 1.801759 g / cm^3
# Si number density = 18.058690 Si / 1000 Ang^3
#
#
#
# Elastic Constant Matrix: (Units=GPa)
#
#
# Indices 1 2 3 4 5 6 
#
# 1 185.4744 77.0588 69.1984 0.0000 0.0000 0.0000
# 2 77.0588 162.9835 76.4323 0.0000 0.0000 0.0000
# 3 69.1984 76.4323 116.2025 0.0000 0.0000 0.0000
# 4 0.0000 0.0000 0.0000 26.1590 0.0000 0.0000
# 5 0.0000 0.0000 0.0000 0.0000 32.3134 0.0000
# 6 0.0000 0.0000 0.0000 0.0000 0.0000 38.1846
#
#
#
# Elastic Compliance Matrix: (Units=1/GPa)
#
#
# Indices 1 2 3 4 5 6 
#
# 1 0.007383 -0.002066 -0.003038 0.000000 0.000000 0.000000
# 2 -0.002066 0.009451 -0.004986 0.000000 0.000000 0.000000
# 3 -0.003038 -0.004986 0.013694 0.000000 0.000000 0.000000
# 4 0.000000 0.000000 0.000000 0.038228 0.000000 0.000000
# 5 0.000000 0.000000 0.000000 0.000000 0.030947 0.000000
# 6 0.000000 0.000000 0.000000 0.000000 0.000000 0.026189
#
#
# Mechanical properties :
#
#
# Convention : Reuss Voigt Hill
#
# Bulk Modulus (GPa) = 96.63132 101.11548 98.87340
# Shear Modulus (GPa) = 33.44038 35.46282 34.45160
#
# Velocity S-wave (km/s) = 4.30788 4.43623 4.37253
# Velocity P-wave (km/s) = 8.85266 9.07494 8.96449
#
# Compressibility (1/GPa) = 0.01034861
#
# Stress axis : x y z
#
# Youngs Moduli (GPa) = 135.43903 105.81324 73.02526
#
# Poissons Ratio (x) = 0.21865 0.22183
# Poissons Ratio (y) = 0.27986 0.36408
# Poissons Ratio (z) = 0.41142 0.52755
#
# Static dielectric constant tensor:
#      x y z
#    x 1.596790 0.000000 0.000000 
#    y 0.000000 1.618930 0.000000 
#    z 0.000000 0.000000 1.595440 
# 
# From -- ./inp_files/30018.got.cif
#   From: 2010.05.17/outbox.cif.g08.bks.cpg/sg53_16_cif.got.tgz:30018.got - 2010.06.03 12:45:16.
