data_PCOD9419906
_publ_section_title
;
Structure prediction by ZEFSAII (Michael W. Deem and Ramdas Pophale) SiO2 
 PCOD9419906
Probable space group: P M N A
;
_chemical_formula_sum "Si O2"
_cell_formula_units_Z 40
_cell_length_a 18.262531
_cell_length_b 12.590526
_cell_length_c 8.875018
_cell_angle_alpha 90.000000
_cell_angle_beta 90.000000
_cell_angle_gamma 90.000000
_cell_volume 2040.676122
_symmetry_space_group_name_H-M "P M N A"
_symmetry_group_IT_number 53
_symmetry_cell_setting 'orthorhombic'
loop_
_space_group_symop_operation_xyz
x,y,z
1/2-x,-y,1/2+z
x,-y,-z
1/2-x,y,1/2-z
-x,-y,-z
1/2+x,y,1/2-z
-x,y,z
1/2+x,-y,1/2+z
loop_
_atom_site_type_symbol
_atom_site_label
_atom_site_fract_x
_atom_site_fract_y
_atom_site_fract_z
Si Si1 0.194819 0.706915 0.888031
Si Si2 0.168980 0.587066 0.182725
Si Si3 0.777951 0.114183 0.577550
Si Si4 0.913826 0.260259 0.608407
Si Si5 0.085211 0.621591 0.701889
O O1 0.250000 0.682250 0.750000
O O2 0.117290 0.717116 0.803871
O O3 0.183015 0.612894 0.007934
O O4 0.227707 0.804843 0.980503
O O5 0.250000 0.593514 0.250000
O O6 0.118133 0.682542 0.244380
O O7 0.129024 0.482782 0.247231
O O8 0.750000 0.110488 0.750000
O O9 0.859955 0.162387 0.576250
O O10 0.775462 0.000000 0.500000
O O11 0.904040 0.344360 0.470930
O O12 0.000000 0.235537 0.618883
O O13 0.000000 0.603535 0.728037
#
# Coordination Sequence:
#
# PCOD9419906 Si02
#       5
#     8   8   8   8   8
#     4  12  22  42  66  96 133 180 227 278 330 398
#     4  12  22  39  64  98 137 179 233 271 325 394
#     4  12  25  47  74 101 125 169 229 287 349 404
#     4  11  23  44  69  99 139 179 224 277 341 406
#     4  11  25  39  61  99 141 186 222 270 334 398
#
# _framework density 19.601347000000001
#
# number of rings (size 3 to 8) (size 9 to 14) (size 15 to 20)
#    0.000    0.400    6.000    3.000    0.000    6.000 
#    0.000    0.000    0.000    1.200    0.000    0.000 
#    0.000    0.000    0.000    0.000    0.000    0.000 
#
# Total GULP energy -223398.643593 kJ/mol
# GULP energy per Si atom -5584.966090 kJ/mol
# Density = 1.955673 g / cm^3
# Si number density = 19.601347 Si / 1000 Ang^3
#
#
#
# Elastic Constant Matrix: (Units=GPa)
#
#
# Indices 1 2 3 4 5 6 
#
# 1 81.2090 41.7261 46.1521 0.0000 0.0000 0.0000
# 2 41.7261 115.0155 40.5742 0.0000 0.0000 0.0000
# 3 46.1521 40.5742 139.2839 0.0000 0.0000 0.0000
# 4 0.0000 0.0000 0.0000 30.0175 0.0000 0.0000
# 5 0.0000 0.0000 0.0000 0.0000 19.8392 0.0000
# 6 0.0000 0.0000 0.0000 0.0000 0.0000 13.5384
#
#
#
# Elastic Compliance Matrix: (Units=1/GPa)
#
#
# Indices 1 2 3 4 5 6 
#
# 1 0.017192 -0.004712 -0.004324 0.000000 0.000000 0.000000
# 2 -0.004712 0.010982 -0.001638 0.000000 0.000000 0.000000
# 3 -0.004324 -0.001638 0.009089 0.000000 0.000000 0.000000
# 4 0.000000 0.000000 0.000000 0.033314 0.000000 0.000000
# 5 0.000000 0.000000 0.000000 0.000000 0.050405 0.000000
# 6 0.000000 0.000000 0.000000 0.000000 0.000000 0.073864
#
#
# Mechanical properties :
#
#
# Convention : Reuss Voigt Hill
#
# Bulk Modulus (GPa) = 62.82939 65.82369 64.32654
# Shear Modulus (GPa) = 22.57348 26.48277 24.52813
#
# Velocity S-wave (km/s) = 3.39725 3.67968 3.54128
# Velocity P-wave (km/s) = 6.89286 7.19079 7.04340
#
# Compressibility (1/GPa) = 0.01591612
#
# Stress axis : x y z
#
# Youngs Moduli (GPa) = 58.16559 91.06160 110.01711
#
# Poissons Ratio (x) = 0.42905 0.47573
# Poissons Ratio (y) = 0.27406 0.18018
# Poissons Ratio (z) = 0.25152 0.14914
#
# Static dielectric constant tensor:
#      x y z
#    x 1.678180 0.000000 0.000000 
#    y 0.000000 1.709860 0.000000 
#    z 0.000000 0.000000 1.762470 
# 
# From -- ./inp_files/9662.got.cif
#   From: 2010.05.17/outbox.cif.g08.bks.cpg/sg53_5_cif.got.tgz:9662.got - 2010.06.03 12:45:16.
