data_PCOD9419068
_publ_section_title
;
Structure prediction by ZEFSAII (Michael W. Deem and Ramdas Pophale) SiO2 
 PCOD9419068
Probable space group: P M N A
;
_chemical_formula_sum "Si O2"
_cell_formula_units_Z 64
_cell_length_a 14.133633
_cell_length_b 24.193099
_cell_length_c 8.391402
_cell_angle_alpha 90.000000
_cell_angle_beta 90.000000
_cell_angle_gamma 90.000000
_cell_volume 2869.325643
_symmetry_space_group_name_H-M "P M N A"
_symmetry_group_IT_number 53
_symmetry_cell_setting 'orthorhombic'
loop_
_space_group_symop_operation_xyz
x,y,z
1/2-x,-y,1/2+z
x,-y,-z
1/2-x,y,1/2-z
-x,-y,-z
1/2+x,y,1/2-z
-x,y,z
1/2+x,-y,1/2+z
loop_
_atom_site_type_symbol
_atom_site_label
_atom_site_fract_x
_atom_site_fract_y
_atom_site_fract_z
Si Si1 0.776967 0.555018 0.431794
Si Si2 0.110346 0.344683 0.440255
Si Si3 0.390857 0.842876 0.333244
Si Si4 0.889751 0.385394 0.072287
Si Si5 0.115014 0.731616 0.029292
Si Si6 0.390944 0.883885 0.967457
Si Si7 0.384570 0.769225 0.824610
Si Si8 0.276885 0.054513 0.565805
O O1 0.825412 0.500000 0.500000
O O2 0.750000 0.547330 0.250000
O O3 0.838811 0.609815 0.455127
O O4 0.681934 0.565995 0.534390
O O5 0.118086 0.365347 0.255821
O O6 0.147053 0.281452 0.437739
O O7 0.000000 0.342897 0.482938
O O8 0.500000 0.843485 0.386364
O O9 0.355344 0.780050 0.351364
O O10 0.388495 0.862279 0.150591
O O11 0.334792 0.888358 0.433864
O O12 0.000000 0.398213 0.042797
O O13 0.858144 0.332578 0.964650
O O14 0.000000 0.728822 0.034275
O O15 0.142183 0.754140 0.854707
O O16 0.500000 0.897703 0.928035
O O17 0.317766 0.933938 0.963370
O O18 0.357270 0.830905 0.868455
O O19 0.500000 0.768233 0.832695
O O20 0.250000 0.045166 0.750000
O O21 0.326835 0.000000 0.500000
#
# Coordination Sequence:
#
# PCOD9419068 Si02
#       8
#     8   8   8   8   8   8   8   8
#     4  12  26  41  58  81 111 148 192 236 275 324
#     4   9  19  38  62  86 115 148 181 224 276 327
#     4   9  18  33  52  74 103 135 164 204 258 310
#     4   9  19  38  62  86 115 148 181 224 276 327
#     4   8  15  30  54  83 110 136 169 209 257 315
#     4   9  18  33  52  74 103 135 164 204 258 310
#     4   8  15  30  54  83 110 136 169 209 257 315
#     4  10  22  37  50  69  97 130 174 218 255 302
#
# _framework density 22.304891999999999
#
# number of rings (size 3 to 8) (size 9 to 14) (size 15 to 20)
#    0.000    2.750    0.000    2.625    0.000    4.500 
#    0.000    5.000    0.000    0.000    0.000    0.000 
#    0.000    0.000    0.000    0.000    0.000    0.000 
#
# Total GULP energy -357448.506286 kJ/mol
# GULP energy per Si atom -5585.132911 kJ/mol
# Density = 2.225413 g / cm^3
# Si number density = 22.304892 Si / 1000 Ang^3
#
#
#
# Elastic Constant Matrix: (Units=GPa)
#
#
# Indices 1 2 3 4 5 6 
#
# 1 50.9880 14.4242 8.6847 0.0000 0.0000 0.0000
# 2 14.4242 64.0679 5.3917 0.0000 0.0000 0.0000
# 3 8.6847 5.3917 12.8995 0.0000 0.0000 0.0000
# 4 0.0000 0.0000 0.0000 33.5988 0.0000 0.0000
# 5 0.0000 0.0000 0.0000 0.0000 12.6268 0.0000
# 6 0.0000 0.0000 0.0000 0.0000 0.0000 25.8171
#
#
#
# Elastic Compliance Matrix: (Units=1/GPa)
#
#
# Indices 1 2 3 4 5 6 
#
# 1 0.023118 -0.004037 -0.013877 0.000000 0.000000 0.000000
# 2 -0.004037 0.016882 -0.004338 0.000000 0.000000 0.000000
# 3 -0.013877 -0.004338 0.088678 0.000000 0.000000 0.000000
# 4 0.000000 0.000000 0.000000 0.029763 0.000000 0.000000
# 5 0.000000 0.000000 0.000000 0.000000 0.079197 0.000000
# 6 0.000000 0.000000 0.000000 0.000000 0.000000 0.038734
#
#
# Mechanical properties :
#
#
# Convention : Reuss Voigt Hill
#
# Bulk Modulus (GPa) = 11.88017 20.55071 16.21544
# Shear Modulus (GPa) = 14.32930 21.03887 17.68408
#
# Velocity S-wave (km/s) = 2.53737 3.07455 2.81879
# Velocity P-wave (km/s) = 3.73124 4.67305 4.22845
#
# Compressibility (1/GPa) = 0.08417388
#
# Stress axis : x y z
#
# Youngs Moduli (GPa) = 43.25611 59.23318 11.27672
#
# Poissons Ratio (x) = 0.23912 0.15649
# Poissons Ratio (y) = 0.17462 0.04892
# Poissons Ratio (z) = 0.60027 0.25698
#
# Static dielectric constant tensor:
#      x y z
#    x 1.858030 0.000000 0.000000 
#    y 0.000000 1.796620 0.000000 
#    z 0.000000 0.000000 1.810190 
# 
# From -- ./inp_files/8935.got.cif
#   From: 2010.05.17/outbox.cif.g08.bks.cpg/sg53_5_cif.got.tgz:8935.got - 2010.06.03 12:45:16.
