data_PCOD9419992
_publ_section_title
;
Structure prediction by ZEFSAII (Michael W. Deem and Ramdas Pophale) SiO2 
 PCOD9419992
Probable space group: P M N A
;
_chemical_formula_sum "Si O2"
_cell_formula_units_Z 22
_cell_length_a 10.154935
_cell_length_b 12.189337
_cell_length_c 7.586748
_cell_angle_alpha 90.000000
_cell_angle_beta 90.000000
_cell_angle_gamma 90.000000
_cell_volume 939.102271
_symmetry_space_group_name_H-M "P M N A"
_symmetry_group_IT_number 53
_symmetry_cell_setting 'orthorhombic'
loop_
_space_group_symop_operation_xyz
x,y,z
1/2-x,-y,1/2+z
x,-y,-z
1/2-x,y,1/2-z
-x,-y,-z
1/2+x,y,1/2-z
-x,y,z
1/2+x,-y,1/2+z
loop_
_atom_site_type_symbol
_atom_site_label
_atom_site_fract_x
_atom_site_fract_y
_atom_site_fract_z
Si Si1 0.500000 0.873290 0.468683
Si Si2 0.000000 0.868729 0.450084
Si Si3 0.000000 0.500000 0.500000
Si Si4 0.258933 0.267524 0.444006
Si Si5 0.250000 0.562566 0.250000
O O1 0.500000 0.857700 0.260006
O O2 0.373239 0.821014 0.555285
O O3 0.500000 0.000000 0.500000
O O4 0.874187 0.799097 0.514205
O O5 0.000000 0.000000 0.500000
O O6 0.118437 0.512307 0.345258
O O7 0.250000 0.316531 0.250000
O O8 0.294972 0.356289 0.590909
#
# Coordination Sequence:
#
# PCOD9419992 Si02
#       5
#     4   4   2   8   4
#     4  12  23  42  68 111 159 211 273 327 390 488
#     4  12  23  42  68 112 161 213 274 324 386 493
#     4  12  32  56  92 122 166 210 290 376 452 544
#     4  12  25  47  75 109 158 213 263 335 420 496
#     4  12  28  58  80 126 158 216 280 364 450 524
#
# _framework density 23.426628999999998
#
# number of rings (size 3 to 8) (size 9 to 14) (size 15 to 20)
#    0.000    0.000    3.636    6.545    2.545    0.727 
#    0.000    0.000    0.000    0.000    0.000    0.000 
#    0.000    0.000    0.000    0.000    0.000    0.000 
#
# Total GULP energy -122468.105619 kJ/mol
# GULP energy per Si atom -5566.732074 kJ/mol
# Density = 2.337331 g / cm^3
# Si number density = 23.426629 Si / 1000 Ang^3
#
#
#
# Elastic Constant Matrix: (Units=GPa)
#
#
# Indices 1 2 3 4 5 6 
#
# 1 245.9412 80.5659 63.4848 0.0000 0.0000 0.0000
# 2 80.5659 77.1212 52.3839 0.0000 0.0000 0.0000
# 3 63.4848 52.3839 236.1827 0.0000 0.0000 0.0000
# 4 0.0000 0.0000 0.0000 45.7457 0.0000 0.0000
# 5 0.0000 0.0000 0.0000 0.0000 51.3507 0.0000
# 6 0.0000 0.0000 0.0000 0.0000 0.0000 -0.4179
#
#
#
# Elastic Compliance Matrix: (Units=1/GPa)
#
#
# Indices 1 2 3 4 5 6 
#
# 1 0.006196 -0.006289 -0.000271 0.000000 0.000000 0.000000
# 2 -0.006289 0.021650 -0.003111 0.000000 0.000000 0.000000
# 3 -0.000271 -0.003111 0.004997 0.000000 0.000000 0.000000
# 4 0.000000 0.000000 0.000000 0.021860 0.000000 0.000000
# 5 0.000000 0.000000 0.000000 0.000000 0.019474 0.000000
# 6 0.000000 0.000000 0.000000 0.000000 0.000000 -2.393074
#
#
# Mechanical properties :
#
#
# Convention : Reuss Voigt Hill
#
# Bulk Modulus (GPa) = 74.06953 105.79047 89.93000
# Shear Modulus (GPa) = -2.17860 43.52309 20.67225
#
# Velocity S-wave (km/s) = -0.96539 4.31495 2.97379
# Velocity P-wave (km/s) = 5.51758 8.37146 7.08960
#
# Compressibility (1/GPa) = 0.01350083
#
# Stress axis : x y z
#
# Youngs Moduli (GPa) = 161.39411 46.18973 200.12693
#
# Poissons Ratio (x) = 0.29049 0.05416
# Poissons Ratio (y) = 1.01500 0.62267
# Poissons Ratio (z) = 0.04367 0.14371
#
# Static dielectric constant tensor:
#      x y z
#    x 1.810400 0.000000 0.000000 
#    y 0.000000 2.032990 0.000000 
#    z 0.000000 0.000000 1.920700 
# 
# From -- ./inp_files/5832.got.cif
#   From: 2010.05.17/outbox.cif.g08.bks.cpg/sg53_3_cif.got.tgz:5832.got - 2010.06.03 12:45:16.
