data_PCOD9419163
_publ_section_title
;
Structure prediction by ZEFSAII (Michael W. Deem and Ramdas Pophale) SiO2 
 PCOD9419163
Probable space group: P M N A
;
_chemical_formula_sum "Si O2"
_cell_formula_units_Z 56
_cell_length_a 28.748079
_cell_length_b 5.730252
_cell_length_c 14.742588
_cell_angle_alpha 90.000000
_cell_angle_beta 90.000000
_cell_angle_gamma 90.000000
_cell_volume 2428.601617
_symmetry_space_group_name_H-M "P M N A"
_symmetry_group_IT_number 53
_symmetry_cell_setting 'orthorhombic'
loop_
_space_group_symop_operation_xyz
x,y,z
1/2-x,-y,1/2+z
x,-y,-z
1/2-x,y,1/2-z
-x,-y,-z
1/2+x,y,1/2-z
-x,y,z
1/2+x,-y,1/2+z
loop_
_atom_site_type_symbol
_atom_site_label
_atom_site_fract_x
_atom_site_fract_y
_atom_site_fract_z
Si Si1 0.300264 0.038694 0.723903
Si Si2 0.776283 0.744404 0.041506
Si Si3 0.554755 0.245746 0.535933
Si Si4 0.631948 0.286814 0.211440
Si Si5 0.826023 0.327938 0.599739
Si Si6 0.550594 0.379517 0.739158
Si Si7 0.419985 0.092733 0.908491
O O1 0.250000 0.935925 0.750000
O O2 0.293156 0.222596 0.644404
O O3 0.318535 0.169977 0.811938
O O4 0.338189 0.840100 0.711236
O O5 0.719915 0.719246 0.042244
O O6 0.793959 0.500000 0.000000
O O7 0.787370 0.000000 0.000000
O O8 0.572999 0.500000 0.500000
O O9 0.500000 0.246217 0.507880
O O10 0.555836 0.238160 0.645551
O O11 0.575401 0.000000 0.500000
O O12 0.667038 0.416536 0.142140
O O13 0.595682 0.461433 0.255540
O O14 0.600905 0.117613 0.150189
O O15 0.875223 0.246925 0.559294
O O16 0.500000 0.500610 0.732990
O O17 0.552097 0.238061 0.833585
O O18 0.443389 0.000000 0.000000
#
# Coordination Sequence:
#
# PCOD9419163 Si02
#       7
#     8   8   8   8   8   8   8
#     4   9  21  40  63  93 130 182 224 280 347 412
#     4  11  25  38  64 102 134 173 223 282 347 416
#     4   9  19  37  67 101 131 168 224 284 339 407
#     4  10  22  40  70  92 133 181 237 285 346 421
#     4   9  21  37  62  89 127 174 234 280 325 410
#     4  10  23  41  66 103 137 181 234 297 363 429
#     4  10  22  39  60  93 136 183 233 288 353 422
#
# _framework density 23.058537000000001
#
# number of rings (size 3 to 8) (size 9 to 14) (size 15 to 20)
#    0.000    2.286    0.000    0.429   12.000    3.143 
#    0.000    0.714    9.429    0.000    0.000    0.000 
#    0.000    0.571    0.000    0.000    0.000    0.000 
#
# Total GULP energy -312463.944351 kJ/mol
# GULP energy per Si atom -5579.713292 kJ/mol
# Density = 2.300605 g / cm^3
# Si number density = 23.058537 Si / 1000 Ang^3
#
#
#
# Elastic Constant Matrix: (Units=GPa)
#
#
# Indices 1 2 3 4 5 6 
#
# 1 74.9056 37.6623 36.1673 0.0000 0.0000 0.0000
# 2 37.6623 114.8057 32.3883 0.0000 0.0000 0.0000
# 3 36.1673 32.3883 93.7924 0.0000 0.0000 0.0000
# 4 0.0000 0.0000 0.0000 27.8040 0.0000 0.0000
# 5 0.0000 0.0000 0.0000 0.0000 18.3437 0.0000
# 6 0.0000 0.0000 0.0000 0.0000 0.0000 13.8285
#
#
#
# Elastic Compliance Matrix: (Units=1/GPa)
#
#
# Indices 1 2 3 4 5 6 
#
# 1 0.018234 -0.004430 -0.005501 0.000000 0.000000 0.000000
# 2 -0.004430 0.010727 -0.001996 0.000000 0.000000 0.000000
# 3 -0.005501 -0.001996 0.013473 0.000000 0.000000 0.000000
# 4 0.000000 0.000000 0.000000 0.035966 0.000000 0.000000
# 5 0.000000 0.000000 0.000000 0.000000 0.054515 0.000000
# 6 0.000000 0.000000 0.000000 0.000000 0.000000 0.072315
#
#
# Mechanical properties :
#
#
# Convention : Reuss Voigt Hill
#
# Bulk Modulus (GPa) = 53.82514 55.10442 54.46478
# Shear Modulus (GPa) = 21.25174 23.81430 22.53302
#
# Velocity S-wave (km/s) = 3.03915 3.21717 3.12943
# Velocity P-wave (km/s) = 5.97568 6.14408 6.06047
#
# Compressibility (1/GPa) = 0.01857868
#
# Stress axis : x y z
#
# Youngs Moduli (GPa) = 54.84377 93.22624 74.22513
#
# Poissons Ratio (x) = 0.41295 0.40835
# Poissons Ratio (y) = 0.24293 0.14815
# Poissons Ratio (z) = 0.30172 0.18608
#
# Static dielectric constant tensor:
#      x y z
#    x 1.847010 0.000000 0.000000 
#    y 0.000000 1.946640 0.000000 
#    z 0.000000 0.000000 1.876540 
# 
# From -- ./inp_files/25158.got.cif
#   From: 2010.05.17/outbox.cif.g08.bks.cpg/sg53_13_cif.got.tgz:25158.got - 2010.06.03 12:45:16.
