data_PCOD9419011
_publ_section_title
;
Structure prediction by ZEFSAII (Michael W. Deem and Ramdas Pophale) SiO2 
 PCOD9419011
Probable space group: P M N A
;
_chemical_formula_sum "Si O2"
_cell_formula_units_Z 36
_cell_length_a 19.891789
_cell_length_b 8.995852
_cell_length_c 9.347367
_cell_angle_alpha 90.000000
_cell_angle_beta 90.000000
_cell_angle_gamma 90.000000
_cell_volume 1672.651407
_symmetry_space_group_name_H-M "P M N A"
_symmetry_group_IT_number 53
_symmetry_cell_setting 'orthorhombic'
loop_
_space_group_symop_operation_xyz
x,y,z
1/2-x,-y,1/2+z
x,-y,-z
1/2-x,y,1/2-z
-x,-y,-z
1/2+x,y,1/2-z
-x,y,z
1/2+x,-y,1/2+z
loop_
_atom_site_type_symbol
_atom_site_label
_atom_site_fract_x
_atom_site_fract_y
_atom_site_fract_z
Si Si1 0.573334 0.029794 0.168672
Si Si2 0.715840 0.646846 0.403802
Si Si3 0.107463 0.500000 0.500000
Si Si4 0.804162 0.241906 0.370974
Si Si5 0.427253 0.306122 0.724412
O O1 0.500000 0.099869 0.209072
O O2 0.642007 0.121488 0.184447
O O3 0.576809 0.868806 0.240089
O O4 0.570401 0.000000 0.000000
O O5 0.723146 0.500000 0.500000
O O6 0.750000 0.629905 0.250000
O O7 0.757932 0.776439 0.486158
O O8 0.637078 0.664625 0.373476
O O9 0.150086 0.617608 0.590482
O O10 0.074768 0.601833 0.375041
O O11 0.750000 0.269991 0.250000
O O12 0.500000 0.337737 0.657188
#
# Coordination Sequence:
#
# PCOD9419011 Si02
#       5
#     8   8   4   8   8
#     4  10  21  42  64  93 132 174 225 276 319 388
#     4  12  22  42  67  97 137 173 217 277 334 394
#     4  12  21  40  66  94 129 170 214 272 323 392
#     4  12  25  41  67  99 133 172 219 274 333 394
#     4  11  24  41  66  97 132 173 220 273 331 389
#
# _framework density 21.522717
#
# number of rings (size 3 to 8) (size 9 to 14) (size 15 to 20)
#    0.000    0.667    5.556    2.333    0.000    4.000 
#    0.000    1.111    0.000    2.667    0.000    0.000 
#    0.000    0.000    0.000    0.000    0.000    0.000 
#
# Total GULP energy -200784.749494 kJ/mol
# GULP energy per Si atom -5577.354153 kJ/mol
# Density = 2.147373 g / cm^3
# Si number density = 21.522717 Si / 1000 Ang^3
#
#
#
# Elastic Constant Matrix: (Units=GPa)
#
#
# Indices 1 2 3 4 5 6 
#
# 1 178.4479 44.0132 29.7188 0.0000 0.0000 0.0000
# 2 44.0132 55.3799 7.9579 0.0000 0.0000 0.0000
# 3 29.7188 7.9579 67.9759 0.0000 0.0000 0.0000
# 4 0.0000 0.0000 0.0000 11.5327 0.0000 0.0000
# 5 0.0000 0.0000 0.0000 0.0000 45.9293 0.0000
# 6 0.0000 0.0000 0.0000 0.0000 0.0000 1.3459
#
#
#
# Elastic Compliance Matrix: (Units=1/GPa)
#
#
# Indices 1 2 3 4 5 6 
#
# 1 0.007392 -0.005503 -0.002588 0.000000 0.000000 0.000000
# 2 -0.005503 0.022463 -0.000224 0.000000 0.000000 0.000000
# 3 -0.002588 -0.000224 0.015869 0.000000 0.000000 0.000000
# 4 0.000000 0.000000 0.000000 0.086710 0.000000 0.000000
# 5 0.000000 0.000000 0.000000 0.000000 0.021773 0.000000
# 6 0.000000 0.000000 0.000000 0.000000 0.000000 0.742975
#
#
# Mechanical properties :
#
#
# Convention : Reuss Voigt Hill
#
# Bulk Modulus (GPa) = 34.37055 51.68705 43.02880
# Shear Modulus (GPa) = 5.41414 26.43585 15.92500
#
# Velocity S-wave (km/s) = 1.58777 3.50848 2.72309
# Velocity P-wave (km/s) = 4.40062 6.36238 5.47016
#
# Compressibility (1/GPa) = 0.02909468
#
# Stress axis : x y z
#
# Youngs Moduli (GPa) = 135.27931 44.51805 63.01764
#
# Poissons Ratio (x) = 0.24499 0.16306
# Poissons Ratio (y) = 0.74445 0.01410
# Poissons Ratio (z) = 0.35005 0.00996
#
# Static dielectric constant tensor:
#      x y z
#    x 1.867770 0.000000 0.000000 
#    y 0.000000 1.776390 0.000000 
#    z 0.000000 0.000000 1.807110 
# 
# From -- ./inp_files/10581.got.cif
#   From: 2010.05.17/outbox.cif.g08.bks.cpg/sg53_6_cif.got.tgz:10581.got - 2010.06.03 12:45:16.
