data_PCOD9419899
_publ_section_title
;
Structure prediction by ZEFSAII (Michael W. Deem and Ramdas Pophale) SiO2 
 PCOD9419899
Probable space group: P M N A
;
_chemical_formula_sum "Si O2"
_cell_formula_units_Z 40
_cell_length_a 8.582806
_cell_length_b 12.520756
_cell_length_c 18.249904
_cell_angle_alpha 90.000000
_cell_angle_beta 90.000000
_cell_angle_gamma 90.000000
_cell_volume 1961.193443
_symmetry_space_group_name_H-M "P M N A"
_symmetry_group_IT_number 53
_symmetry_cell_setting 'orthorhombic'
loop_
_space_group_symop_operation_xyz
x,y,z
1/2-x,-y,1/2+z
x,-y,-z
1/2-x,y,1/2-z
-x,-y,-z
1/2+x,y,1/2-z
-x,y,z
1/2+x,-y,1/2+z
loop_
_atom_site_type_symbol
_atom_site_label
_atom_site_fract_x
_atom_site_fract_y
_atom_site_fract_z
Si Si1 0.814452 0.659746 0.436811
Si Si2 0.315452 0.841561 0.331490
Si Si3 0.813635 0.469457 0.328095
Si Si4 0.684874 0.963854 0.916535
Si Si5 0.183836 0.727255 0.908980
O O1 0.770648 0.759255 0.385391
O O2 0.772342 0.553563 0.391827
O O3 0.726855 0.674200 0.513058
O O4 0.000000 0.658595 0.451156
O O5 0.250000 0.828918 0.250000
O O6 0.500000 0.821909 0.333030
O O7 0.276952 0.959158 0.361846
O O8 0.750000 0.507721 0.250000
O O9 0.742162 0.355053 0.347809
O O10 0.000000 0.462440 0.325321
O O11 0.500000 0.978022 0.905292
O O12 0.731110 0.841108 0.906254
O O13 0.720766 0.000000 0.000000
O O14 0.000000 0.743765 0.903546
#
# Coordination Sequence:
#
# PCOD9419899 Si02
#       5
#     8   8   8   8   8
#     4  11  23  42  67  96 130 170 216 267 322 380
#     4  12  25  41  65  97 133 170 215 266 323 384
#     4  11  25  44  66  93 130 171 216 267 323 384
#     4  11  23  42  68  94 128 169 213 264 319 379
#     4  12  25  41  67  98 130 169 217 266 319 386
#
# _framework density 20.395745000000002
#
# number of rings (size 3 to 8) (size 9 to 14) (size 15 to 20)
#    0.000    0.600    2.000    6.600    0.000    8.800 
#    0.000    4.000    0.000    0.000    0.000    0.000 
#    0.000    0.000    0.000    0.000    0.000    0.000 
#
# Total GULP energy -224027.132856 kJ/mol
# GULP energy per Si atom -5600.678321 kJ/mol
# Density = 2.034932 g / cm^3
# Si number density = 20.395745 Si / 1000 Ang^3
#
#
#
# Elastic Constant Matrix: (Units=GPa)
#
#
# Indices 1 2 3 4 5 6 
#
# 1 35.0724 -6.7729 -8.7805 0.0000 0.0000 0.0000
# 2 -6.7729 78.4394 -15.2607 0.0000 0.0000 0.0000
# 3 -8.7805 -15.2607 39.4450 0.0000 0.0000 0.0000
# 4 0.0000 0.0000 0.0000 64.1091 0.0000 0.0000
# 5 0.0000 0.0000 0.0000 0.0000 22.2095 0.0000
# 6 0.0000 0.0000 0.0000 0.0000 0.0000 91.8721
#
#
#
# Elastic Compliance Matrix: (Units=1/GPa)
#
#
# Indices 1 2 3 4 5 6 
#
# 1 0.031554 0.004424 0.008736 0.000000 0.000000 0.000000
# 2 0.004424 0.014407 0.006559 0.000000 0.000000 0.000000
# 3 0.008736 0.006559 0.029834 0.000000 0.000000 0.000000
# 4 0.000000 0.000000 0.000000 0.015598 0.000000 0.000000
# 5 0.000000 0.000000 0.000000 0.000000 0.045026 0.000000
# 6 0.000000 0.000000 0.000000 0.000000 0.000000 0.010885
#
#
# Mechanical properties :
#
#
# Convention : Reuss Voigt Hill
#
# Bulk Modulus (GPa) = 8.67826 10.14761 9.41293
# Shear Modulus (GPa) = 34.18174 47.88954 41.03564
#
# Velocity S-wave (km/s) = 4.09825 4.85089 4.49037
# Velocity P-wave (km/s) = 5.16317 6.03001 5.61335
#
# Compressibility (1/GPa) = 0.11523052
#
# Stress axis : x y z
#
# Youngs Moduli (GPa) = 31.69191 69.41224 33.51910
#
# Poissons Ratio (x) = -0.30708 -0.29281
# Poissons Ratio (y) = -0.14021 -0.21984
# Poissons Ratio (z) = -0.27685 -0.45524
#
# Static dielectric constant tensor:
#      x y z
#    x 1.675120 0.000000 0.000000 
#    y 0.000000 1.711540 0.000000 
#    z 0.000000 0.000000 1.708550 
# 
# From -- ./inp_files/25816.got.cif
#   From: 2010.05.17/outbox.cif.g08.bks.cpg/sg53_13_cif.got.tgz:25816.got - 2010.06.03 12:45:16.
