data_PCOD9419126
_publ_section_title
;
Structure prediction by ZEFSAII (Michael W. Deem and Ramdas Pophale) SiO2 
 PCOD9419126
Probable space group: P M N A
;
_chemical_formula_sum "Si O2"
_cell_formula_units_Z 24
_cell_length_a 16.979810
_cell_length_b 6.902404
_cell_length_c 7.246668
_cell_angle_alpha 90.000000
_cell_angle_beta 90.000000
_cell_angle_gamma 90.000000
_cell_volume 849.320421
_symmetry_space_group_name_H-M "P M N A"
_symmetry_group_IT_number 53
_symmetry_cell_setting 'orthorhombic'
loop_
_space_group_symop_operation_xyz
x,y,z
1/2-x,-y,1/2+z
x,-y,-z
1/2-x,y,1/2-z
-x,-y,-z
1/2+x,y,1/2-z
-x,y,z
1/2+x,-y,1/2+z
loop_
_atom_site_type_symbol
_atom_site_label
_atom_site_fract_x
_atom_site_fract_y
_atom_site_fract_z
Si Si1 0.000000 0.319308 0.784767
Si Si2 0.334488 0.572881 0.209498
Si Si3 0.337026 0.859525 0.674078
Si Si4 0.500000 0.227685 0.278198
O O1 0.909164 0.287416 0.728606
O O2 0.000000 0.548419 0.724656
O O3 0.000000 0.249591 0.997916
O O4 0.250000 0.667012 0.250000
O O5 0.338730 0.378808 0.338912
O O6 0.333009 0.500000 0.000000
O O7 0.250000 0.894653 0.750000
O O8 0.420365 0.876294 0.781961
O O9 0.344027 0.000000 0.500000
#
# Coordination Sequence:
#
# PCOD9419126 Si02
#       4
#     4   8   8   4
#     4   9  19  36  65  97 130 166 216 288 330 382
#     4  10  22  38  65  99 130 167 221 281 332 386
#     4  10  22  42  64  91 132 177 218 266 330 405
#     4   9  19  38  66  93 127 175 221 266 340 396
#
# _framework density 28.257887
#
# number of rings (size 3 to 8) (size 9 to 14) (size 15 to 20)
#    0.000    2.333    0.000    1.000   14.000    0.000 
#   12.000    0.833    0.000    0.000    0.000    0.000 
#    0.000    0.000    0.000    0.000    0.000    0.000 
#
# Total GULP energy -133953.367962 kJ/mol
# GULP energy per Si atom -5581.390332 kJ/mol
# Density = 2.819357 g / cm^3
# Si number density = 28.257887 Si / 1000 Ang^3
#
#
#
# Elastic Constant Matrix: (Units=GPa)
#
#
# Indices 1 2 3 4 5 6 
#
# 1 357.1136 32.2697 37.2299 0.0000 0.0000 0.0000
# 2 32.2697 193.6929 30.6350 0.0000 0.0000 0.0000
# 3 37.2299 30.6350 104.1156 0.0000 0.0000 0.0000
# 4 0.0000 0.0000 0.0000 23.5761 0.0000 0.0000
# 5 0.0000 0.0000 0.0000 0.0000 40.0692 0.0000
# 6 0.0000 0.0000 0.0000 0.0000 0.0000 4.0284
#
#
#
# Elastic Compliance Matrix: (Units=1/GPa)
#
#
# Indices 1 2 3 4 5 6 
#
# 1 0.002930 -0.000338 -0.000948 0.000000 0.000000 0.000000
# 2 -0.000338 0.005454 -0.001484 0.000000 0.000000 0.000000
# 3 -0.000948 -0.001484 0.010380 0.000000 0.000000 0.000000
# 4 0.000000 0.000000 0.000000 0.042416 0.000000 0.000000
# 5 0.000000 0.000000 0.000000 0.000000 0.024957 0.000000
# 6 0.000000 0.000000 0.000000 0.000000 0.000000 0.248237
#
#
# Mechanical properties :
#
#
# Convention : Reuss Voigt Hill
#
# Bulk Modulus (GPa) = 75.62185 95.02125 85.32155
# Shear Modulus (GPa) = 14.52134 50.52057 32.52095
#
# Velocity S-wave (km/s) = 2.26936 4.23287 3.39612
# Velocity P-wave (km/s) = 5.80397 7.58875 6.75556
#
# Compressibility (1/GPa) = 0.01322369
#
# Stress axis : x y z
#
# Youngs Moduli (GPa) = 341.34067 183.35729 96.33601
#
# Poissons Ratio (x) = 0.06200 0.09134
# Poissons Ratio (y) = 0.11542 0.14295
# Poissons Ratio (z) = 0.32362 0.27207
#
# Static dielectric constant tensor:
#      x y z
#    x 2.323170 0.000000 0.000000 
#    y 0.000000 2.230120 0.000000 
#    z 0.000000 0.000000 2.229370 
# 
# From -- ./inp_files/9304.got.cif
#   From: 2010.05.17/outbox.cif.g08.bks.cpg/sg53_5_cif.got.tgz:9304.got - 2010.06.03 12:45:16.
