data_PCOD9419869
_publ_section_title
;
Structure prediction by ZEFSAII (Michael W. Deem and Ramdas Pophale) SiO2 
 PCOD9419869
Probable space group: P M N A
;
_chemical_formula_sum "Si O2"
_cell_formula_units_Z 28
_cell_length_a 21.954515
_cell_length_b 7.815764
_cell_length_c 8.066459
_cell_angle_alpha 90.000000
_cell_angle_beta 90.000000
_cell_angle_gamma 90.000000
_cell_volume 1384.134251
_symmetry_space_group_name_H-M "P M N A"
_symmetry_group_IT_number 53
_symmetry_cell_setting 'orthorhombic'
loop_
_space_group_symop_operation_xyz
x,y,z
1/2-x,-y,1/2+z
x,-y,-z
1/2-x,y,1/2-z
-x,-y,-z
1/2+x,y,1/2-z
-x,y,z
1/2+x,-y,1/2+z
loop_
_atom_site_type_symbol
_atom_site_label
_atom_site_fract_x
_atom_site_fract_y
_atom_site_fract_z
Si Si1 0.682512 0.573557 0.811292
Si Si2 0.064906 0.852030 0.134118
Si Si3 0.899568 0.500000 0.000000
Si Si4 0.181768 0.015613 0.305877
O O1 0.750000 0.525834 0.750000
O O2 0.637999 0.503618 0.671123
O O3 0.676003 0.779122 0.783947
O O4 0.673047 0.500000 0.000000
O O5 0.000000 0.852748 0.231748
O O6 0.127404 0.900942 0.229999
O O7 0.066753 0.677622 0.029072
O O8 0.062199 0.000000 0.000000
O O9 0.250000 0.962492 0.250000
O O10 0.178957 0.000000 0.500000
#
# Coordination Sequence:
#
# PCOD9419869 Si02
#       4
#     8   8   4   8
#     4  11  23  38  62 100 137 176 222 280 340 398
#     4  11  24  44  68  96 132 178 221 271 335 398
#     4  12  23  42  70  94 136 178 225 274 335 398
#     4  11  24  41  68  98 135 174 222 277 336 398
#
# _framework density 20.22925
#
# number of rings (size 3 to 8) (size 9 to 14) (size 15 to 20)
#    0.000    0.857    4.286    3.000    4.000    2.857 
#    0.000    0.000    0.000    4.286    0.000    0.000 
#    0.000    0.000    0.000    0.000    0.000    0.000 
#
# Total GULP energy -155922.619437 kJ/mol
# GULP energy per Si atom -5568.664980 kJ/mol
# Density = 2.018321 g / cm^3
# Si number density = 20.229250 Si / 1000 Ang^3
#
#
#
# Elastic Constant Matrix: (Units=GPa)
#
#
# Indices 1 2 3 4 5 6 
#
# 1 173.2375 62.4088 71.6560 0.0000 0.0000 0.0000
# 2 62.4088 136.2954 31.1829 0.0000 0.0000 0.0000
# 3 71.6560 31.1829 123.0533 0.0000 0.0000 0.0000
# 4 0.0000 0.0000 0.0000 51.7916 0.0000 0.0000
# 5 0.0000 0.0000 0.0000 0.0000 18.1124 0.0000
# 6 0.0000 0.0000 0.0000 0.0000 0.0000 55.1412
#
#
#
# Elastic Compliance Matrix: (Units=1/GPa)
#
#
# Indices 1 2 3 4 5 6 
#
# 1 0.008601 -0.002964 -0.004258 0.000000 0.000000 0.000000
# 2 -0.002964 0.008810 -0.000506 0.000000 0.000000 0.000000
# 3 -0.004258 -0.000506 0.010734 0.000000 0.000000 0.000000
# 4 0.000000 0.000000 0.000000 0.019308 0.000000 0.000000
# 5 0.000000 0.000000 0.000000 0.000000 0.055211 0.000000
# 6 0.000000 0.000000 0.000000 0.000000 0.000000 0.018135
#
#
# Mechanical properties :
#
#
# Convention : Reuss Voigt Hill
#
# Bulk Modulus (GPa) = 78.80774 84.78683 81.79728
# Shear Modulus (GPa) = 35.59067 42.83162 39.21115
#
# Velocity S-wave (km/s) = 4.19903 4.60642 4.40743
# Velocity P-wave (km/s) = 7.90892 8.38428 8.15007
#
# Compressibility (1/GPa) = 0.01268911
#
# Stress axis : x y z
#
# Youngs Moduli (GPa) = 116.26016 113.50406 93.16107
#
# Poissons Ratio (x) = 0.33648 0.39663
# Poissons Ratio (y) = 0.34465 0.04717
# Poissons Ratio (z) = 0.49498 0.05747
#
# Static dielectric constant tensor:
#      x y z
#    x 1.625150 0.000000 0.000000 
#    y 0.000000 1.499230 0.000000 
#    z 0.000000 0.000000 1.665140 
# 
# From -- ./inp_files/10341.got.cif
#   From: 2010.05.17/outbox.cif.g08.bks.cpg/sg53_6_cif.got.tgz:10341.got - 2010.06.03 12:45:16.
