data_PCOD9419653
_publ_section_title
;
Structure prediction by ZEFSAII (Michael W. Deem and Ramdas Pophale) SiO2 
 PCOD9419653
Probable space group: P M N A
;
_chemical_formula_sum "Si O2"
_cell_formula_units_Z 40
_cell_length_a 22.998016
_cell_length_b 7.899271
_cell_length_c 9.107686
_cell_angle_alpha 90.000000
_cell_angle_beta 90.000000
_cell_angle_gamma 90.000000
_cell_volume 1654.571101
_symmetry_space_group_name_H-M "P M N A"
_symmetry_group_IT_number 53
_symmetry_cell_setting 'orthorhombic'
loop_
_space_group_symop_operation_xyz
x,y,z
1/2-x,-y,1/2+z
x,-y,-z
1/2-x,y,1/2-z
-x,-y,-z
1/2+x,y,1/2-z
-x,y,z
1/2+x,-y,1/2+z
loop_
_atom_site_type_symbol
_atom_site_label
_atom_site_fract_x
_atom_site_fract_y
_atom_site_fract_z
Si Si1 0.939109 0.145519 0.879083
Si Si2 0.433752 0.631456 0.787722
Si Si3 0.839095 0.693316 0.957360
Si Si4 0.774776 0.678528 0.417966
Si Si5 0.094531 0.751159 0.400188
O O1 0.933036 0.109579 0.707207
O O2 0.000000 0.241969 0.897727
O O3 0.880045 0.236999 0.916632
O O4 0.940806 0.000000 0.000000
O O5 0.500000 0.646362 0.727930
O O6 0.380787 0.694703 0.684169
O O7 0.421005 0.434065 0.827764
O O8 0.430369 0.734243 0.938303
O O9 0.828789 0.500000 0.000000
O O10 0.774515 0.766473 0.978863
O O11 0.789292 0.500000 0.500000
O O12 0.750000 0.654822 0.250000
O O13 0.836145 0.771550 0.408833
#
# Coordination Sequence:
#
# PCOD9419653 Si02
#       5
#     8   8   8   8   8
#     4  11  23  40  61  88 124 170 218 267 326 394
#     4  11  21  34  58  92 131 163 208 270 330 395
#     4  11  22  36  60  94 124 163 211 273 332 400
#     4  11  20  34  57  91 127 160 210 276 336 396
#     4  11  20  36  58  90 126 169 215 269 334 388
#
# _framework density 24.175450000000001
#
# number of rings (size 3 to 8) (size 9 to 14) (size 15 to 20)
#    0.000    1.000    6.000    4.200    0.000    0.800 
#    0.000    1.000    0.000    8.400    0.000    0.000 
#    0.000    0.000    0.000    0.000    0.000    0.000 
#
# Total GULP energy -223165.520040 kJ/mol
# GULP energy per Si atom -5579.138001 kJ/mol
# Density = 2.412043 g / cm^3
# Si number density = 24.175450 Si / 1000 Ang^3
#
#
#
# Elastic Constant Matrix: (Units=GPa)
#
#
# Indices 1 2 3 4 5 6 
#
# 1 217.0379 13.2156 50.8709 0.0000 0.0000 0.0000
# 2 13.2156 25.8431 25.6458 0.0000 0.0000 0.0000
# 3 50.8709 25.6458 163.4545 0.0000 0.0000 0.0000
# 4 0.0000 0.0000 0.0000 35.5304 0.0000 0.0000
# 5 0.0000 0.0000 0.0000 0.0000 61.1532 0.0000
# 6 0.0000 0.0000 0.0000 0.0000 0.0000 -2.2729
#
#
#
# Elastic Compliance Matrix: (Units=1/GPa)
#
#
# Indices 1 2 3 4 5 6 
#
# 1 0.005001 -0.001200 -0.001368 0.000000 0.000000 0.000000
# 2 -0.001200 0.046119 -0.006863 0.000000 0.000000 0.000000
# 3 -0.001368 -0.006863 0.007620 0.000000 0.000000 0.000000
# 4 0.000000 0.000000 0.000000 0.028145 0.000000 0.000000
# 5 0.000000 0.000000 0.000000 0.000000 0.016352 0.000000
# 6 0.000000 0.000000 0.000000 0.000000 0.000000 -0.439972
#
#
# Mechanical properties :
#
#
# Convention : Reuss Voigt Hill
#
# Bulk Modulus (GPa) = 25.07564 65.08889 45.08227
# Shear Modulus (GPa) = -16.41604 39.98902 11.78649
#
# Velocity S-wave (km/s) = -2.60866 4.07150 2.21043
# Velocity P-wave (km/s) = 1.14951 7.00605 5.02027
#
# Compressibility (1/GPa) = 0.03987934
#
# Stress axis : x y z
#
# Youngs Moduli (GPa) = 199.95012 21.68315 131.22533
#
# Poissons Ratio (x) = 0.02601 0.17955
# Poissons Ratio (y) = 0.23988 0.90055
# Poissons Ratio (z) = 0.27359 0.14880
#
# Static dielectric constant tensor:
#      x y z
#    x 2.020660 0.000000 0.000000 
#    y 0.000000 2.018220 0.000000 
#    z 0.000000 0.000000 1.966140 
# 
# From -- ./inp_files/11546.got.cif
#   From: 2010.05.17/outbox.cif.g08.bks.cpg/sg53_6_cif.got.tgz:11546.got - 2010.06.03 12:45:16.
