data_PCOD9419455
_publ_section_title
;
Structure prediction by ZEFSAII (Michael W. Deem and Ramdas Pophale) SiO2 
 PCOD9419455
Probable space group: P M N A
;
_chemical_formula_sum "Si O2"
_cell_formula_units_Z 40
_cell_length_a 23.562644
_cell_length_b 9.642221
_cell_length_c 8.560315
_cell_angle_alpha 90.000000
_cell_angle_beta 90.000000
_cell_angle_gamma 90.000000
_cell_volume 1944.871217
_symmetry_space_group_name_H-M "P M N A"
_symmetry_group_IT_number 53
_symmetry_cell_setting 'orthorhombic'
loop_
_space_group_symop_operation_xyz
x,y,z
1/2-x,-y,1/2+z
x,-y,-z
1/2-x,y,1/2-z
-x,-y,-z
1/2+x,y,1/2-z
-x,y,z
1/2+x,-y,1/2+z
loop_
_atom_site_type_symbol
_atom_site_label
_atom_site_fract_x
_atom_site_fract_y
_atom_site_fract_z
Si Si1 0.500000 0.149907 0.434901
Si Si2 0.906403 0.639997 0.960282
Si Si3 0.000000 0.162027 0.439200
Si Si4 0.784549 0.362318 0.907897
Si Si5 0.889063 0.652227 0.585978
Si Si6 0.219450 0.857391 0.582473
O O1 0.555631 0.228670 0.491091
O O2 0.500000 0.150322 0.248157
O O3 0.500000 0.000000 0.500000
O O4 0.893355 0.634775 0.774707
O O5 0.938801 0.500000 0.000000
O O6 0.852241 0.636522 0.074966
O O7 0.056517 0.256245 0.474179
O O8 0.000000 0.000000 0.500000
O O9 0.750000 0.370937 0.750000
O O10 0.765925 0.500000 0.000000
O O11 0.767718 0.218237 0.984105
O O12 0.885988 0.500000 0.500000
O O13 0.832764 0.748273 0.573243
O O14 0.250000 0.878820 0.750000
O O15 0.202303 0.000000 0.500000
#
# Coordination Sequence:
#
# PCOD9419455 Si02
#       6
#     4   8   4   8   8   8
#     4  10  23  44  68  96 140 180 221 278 330 409
#     4  10  23  42  66 100 134 174 229 278 334 405
#     4  10  23  46  68 106 140 178 227 280 340 409
#     4  11  24  42  68  99 134 175 225 283 338 403
#     4  11  24  44  71 100 138 180 229 284 338 407
#     4  12  25  44  63  97 139 180 227 277 344 411
#
# _framework density 20.566915999999999
#
# number of rings (size 3 to 8) (size 9 to 14) (size 15 to 20)
#    0.000    1.200    2.000    3.000    8.400    2.400 
#    7.200    0.000    0.000    0.000    0.000    0.700 
#    0.000    0.000    0.000    0.000    0.000    0.000 
#
# Total GULP energy -223005.060279 kJ/mol
# GULP energy per Si atom -5575.126507 kJ/mol
# Density = 2.052010 g / cm^3
# Si number density = 20.566916 Si / 1000 Ang^3
#
#
#
# Elastic Constant Matrix: (Units=GPa)
#
#
# Indices 1 2 3 4 5 6 
#
# 1 142.4655 77.2861 49.1893 0.0000 0.0000 0.0000
# 2 77.2861 197.4731 51.8438 0.0000 0.0000 0.0000
# 3 49.1893 51.8438 81.0783 0.0000 0.0000 0.0000
# 4 0.0000 0.0000 0.0000 41.0116 0.0000 0.0000
# 5 0.0000 0.0000 0.0000 0.0000 17.7694 0.0000
# 6 0.0000 0.0000 0.0000 0.0000 0.0000 34.8000
#
#
#
# Elastic Compliance Matrix: (Units=1/GPa)
#
#
# Indices 1 2 3 4 5 6 
#
# 1 0.010016 -0.002794 -0.004290 0.000000 0.000000 0.000000
# 2 -0.002794 0.006865 -0.002695 0.000000 0.000000 0.000000
# 3 -0.004290 -0.002695 0.016660 0.000000 0.000000 0.000000
# 4 0.000000 0.000000 0.000000 0.024383 0.000000 0.000000
# 5 0.000000 0.000000 0.000000 0.000000 0.056276 0.000000
# 6 0.000000 0.000000 0.000000 0.000000 0.000000 0.028736
#
#
# Mechanical properties :
#
#
# Convention : Reuss Voigt Hill
#
# Bulk Modulus (GPa) = 71.51386 86.40615 78.96001
# Shear Modulus (GPa) = 29.91246 34.89605 32.40426
#
# Velocity S-wave (km/s) = 3.81779 4.12358 3.97363
# Velocity P-wave (km/s) = 7.36755 8.04831 7.71544
#
# Compressibility (1/GPa) = 0.01398330
#
# Stress axis : x y z
#
# Youngs Moduli (GPa) = 99.83907 145.67040 60.02522
#
# Poissons Ratio (x) = 0.40696 0.25753
# Poissons Ratio (y) = 0.27892 0.16175
# Poissons Ratio (z) = 0.42834 0.39253
#
# Static dielectric constant tensor:
#      x y z
#    x 1.761810 0.000000 0.000000 
#    y 0.000000 1.714550 0.000000 
#    z 0.000000 0.000000 1.760520 
# 
# From -- ./inp_files/12343.got.cif
#   From: 2010.05.17/outbox.cif.g08.bks.cpg/sg53_7_cif.got.tgz:12343.got - 2010.06.03 12:45:16.
