data_PCOD9419743
_publ_section_title
;
Structure prediction by ZEFSAII (Michael W. Deem and Ramdas Pophale) SiO2 
 PCOD9419743
Probable space group: P M N A
;
_chemical_formula_sum "Si O2"
_cell_formula_units_Z 40
_cell_length_a 8.611951
_cell_length_b 18.847893
_cell_length_c 13.837251
_cell_angle_alpha 90.000000
_cell_angle_beta 90.000000
_cell_angle_gamma 90.000000
_cell_volume 2246.022883
_symmetry_space_group_name_H-M "P M N A"
_symmetry_group_IT_number 53
_symmetry_cell_setting 'orthorhombic'
loop_
_space_group_symop_operation_xyz
x,y,z
1/2-x,-y,1/2+z
x,-y,-z
1/2-x,y,1/2-z
-x,-y,-z
1/2+x,y,1/2-z
-x,y,z
1/2+x,-y,1/2+z
loop_
_atom_site_type_symbol
_atom_site_label
_atom_site_fract_x
_atom_site_fract_y
_atom_site_fract_z
Si Si1 0.814074 0.034711 0.644368
Si Si2 0.185814 0.894926 0.955333
Si Si3 0.185171 0.245766 0.358666
Si Si4 0.811833 0.609286 0.945669
Si Si5 0.813553 0.540625 0.145708
O O1 0.750000 0.052004 0.750000
O O2 0.748251 0.086802 0.562067
O O3 0.000000 0.035653 0.643089
O O4 0.754805 0.956557 0.613367
O O5 0.242170 0.819165 0.918264
O O6 0.000000 0.899592 0.954018
O O7 0.250000 0.243088 0.250000
O O8 0.234860 0.320207 0.405733
O O9 0.000000 0.239119 0.356935
O O10 0.767357 0.539843 0.883060
O O11 0.000000 0.615940 0.941344
O O12 0.767378 0.590728 0.056173
O O13 0.750000 0.560521 0.250000
O O14 0.000000 0.541326 0.148600
#
# Coordination Sequence:
#
# PCOD9419743 Si02
#       5
#     8   8   8   8   8
#     4  11  21  37  59  85 114 146 183 225 270 322
#     4  11  22  38  58  83 112 145 184 228 272 321
#     4  12  24  38  56  81 110 143 179 223 274 327
#     4   9  19  36  54  78 109 143 179 222 269 321
#     4   9  18  33  55  79 108 141 179 222 269 319
#
# _framework density 17.809256000000001
#
# number of rings (size 3 to 8) (size 9 to 14) (size 15 to 20)
#    0.000    1.600    0.000    9.000    0.000    3.200 
#    0.000    3.000    0.000    2.400    0.000    0.000 
#    0.000    0.000    0.000    0.000    0.000    0.000 
#
# Total GULP energy -223534.061425 kJ/mol
# GULP energy per Si atom -5588.351536 kJ/mol
# Density = 1.776872 g / cm^3
# Si number density = 17.809256 Si / 1000 Ang^3
#
#
#
# Elastic Constant Matrix: (Units=GPa)
#
#
# Indices 1 2 3 4 5 6 
#
# 1 133.6097 49.4310 49.7945 0.0000 0.0000 0.0000
# 2 49.4310 108.2295 57.9177 0.0000 0.0000 0.0000
# 3 49.7945 57.9177 134.2762 0.0000 0.0000 0.0000
# 4 0.0000 0.0000 0.0000 10.2299 0.0000 0.0000
# 5 0.0000 0.0000 0.0000 0.0000 49.5779 0.0000
# 6 0.0000 0.0000 0.0000 0.0000 0.0000 34.6495
#
#
#
# Elastic Compliance Matrix: (Units=1/GPa)
#
#
# Indices 1 2 3 4 5 6 
#
# 1 0.009456 -0.003175 -0.002137 0.000000 0.000000 0.000000
# 2 -0.003175 0.013078 -0.004464 0.000000 0.000000 0.000000
# 3 -0.002137 -0.004464 0.010165 0.000000 0.000000 0.000000
# 4 0.000000 0.000000 0.000000 0.097753 0.000000 0.000000
# 5 0.000000 0.000000 0.000000 0.000000 0.020170 0.000000
# 6 0.000000 0.000000 0.000000 0.000000 0.000000 0.028860
#
#
# Mechanical properties :
#
#
# Convention : Reuss Voigt Hill
#
# Bulk Modulus (GPa) = 76.05894 76.71131 76.38513
# Shear Modulus (GPa) = 24.58009 33.48961 29.03485
#
# Velocity S-wave (km/s) = 3.71912 4.34113 4.04211
# Velocity P-wave (km/s) = 7.82577 8.26405 8.04790
#
# Compressibility (1/GPa) = 0.01314770
#
# Stress axis : x y z
#
# Youngs Moduli (GPa) = 105.75802 76.46165 98.37504
#
# Poissons Ratio (x) = 0.24277 0.21023
# Poissons Ratio (y) = 0.33578 0.43912
# Poissons Ratio (z) = 0.22600 0.34131
#
# Static dielectric constant tensor:
#      x y z
#    x 1.597090 0.000000 0.000000 
#    y 0.000000 1.580850 0.000000 
#    z 0.000000 0.000000 1.598200 
# 
# From -- ./inp_files/13900.got.cif
#   From: 2010.05.17/outbox.cif.g08.bks.cpg/sg53_7_cif.got.tgz:13900.got - 2010.06.03 12:45:16.
