data_PCOD9419588
_publ_section_title
;
Structure prediction by ZEFSAII (Michael W. Deem and Ramdas Pophale) SiO2 
 PCOD9419588
Probable space group: P M N A
;
_chemical_formula_sum "Si O2"
_cell_formula_units_Z 34
_cell_length_a 18.347783
_cell_length_b 14.693568
_cell_length_c 5.306719
_cell_angle_alpha 90.000000
_cell_angle_beta 90.000000
_cell_angle_gamma 90.000000
_cell_volume 1430.661710
_symmetry_space_group_name_H-M "P M N A"
_symmetry_group_IT_number 53
_symmetry_cell_setting 'orthorhombic'
loop_
_space_group_symop_operation_xyz
x,y,z
1/2-x,-y,1/2+z
x,-y,-z
1/2-x,y,1/2-z
-x,-y,-z
1/2+x,y,1/2-z
-x,y,z
1/2+x,-y,1/2+z
loop_
_atom_site_type_symbol
_atom_site_label
_atom_site_fract_x
_atom_site_fract_y
_atom_site_fract_z
Si Si1 0.916779 0.638233 0.477168
Si Si2 0.750000 0.939356 0.250000
Si Si3 0.673915 0.401092 0.487671
Si Si4 0.000000 0.000000 0.500000
Si Si5 0.377430 0.844003 0.019667
Si Si6 0.750000 0.754459 0.750000
O O1 0.874040 0.613127 0.733625
O O2 0.914922 0.747443 0.434113
O O3 0.000000 0.608373 0.496991
O O4 0.877241 0.600804 0.230563
O O5 0.823476 0.879608 0.261549
O O6 0.750712 0.000000 0.500000
O O7 0.710698 0.500000 0.500000
O O8 0.729649 0.316542 0.472077
O O9 0.064119 0.921368 0.537415
O O10 0.318658 0.817350 0.806379
#
# Coordination Sequence:
#
# PCOD9419588 Si02
#       6
#     8   4   8   2   8   4
#     4  11  24  45  70 104 157 193 231 305 368 432
#     4  12  25  44  73 100 138 186 248 309 362 429
#     4  11  25  44  74 110 140 194 248 295 358 444
#     4  12  24  44  78 108 148 186 262 296 362 444
#     4  11  24  46  71 109 144 197 245 305 367 433
#     4  10  25  48  75 102 156 192 240 313 370 433
#
# _framework density 23.765228
#
# number of rings (size 3 to 8) (size 9 to 14) (size 15 to 20)
#    0.000    0.941    2.353    3.529    0.000   11.294 
#    0.000    0.588    0.000    0.000    0.000    0.000 
#    0.000    0.000    0.000    0.000    0.000    0.000 
#
# Total GULP energy -189735.275664 kJ/mol
# GULP energy per Si atom -5580.449284 kJ/mol
# Density = 2.371114 g / cm^3
# Si number density = 23.765228 Si / 1000 Ang^3
#
#
#
# Elastic Constant Matrix: (Units=GPa)
#
#
# Indices 1 2 3 4 5 6 
#
# 1 175.9891 55.8679 48.4632 0.0000 0.0000 0.0000
# 2 55.8679 203.4961 32.4576 0.0000 0.0000 0.0000
# 3 48.4632 32.4576 159.0096 0.0000 0.0000 0.0000
# 4 0.0000 0.0000 0.0000-1104.9261 0.0000 0.0000
# 5 0.0000 0.0000 0.0000 0.0000 22.7967 0.0000
# 6 0.0000 0.0000 0.0000 0.0000 0.0000 -2.2182
#
#
#
# Elastic Compliance Matrix: (Units=1/GPa)
#
#
# Indices 1 2 3 4 5 6 
#
# 1 0.006645 -0.001552 -0.001709 0.000000 0.000000 0.000000
# 2 -0.001552 0.005442 -0.000638 0.000000 0.000000 0.000000
# 3 -0.001709 -0.000638 0.006940 0.000000 0.000000 0.000000
# 4 0.000000 0.000000 0.000000 -0.000905 0.000000 0.000000
# 5 0.000000 0.000000 0.000000 0.000000 0.043866 0.000000
# 6 0.000000 0.000000 0.000000 0.000000 0.000000 -0.450808
#
#
# Mechanical properties :
#
#
# Convention : Reuss Voigt Hill
#
# Bulk Modulus (GPa) = 89.04356 90.23024 89.63690
# Shear Modulus (GPa) = -13.25278 -190.08913 -101.67096
#
# Velocity S-wave (km/s) = -2.36403 -8.95321 -6.54784
# Velocity P-wave (km/s) = 5.48615 8.29639 4.40070
#
# Compressibility (1/GPa) = 0.01123046
#
# Stress axis : x y z
#
# Youngs Moduli (GPa) = 150.48174 183.75972 144.09483
#
# Poissons Ratio (x) = 0.28517 0.24620
# Poissons Ratio (y) = 0.23353 0.09191
# Poissons Ratio (z) = 0.25711 0.11721
#
# Static dielectric constant tensor:
#      x y z
#    x 1.916760 0.000000 0.000000 
#    y 0.000000 1.937610 0.000000 
#    z 0.000000 0.000000 1.885990 
# 
# From -- ./inp_files/2824.got.cif
#   From: 2010.05.17/outbox.cif.g08.bks.cpg/sg53_2_cif.got.tgz:2824.got - 2010.06.03 12:45:16.
