data_PCOD9419181
_publ_section_title
;
Structure prediction by ZEFSAII (Michael W. Deem and Ramdas Pophale) SiO2 
 PCOD9419181
Probable space group: P M N A
;
_chemical_formula_sum "Si O2"
_cell_formula_units_Z 48
_cell_length_a 29.005965
_cell_length_b 6.830250
_cell_length_c 13.494269
_cell_angle_alpha 90.000000
_cell_angle_beta 90.000000
_cell_angle_gamma 90.000000
_cell_volume 2673.457484
_symmetry_space_group_name_H-M "P M N A"
_symmetry_group_IT_number 53
_symmetry_cell_setting 'orthorhombic'
loop_
_space_group_symop_operation_xyz
x,y,z
1/2-x,-y,1/2+z
x,-y,-z
1/2-x,y,1/2-z
-x,-y,-z
1/2+x,y,1/2-z
-x,y,z
1/2+x,-y,1/2+z
loop_
_atom_site_type_symbol
_atom_site_label
_atom_site_fract_x
_atom_site_fract_y
_atom_site_fract_z
Si Si1 0.685003 0.636078 0.095363
Si Si2 0.368902 0.766028 0.279884
Si Si3 0.689510 0.127148 0.356391
Si Si4 0.250000 0.576559 0.750000
Si Si5 0.608408 0.611082 0.596313
Si Si6 0.945940 0.973826 0.880708
Si Si7 0.268274 0.000000 0.000000
O O1 0.643338 0.691261 0.169823
O O2 0.728323 0.551045 0.160447
O O3 0.701403 0.838788 0.050846
O O4 0.674577 0.500000 0.000000
O O5 0.370732 0.564820 0.340445
O O6 0.329897 0.924291 0.312609
O O7 0.415372 0.881658 0.312722
O O8 0.707081 0.282255 0.276124
O O9 0.649928 0.233950 0.420903
O O10 0.734245 0.093479 0.420739
O O11 0.590276 0.500000 0.500000
O O12 0.569615 0.750785 0.642508
O O13 0.000000 0.004977 0.865688
O O14 0.936685 0.000000 0.000000
#
# Coordination Sequence:
#
# PCOD9419181 Si02
#       7
#     8   8   8   4   8   8   4
#     4  12  26  41  60  86 118 168 215 266 307 358
#     4  11  23  41  60  87 128 161 207 253 312 371
#     4  11  23  35  57  84 121 164 206 253 300 355
#     4  12  22  42  56  86 124 160 220 262 296 352
#     4  11  21  35  58  89 123 165 196 243 305 378
#     4  10  22  39  63  96 126 157 196 247 319 392
#     4  12  24  38  60  82 120 168 214 260 298 350
#
# _framework density 17.954279
#
# number of rings (size 3 to 8) (size 9 to 14) (size 15 to 20)
#    0.000    0.833    5.000    3.000    4.667    1.000 
#    0.000    0.000    0.000    0.500    0.000    1.750 
#    0.000    0.000    0.000    0.000    0.000    0.000 
#
# Total GULP energy -267637.238067 kJ/mol
# GULP energy per Si atom -5575.775793 kJ/mol
# Density = 1.791341 g / cm^3
# Si number density = 17.954279 Si / 1000 Ang^3
#
#
#
# Elastic Constant Matrix: (Units=GPa)
#
#
# Indices 1 2 3 4 5 6 
#
# 1 82.2739 29.3005 35.0643 0.0000 0.0000 0.0000
# 2 29.3005 110.6286 47.8246 0.0000 0.0000 0.0000
# 3 35.0643 47.8246 91.8501 0.0000 0.0000 0.0000
# 4 0.0000 0.0000 0.0000 18.3261 0.0000 0.0000
# 5 0.0000 0.0000 0.0000 0.0000 3.7782 0.0000
# 6 0.0000 0.0000 0.0000 0.0000 0.0000 20.4612
#
#
#
# Elastic Compliance Matrix: (Units=1/GPa)
#
#
# Indices 1 2 3 4 5 6 
#
# 1 0.014822 -0.001909 -0.004664 0.000000 0.000000 0.000000
# 2 -0.001909 0.011911 -0.005473 0.000000 0.000000 0.000000
# 3 -0.004664 -0.005473 0.015518 0.000000 0.000000 0.000000
# 4 0.000000 0.000000 0.000000 0.054567 0.000000 0.000000
# 5 0.000000 0.000000 0.000000 0.000000 0.264674 0.000000
# 6 0.000000 0.000000 0.000000 0.000000 0.000000 0.048873
#
#
# Mechanical properties :
#
#
# Convention : Reuss Voigt Hill
#
# Bulk Modulus (GPa) = 55.07317 56.57016 55.82167
# Shear Modulus (GPa) = 11.35047 20.01732 15.68389
#
# Velocity S-wave (km/s) = 2.51706 3.34264 2.95879
# Velocity P-wave (km/s) = 6.26005 6.81718 6.54455
#
# Compressibility (1/GPa) = 0.01815766
#
# Stress axis : x y z
#
# Youngs Moduli (GPa) = 67.46538 83.95691 64.44315
#
# Poissons Ratio (x) = 0.16031 0.30059
# Poissons Ratio (y) = 0.12882 0.35269
# Poissons Ratio (z) = 0.31468 0.45948
#
# Static dielectric constant tensor:
#      x y z
#    x 1.629490 0.000000 0.000000 
#    y 0.000000 1.681170 0.000000 
#    z 0.000000 0.000000 1.587630 
# 
# From -- ./inp_files/24960.got.cif
#   From: 2010.05.17/outbox.cif.g08.bks.cpg/sg53_13_cif.got.tgz:24960.got - 2010.06.03 12:45:16.
