data_PCOD9419226
_publ_section_title
;
Structure prediction by ZEFSAII (Michael W. Deem and Ramdas Pophale) SiO2 
 PCOD9419226
Probable space group: P M N A
;
_chemical_formula_sum "Si O2"
_cell_formula_units_Z 40
_cell_length_a 18.159529
_cell_length_b 12.921435
_cell_length_c 8.478440
_cell_angle_alpha 90.000000
_cell_angle_beta 90.000000
_cell_angle_gamma 90.000000
_cell_volume 1989.441983
_symmetry_space_group_name_H-M "P M N A"
_symmetry_group_IT_number 53
_symmetry_cell_setting 'orthorhombic'
loop_
_space_group_symop_operation_xyz
x,y,z
1/2-x,-y,1/2+z
x,-y,-z
1/2-x,y,1/2-z
-x,-y,-z
1/2+x,y,1/2-z
-x,y,z
1/2+x,-y,1/2+z
loop_
_atom_site_type_symbol
_atom_site_label
_atom_site_fract_x
_atom_site_fract_y
_atom_site_fract_z
Si Si1 0.200216 0.710208 0.902516
Si Si2 0.132448 0.571771 0.136259
Si Si3 0.782799 0.110246 0.578304
Si Si4 0.917331 0.263450 0.623211
Si Si5 0.086338 0.616974 0.702349
O O1 0.250000 0.688248 0.750000
O O2 0.118166 0.700261 0.828556
O O3 0.200539 0.624123 0.042293
O O4 0.227539 0.817522 0.975793
O O5 0.093749 0.668276 0.219528
O O6 0.136428 0.484713 0.270839
O O7 0.095196 0.500000 0.000000
O O8 0.750000 0.093501 0.750000
O O9 0.856689 0.176017 0.602967
O O10 0.795790 0.000000 0.500000
O O11 0.907549 0.337821 0.471984
O O12 0.000000 0.221955 0.619948
O O13 0.000000 0.592117 0.726512
#
# Coordination Sequence:
#
# PCOD9419226 Si02
#       5
#     8   8   8   8   8
#     4  11  22  43  65  98 132 177 228 277 331 398
#     4  10  22  40  62  97 140 182 220 261 323 400
#     4  12  26  48  74  95 129 174 230 287 358 404
#     4  11  23  43  71 102 137 177 228 279 336 413
#     4  10  22  41  66  98 140 187 223 262 332 411
#
# _framework density 20.106141000000001
#
# number of rings (size 3 to 8) (size 9 to 14) (size 15 to 20)
#    0.000    1.200    4.000    1.800    0.000    9.200 
#   21.600    0.000    0.000    1.200    0.000    0.000 
#    0.000    0.000    0.000    0.000    0.000    0.000 
#
# Total GULP energy -222994.822591 kJ/mol
# GULP energy per Si atom -5574.870565 kJ/mol
# Density = 2.006038 g / cm^3
# Si number density = 20.106141 Si / 1000 Ang^3
#
#
#
# Elastic Constant Matrix: (Units=GPa)
#
#
# Indices 1 2 3 4 5 6 
#
# 1 38.2521 52.7904 49.7716 0.0000 0.0000 0.0000
# 2 52.7904 129.9364 64.9223 0.0000 0.0000 0.0000
# 3 49.7716 64.9223 107.5012 0.0000 0.0000 0.0000
# 4 0.0000 0.0000 0.0000 42.0674 0.0000 0.0000
# 5 0.0000 0.0000 0.0000 0.0000 26.2004 0.0000
# 6 0.0000 0.0000 0.0000 0.0000 0.0000 2.9941
#
#
#
# Elastic Compliance Matrix: (Units=1/GPa)
#
#
# Indices 1 2 3 4 5 6 
#
# 1 0.105121 -0.026338 -0.032763 0.000000 0.000000 0.000000
# 2 -0.026338 0.017621 0.001553 0.000000 0.000000 0.000000
# 3 -0.032763 0.001553 0.023534 0.000000 0.000000 0.000000
# 4 0.000000 0.000000 0.000000 0.023771 0.000000 0.000000
# 5 0.000000 0.000000 0.000000 0.000000 0.038167 0.000000
# 6 0.000000 0.000000 0.000000 0.000000 0.000000 0.333993
#
#
# Mechanical properties :
#
#
# Convention : Reuss Voigt Hill
#
# Bulk Modulus (GPa) = 32.07455 67.85091 49.96273
# Shear Modulus (GPa) = 7.48842 21.46606 14.47724
#
# Velocity S-wave (km/s) = 1.93198 3.27102 2.68627
# Velocity P-wave (km/s) = 4.57864 6.93438 5.87578
#
# Compressibility (1/GPa) = 0.03117737
#
# Stress axis : x y z
#
# Youngs Moduli (GPa) = 9.51287 56.75036 42.49253
#
# Poissons Ratio (x) = 1.49471 1.39219
# Poissons Ratio (y) = 0.25055 -0.06597
# Poissons Ratio (z) = 0.31167 -0.08811
#
# Static dielectric constant tensor:
#      x y z
#    x 1.749920 0.000000 0.000000 
#    y 0.000000 1.694380 0.000000 
#    z 0.000000 0.000000 1.781490 
# 
# From -- ./inp_files/9663.got.cif
#   From: 2010.05.17/outbox.cif.g08.bks.cpg/sg53_5_cif.got.tgz:9663.got - 2010.06.03 12:45:16.
