data_PCOD9419212
_publ_section_title
;
Structure prediction by ZEFSAII (Michael W. Deem and Ramdas Pophale) SiO2 
 PCOD9419212
Probable space group: P M N A
;
_chemical_formula_sum "Si O2"
_cell_formula_units_Z 32
_cell_length_a 15.635180
_cell_length_b 10.528660
_cell_length_c 8.677136
_cell_angle_alpha 90.000000
_cell_angle_beta 90.000000
_cell_angle_gamma 90.000000
_cell_volume 1428.408386
_symmetry_space_group_name_H-M "P M N A"
_symmetry_group_IT_number 53
_symmetry_cell_setting 'orthorhombic'
loop_
_space_group_symop_operation_xyz
x,y,z
1/2-x,-y,1/2+z
x,-y,-z
1/2-x,y,1/2-z
-x,-y,-z
1/2+x,y,1/2-z
-x,y,z
1/2+x,-y,1/2+z
loop_
_atom_site_type_symbol
_atom_site_label
_atom_site_fract_x
_atom_site_fract_y
_atom_site_fract_z
Si Si1 0.655108 0.463716 0.679075
Si Si2 0.846174 0.719745 0.685531
Si Si3 0.900023 0.774380 0.350172
Si Si4 0.601284 0.983806 0.671619
O O1 0.659400 0.500000 0.500000
O O2 0.750000 0.448018 0.750000
O O3 0.614075 0.585409 0.764329
O O4 0.608191 0.332945 0.719040
O O5 0.750000 0.717177 0.750000
O O6 0.850162 0.732139 0.502302
O O7 0.887076 0.843955 0.761505
O O8 0.000000 0.787818 0.394513
O O9 0.865409 0.907586 0.285911
O O10 0.500000 0.010348 0.661157
O O11 0.638074 0.000000 0.500000
#
# Coordination Sequence:
#
# PCOD9419212 Si02
#       4
#     8   8   8   8
#     4  11  23  41  63  91 128 166 211 265 318 375
#     4  11  23  39  61  91 123 163 210 256 311 371
#     4  11  24  42  66  95 128 168 212 261 317 377
#     4  10  22  40  61  89 124 159 201 255 311 370
#
# _framework density 22.402557000000002
#
# number of rings (size 3 to 8) (size 9 to 14) (size 15 to 20)
#    0.000    1.250    0.000    6.750    0.000    8.500 
#    0.000    0.000    0.000    0.000    0.000    0.000 
#    0.000    0.000    0.000    0.000    0.000    0.000 
#
# Total GULP energy -179019.029306 kJ/mol
# GULP energy per Si atom -5594.344666 kJ/mol
# Density = 2.235157 g / cm^3
# Si number density = 22.402557 Si / 1000 Ang^3
#
#
#
# Elastic Constant Matrix: (Units=GPa)
#
#
# Indices 1 2 3 4 5 6 
#
# 1 39.7570 -10.4395 12.6176 0.0000 0.0000 0.0000
# 2 -10.4395 94.3811 -28.2871 0.0000 0.0000 0.0000
# 3 12.6176 -28.2871 59.9048 0.0000 0.0000 0.0000
# 4 0.0000 0.0000 0.0000 31.2671 0.0000 0.0000
# 5 0.0000 0.0000 0.0000 0.0000 26.4074 0.0000
# 6 0.0000 0.0000 0.0000 0.0000 0.0000 23.4419
#
#
#
# Elastic Compliance Matrix: (Units=1/GPa)
#
#
# Indices 1 2 3 4 5 6 
#
# 1 0.027136 0.001501 -0.005007 0.000000 0.000000 0.000000
# 2 0.001501 0.012425 0.005551 0.000000 0.000000 0.000000
# 3 -0.005007 0.005551 0.020369 0.000000 0.000000 0.000000
# 4 0.000000 0.000000 0.000000 0.031983 0.000000 0.000000
# 5 0.000000 0.000000 0.000000 0.000000 0.037868 0.000000
# 6 0.000000 0.000000 0.000000 0.000000 0.000000 0.042659
#
#
# Mechanical properties :
#
#
# Convention : Reuss Voigt Hill
#
# Bulk Modulus (GPa) = 15.62015 15.75835 15.68925
# Shear Modulus (GPa) = 26.35890 30.90006 28.62948
#
# Velocity S-wave (km/s) = 3.43389 3.71793 3.57873
# Velocity P-wave (km/s) = 4.76547 5.04779 4.90866
#
# Compressibility (1/GPa) = 0.06401988
#
# Stress axis : x y z
#
# Youngs Moduli (GPa) = 36.85150 80.48263 49.09444
#
# Poissons Ratio (x) = -0.12079 0.24581
# Poissons Ratio (y) = -0.05531 -0.27252
# Poissons Ratio (z) = 0.18451 -0.44676
#
# Static dielectric constant tensor:
#      x y z
#    x 1.856410 0.000000 0.000000 
#    y 0.000000 1.845640 0.000000 
#    z 0.000000 0.000000 1.802850 
# 
# From -- ./inp_files/8151.got.cif
#   From: 2010.05.17/outbox.cif.g08.bks.cpg/sg53_5_cif.got.tgz:8151.got - 2010.06.03 12:45:16.
