data_PCOD9419602
_publ_section_title
;
Structure prediction by ZEFSAII (Michael W. Deem and Ramdas Pophale) SiO2 
 PCOD9419602
Probable space group: P M N A
;
_chemical_formula_sum "Si O2"
_cell_formula_units_Z 30
_cell_length_a 23.198341
_cell_length_b 5.158757
_cell_length_c 11.014950
_cell_angle_alpha 90.000000
_cell_angle_beta 90.000000
_cell_angle_gamma 90.000000
_cell_volume 1318.209780
_symmetry_space_group_name_H-M "P M N A"
_symmetry_group_IT_number 53
_symmetry_cell_setting 'orthorhombic'
loop_
_space_group_symop_operation_xyz
x,y,z
1/2-x,-y,1/2+z
x,-y,-z
1/2-x,y,1/2-z
-x,-y,-z
1/2+x,y,1/2-z
-x,y,z
1/2+x,-y,1/2+z
loop_
_atom_site_type_symbol
_atom_site_label
_atom_site_fract_x
_atom_site_fract_y
_atom_site_fract_z
Si Si1 0.000000 0.248099 0.909946
Si Si2 0.660921 0.716341 0.828487
Si Si3 0.000000 0.500000 0.500000
Si Si4 0.412066 0.218878 0.815958
Si Si5 0.717889 0.752864 0.569712
O O1 0.946348 0.239090 0.813246
O O2 0.000000 0.500000 0.000000
O O3 0.000000 0.000000 0.000000
O O4 0.640393 0.420898 0.818479
O O5 0.691196 0.770729 0.701143
O O6 0.712514 0.750408 0.923280
O O7 0.609596 0.926189 0.839885
O O8 0.951180 0.333985 0.576637
O O9 0.698246 0.500000 0.500000
O O10 0.696905 0.000000 0.500000
#
# Coordination Sequence:
#
# PCOD9419602 Si02
#       5
#     4   8   2   8   8
#     4  11  24  43  66  97 131 170 226 285 342 408
#     4  11  25  42  66 100 131 177 228 270 349 409
#     4  10  28  46  68 102 136 176 244 282 340 418
#     4  11  25  44  68  97 134 179 226 286 342 414
#     4  11  24  42  66  98 137 174 224 281 334 420
#
# _framework density 22.758140000000001
#
# number of rings (size 3 to 8) (size 9 to 14) (size 15 to 20)
#    0.000    1.067    0.000    4.800    5.600   14.933 
#    0.000    0.000    0.000    0.000    0.000    0.000 
#    0.000    0.000    0.000    0.000    0.000    0.000 
#
# Total GULP energy -167255.957744 kJ/mol
# GULP energy per Si atom -5575.198591 kJ/mol
# Density = 2.270634 g / cm^3
# Si number density = 22.758140 Si / 1000 Ang^3
#
#
#
# Elastic Constant Matrix: (Units=GPa)
#
#
# Indices 1 2 3 4 5 6 
#
# 1 40.9133 -5.5263 21.3083 0.0000 0.0000 0.0000
# 2 -5.5263 143.8775 56.3648 0.0000 0.0000 0.0000
# 3 21.3083 56.3648 113.6847 0.0000 0.0000 0.0000
# 4 0.0000 0.0000 0.0000 48.7740 0.0000 0.0000
# 5 0.0000 0.0000 0.0000 0.0000 18.0405 0.0000
# 6 0.0000 0.0000 0.0000 0.0000 0.0000-2642.7976
#
#
#
# Elastic Compliance Matrix: (Units=1/GPa)
#
#
# Indices 1 2 3 4 5 6 
#
# 1 0.028830 0.004002 -0.007388 0.000000 0.000000 0.000000
# 2 0.004002 0.009181 -0.005302 0.000000 0.000000 0.000000
# 3 -0.007388 -0.005302 0.012810 0.000000 0.000000 0.000000
# 4 0.000000 0.000000 0.000000 0.020503 0.000000 0.000000
# 5 0.000000 0.000000 0.000000 0.000000 0.055431 0.000000
# 6 0.000000 0.000000 0.000000 0.000000 0.000000 -0.000378
#
#
# Mechanical properties :
#
#
# Convention : Reuss Voigt Hill
#
# Bulk Modulus (GPa) = 29.90025 49.19657 39.54841
# Shear Modulus (GPa) = 32.27875 -500.10804 -233.91464
#
# Velocity S-wave (km/s) = 3.77017 -14.84002 -10.14919
# Velocity P-wave (km/s) = 5.66737 16.49154 10.95107
#
# Compressibility (1/GPa) = 0.03344454
#
# Stress axis : x y z
#
# Youngs Moduli (GPa) = 34.68604 108.91872 78.06583
#
# Poissons Ratio (x) = -0.43584 0.57672
# Poissons Ratio (y) = -0.13880 0.41391
# Poissons Ratio (z) = 0.25625 0.57749
#
# Static dielectric constant tensor:
#      x y z
#    x 1.885420 0.000000 0.000000 
#    y 0.000000 1.772520 0.000000 
#    z 0.000000 0.000000 1.825340 
# 
# From -- ./inp_files/17419.got.cif
#   From: 2010.05.17/outbox.cif.g08.bks.cpg/sg53_9_cif.got.tgz:17419.got - 2010.06.03 12:45:16.
