data_PCOD9419334
_publ_section_title
;
Structure prediction by ZEFSAII (Michael W. Deem and Ramdas Pophale) SiO2 
 PCOD9419334
Probable space group: P M N A
;
_chemical_formula_sum "Si O2"
_cell_formula_units_Z 36
_cell_length_a 18.464979
_cell_length_b 12.672367
_cell_length_c 6.815634
_cell_angle_alpha 90.000000
_cell_angle_beta 90.000000
_cell_angle_gamma 90.000000
_cell_volume 1594.824213
_symmetry_space_group_name_H-M "P M N A"
_symmetry_group_IT_number 53
_symmetry_cell_setting 'orthorhombic'
loop_
_space_group_symop_operation_xyz
x,y,z
1/2-x,-y,1/2+z
x,-y,-z
1/2-x,y,1/2-z
-x,-y,-z
1/2+x,y,1/2-z
-x,y,z
1/2+x,-y,1/2+z
loop_
_atom_site_type_symbol
_atom_site_label
_atom_site_fract_x
_atom_site_fract_y
_atom_site_fract_z
Si Si1 0.372285 0.500000 0.000000
Si Si2 0.084807 0.899160 0.744675
Si Si3 0.084931 0.125417 0.785628
Si Si4 0.085186 0.353305 0.852744
Si Si5 0.831449 0.692357 0.744546
O O1 0.411403 0.445264 0.811326
O O2 0.329013 0.595349 0.904682
O O3 0.120793 0.791697 0.674043
O O4 0.000000 0.898552 0.693998
O O5 0.115931 0.016208 0.702206
O O6 0.089515 0.886804 0.979819
O O7 0.110326 0.243870 0.750314
O O8 0.000000 0.124350 0.735275
O O9 0.133808 0.646008 0.948699
O O10 0.000000 0.343795 0.912605
O O11 0.750000 0.733949 0.750000
#
# Coordination Sequence:
#
# PCOD9419334 Si02
#       5
#     4   8   8   8   8
#     4  12  27  40  64  88 127 176 224 268 317 378
#     4   8  14  31  61  93 121 159 208 260 314 380
#     4   7  12  28  60  92 123 157 196 251 325 382
#     4  10  22  42  68 100 129 164 216 275 324 378
#     4  11  25  41  64  88 129 176 219 259 321 387
#
# _framework density 22.573022000000002
#
# number of rings (size 3 to 8) (size 9 to 14) (size 15 to 20)
#    0.000    2.667    0.000    4.333    3.111    4.444 
#    0.000    1.111   19.556    4.000    0.000    0.000 
#    0.000    0.000    0.000    0.000    0.000    0.000 
#
# Total GULP energy -200441.556540 kJ/mol
# GULP energy per Si atom -5567.821015 kJ/mol
# Density = 2.252165 g / cm^3
# Si number density = 22.573022 Si / 1000 Ang^3
#
#
#
# Elastic Constant Matrix: (Units=GPa)
#
#
# Indices 1 2 3 4 5 6 
#
# 1 47.3408 6.7995 -0.6750 0.0000 0.0000 0.0000
# 2 6.7995 162.7264 1.1864 0.0000 0.0000 0.0000
# 3 -0.6750 1.1864 105.5083 0.0000 0.0000 0.0000
# 4 0.0000 0.0000 0.0000 -5.4192 0.0000 0.0000
# 5 0.0000 0.0000 0.0000 0.0000 -4.6002 0.0000
# 6 0.0000 0.0000 0.0000 0.0000 0.0000 14.0645
#
#
#
# Elastic Compliance Matrix: (Units=1/GPa)
#
#
# Indices 1 2 3 4 5 6 
#
# 1 0.021253 -0.000889 0.000146 0.000000 0.000000 0.000000
# 2 -0.000889 0.006183 -0.000075 0.000000 0.000000 0.000000
# 3 0.000146 -0.000075 0.009480 0.000000 0.000000 0.000000
# 4 0.000000 0.000000 0.000000 -0.184530 0.000000 0.000000
# 5 0.000000 0.000000 0.000000 0.000000 -0.217382 0.000000
# 6 0.000000 0.000000 0.000000 0.000000 0.000000 0.071101
#
#
# Mechanical properties :
#
#
# Convention : Reuss Voigt Hill
#
# Bulk Modulus (GPa) = 28.34537 36.68860 32.51698
# Shear Modulus (GPa) = -17.82533 21.36002 1.76734
#
# Velocity S-wave (km/s) = -2.81316 3.07948 0.88580
# Velocity P-wave (km/s) = 1.42569 5.37892 3.93481
#
# Compressibility (1/GPa) = 0.03527913
#
# Stress axis : x y z
#
# Youngs Moduli (GPa) = 47.05175 161.73420 105.48854
#
# Poissons Ratio (x) = 0.14380 -0.01540
# Poissons Ratio (y) = 0.04183 0.00793
# Poissons Ratio (z) = -0.00687 0.01216
#
# Static dielectric constant tensor:
#      x y z
#    x 1.772150 0.000000 0.000000 
#    y 0.000000 1.897560 0.000000 
#    z 0.000000 0.000000 1.928790 
# 
# From -- ./inp_files/10694.got.cif
#   From: 2010.05.17/outbox.cif.g08.bks.cpg/sg53_6_cif.got.tgz:10694.got - 2010.06.03 12:45:16.
