data_PCOD9419459
_publ_section_title
;
Structure prediction by ZEFSAII (Michael W. Deem and Ramdas Pophale) SiO2 
 PCOD9419459
Probable space group: P M N A
;
_chemical_formula_sum "Si O2"
_cell_formula_units_Z 32
_cell_length_a 9.072493
_cell_length_b 4.754618
_cell_length_c 32.375884
_cell_angle_alpha 90.000000
_cell_angle_beta 90.000000
_cell_angle_gamma 90.000000
_cell_volume 1396.573855
_symmetry_space_group_name_H-M "P M N A"
_symmetry_group_IT_number 53
_symmetry_cell_setting 'orthorhombic'
loop_
_space_group_symop_operation_xyz
x,y,z
1/2-x,-y,1/2+z
x,-y,-z
1/2-x,y,1/2-z
-x,-y,-z
1/2+x,y,1/2-z
-x,y,z
1/2+x,-y,1/2+z
loop_
_atom_site_type_symbol
_atom_site_label
_atom_site_fract_x
_atom_site_fract_y
_atom_site_fract_z
Si Si1 0.832677 0.896857 0.113079
Si Si2 0.500000 0.791412 0.728708
Si Si3 0.000000 0.310924 0.714930
Si Si4 0.668297 0.736261 0.030029
Si Si5 0.760763 0.624301 0.832806
O O1 0.765035 0.803539 0.069689
O O2 0.840037 0.621859 0.141851
O O3 0.000000 0.010954 0.109281
O O4 0.726769 0.134214 0.133511
O O5 0.500000 0.466113 0.741362
O O6 0.643941 0.805006 0.700224
O O7 0.500000 0.987678 0.769624
O O8 0.137440 0.443478 0.690753
O O9 0.500000 0.654372 0.042723
O O10 0.732497 0.500000 0.000000
O O11 0.657592 0.000000 0.000000
#
# Coordination Sequence:
#
# PCOD9419459 Si02
#       5
#     8   4   4   8   8
#     4  12  24  44  70 101 143 188 228 290 348 416
#     4  12  24  50  66 100 144 178 234 300 350 426
#     4  12  28  44  74 102 132 188 236 294 358 414
#     4  10  23  42  67 103 140 181 229 285 347 415
#     4  12  26  45  70 106 137 182 238 289 352 420
#
# _framework density 22.913215000000001
#
# number of rings (size 3 to 8) (size 9 to 14) (size 15 to 20)
#    0.000    0.500    2.500    5.250    3.500    3.000 
#    0.000    0.000    0.000    0.000    0.000    0.000 
#    0.000    0.000    0.000    0.000    0.000    0.000 
#
# Total GULP energy -178701.102668 kJ/mol
# GULP energy per Si atom -5584.409458 kJ/mol
# Density = 2.286106 g / cm^3
# Si number density = 22.913215 Si / 1000 Ang^3
#
#
#
# Elastic Constant Matrix: (Units=GPa)
#
#
# Indices 1 2 3 4 5 6 
#
# 1 89.4518 16.2326 63.7911 0.0000 0.0000 0.0000
# 2 16.2326 110.1805 24.0939 0.0000 0.0000 0.0000
# 3 63.7911 24.0939 115.0643 0.0000 0.0000 0.0000
# 4 0.0000 0.0000 0.0000 47.3172 0.0000 0.0000
# 5 0.0000 0.0000 0.0000 0.0000 -614.9910 0.0000
# 6 0.0000 0.0000 0.0000 0.0000 0.0000 23.0939
#
#
#
# Elastic Compliance Matrix: (Units=1/GPa)
#
#
# Indices 1 2 3 4 5 6 
#
# 1 0.018516 -0.000506 -0.010159 0.000000 0.000000 0.000000
# 2 -0.000506 0.009525 -0.001714 0.000000 0.000000 0.000000
# 3 -0.010159 -0.001714 0.014682 0.000000 0.000000 0.000000
# 4 0.000000 0.000000 0.000000 0.021134 0.000000 0.000000
# 5 0.000000 0.000000 0.000000 0.000000 -0.001626 0.000000
# 6 0.000000 0.000000 0.000000 0.000000 0.000000 0.043301
#
#
# Mechanical properties :
#
#
# Convention : Reuss Voigt Hill
#
# Bulk Modulus (GPa) = 55.66530 58.10354 56.88442
# Shear Modulus (GPa) = 36.68937 -94.87739 -29.09401
#
# Velocity S-wave (km/s) = 4.00588 -6.44183 -3.56722
# Velocity P-wave (km/s) = 6.76334 5.46959 2.81304
#
# Compressibility (1/GPa) = 0.01796451
#
# Stress axis : x y z
#
# Youngs Moduli (GPa) = 54.00771 104.98253 68.11144
#
# Poissons Ratio (x) = 0.05316 0.69195
# Poissons Ratio (y) = 0.02735 0.11673
# Poissons Ratio (z) = 0.54867 0.17993
#
# Static dielectric constant tensor:
#      x y z
#    x 1.866720 0.000000 0.000000 
#    y 0.000000 1.823600 0.000000 
#    z 0.000000 0.000000 1.821820 
# 
# From -- ./inp_files/37457.got.cif
#   From: 2010.05.17/outbox.cif.g08.bks.cpg/sg53_19_cif.got.tgz:37457.got - 2010.06.03 12:45:16.
