data_PCOD9419629
_publ_section_title
;
Structure prediction by ZEFSAII (Michael W. Deem and Ramdas Pophale) SiO2 
 PCOD9419629
Probable space group: P M N A
;
_chemical_formula_sum "Si O2"
_cell_formula_units_Z 40
_cell_length_a 18.363455
_cell_length_b 8.595241
_cell_length_c 12.428445
_cell_angle_alpha 90.000000
_cell_angle_beta 90.000000
_cell_angle_gamma 90.000000
_cell_volume 1961.684895
_symmetry_space_group_name_H-M "P M N A"
_symmetry_group_IT_number 53
_symmetry_cell_setting 'orthorhombic'
loop_
_space_group_symop_operation_xyz
x,y,z
1/2-x,-y,1/2+z
x,-y,-z
1/2-x,y,1/2-z
-x,-y,-z
1/2+x,y,1/2-z
-x,y,z
1/2+x,-y,1/2+z
loop_
_atom_site_type_symbol
_atom_site_label
_atom_site_fract_x
_atom_site_fract_y
_atom_site_fract_z
Si Si1 0.917606 0.893657 0.398465
Si Si2 0.814467 0.184033 0.016429
Si Si3 0.837726 0.635486 0.768013
Si Si4 0.345764 0.674984 0.965761
Si Si5 0.664378 0.724048 0.281039
O O1 0.909232 0.726219 0.455006
O O2 0.872058 0.860725 0.290494
O O3 0.000000 0.937624 0.373408
O O4 0.892239 0.000000 0.500000
O O5 0.848001 0.263867 0.123797
O O6 0.728850 0.229703 0.016494
O O7 0.846519 0.251489 0.907011
O O8 0.821157 0.000000 0.000000
O O9 0.750000 0.634012 0.750000
O O10 0.868644 0.703026 0.657147
O O11 0.860655 0.454670 0.765932
O O12 0.325769 0.500000 0.000000
O O13 0.750000 0.729031 0.250000
#
# Coordination Sequence:
#
# PCOD9419629 Si02
#       5
#     8   8   8   8   8
#     4  11  25  41  60  89 127 162 198 257 321 375
#     4  11  22  32  56  94 124 156 199 259 317 364
#     4   9  19  34  54  86 125 158 195 256 309 360
#     4  11  19  38  59  87 123 158 205 253 307 371
#     4  11  20  37  62  85 120 163 205 253 307 373
#
# _framework density 20.390636000000001
#
# number of rings (size 3 to 8) (size 9 to 14) (size 15 to 20)
#    0.000    1.400    4.000    3.600    2.800    1.200 
#    0.000    0.000    0.000    4.200    0.000    0.000 
#    0.000    0.000    0.000    0.000    0.000    0.000 
#
# Total GULP energy -222759.985743 kJ/mol
# GULP energy per Si atom -5568.999644 kJ/mol
# Density = 2.034423 g / cm^3
# Si number density = 20.390636 Si / 1000 Ang^3
#
#
#
# Elastic Constant Matrix: (Units=GPa)
#
#
# Indices 1 2 3 4 5 6 
#
# 1 23.1908 3.7715 11.4092 0.0000 0.0000 0.0000
# 2 3.7715 70.4571 35.4359 0.0000 0.0000 0.0000
# 3 11.4092 35.4359 182.7393 0.0000 0.0000 0.0000
# 4 0.0000 0.0000 0.0000 39.5925 0.0000 0.0000
# 5 0.0000 0.0000 0.0000 0.0000 12.0357 0.0000
# 6 0.0000 0.0000 0.0000 0.0000 0.0000 0.4648
#
#
#
# Elastic Compliance Matrix: (Units=1/GPa)
#
#
# Indices 1 2 3 4 5 6 
#
# 1 0.044563 -0.001093 -0.002570 0.000000 0.000000 0.000000
# 2 -0.001093 0.015754 -0.002987 0.000000 0.000000 0.000000
# 3 -0.002570 -0.002987 0.006212 0.000000 0.000000 0.000000
# 4 0.000000 0.000000 0.000000 0.025257 0.000000 0.000000
# 5 0.000000 0.000000 0.000000 0.000000 0.083086 0.000000
# 6 0.000000 0.000000 0.000000 0.000000 0.000000 2.151434
#
#
# Mechanical properties :
#
#
# Convention : Reuss Voigt Hill
#
# Bulk Modulus (GPa) = 18.78672 41.95780 30.37226
# Shear Modulus (GPa) = 2.12103 25.46997 13.79550
#
# Velocity S-wave (km/s) = 1.02101 3.53810 2.60390
# Velocity P-wave (km/s) = 3.25935 6.10840 4.89571
#
# Compressibility (1/GPa) = 0.05322908
#
# Stress axis : x y z
#
# Youngs Moduli (GPa) = 22.44020 63.47736 160.98102
#
# Poissons Ratio (x) = 0.06936 0.41378
# Poissons Ratio (y) = 0.02452 0.48079
# Poissons Ratio (z) = 0.05768 0.18958
#
# Static dielectric constant tensor:
#      x y z
#    x 1.727780 0.000000 0.000000 
#    y 0.000000 1.820410 0.000000 
#    z 0.000000 0.000000 1.789520 
# 
# From -- ./inp_files/17655.got.cif
#   From: 2010.05.17/outbox.cif.g08.bks.cpg/sg53_9_cif.got.tgz:17655.got - 2010.06.03 12:45:16.
