data_PCOD9419154
_publ_section_title
;
Structure prediction by ZEFSAII (Michael W. Deem and Ramdas Pophale) SiO2 
 PCOD9419154
Probable space group: P M N A
;
_chemical_formula_sum "Si O2"
_cell_formula_units_Z 40
_cell_length_a 8.623337
_cell_length_b 26.085526
_cell_length_c 9.358244
_cell_angle_alpha 90.000000
_cell_angle_beta 90.000000
_cell_angle_gamma 90.000000
_cell_volume 2105.083473
_symmetry_space_group_name_H-M "P M N A"
_symmetry_group_IT_number 53
_symmetry_cell_setting 'orthorhombic'
loop_
_space_group_symop_operation_xyz
x,y,z
1/2-x,-y,1/2+z
x,-y,-z
1/2-x,y,1/2-z
-x,-y,-z
1/2+x,y,1/2-z
-x,y,z
1/2+x,-y,1/2+z
loop_
_atom_site_type_symbol
_atom_site_label
_atom_site_fract_x
_atom_site_fract_y
_atom_site_fract_z
Si Si1 0.685931 0.050644 0.909155
Si Si2 0.312909 0.549749 0.589633
Si Si3 0.185384 0.856043 0.908461
Si Si4 0.686618 0.650209 0.409763
Si Si5 0.185591 0.743896 0.590884
O O1 0.750000 0.045295 0.750000
O O2 0.500000 0.055762 0.906527
O O3 0.758558 0.100176 0.984772
O O4 0.725531 0.000000 0.000000
O O5 0.261198 0.500000 0.500000
O O6 0.250000 0.549108 0.750000
O O7 0.500000 0.548726 0.596030
O O8 0.267005 0.601220 0.505589
O O9 0.250000 0.867767 0.750000
O O10 0.252175 0.800292 0.948726
O O11 0.000000 0.853593 0.903085
O O12 0.750000 0.644404 0.250000
O O13 0.500000 0.652914 0.406738
O O14 0.753686 0.701070 0.483025
O O15 0.250000 0.732663 0.750000
O O16 0.000000 0.744437 0.595189
#
# Coordination Sequence:
#
# PCOD9419154 Si02
#       5
#     8   8   8   8   8
#     4  11  24  41  62  89 121 157 198 243 293 349
#     4  10  22  39  60  87 118 153 194 240 291 349
#     4  11  22  39  63  90 121 156 197 243 294 350
#     4  11  23  39  59  86 119 155 198 244 294 349
#     4  11  22  39  62  88 119 155 197 242 293 350
#
# _framework density 19.001622000000001
#
# number of rings (size 3 to 8) (size 9 to 14) (size 15 to 20)
#    0.000    1.200    0.000    7.800    0.000    7.600 
#    0.000    4.000    0.000    0.000    0.000    0.000 
#    0.000    0.000    0.000    0.000    0.000    0.000 
#
# Total GULP energy -223800.309578 kJ/mol
# GULP energy per Si atom -5595.007739 kJ/mol
# Density = 1.895837 g / cm^3
# Si number density = 19.001622 Si / 1000 Ang^3
#
#
#
# Elastic Constant Matrix: (Units=GPa)
#
#
# Indices 1 2 3 4 5 6 
#
# 1 117.9203 70.1137 70.7081 0.0000 0.0000 0.0000
# 2 70.1137 148.4540 134.6187 0.0000 0.0000 0.0000
# 3 70.7081 134.6187 185.1963 0.0000 0.0000 0.0000
# 4 0.0000 0.0000 0.0000 31.5539 0.0000 0.0000
# 5 0.0000 0.0000 0.0000 0.0000 39.4313 0.0000
# 6 0.0000 0.0000 0.0000 0.0000 0.0000 39.8249
#
#
#
# Elastic Compliance Matrix: (Units=1/GPa)
#
#
# Indices 1 2 3 4 5 6 
#
# 1 0.011905 -0.004403 -0.001344 0.000000 0.000000 0.000000
# 2 -0.004403 0.021392 -0.013868 0.000000 0.000000 0.000000
# 3 -0.001344 -0.013868 0.015994 0.000000 0.000000 0.000000
# 4 0.000000 0.000000 0.000000 0.031692 0.000000 0.000000
# 5 0.000000 0.000000 0.000000 0.000000 0.025361 0.000000
# 6 0.000000 0.000000 0.000000 0.000000 0.000000 0.025110
#
#
# Mechanical properties :
#
#
# Convention : Reuss Voigt Hill
#
# Bulk Modulus (GPa) = 99.42424 111.38352 105.40388
# Shear Modulus (GPa) = 28.72951 33.90400 31.31675
#
# Velocity S-wave (km/s) = 3.89260 4.22864 4.06410
# Velocity P-wave (km/s) = 8.52296 9.08774 8.80988
#
# Compressibility (1/GPa) = 0.01005791
#
# Stress axis : x y z
#
# Youngs Moduli (GPa) = 84.00102 46.74735 62.52422
#
# Poissons Ratio (x) = 0.20584 0.08406
# Poissons Ratio (y) = 0.36988 0.86710
# Poissons Ratio (z) = 0.11293 0.64831
#
# Static dielectric constant tensor:
#      x y z
#    x 1.638760 0.000000 0.000000 
#    y 0.000000 1.640570 0.000000 
#    z 0.000000 0.000000 1.619800 
# 
# From -- ./inp_files/6258.got.cif
#   From: 2010.05.17/outbox.cif.g08.bks.cpg/sg53_4_cif.got.tgz:6258.got - 2010.06.03 12:45:16.
