data_PCOD9419550
_publ_section_title
;
Structure prediction by ZEFSAII (Michael W. Deem and Ramdas Pophale) SiO2 
 PCOD9419550
Probable space group: P M N A
;
_chemical_formula_sum "Si O2"
_cell_formula_units_Z 64
_cell_length_a 26.927289
_cell_length_b 8.884628
_cell_length_c 13.164737
_cell_angle_alpha 90.000000
_cell_angle_beta 90.000000
_cell_angle_gamma 90.000000
_cell_volume 3149.517802
_symmetry_space_group_name_H-M "P M N A"
_symmetry_group_IT_number 53
_symmetry_cell_setting 'orthorhombic'
loop_
_space_group_symop_operation_xyz
x,y,z
1/2-x,-y,1/2+z
x,-y,-z
1/2-x,y,1/2-z
-x,-y,-z
1/2+x,y,1/2-z
-x,y,z
1/2+x,-y,1/2+z
loop_
_atom_site_type_symbol
_atom_site_label
_atom_site_fract_x
_atom_site_fract_y
_atom_site_fract_z
Si Si1 0.814268 0.331374 0.449782
Si Si2 0.133566 0.609698 0.912727
Si Si3 0.943783 0.030169 0.379385
Si Si4 0.282636 0.819156 0.504482
Si Si5 0.906007 0.327337 0.295377
Si Si6 0.298228 0.358607 0.694573
Si Si7 0.943961 0.590288 0.403989
Si Si8 0.637091 0.820399 0.140539
O O1 0.809048 0.500000 0.500000
O O2 0.760591 0.258705 0.427877
O O3 0.853078 0.338387 0.356394
O O4 0.834619 0.214378 0.535639
O O5 0.165750 0.744382 0.960679
O O6 0.101402 0.685779 0.824468
O O7 0.170174 0.491258 0.855653
O O8 0.110558 0.500000 0.000000
O O9 0.888512 0.979538 0.336784
O O10 0.000000 0.980325 0.345156
O O11 0.941782 0.000000 0.500000
O O12 0.939560 0.205424 0.351965
O O13 0.276860 0.752650 0.391182
O O14 0.281158 0.000000 0.500000
O O15 0.934996 0.482806 0.310287
O O16 0.250000 0.423566 0.750000
O O17 0.332075 0.260293 0.771074
O O18 0.922149 0.500000 0.500000
O O19 0.914596 0.736758 0.379586
O O20 0.000000 0.623812 0.427726
#
# Coordination Sequence:
#
# PCOD9419550 Si02
#       8
#     8   8   8   8   8   8   8   8
#     4  12  21  37  59  92 132 164 210 256 308 374
#     4  10  24  44  65  89 120 167 219 271 316 363
#     4  11  24  40  59  93 139 174 203 258 327 396
#     4  11  27  42  59  90 124 168 213 260 312 379
#     4  12  22  37  64  92 124 169 214 256 325 377
#     4  11  22  40  64  90 124 166 211 261 311 371
#     4  11  20  35  60  93 126 158 202 249 304 382
#     4  12  21  37  60  91 127 173 207 249 309 382
#
# _framework density 20.320568999999999
#
# number of rings (size 3 to 8) (size 9 to 14) (size 15 to 20)
#    0.000    0.750    6.250    1.875    5.250    2.000 
#    0.000    0.000    0.000    1.500    0.000    3.500 
#    0.000    0.000    0.000    0.000    0.000    0.000 
#
# Total GULP energy -356817.571897 kJ/mol
# GULP energy per Si atom -5575.274561 kJ/mol
# Density = 2.027432 g / cm^3
# Si number density = 20.320569 Si / 1000 Ang^3
#
#
#
# Elastic Constant Matrix: (Units=GPa)
#
#
# Indices 1 2 3 4 5 6 
#
# 1 49.2650 7.5821 10.4928 0.0000 0.0000 0.0000
# 2 7.5821 55.2773 2.8923 0.0000 0.0000 0.0000
# 3 10.4928 2.8923 76.2557 0.0000 0.0000 0.0000
# 4 0.0000 0.0000 0.0000 17.6486 0.0000 0.0000
# 5 0.0000 0.0000 0.0000 0.0000 23.0136 0.0000
# 6 0.0000 0.0000 0.0000 0.0000 0.0000 24.3834
#
#
#
# Elastic Compliance Matrix: (Units=1/GPa)
#
#
# Indices 1 2 3 4 5 6 
#
# 1 0.021328 -0.002777 -0.002829 0.000000 0.000000 0.000000
# 2 -0.002777 0.018488 -0.000319 0.000000 0.000000 0.000000
# 3 -0.002829 -0.000319 0.013515 0.000000 0.000000 0.000000
# 4 0.000000 0.000000 0.000000 0.056662 0.000000 0.000000
# 5 0.000000 0.000000 0.000000 0.000000 0.043452 0.000000
# 6 0.000000 0.000000 0.000000 0.000000 0.000000 0.041011
#
#
# Mechanical properties :
#
#
# Convention : Reuss Voigt Hill
#
# Bulk Modulus (GPa) = 24.10802 24.74806 24.42804
# Shear Modulus (GPa) = 22.71320 23.66452 23.18886
#
# Velocity S-wave (km/s) = 3.34690 3.41627 3.38176
# Velocity P-wave (km/s) = 5.17931 5.26939 5.22454
#
# Compressibility (1/GPa) = 0.04147997
#
# Stress axis : x y z
#
# Youngs Moduli (GPa) = 46.88567 54.08835 73.99068
#
# Poissons Ratio (x) = 0.15023 0.20935
# Poissons Ratio (y) = 0.13022 0.02361
# Poissons Ratio (z) = 0.13266 0.01726
#
# Static dielectric constant tensor:
#      x y z
#    x 1.782720 0.000000 0.000000 
#    y 0.000000 -0.206230 0.000000 
#    z 0.000000 0.000000 1.762600 
# 
# From -- ./inp_files/19048.got.cif
#   From: 2010.05.17/outbox.cif.g08.bks.cpg/sg53_10_cif.got.tgz:19048.got - 2010.06.03 12:45:16.
