data_PCOD9419836
_publ_section_title
;
Structure prediction by ZEFSAII (Michael W. Deem and Ramdas Pophale) SiO2 
 PCOD9419836
Probable space group: P M N A
;
_chemical_formula_sum "Si O2"
_cell_formula_units_Z 48
_cell_length_a 8.580384
_cell_length_b 15.272982
_cell_length_c 19.486306
_cell_angle_alpha 90.000000
_cell_angle_beta 90.000000
_cell_angle_gamma 90.000000
_cell_volume 2553.642411
_symmetry_space_group_name_H-M "P M N A"
_symmetry_group_IT_number 53
_symmetry_cell_setting 'orthorhombic'
loop_
_space_group_symop_operation_xyz
x,y,z
1/2-x,-y,1/2+z
x,-y,-z
1/2-x,y,1/2-z
-x,-y,-z
1/2+x,y,1/2-z
-x,y,z
1/2+x,-y,1/2+z
loop_
_atom_site_type_symbol
_atom_site_label
_atom_site_fract_x
_atom_site_fract_y
_atom_site_fract_z
Si Si1 0.813253 0.038720 0.924269
Si Si2 0.686114 0.889058 0.827074
Si Si3 0.186792 0.433485 0.326440
Si Si4 0.813565 0.725829 0.914146
Si Si5 0.813364 0.372984 0.825913
Si Si6 0.813611 0.234173 0.565223
O O1 0.749106 0.136746 0.920393
O O2 0.000000 0.038654 0.915570
O O3 0.736587 0.975613 0.868295
O O4 0.778934 0.000000 0.000000
O O5 0.750000 0.891595 0.750000
O O6 0.500000 0.880655 0.826617
O O7 0.759087 0.806705 0.867076
O O8 0.250000 0.412894 0.250000
O O9 0.252919 0.362696 0.379062
O O10 0.245845 0.531042 0.343400
O O11 0.000000 0.431476 0.325619
O O12 0.000000 0.725438 0.918742
O O13 0.742212 0.738965 0.989349
O O14 0.750000 0.351283 0.750000
O O15 0.755882 0.301866 0.880075
O O16 0.000000 0.377334 0.824262
O O17 0.000000 0.234948 0.568436
#
# Coordination Sequence:
#
# PCOD9419836 Si02
#       6
#     8   8   8   8   8   8
#     4  11  23  42  67  93 126 166 209 257 314 376
#     4  12  25  42  65  95 129 167 212 263 315 374
#     4  11  22  40  64  93 127 168 212 260 316 376
#     4  12  24  41  63  93 129 168 211 260 316 377
#     4  11  23  43  67  94 127 166 211 262 316 374
#     4  12  25  42  66  96 127 166 212 260 316 378
#
# _framework density 18.796681
#
# number of rings (size 3 to 8) (size 9 to 14) (size 15 to 20)
#    0.000    0.500    1.667    9.500    0.000    2.000 
#    0.000    6.667    0.000    0.000    0.000    0.000 
#    0.000    0.000    0.000    0.000    0.000    0.000 
#
# Total GULP energy -268771.062437 kJ/mol
# GULP energy per Si atom -5599.397134 kJ/mol
# Density = 1.875390 g / cm^3
# Si number density = 18.796681 Si / 1000 Ang^3
#
#
#
# Elastic Constant Matrix: (Units=GPa)
#
#
# Indices 1 2 3 4 5 6 
#
# 1 115.8861 16.9775 15.2821 0.0000 0.0000 0.0000
# 2 16.9775 115.1060 75.7287 0.0000 0.0000 0.0000
# 3 15.2821 75.7287 109.2362 0.0000 0.0000 0.0000
# 4 0.0000 0.0000 0.0000 56.0859 0.0000 0.0000
# 5 0.0000 0.0000 0.0000 0.0000 34.3067 0.0000
# 6 0.0000 0.0000 0.0000 0.0000 0.0000 39.1646
#
#
#
# Elastic Compliance Matrix: (Units=1/GPa)
#
#
# Indices 1 2 3 4 5 6 
#
# 1 0.008842 -0.000901 -0.000612 0.000000 0.000000 0.000000
# 2 -0.000901 0.016065 -0.011011 0.000000 0.000000 0.000000
# 3 -0.000612 -0.011011 0.016873 0.000000 0.000000 0.000000
# 4 0.000000 0.000000 0.000000 0.017830 0.000000 0.000000
# 5 0.000000 0.000000 0.000000 0.000000 0.029149 0.000000
# 6 0.000000 0.000000 0.000000 0.000000 0.000000 0.025533
#
#
# Mechanical properties :
#
#
# Convention : Reuss Voigt Hill
#
# Bulk Modulus (GPa) = 59.76796 61.80055 60.78425
# Shear Modulus (GPa) = 34.50235 41.39411 37.94823
#
# Velocity S-wave (km/s) = 4.28899 4.69785 4.49807
# Velocity P-wave (km/s) = 7.50955 7.89786 7.70615
#
# Compressibility (1/GPa) = 0.01673137
#
# Stress axis : x y z
#
# Youngs Moduli (GPa) = 113.09731 62.24842 59.26479
#
# Poissons Ratio (x) = 0.05612 0.03627
# Poissons Ratio (y) = 0.10196 0.65255
# Poissons Ratio (z) = 0.06922 0.68541
#
# Static dielectric constant tensor:
#      x y z
#    x 1.623770 0.000000 0.000000 
#    y 0.000000 1.621300 0.000000 
#    z 0.000000 0.000000 1.615860 
# 
# From -- ./inp_files/26278.got.cif
#   From: 2010.05.17/outbox.cif.g08.bks.cpg/sg53_14_cif.got.tgz:26278.got - 2010.06.03 12:45:16.
