data_PCOD9419876
_publ_section_title
;
Structure prediction by ZEFSAII (Michael W. Deem and Ramdas Pophale) SiO2 
 PCOD9419876
Probable space group: P M N A
;
_chemical_formula_sum "Si O2"
_cell_formula_units_Z 40
_cell_length_a 15.071544
_cell_length_b 7.660074
_cell_length_c 17.485089
_cell_angle_alpha 90.000000
_cell_angle_beta 90.000000
_cell_angle_gamma 90.000000
_cell_volume 2018.638529
_symmetry_space_group_name_H-M "P M N A"
_symmetry_group_IT_number 53
_symmetry_cell_setting 'orthorhombic'
loop_
_space_group_symop_operation_xyz
x,y,z
1/2-x,-y,1/2+z
x,-y,-z
1/2-x,y,1/2-z
-x,-y,-z
1/2+x,y,1/2-z
-x,y,z
1/2+x,-y,1/2+z
loop_
_atom_site_type_symbol
_atom_site_label
_atom_site_fract_x
_atom_site_fract_y
_atom_site_fract_z
Si Si1 0.901484 0.299979 0.816367
Si Si2 0.145076 0.949328 0.737593
Si Si3 0.738615 0.565174 0.082769
Si Si4 0.601724 0.118693 0.925111
Si Si5 0.901178 0.413496 0.312598
O O1 0.891961 0.096941 0.794222
O O2 0.821638 0.366652 0.868616
O O3 0.895070 0.411213 0.737838
O O4 0.000000 0.331862 0.848381
O O5 0.250000 0.947982 0.750000
O O6 0.120711 0.010183 0.651825
O O7 0.109450 0.752833 0.742875
O O8 0.669656 0.722945 0.071859
O O9 0.680253 0.421166 0.128429
O O10 0.767295 0.500000 0.000000
O O11 0.500000 0.181573 0.921890
O O12 0.611429 0.000000 0.000000
O O13 0.000000 0.403849 0.347935
#
# Coordination Sequence:
#
# PCOD9419876 Si02
#       5
#     8   8   8   8   8
#     4  11  23  43  66  91 126 169 222 270 312 374
#     4  12  21  39  67  93 129 170 215 262 315 383
#     4  12  24  41  62  92 134 174 211 266 325 384
#     4  11  23  39  61  95 133 168 208 261 327 388
#     4  11  23  39  65 100 128 162 214 265 322 385
#
# _framework density 19.815334
#
# number of rings (size 3 to 8) (size 9 to 14) (size 15 to 20)
#    0.000    0.600    4.000    5.400    0.000    3.600 
#    0.000    0.000    0.000    0.600    0.000    0.000 
#    0.000    0.000    0.000    0.000    0.000    0.000 
#
# Total GULP energy -223704.360872 kJ/mol
# GULP energy per Si atom -5592.609022 kJ/mol
# Density = 1.977023 g / cm^3
# Si number density = 19.815334 Si / 1000 Ang^3
#
#
#
# Elastic Constant Matrix: (Units=GPa)
#
#
# Indices 1 2 3 4 5 6 
#
# 1 144.3282 17.4191 58.5652 0.0000 0.0000 0.0000
# 2 17.4191 79.9676 9.0711 0.0000 0.0000 0.0000
# 3 58.5652 9.0711 80.4892 0.0000 0.0000 0.0000
# 4 0.0000 0.0000 0.0000 20.4523 0.0000 0.0000
# 5 0.0000 0.0000 0.0000 0.0000 51.4136 0.0000
# 6 0.0000 0.0000 0.0000 0.0000 0.0000 37.0152
#
#
#
# Elastic Compliance Matrix: (Units=1/GPa)
#
#
# Indices 1 2 3 4 5 6 
#
# 1 0.009977 -0.001367 -0.007105 0.000000 0.000000 0.000000
# 2 -0.001367 0.012854 -0.000454 0.000000 0.000000 0.000000
# 3 -0.007105 -0.000454 0.017645 0.000000 0.000000 0.000000
# 4 0.000000 0.000000 0.000000 0.048894 0.000000 0.000000
# 5 0.000000 0.000000 0.000000 0.000000 0.019450 0.000000
# 6 0.000000 0.000000 0.000000 0.000000 0.000000 0.027016
#
#
# Mechanical properties :
#
#
# Convention : Reuss Voigt Hill
#
# Bulk Modulus (GPa) = 44.20159 52.76619 48.48389
# Shear Modulus (GPa) = 31.01154 36.42487 33.71820
#
# Velocity S-wave (km/s) = 3.96033 4.29209 4.12955
# Velocity P-wave (km/s) = 6.57780 7.15888 6.87448
#
# Compressibility (1/GPa) = 0.02262362
#
# Stress axis : x y z
#
# Youngs Moduli (GPa) = 100.23249 77.79456 56.67313
#
# Poissons Ratio (x) = 0.10636 0.40267
# Poissons Ratio (y) = 0.13704 0.02572
# Poissons Ratio (z) = 0.71217 0.03531
#
# Static dielectric constant tensor:
#      x y z
#    x 1.685800 0.000000 0.000000 
#    y 0.000000 1.724620 0.000000 
#    z 0.000000 0.000000 1.685410 
# 
# From -- ./inp_files/22380.got.cif
#   From: 2010.05.17/outbox.cif.g08.bks.cpg/sg53_12_cif.got.tgz:22380.got - 2010.06.03 12:45:16.
