data_PCOD9419675
_publ_section_title
;
Structure prediction by ZEFSAII (Michael W. Deem and Ramdas Pophale) SiO2 
 PCOD9419675
Probable space group: P M N A
;
_chemical_formula_sum "Si O2"
_cell_formula_units_Z 40
_cell_length_a 7.934910
_cell_length_b 9.903078
_cell_length_c 26.221450
_cell_angle_alpha 90.000000
_cell_angle_beta 90.000000
_cell_angle_gamma 90.000000
_cell_volume 2060.482397
_symmetry_space_group_name_H-M "P M N A"
_symmetry_group_IT_number 53
_symmetry_cell_setting 'orthorhombic'
loop_
_space_group_symop_operation_xyz
x,y,z
1/2-x,-y,1/2+z
x,-y,-z
1/2-x,y,1/2-z
-x,-y,-z
1/2+x,y,1/2-z
-x,y,z
1/2+x,-y,1/2+z
loop_
_atom_site_type_symbol
_atom_site_label
_atom_site_fract_x
_atom_site_fract_y
_atom_site_fract_z
Si Si1 0.000000 0.799133 0.543318
Si Si2 0.000000 0.118505 0.571821
Si Si3 0.202696 0.498232 0.691642
Si Si4 0.810602 0.912563 0.804880
Si Si5 0.698707 0.280185 0.389508
Si Si6 0.690417 0.805351 0.167767
O O1 0.000000 0.807831 0.482171
O O2 0.832116 0.724616 0.564451
O O3 0.000000 0.957684 0.561305
O O4 0.843320 0.165066 0.607773
O O5 0.250000 0.532934 0.750000
O O6 0.283278 0.592557 0.648436
O O7 0.253170 0.342962 0.680571
O O8 0.000000 0.507690 0.686465
O O9 0.750000 0.868949 0.750000
O O10 0.795475 0.072433 0.809985
O O11 0.000000 0.866546 0.808264
O O12 0.730458 0.841211 0.853290
O O13 0.500000 0.263919 0.404333
O O14 0.500000 0.817780 0.190185
#
# Coordination Sequence:
#
# PCOD9419675 Si02
#       6
#     4   4   8   8   8   8
#     4  11  20  41  71  91 123 163 201 273 320 351
#     4   9  20  39  69  93 115 163 211 255 328 359
#     4  11  22  36  57  86 123 170 201 244 303 369
#     4  11  22  33  54  83 116 158 200 249 303 367
#     4  11  23  39  59  90 123 158 207 256 303 369
#     4   9  19  38  57  84 118 152 204 248 295 370
#
# _framework density 19.412928999999998
#
# number of rings (size 3 to 8) (size 9 to 14) (size 15 to 20)
#    0.600    1.000    3.000    2.400    1.400    4.800 
#    0.000    5.000    0.000    1.200    0.000    0.000 
#    0.000    0.000    0.000    0.000    0.000    0.000 
#
# Total GULP energy -222909.297290 kJ/mol
# GULP energy per Si atom -5572.732432 kJ/mol
# Density = 1.936874 g / cm^3
# Si number density = 19.412929 Si / 1000 Ang^3
#
#
#
# Elastic Constant Matrix: (Units=GPa)
#
#
# Indices 1 2 3 4 5 6 
#
# 1 54.8876 -1.0473 17.1978 0.0000 0.0000 0.0000
# 2 -1.0473 68.9296 0.9141 0.0000 0.0000 0.0000
# 3 17.1978 0.9141 91.7215 0.0000 0.0000 0.0000
# 4 0.0000 0.0000 0.0000 13.4102 0.0000 0.0000
# 5 0.0000 0.0000 0.0000 0.0000 18.4849 0.0000
# 6 0.0000 0.0000 0.0000 0.0000 0.0000 59.4072
#
#
#
# Elastic Compliance Matrix: (Units=1/GPa)
#
#
# Indices 1 2 3 4 5 6 
#
# 1 0.019364 0.000342 -0.003634 0.000000 0.000000 0.000000
# 2 0.000342 0.014516 -0.000209 0.000000 0.000000 0.000000
# 3 -0.003634 -0.000209 0.011586 0.000000 0.000000 0.000000
# 4 0.000000 0.000000 0.000000 0.074570 0.000000 0.000000
# 5 0.000000 0.000000 0.000000 0.000000 0.054098 0.000000
# 6 0.000000 0.000000 0.000000 0.000000 0.000000 0.016833
#
#
# Mechanical properties :
#
#
# Convention : Reuss Voigt Hill
#
# Bulk Modulus (GPa) = 25.99798 27.74089 26.86943
# Shear Modulus (GPa) = 23.72030 31.49207 27.60619
#
# Velocity S-wave (km/s) = 3.49933 4.03205 3.77510
# Velocity P-wave (km/s) = 5.45420 5.99979 5.73349
#
# Compressibility (1/GPa) = 0.03846453
#
# Stress axis : x y z
#
# Youngs Moduli (GPa) = 51.64147 68.89176 86.31058
#
# Poissons Ratio (x) = -0.02359 0.31367
# Poissons Ratio (y) = -0.01768 0.01803
# Poissons Ratio (z) = 0.18768 0.01439
#
# Static dielectric constant tensor:
#      x y z
#    x 0.827740 0.000000 0.000000 
#    y 0.000000 1.700290 0.000000 
#    z 0.000000 0.000000 1.869680 
# 
# From -- ./inp_files/36084.got.cif
#   From: 2010.05.17/outbox.cif.g08.bks.cpg/sg53_19_cif.got.tgz:36084.got - 2010.06.03 12:45:16.
