data_PCOD9419413
_publ_section_title
;
Structure prediction by ZEFSAII (Michael W. Deem and Ramdas Pophale) SiO2 
 PCOD9419413
Probable space group: P M N A
;
_chemical_formula_sum "Si O2"
_cell_formula_units_Z 64
_cell_length_a 19.052602
_cell_length_b 14.060837
_cell_length_c 11.946579
_cell_angle_alpha 90.000000
_cell_angle_beta 90.000000
_cell_angle_gamma 90.000000
_cell_volume 3200.435127
_symmetry_space_group_name_H-M "P M N A"
_symmetry_group_IT_number 53
_symmetry_cell_setting 'orthorhombic'
loop_
_space_group_symop_operation_xyz
x,y,z
1/2-x,-y,1/2+z
x,-y,-z
1/2-x,y,1/2-z
-x,-y,-z
1/2+x,y,1/2-z
-x,y,z
1/2+x,-y,1/2+z
loop_
_atom_site_type_symbol
_atom_site_label
_atom_site_fract_x
_atom_site_fract_y
_atom_site_fract_z
Si Si1 0.824856 0.774016 0.513922
Si Si2 0.919693 0.593040 0.571630
Si Si3 0.167915 0.917075 0.720682
Si Si4 0.714051 0.481443 0.625313
Si Si5 0.169858 0.269160 0.925218
Si Si6 0.922968 0.586313 0.820154
Si Si7 0.078360 0.790152 0.876657
Si Si8 0.666574 0.865280 0.222671
O O1 0.863840 0.676487 0.547451
O O2 0.839239 0.853180 0.609054
O O3 0.740960 0.760414 0.493076
O O4 0.848949 0.811288 0.392492
O O5 0.907603 0.500000 0.500000
O O6 0.917216 0.548518 0.695492
O O7 0.000000 0.628759 0.553039
O O8 0.250000 0.917555 0.750000
O O9 0.127462 0.868503 0.823211
O O10 0.142818 0.025857 0.710754
O O11 0.748677 0.500000 0.500000
O O12 0.750000 0.499533 0.750000
O O13 0.689034 0.371703 0.625375
O O14 0.645495 0.548772 0.618875
O O15 0.144770 0.197582 0.828133
O O16 0.107789 0.260856 0.013631
O O17 0.921996 0.699164 0.795827
O O18 0.000000 0.564224 0.869762
O O19 0.000000 0.826431 0.892297
O O20 0.750000 0.870217 0.250000
#
# Coordination Sequence:
#
# PCOD9419413 Si02
#       8
#     8   8   8   8   8   8   8   8
#     4  11  21  38  67  91 128 165 214 264 319 387
#     4  10  23  39  61  95 132 172 213 264 329 391
#     4  11  21  39  67  95 123 165 217 266 328 397
#     4  12  27  41  66 100 136 172 218 272 331 384
#     4  11  24  43  61  95 129 169 211 271 323 381
#     4  10  23  42  62  88 126 173 219 259 316 395
#     4  11  23  42  67  95 129 168 214 273 324 382
#     4   9  22  40  61  92 129 167 212 268 328 387
#
# _framework density 19.99728
#
# number of rings (size 3 to 8) (size 9 to 14) (size 15 to 20)
#    0.000    1.375    3.750    1.500    5.250    1.750 
#    0.000    2.500    0.000    1.500    0.000    0.000 
#    0.000    0.000    0.000    0.000    0.000    0.000 
#
# Total GULP energy -356547.606506 kJ/mol
# GULP energy per Si atom -5571.056352 kJ/mol
# Density = 1.995177 g / cm^3
# Si number density = 19.997280 Si / 1000 Ang^3
#
#
#
# Elastic Constant Matrix: (Units=GPa)
#
#
# Indices 1 2 3 4 5 6 
#
# 1 86.5521 13.2255 20.7104 0.0000 0.0000 0.0000
# 2 13.2255 62.8060 17.6588 0.0000 0.0000 0.0000
# 3 20.7104 17.6588 82.6179 0.0000 0.0000 0.0000
# 4 0.0000 0.0000 0.0000 28.2877 0.0000 0.0000
# 5 0.0000 0.0000 0.0000 0.0000 10.7431 0.0000
# 6 0.0000 0.0000 0.0000 0.0000 0.0000 2.8002
#
#
#
# Elastic Compliance Matrix: (Units=1/GPa)
#
#
# Indices 1 2 3 4 5 6 
#
# 1 0.012492 -0.001862 -0.002734 0.000000 0.000000 0.000000
# 2 -0.001862 0.017218 -0.003213 0.000000 0.000000 0.000000
# 3 -0.002734 -0.003213 0.013476 0.000000 0.000000 0.000000
# 4 0.000000 0.000000 0.000000 0.035351 0.000000 0.000000
# 5 0.000000 0.000000 0.000000 0.000000 0.093083 0.000000
# 6 0.000000 0.000000 0.000000 0.000000 0.000000 0.357117
#
#
# Mechanical properties :
#
#
# Convention : Reuss Voigt Hill
#
# Bulk Modulus (GPa) = 36.27379 37.24060 36.75720
# Shear Modulus (GPa) = 9.03269 20.39161 14.71215
#
# Velocity S-wave (km/s) = 2.12762 3.19677 2.71534
# Velocity P-wave (km/s) = 4.92082 5.68234 5.31524
#
# Compressibility (1/GPa) = 0.02756811
#
# Stress axis : x y z
#
# Youngs Moduli (GPa) = 80.04904 58.07999 74.20613
#
# Poissons Ratio (x) = 0.10815 0.20285
# Poissons Ratio (y) = 0.14905 0.23845
# Poissons Ratio (z) = 0.21882 0.18663
#
# Static dielectric constant tensor:
#      x y z
#    x 1.749440 0.000000 0.000000 
#    y 0.000000 1.722440 0.000000 
#    z 0.000000 0.000000 1.789840 
# 
# From -- ./inp_files/17139.got.cif
#   From: 2010.05.17/outbox.cif.g08.bks.cpg/sg53_9_cif.got.tgz:17139.got - 2010.06.03 12:45:16.
