data_PCOD9419044
_publ_section_title
;
Structure prediction by ZEFSAII (Michael W. Deem and Ramdas Pophale) SiO2 
 PCOD9419044
Probable space group: P M N A
;
_chemical_formula_sum "Si O2"
_cell_formula_units_Z 20
_cell_length_a 28.341709
_cell_length_b 5.624007
_cell_length_c 5.109960
_cell_angle_alpha 90.000000
_cell_angle_beta 90.000000
_cell_angle_gamma 90.000000
_cell_volume 814.496810
_symmetry_space_group_name_H-M "P M N A"
_symmetry_group_IT_number 53
_symmetry_cell_setting 'orthorhombic'
loop_
_space_group_symop_operation_xyz
x,y,z
1/2-x,-y,1/2+z
x,-y,-z
1/2-x,y,1/2-z
-x,-y,-z
1/2+x,y,1/2-z
-x,y,z
1/2+x,-y,1/2+z
loop_
_atom_site_type_symbol
_atom_site_label
_atom_site_fract_x
_atom_site_fract_y
_atom_site_fract_z
Si Si1 0.500000 0.752207 0.338779
Si Si2 0.250000 0.657839 0.750000
Si Si3 0.396954 0.660133 0.237998
Si Si4 0.173190 0.000000 0.000000
O O1 0.500000 0.500000 0.500000
O O2 0.450515 0.746658 0.186113
O O3 0.500000 0.000000 0.500000
O O4 0.236314 0.500000 0.500000
O O5 0.292960 0.818355 0.650385
O O6 0.397751 0.500000 0.500000
O O7 0.361108 0.869354 0.298003
O O8 0.381228 0.500000 0.000000
#
# Coordination Sequence:
#
# PCOD9419044 Si02
#       4
#     4   4   8   4
#     4  10  21  48  78 117 165 217 264 331 401 492
#     4  12  30  52  78 112 154 202 270 338 416 492
#     4  11  26  47  76 116 157 205 265 326 397 487
#     4  12  28  51  80 110 152 211 262 338 412 488
#
# _framework density 24.555038
#
# number of rings (size 3 to 8) (size 9 to 14) (size 15 to 20)
#    0.000    0.800    2.000    3.000    0.000   17.600 
#    0.000    4.000    0.000    0.000    0.000    1.400 
#    0.000    0.000    0.000    0.000    0.000    0.000 
#
# Total GULP energy -112266.598714 kJ/mol
# GULP energy per Si atom -5613.329936 kJ/mol
# Density = 2.449915 g / cm^3
# Si number density = 24.555038 Si / 1000 Ang^3
#
#
#
# Elastic Constant Matrix: (Units=GPa)
#
#
# Indices 1 2 3 4 5 6 
#
# 1 228.6876 95.1955 62.1291 0.0000 0.0000 0.0000
# 2 95.1955 165.6680 80.5638 0.0000 0.0000 0.0000
# 3 62.1291 80.5638 161.6367 0.0000 0.0000 0.0000
# 4 0.0000 0.0000 0.0000 62.7293 0.0000 0.0000
# 5 0.0000 0.0000 0.0000 0.0000 -37.3193 0.0000
# 6 0.0000 0.0000 0.0000 0.0000 0.0000 38.1621
#
#
#
# Elastic Compliance Matrix: (Units=1/GPa)
#
#
# Indices 1 2 3 4 5 6 
#
# 1 0.005816 -0.002976 -0.000752 0.000000 0.000000 0.000000
# 2 -0.002976 0.009490 -0.003586 0.000000 0.000000 0.000000
# 3 -0.000752 -0.003586 0.008263 0.000000 0.000000 0.000000
# 4 0.000000 0.000000 0.000000 0.015942 0.000000 0.000000
# 5 0.000000 0.000000 0.000000 0.000000 -0.026796 0.000000
# 6 0.000000 0.000000 0.000000 0.000000 0.000000 0.026204
#
#
# Mechanical properties :
#
#
# Convention : Reuss Voigt Hill
#
# Bulk Modulus (GPa) = 111.85072 114.64103 113.24587
# Shear Modulus (GPa) = 88.45071 33.92135 61.18603
#
# Velocity S-wave (km/s) = 6.00830 3.72081 4.99720
# Velocity P-wave (km/s) = 9.68415 8.07762 8.91714
#
# Compressibility (1/GPa) = 0.00894049
#
# Stress axis : x y z
#
# Youngs Moduli (GPa) = 171.93890 105.37034 121.01746
#
# Poissons Ratio (x) = 0.31361 0.09102
# Poissons Ratio (y) = 0.51173 0.43400
# Poissons Ratio (z) = 0.12932 0.37788
#
# Static dielectric constant tensor:
#      x y z
#    x 1.927090 0.000000 0.000000 
#    y 0.000000 1.975550 0.000000 
#    z 0.000000 0.000000 1.913070 
# 
# From -- ./inp_files/4746.got.cif
#   From: 2010.05.17/outbox.cif.g08.bks.cpg/sg53_3_cif.got.tgz:4746.got - 2010.06.03 12:45:16.
