data_PCOD9419388
_publ_section_title
;
Structure prediction by ZEFSAII (Michael W. Deem and Ramdas Pophale) SiO2 
 PCOD9419388
Probable space group: P M N A
;
_chemical_formula_sum "Si O2"
_cell_formula_units_Z 32
_cell_length_a 15.784531
_cell_length_b 10.944914
_cell_length_c 8.532157
_cell_angle_alpha 90.000000
_cell_angle_beta 90.000000
_cell_angle_gamma 90.000000
_cell_volume 1474.018296
_symmetry_space_group_name_H-M "P M N A"
_symmetry_group_IT_number 53
_symmetry_cell_setting 'orthorhombic'
loop_
_space_group_symop_operation_xyz
x,y,z
1/2-x,-y,1/2+z
x,-y,-z
1/2-x,y,1/2-z
-x,-y,-z
1/2+x,y,1/2-z
-x,y,z
1/2+x,-y,1/2+z
loop_
_atom_site_type_symbol
_atom_site_label
_atom_site_fract_x
_atom_site_fract_y
_atom_site_fract_z
Si Si1 0.350756 0.703585 0.219296
Si Si2 0.348433 0.118910 0.055132
Si Si3 0.790164 0.500000 0.500000
Si Si4 0.250000 0.318252 0.250000
Si Si5 0.000000 0.055357 0.227792
Si Si6 0.500000 0.788577 0.428657
O O1 0.250000 0.726161 0.250000
O O2 0.415847 0.718814 0.363491
O O3 0.377849 0.806197 0.095476
O O4 0.347358 0.575913 0.123298
O O5 0.311997 0.223281 0.167451
O O6 0.420571 0.061257 0.159216
O O7 0.293479 0.000000 0.000000
O O8 0.732866 0.590585 0.604296
O O9 0.000000 0.925725 0.141925
O O10 0.000000 0.173883 0.111871
#
# Coordination Sequence:
#
# PCOD9419388 Si02
#       6
#     8   8   4   4   4   4
#     4  11  24  44  73  98 139 184 231 292 348 421
#     4  11  23  40  66  95 138 183 229 286 362 414
#     4  10  22  45  70  95 142 178 242 287 352 405
#     4  10  24  40  70  98 132 184 234 294 342 426
#     4  11  24  43  61  97 151 173 232 295 344 430
#     4  11  25  43  66 103 140 186 229 292 352 413
#
# _framework density 21.709364999999998
#
# number of rings (size 3 to 8) (size 9 to 14) (size 15 to 20)
#    0.000    1.250    3.750    1.125    8.750    0.500 
#    0.000    1.250    0.000    7.500    0.000    0.000 
#    0.000    0.000    0.000    0.000    0.000    0.000 
#
# Total GULP energy -178146.751252 kJ/mol
# GULP energy per Si atom -5567.085977 kJ/mol
# Density = 2.165995 g / cm^3
# Si number density = 21.709365 Si / 1000 Ang^3
#
#
#
# Elastic Constant Matrix: (Units=GPa)
#
#
# Indices 1 2 3 4 5 6 
#
# 1 72.3344 32.0748 43.7097 0.0000 0.0000 0.0000
# 2 32.0748 135.9369 46.2965 0.0000 0.0000 0.0000
# 3 43.7097 46.2965 88.3780 0.0000 0.0000 0.0000
# 4 0.0000 0.0000 0.0000 54.7207 0.0000 0.0000
# 5 0.0000 0.0000 0.0000 0.0000 3.6224 0.0000
# 6 0.0000 0.0000 0.0000 0.0000 0.0000 21.7425
#
#
#
# Elastic Compliance Matrix: (Units=1/GPa)
#
#
# Indices 1 2 3 4 5 6 
#
# 1 0.020015 -0.001645 -0.009037 0.000000 0.000000 0.000000
# 2 -0.001645 0.009089 -0.003948 0.000000 0.000000 0.000000
# 3 -0.009037 -0.003948 0.017853 0.000000 0.000000 0.000000
# 4 0.000000 0.000000 0.000000 0.018275 0.000000 0.000000
# 5 0.000000 0.000000 0.000000 0.000000 0.276060 0.000000
# 6 0.000000 0.000000 0.000000 0.000000 0.000000 0.045993
#
#
# Mechanical properties :
#
#
# Convention : Reuss Voigt Hill
#
# Bulk Modulus (GPa) = 56.50691 60.09015 58.29853
# Shear Modulus (GPa) = 11.83593 27.65501 19.74547
#
# Velocity S-wave (km/s) = 2.33748 3.57301 3.01912
# Velocity P-wave (km/s) = 5.77671 6.69039 6.25027
#
# Compressibility (1/GPa) = 0.01769695
#
# Stress axis : x y z
#
# Youngs Moduli (GPa) = 49.96245 110.02395 56.01382
#
# Poissons Ratio (x) = 0.18096 0.50622
# Poissons Ratio (y) = 0.08217 0.22113
# Poissons Ratio (z) = 0.45153 0.43435
#
# Static dielectric constant tensor:
#      x y z
#    x 1.799850 0.000000 0.000000 
#    y 0.000000 1.875160 0.000000 
#    z 0.000000 0.000000 2.164310 
# 
# From -- ./inp_files/8189.got.cif
#   From: 2010.05.17/outbox.cif.g08.bks.cpg/sg53_5_cif.got.tgz:8189.got - 2010.06.03 12:45:16.
