data_PCOD9419177
_publ_section_title
;
Structure prediction by ZEFSAII (Michael W. Deem and Ramdas Pophale) SiO2 
 PCOD9419177
Probable space group: P M N A
;
_chemical_formula_sum "Si O2"
_cell_formula_units_Z 40
_cell_length_a 12.774593
_cell_length_b 13.694844
_cell_length_c 9.593823
_cell_angle_alpha 90.000000
_cell_angle_beta 90.000000
_cell_angle_gamma 90.000000
_cell_volume 1678.401518
_symmetry_space_group_name_H-M "P M N A"
_symmetry_group_IT_number 53
_symmetry_cell_setting 'orthorhombic'
loop_
_space_group_symop_operation_xyz
x,y,z
1/2-x,-y,1/2+z
x,-y,-z
1/2-x,y,1/2-z
-x,-y,-z
1/2+x,y,1/2-z
-x,y,z
1/2+x,-y,1/2+z
loop_
_atom_site_type_symbol
_atom_site_label
_atom_site_fract_x
_atom_site_fract_y
_atom_site_fract_z
Si Si1 0.661436 0.605295 0.447798
Si Si2 0.620708 0.867978 0.087345
Si Si3 0.379889 0.988988 0.660997
Si Si4 0.300836 0.215739 0.383384
Si Si5 0.387725 0.350800 0.861562
O O1 0.629507 0.500000 0.500000
O O2 0.634044 0.705380 0.528532
O O3 0.623344 0.605826 0.290318
O O4 0.788322 0.615257 0.448377
O O5 0.500000 0.886357 0.036376
O O6 0.617346 0.765316 0.168404
O O7 0.652661 0.953121 0.196537
O O8 0.708022 0.836810 0.973632
O O9 0.500000 0.021501 0.651728
O O10 0.367215 0.873505 0.679589
O O11 0.340399 0.000000 0.500000
O O12 0.250000 0.268262 0.250000
O O13 0.500000 0.371449 0.927988
#
# Coordination Sequence:
#
# PCOD9419177 Si02
#       5
#     8   8   8   8   8
#     4  10  22  39  63  89 124 158 205 267 325 372
#     4   9  20  42  66  90 125 168 211 258 315 380
#     4  10  22  39  63  93 127 165 209 259 310 377
#     4  11  25  38  61  93 125 168 213 261 314 384
#     4   9  19  39  65  89 115 158 208 253 315 385
#
# _framework density 23.8322
#
# number of rings (size 3 to 8) (size 9 to 14) (size 15 to 20)
#    0.000    2.200    0.000    1.200    5.600    5.600 
#    0.000    2.000    0.000    0.000    0.000    0.000 
#    0.000    0.000    0.000    0.000    0.000    0.000 
#
# Total GULP energy -222924.204033 kJ/mol
# GULP energy per Si atom -5573.105101 kJ/mol
# Density = 2.377796 g / cm^3
# Si number density = 23.832200 Si / 1000 Ang^3
#
#
#
# Elastic Constant Matrix: (Units=GPa)
#
#
# Indices 1 2 3 4 5 6 
#
# 1 81.0317 8.1915 1.8109 0.0000 0.0000 0.0000
# 2 8.1915 118.7562 31.7978 0.0000 0.0000 0.0000
# 3 1.8109 31.7978 93.9453 0.0000 0.0000 0.0000
# 4 0.0000 0.0000 0.0000 43.7283 0.0000 0.0000
# 5 0.0000 0.0000 0.0000 0.0000 -2.5020 0.0000
# 6 0.0000 0.0000 0.0000 0.0000 0.0000 -3.9571
#
#
#
# Elastic Compliance Matrix: (Units=1/GPa)
#
#
# Indices 1 2 3 4 5 6 
#
# 1 0.012428 -0.000872 0.000056 0.000000 0.000000 0.000000
# 2 -0.000872 0.009321 -0.003138 0.000000 0.000000 0.000000
# 3 0.000056 -0.003138 0.011706 0.000000 0.000000 0.000000
# 4 0.000000 0.000000 0.000000 0.022868 0.000000 0.000000
# 5 0.000000 0.000000 0.000000 0.000000 -0.399683 0.000000
# 6 0.000000 0.000000 0.000000 0.000000 0.000000 -0.252713
#
#
# Mechanical properties :
#
#
# Convention : Reuss Voigt Hill
#
# Bulk Modulus (GPa) = 39.14632 41.92596 40.53614
# Shear Modulus (GPa) = -8.62591 24.24938 7.81173
#
# Velocity S-wave (km/s) = -1.90455 3.19330 1.81244
# Velocity P-wave (km/s) = 3.40956 5.58807 4.62880
#
# Compressibility (1/GPa) = 0.02554519
#
# Stress axis : x y z
#
# Youngs Moduli (GPa) = 80.46492 107.28446 85.42941
#
# Poissons Ratio (x) = 0.09357 -0.00475
# Poissons Ratio (y) = 0.07018 0.26808
# Poissons Ratio (z) = -0.00448 0.33667
#
# Static dielectric constant tensor:
#      x y z
#    x 2.009550 0.000000 0.000000 
#    y 0.000000 1.915510 0.000000 
#    z 0.000000 0.000000 1.931130 
# 
# From -- ./inp_files/8428.got.cif
#   From: 2010.05.17/outbox.cif.g08.bks.cpg/sg53_5_cif.got.tgz:8428.got - 2010.06.03 12:45:16.
