data_PCOD9419932
_publ_section_title
;
Structure prediction by ZEFSAII (Michael W. Deem and Ramdas Pophale) SiO2 
 PCOD9419932
Probable space group: P M N A
;
_chemical_formula_sum "Si O2"
_cell_formula_units_Z 28
_cell_length_a 27.716241
_cell_length_b 8.839398
_cell_length_c 5.018678
_cell_angle_alpha 90.000000
_cell_angle_beta 90.000000
_cell_angle_gamma 90.000000
_cell_volume 1229.550441
_symmetry_space_group_name_H-M "P M N A"
_symmetry_group_IT_number 53
_symmetry_cell_setting 'orthorhombic'
loop_
_space_group_symop_operation_xyz
x,y,z
1/2-x,-y,1/2+z
x,-y,-z
1/2-x,y,1/2-z
-x,-y,-z
1/2+x,y,1/2-z
-x,y,z
1/2+x,-y,1/2+z
loop_
_atom_site_type_symbol
_atom_site_label
_atom_site_fract_x
_atom_site_fract_y
_atom_site_fract_z
Si Si1 0.848833 0.834244 0.377850
Si Si2 0.716624 0.000000 0.500000
Si Si3 0.554147 0.823063 0.423034
Si Si4 0.116684 0.603501 0.741731
O O1 0.815401 0.861243 0.118419
O O2 0.841486 0.703254 0.595312
O O3 0.846151 0.000000 0.500000
O O4 0.903852 0.811310 0.291593
O O5 0.750000 0.046401 0.250000
O O6 0.500000 0.779671 0.344638
O O7 0.575192 0.715962 0.653476
O O8 0.553383 0.000000 0.500000
O O9 0.098592 0.500000 0.500000
O O10 0.130644 0.500000 0.000000
#
# Coordination Sequence:
#
# PCOD9419932 Si02
#       4
#     8   4   8   8
#     4  12  23  47  74 110 153 188 254 303 365 449
#     4  12  26  44  79 120 143 178 244 330 384 438
#     4  11  24  43  70 106 152 204 253 305 355 427
#     4  12  26  44  69 107 154 203 240 301 367 434
#
# _framework density 22.772548
#
# number of rings (size 3 to 8) (size 9 to 14) (size 15 to 20)
#    0.000    0.286    8.571    0.000    0.000    2.857 
#    0.000    0.000    0.000    0.000   14.857    0.000 
#    0.000    0.000    0.000    0.000    0.000    0.000 
#
# Total GULP energy -156171.908634 kJ/mol
# GULP energy per Si atom -5577.568166 kJ/mol
# Density = 2.272072 g / cm^3
# Si number density = 22.772548 Si / 1000 Ang^3
#
#
#
# Elastic Constant Matrix: (Units=GPa)
#
#
# Indices 1 2 3 4 5 6 
#
# 1 107.9276 38.3562 71.0058 0.0000 0.0000 0.0000
# 2 38.3562 136.6385 64.1319 0.0000 0.0000 0.0000
# 3 71.0058 64.1319 177.6423 0.0000 0.0000 0.0000
# 4 0.0000 0.0000 0.0000 53.9862 0.0000 0.0000
# 5 0.0000 0.0000 0.0000 0.0000 25.5351 0.0000
# 6 0.0000 0.0000 0.0000 0.0000 0.0000 0.9646
#
#
#
# Elastic Compliance Matrix: (Units=1/GPa)
#
#
# Indices 1 2 3 4 5 6 
#
# 1 0.012801 -0.001435 -0.004599 0.000000 0.000000 0.000000
# 2 -0.001435 0.008973 -0.002666 0.000000 0.000000 0.000000
# 3 -0.004599 -0.002666 0.008430 0.000000 0.000000 0.000000
# 4 0.000000 0.000000 0.000000 0.018523 0.000000 0.000000
# 5 0.000000 0.000000 0.000000 0.000000 0.039162 0.000000
# 6 0.000000 0.000000 0.000000 0.000000 0.000000 1.036678
#
#
# Mechanical properties :
#
#
# Convention : Reuss Voigt Hill
#
# Bulk Modulus (GPa) = 78.09656 85.46625 81.78140
# Shear Modulus (GPa) = 4.36212 32.67816 18.52014
#
# Velocity S-wave (km/s) = 1.38552 3.79222 2.85488
# Velocity P-wave (km/s) = 6.07686 7.53568 6.84524
#
# Compressibility (1/GPa) = 0.01280466
#
# Stress axis : x y z
#
# Youngs Moduli (GPa) = 78.11957 111.45114 118.62736
#
# Poissons Ratio (x) = 0.15993 0.54552
# Poissons Ratio (y) = 0.11210 0.31622
# Poissons Ratio (z) = 0.35924 0.29709
#
# Static dielectric constant tensor:
#      x y z
#    x 1.869330 0.000000 0.000000 
#    y 0.000000 1.950300 0.000000 
#    z 0.000000 0.000000 2.000510 
# 
# From -- ./inp_files/4947.got.cif
#   From: 2010.05.17/outbox.cif.g08.bks.cpg/sg53_3_cif.got.tgz:4947.got - 2010.06.03 12:45:16.
