data_PCOD9419456
_publ_section_title
;
Structure prediction by ZEFSAII (Michael W. Deem and Ramdas Pophale) SiO2 
 PCOD9419456
Probable space group: P M N A
;
_chemical_formula_sum "Si O2"
_cell_formula_units_Z 40
_cell_length_a 9.702985
_cell_length_b 24.255154
_cell_length_c 8.892265
_cell_angle_alpha 90.000000
_cell_angle_beta 90.000000
_cell_angle_gamma 90.000000
_cell_volume 2092.771407
_symmetry_space_group_name_H-M "P M N A"
_symmetry_group_IT_number 53
_symmetry_cell_setting 'orthorhombic'
loop_
_space_group_symop_operation_xyz
x,y,z
1/2-x,-y,1/2+z
x,-y,-z
1/2-x,y,1/2-z
-x,-y,-z
1/2+x,y,1/2-z
-x,y,z
1/2+x,-y,1/2+z
loop_
_atom_site_type_symbol
_atom_site_label
_atom_site_fract_x
_atom_site_fract_y
_atom_site_fract_z
Si Si1 0.336056 0.357692 0.404124
Si Si2 0.500000 0.060027 0.427068
Si Si3 0.500000 0.938244 0.932344
Si Si4 0.662263 0.444808 0.900391
Si Si5 0.252977 0.873310 0.430320
Si Si6 0.838291 0.249284 0.896748
O O1 0.250000 0.356785 0.250000
O O2 0.500000 0.372792 0.385584
O O3 0.250794 0.399034 0.511032
O O4 0.333006 0.297812 0.482272
O O5 0.500000 0.056832 0.247406
O O6 0.374305 0.094148 0.491520
O O7 0.500000 0.000000 0.500000
O O8 0.375489 0.902043 0.993783
O O9 0.500000 0.000000 0.000000
O O10 0.750000 0.455644 0.750000
O O11 0.500000 0.429148 0.872596
O O12 0.659724 0.500000 0.000000
O O13 0.250000 0.881319 0.250000
O O14 0.273615 0.808073 0.453935
O O15 0.750000 0.265603 0.750000
O O16 0.000000 0.239562 0.857353
#
# Coordination Sequence:
#
# PCOD9419456 Si02
#       6
#     8   4   4   8   8   8
#     4  11  24  42  64  96 134 174 219 271 325 384
#     4  12  24  42  66  90 128 164 205 264 315 388
#     4  12  26  42  64  96 124 166 211 258 325 384
#     4  11  24  42  66  97 133 175 222 274 330 391
#     4  11  23  43  65  93 126 164 211 262 320 386
#     4  10  23  42  66  94 126 166 211 260 317 380
#
# _framework density 19.113410999999999
#
# number of rings (size 3 to 8) (size 9 to 14) (size 15 to 20)
#    0.000    1.000    1.000    5.400    4.200    8.000 
#    0.000    0.000    0.000    0.000    0.000    0.000 
#    0.000    0.000    0.000    0.000    0.000    0.000 
#
# Total GULP energy -223414.087585 kJ/mol
# GULP energy per Si atom -5585.352190 kJ/mol
# Density = 1.906991 g / cm^3
# Si number density = 19.113411 Si / 1000 Ang^3
#
#
#
# Elastic Constant Matrix: (Units=GPa)
#
#
# Indices 1 2 3 4 5 6 
#
# 1 208.6589 66.5055 75.5795 0.0000 0.0000 0.0000
# 2 66.5055 94.6936 70.6761 0.0000 0.0000 0.0000
# 3 75.5795 70.6761 137.3155 0.0000 0.0000 0.0000
# 4 0.0000 0.0000 0.0000 36.2517 0.0000 0.0000
# 5 0.0000 0.0000 0.0000 0.0000 38.9054 0.0000
# 6 0.0000 0.0000 0.0000 0.0000 0.0000 35.9482
#
#
#
# Elastic Compliance Matrix: (Units=1/GPa)
#
#
# Indices 1 2 3 4 5 6 
#
# 1 0.006494 -0.003074 -0.001992 0.000000 0.000000 0.000000
# 2 -0.003074 0.018603 -0.007883 0.000000 0.000000 0.000000
# 3 -0.001992 -0.007883 0.012436 0.000000 0.000000 0.000000
# 4 0.000000 0.000000 0.000000 0.027585 0.000000 0.000000
# 5 0.000000 0.000000 0.000000 0.000000 0.025703 0.000000
# 6 0.000000 0.000000 0.000000 0.000000 0.000000 0.027818
#
#
# Mechanical properties :
#
#
# Convention : Reuss Voigt Hill
#
# Bulk Modulus (GPa) = 85.94741 96.24335 91.09538
# Shear Modulus (GPa) = 33.68926 37.41488 35.55207
#
# Velocity S-wave (km/s) = 4.20289 4.42919 4.31752
# Velocity P-wave (km/s) = 8.28354 8.75329 8.52165
#
# Compressibility (1/GPa) = 0.01163502
#
# Stress axis : x y z
#
# Youngs Moduli (GPa) = 153.99238 53.75531 80.40967
#
# Poissons Ratio (x) = 0.16524 0.16019
# Poissons Ratio (y) = 0.47336 0.63386
# Poissons Ratio (z) = 0.30677 0.42375
#
# Static dielectric constant tensor:
#      x y z
#    x 1.631440 0.000000 0.000000 
#    y 0.000000 1.663040 0.000000 
#    z 0.000000 0.000000 1.617220 
# 
# From -- ./inp_files/6343.got.cif
#   From: 2010.05.17/outbox.cif.g08.bks.cpg/sg53_4_cif.got.tgz:6343.got - 2010.06.03 12:45:16.
