data_PCOD9419390
_publ_section_title
;
Structure prediction by ZEFSAII (Michael W. Deem and Ramdas Pophale) SiO2 
 PCOD9419390
Probable space group: P M N A
;
_chemical_formula_sum "Si O2"
_cell_formula_units_Z 48
_cell_length_a 21.222315
_cell_length_b 7.137796
_cell_length_c 13.505814
_cell_angle_alpha 90.000000
_cell_angle_beta 90.000000
_cell_angle_gamma 90.000000
_cell_volume 2045.868202
_symmetry_space_group_name_H-M "P M N A"
_symmetry_group_IT_number 53
_symmetry_cell_setting 'orthorhombic'
loop_
_space_group_symop_operation_xyz
x,y,z
1/2-x,-y,1/2+z
x,-y,-z
1/2-x,y,1/2-z
-x,-y,-z
1/2+x,y,1/2-z
-x,y,z
1/2+x,-y,1/2+z
loop_
_atom_site_type_symbol
_atom_site_label
_atom_site_fract_x
_atom_site_fract_y
_atom_site_fract_z
Si Si1 0.567437 0.151397 0.378084
Si Si2 0.290308 0.228933 0.430590
Si Si3 0.661277 0.914200 0.893307
Si Si4 0.569469 0.602934 0.819284
Si Si5 0.400950 0.799706 0.258482
Si Si6 0.215694 0.357145 0.853574
O O1 0.500000 0.184029 0.432651
O O2 0.636771 0.164745 0.428157
O O3 0.570234 0.304987 0.290113
O O4 0.562435 0.950094 0.324636
O O5 0.236528 0.103621 0.381304
O O6 0.285037 0.422817 0.372673
O O7 0.265310 0.733960 0.457846
O O8 0.625513 0.713788 0.876003
O O9 0.635080 0.061286 0.815161
O O10 0.646379 0.000000 0.000000
O O11 0.500000 0.646528 0.862970
O O12 0.574390 0.378565 0.804391
O O13 0.355005 0.704800 0.336319
O O14 0.250000 0.316750 0.750000
#
# Coordination Sequence:
#
# PCOD9419390 Si02
#       6
#     8   8   8   8   8   8
#     4  10  23  43  69 102 145 190 237 295 364 438
#     4  11  25  45  69 107 146 186 245 300 360 437
#     4  11  26  44  68 104 145 186 244 306 364 431
#     4  10  22  45  72 102 144 189 240 300 364 434
#     4  11  23  41  72 101 135 192 239 295 366 434
#     4  11  24  43  71 102 143 188 236 299 364 429
#
# _framework density 23.461922999999999
#
# number of rings (size 3 to 8) (size 9 to 14) (size 15 to 20)
#    0.000    1.333    1.667    2.500    7.000    3.000 
#    0.000    5.000    0.000    0.000    0.000    1.167 
#    0.000    0.000    0.000    0.000    0.000    0.000 
#
# Total GULP energy -267900.372402 kJ/mol
# GULP energy per Si atom -5581.257758 kJ/mol
# Density = 2.340852 g / cm^3
# Si number density = 23.461923 Si / 1000 Ang^3
#
#
#
# Elastic Constant Matrix: (Units=GPa)
#
#
# Indices 1 2 3 4 5 6 
#
# 1 139.0708 49.1198 34.1235 0.0000 0.0000 0.0000
# 2 49.1198 143.0422 15.7824 0.0000 0.0000 0.0000
# 3 34.1235 15.7824 84.4798 0.0000 0.0000 0.0000
# 4 0.0000 0.0000 0.0000 32.1035 0.0000 0.0000
# 5 0.0000 0.0000 0.0000 0.0000 63.0448 0.0000
# 6 0.0000 0.0000 0.0000 0.0000 0.0000 422.9185
#
#
#
# Elastic Compliance Matrix: (Units=1/GPa)
#
#
# Indices 1 2 3 4 5 6 
#
# 1 0.008909 -0.002718 -0.003091 0.000000 0.000000 0.000000
# 2 -0.002718 0.007967 -0.000390 0.000000 0.000000 0.000000
# 3 -0.003091 -0.000390 0.013159 0.000000 0.000000 0.000000
# 4 0.000000 0.000000 0.000000 0.031149 0.000000 0.000000
# 5 0.000000 0.000000 0.000000 0.000000 0.015862 0.000000
# 6 0.000000 0.000000 0.000000 0.000000 0.000000 0.002365
#
#
# Mechanical properties :
#
#
# Convention : Reuss Voigt Hill
#
# Bulk Modulus (GPa) = 56.70227 62.73824 59.72026
# Shear Modulus (GPa) = 51.18320 121.45116 86.31718
#
# Velocity S-wave (km/s) = 4.67577 7.20261 6.07208
# Velocity P-wave (km/s) = 7.30552 9.79636 8.64116
#
# Compressibility (1/GPa) = 0.01763598
#
# Stress axis : x y z
#
# Youngs Moduli (GPa) = 112.24532 125.51032 75.99627
#
# Poissons Ratio (x) = 0.34117 0.23489
# Poissons Ratio (y) = 0.30512 0.02968
# Poissons Ratio (z) = 0.34692 0.04901
#
# Static dielectric constant tensor:
#      x y z
#    x 1.926890 0.000000 0.000000 
#    y 0.000000 1.915910 0.000000 
#    z 0.000000 0.000000 1.895680 
# 
# From -- ./inp_files/32953.got.cif
#   From: 2010.05.17/outbox.cif.g08.bks.cpg/sg53_17_cif.got.tgz:32953.got - 2010.06.03 12:45:16.
