data_PCOD9419297
_publ_section_title
;
Structure prediction by ZEFSAII (Michael W. Deem and Ramdas Pophale) SiO2 
 PCOD9419297
Probable space group: P M N A
;
_chemical_formula_sum "Si O2"
_cell_formula_units_Z 32
_cell_length_a 9.630354
_cell_length_b 8.866482
_cell_length_c 17.110976
_cell_angle_alpha 90.000000
_cell_angle_beta 90.000000
_cell_angle_gamma 90.000000
_cell_volume 1461.061074
_symmetry_space_group_name_H-M "P M N A"
_symmetry_group_IT_number 53
_symmetry_cell_setting 'orthorhombic'
loop_
_space_group_symop_operation_xyz
x,y,z
1/2-x,-y,1/2+z
x,-y,-z
1/2-x,y,1/2-z
-x,-y,-z
1/2+x,y,1/2-z
-x,y,z
1/2+x,-y,1/2+z
loop_
_atom_site_type_symbol
_atom_site_label
_atom_site_fract_x
_atom_site_fract_y
_atom_site_fract_z
Si Si1 0.330951 0.309250 0.099326
Si Si2 0.218653 0.139217 0.550198
Si Si3 0.152197 0.626754 0.323307
Si Si4 0.160335 0.049394 0.179213
O O1 0.500000 0.284738 0.095628
O O2 0.308160 0.479776 0.126088
O O3 0.251241 0.197014 0.157845
O O4 0.263237 0.265059 0.016285
O O5 0.145497 0.231058 0.618969
O O6 0.154262 0.000000 0.500000
O O7 0.336126 0.054057 0.600963
O O8 0.250000 0.645784 0.250000
O O9 0.000000 0.596319 0.290807
O O10 0.250000 0.980052 0.250000
O O11 0.000000 0.078155 0.200499
#
# Coordination Sequence:
#
# PCOD9419297 Si02
#       4
#     8   8   8   8
#     4  10  22  41  66  94 126 167 214 264 319 381
#     4  10  23  40  65  93 126 165 210 260 314 372
#     4  11  24  42  65  95 128 165 212 262 316 379
#     4  11  24  41  63  93 130 171 217 267 319 379
#
# _framework density 21.901892
#
# number of rings (size 3 to 8) (size 9 to 14) (size 15 to 20)
#    0.000    1.500    0.000    3.750    0.000   23.500 
#    0.000    0.000    0.000    9.000    0.000    0.000 
#    0.000    0.000    0.000    0.000    0.000    0.000 
#
# Total GULP energy -178248.476202 kJ/mol
# GULP energy per Si atom -5570.264881 kJ/mol
# Density = 2.185204 g / cm^3
# Si number density = 21.901892 Si / 1000 Ang^3
#
#
#
# Elastic Constant Matrix: (Units=GPa)
#
#
# Indices 1 2 3 4 5 6 
#
# 1 81.7579 50.1114 52.5285 0.0000 0.0000 0.0000
# 2 50.1114 131.5450 58.8445 0.0000 0.0000 0.0000
# 3 52.5285 58.8445 157.1250 0.0000 0.0000 0.0000
# 4 0.0000 0.0000 0.0000 32.6284 0.0000 0.0000
# 5 0.0000 0.0000 0.0000 0.0000 14.8644 0.0000
# 6 0.0000 0.0000 0.0000 0.0000 0.0000 3.5295
#
#
#
# Elastic Compliance Matrix: (Units=1/GPa)
#
#
# Indices 1 2 3 4 5 6 
#
# 1 0.017942 -0.004987 -0.004130 0.000000 0.000000 0.000000
# 2 -0.004987 0.010518 -0.002272 0.000000 0.000000 0.000000
# 3 -0.004130 -0.002272 0.008596 0.000000 0.000000 0.000000
# 4 0.000000 0.000000 0.000000 0.030648 0.000000 0.000000
# 5 0.000000 0.000000 0.000000 0.000000 0.067275 0.000000
# 6 0.000000 0.000000 0.000000 0.000000 0.000000 0.283327
#
#
# Mechanical properties :
#
#
# Convention : Reuss Voigt Hill
#
# Bulk Modulus (GPa) = 70.04245 77.04406 73.54325
# Shear Modulus (GPa) = 11.21471 24.13402 17.67437
#
# Velocity S-wave (km/s) = 2.26529 3.32311 2.84382
# Velocity P-wave (km/s) = 6.23631 7.06947 6.66592
#
# Compressibility (1/GPa) = 0.01427706
#
# Stress axis : x y z
#
# Youngs Moduli (GPa) = 55.73609 95.07458 116.33315
#
# Poissons Ratio (x) = 0.47415 0.48050
# Poissons Ratio (y) = 0.27796 0.26429
# Poissons Ratio (z) = 0.23021 0.21599
#
# Static dielectric constant tensor:
#      x y z
#    x 1.747710 0.000000 0.000000 
#    y 0.000000 1.834670 0.000000 
#    z 0.000000 0.000000 1.841240 
# 
# From -- ./inp_files/21456.got.cif
#   From: 2010.05.17/outbox.cif.g08.bks.cpg/sg53_11_cif.got.tgz:21456.got - 2010.06.03 12:45:16.
