data_PCOD9419744
_publ_section_title
;
Structure prediction by ZEFSAII (Michael W. Deem and Ramdas Pophale) SiO2 
 PCOD9419744
Probable space group: P M N A
;
_chemical_formula_sum "Si O2"
_cell_formula_units_Z 58
_cell_length_a 16.796549
_cell_length_b 19.515394
_cell_length_c 8.959841
_cell_angle_alpha 90.000000
_cell_angle_beta 90.000000
_cell_angle_gamma 90.000000
_cell_volume 2936.957675
_symmetry_space_group_name_H-M "P M N A"
_symmetry_group_IT_number 53
_symmetry_cell_setting 'orthorhombic'
loop_
_space_group_symop_operation_xyz
x,y,z
1/2-x,-y,1/2+z
x,-y,-z
1/2-x,y,1/2-z
-x,-y,-z
1/2+x,y,1/2-z
-x,y,z
1/2+x,-y,1/2+z
loop_
_atom_site_type_symbol
_atom_site_label
_atom_site_fract_x
_atom_site_fract_y
_atom_site_fract_z
Si Si1 0.593853 0.250949 0.918659
Si Si2 0.823485 0.304933 0.857248
Si Si3 0.500000 0.000000 0.000000
Si Si4 0.903439 0.577404 0.954494
Si Si5 0.827081 0.075991 0.954669
Si Si6 0.643004 0.099471 0.891563
Si Si7 0.821686 0.791807 0.867974
Si Si8 0.094042 0.672529 0.697904
O O1 0.500000 0.243022 0.943026
O O2 0.610868 0.271596 0.749861
O O3 0.633135 0.177532 0.944280
O O4 0.624103 0.309730 0.032584
O O5 0.750000 0.320290 0.750000
O O6 0.860734 0.370998 0.933302
O O7 0.798658 0.249866 0.982416
O O8 0.570704 0.944780 0.046438
O O9 0.877126 0.606568 0.791366
O O10 0.000000 0.584405 0.963826
O O11 0.884039 0.500000 0.000000
O O12 0.730628 0.076034 0.943783
O O13 0.857261 0.095281 0.789326
O O14 0.849711 0.133821 0.075890
O O15 0.854201 0.000000 0.000000
O O16 0.750000 0.798378 0.750000
O O17 0.885714 0.741198 0.791651
O O18 0.000000 0.663669 0.687221
#
# Coordination Sequence:
#
# PCOD9419744 Si02
#       8
#     8   8   2   8   8   8   8   8
#     4  11  21  38  62  88 119 158 207 259 312 370
#     4  11  21  37  59  90 122 154 201 253 310 367
#     4  12  24  44  62  88 120 166 206 266 340 380
#     4   9  19  39  63  88 122 164 201 243 307 375
#     4  11  24  40  60  85 117 160 207 257 319 391
#     4  11  23  41  61  86 118 161 207 260 319 384
#     4  11  22  37  62  85 116 160 206 253 311 373
#     4   9  20  37  60  91 116 151 200 252 299 367
#
# _framework density 19.748325999999999
#
# number of rings (size 3 to 8) (size 9 to 14) (size 15 to 20)
#    0.000    1.517    2.759    2.897    1.931    1.655 
#    1.241    5.172    0.000    3.310    0.000    0.000 
#    0.000    0.000    0.000    0.000    0.000    0.000 
#
# Total GULP energy -323206.237183 kJ/mol
# GULP energy per Si atom -5572.521331 kJ/mol
# Density = 1.970338 g / cm^3
# Si number density = 19.748326 Si / 1000 Ang^3
#
#
#
# Elastic Constant Matrix: (Units=GPa)
#
#
# Indices 1 2 3 4 5 6 
#
# 1 20.2369 15.4487 3.9876 0.0000 0.0000 0.0000
# 2 15.4487 148.0110 51.3716 0.0000 0.0000 0.0000
# 3 3.9876 51.3716 92.9657 0.0000 0.0000 0.0000
# 4 0.0000 0.0000 0.0000 22.8101 0.0000 0.0000
# 5 0.0000 0.0000 0.0000 0.0000 24.1314 0.0000
# 6 0.0000 0.0000 0.0000 0.0000 0.0000 28.7746
#
#
#
# Elastic Compliance Matrix: (Units=1/GPa)
#
#
# Indices 1 2 3 4 5 6 
#
# 1 0.053765 -0.005953 0.000983 0.000000 0.000000 0.000000
# 2 -0.005953 0.009019 -0.004728 0.000000 0.000000 0.000000
# 3 0.000983 -0.004728 0.013327 0.000000 0.000000 0.000000
# 4 0.000000 0.000000 0.000000 0.043840 0.000000 0.000000
# 5 0.000000 0.000000 0.000000 0.000000 0.041440 0.000000
# 6 0.000000 0.000000 0.000000 0.000000 0.000000 0.034753
#
#
# Mechanical properties :
#
#
# Convention : Reuss Voigt Hill
#
# Bulk Modulus (GPa) = 17.63188 44.75884 31.19536
# Shear Modulus (GPa) = 21.32694 27.83694 24.58194
#
# Velocity S-wave (km/s) = 3.28980 3.75852 3.53194
# Velocity P-wave (km/s) = 4.83509 6.44586 5.69768
#
# Compressibility (1/GPa) = 0.05671546
#
# Stress axis : x y z
#
# Youngs Moduli (GPa) = 18.59932 110.88079 75.03427
#
# Poissons Ratio (x) = 0.66008 -0.07379
# Poissons Ratio (y) = 0.11072 0.35478
# Poissons Ratio (z) = -0.01829 0.52427
#
# Static dielectric constant tensor:
#      x y z
#    x 1.686570 0.000000 0.000000 
#    y 0.000000 1.675360 0.000000 
#    z 0.000000 0.000000 1.726150 
# 
# From -- ./inp_files/10182.got.cif
#   From: 2010.05.17/outbox.cif.g08.bks.cpg/sg53_6_cif.got.tgz:10182.got - 2010.06.03 12:45:16.
