data_PCOD9419054
_publ_section_title
;
Structure prediction by ZEFSAII (Michael W. Deem and Ramdas Pophale) SiO2 
 PCOD9419054
Probable space group: P M N A
;
_chemical_formula_sum "Si O2"
_cell_formula_units_Z 56
_cell_length_a 20.085455
_cell_length_b 15.091281
_cell_length_c 9.909967
_cell_angle_alpha 90.000000
_cell_angle_beta 90.000000
_cell_angle_gamma 90.000000
_cell_volume 3003.862079
_symmetry_space_group_name_H-M "P M N A"
_symmetry_group_IT_number 53
_symmetry_cell_setting 'orthorhombic'
loop_
_space_group_symop_operation_xyz
x,y,z
1/2-x,-y,1/2+z
x,-y,-z
1/2-x,y,1/2-z
-x,-y,-z
1/2+x,y,1/2-z
-x,y,z
1/2+x,-y,1/2+z
loop_
_atom_site_type_symbol
_atom_site_label
_atom_site_fract_x
_atom_site_fract_y
_atom_site_fract_z
Si Si1 0.000000 0.907916 0.582941
Si Si2 0.760153 0.924022 0.596066
Si Si3 0.000000 0.912901 0.904966
Si Si4 0.684886 0.522346 0.343865
Si Si5 0.365342 0.817128 0.514040
Si Si6 0.830875 0.282915 0.755413
Si Si7 0.372586 0.217481 0.037562
Si Si8 0.669138 0.666380 0.727592
O O1 0.063913 0.846686 0.547916
O O2 0.000000 0.929963 0.743587
O O3 0.000000 0.000000 0.500000
O O4 0.750000 0.952625 0.750000
O O5 0.689515 0.891898 0.541084
O O6 0.809920 0.842016 0.584725
O O7 0.787455 0.000000 0.500000
O O8 0.935415 0.855347 0.940876
O O9 0.000000 0.000000 0.000000
O O10 0.702199 0.500000 0.500000
O O11 0.750000 0.524713 0.250000
O O12 0.653601 0.618441 0.313629
O O13 0.646737 0.433934 0.299739
O O14 0.360377 0.787180 0.360237
O O15 0.345281 0.732235 0.604142
O O16 0.750000 0.274562 0.750000
O O17 0.858998 0.259550 0.608524
O O18 0.370983 0.295885 0.145900
O O19 0.750000 0.667085 0.750000
#
# Coordination Sequence:
#
# PCOD9419054 Si02
#       8
#     4   8   4   8   8   8   8   8
#     4  12  28  48  66  93 130 170 218 270 329 385
#     4  12  24  39  61  90 120 160 209 271 325 372
#     4  12  28  46  68  95 125 173 223 263 326 394
#     4  10  22  34  59 100 138 166 208 267 320 381
#     4  12  22  42  65  90 130 167 214 261 319 386
#     4  11  23  39  66 102 133 167 216 262 321 381
#     4  12  24  42  66  91 130 170 213 263 323 389
#     4  11  19  39  66  92 132 170 210 261 323 379
#
# _framework density 18.642666999999999
#
# number of rings (size 3 to 8) (size 9 to 14) (size 15 to 20)
#    0.000    0.571    7.143    0.857   10.000    0.000 
#    0.000    0.000    0.000    5.143    0.000    0.000 
#    0.000    0.000    0.000    0.000    0.000    0.000 
#
# Total GULP energy -312680.918556 kJ/mol
# GULP energy per Si atom -5583.587831 kJ/mol
# Density = 1.860024 g / cm^3
# Si number density = 18.642667 Si / 1000 Ang^3
#
#
#
# Elastic Constant Matrix: (Units=GPa)
#
#
# Indices 1 2 3 4 5 6 
#
# 1 82.5036 23.1130 6.8533 0.0000 0.0000 0.0000
# 2 23.1130 93.2100 49.7118 0.0000 0.0000 0.0000
# 3 6.8533 49.7118 161.8019 0.0000 0.0000 0.0000
# 4 0.0000 0.0000 0.0000 48.5220 0.0000 0.0000
# 5 0.0000 0.0000 0.0000 0.0000 20.3986 0.0000
# 6 0.0000 0.0000 0.0000 0.0000 0.0000 -175.3363
#
#
#
# Elastic Compliance Matrix: (Units=1/GPa)
#
#
# Indices 1 2 3 4 5 6 
#
# 1 0.013063 -0.003521 0.000529 0.000000 0.000000 0.000000
# 2 -0.003521 0.013780 -0.004085 0.000000 0.000000 0.000000
# 3 0.000529 -0.004085 0.007413 0.000000 0.000000 0.000000
# 4 0.000000 0.000000 0.000000 0.020609 0.000000 0.000000
# 5 0.000000 0.000000 0.000000 0.000000 0.049023 0.000000
# 6 0.000000 0.000000 0.000000 0.000000 0.000000 -0.005703
#
#
# Mechanical properties :
#
#
# Convention : Reuss Voigt Hill
#
# Bulk Modulus (GPa) = 49.74687 55.20796 52.47741
# Shear Modulus (GPa) = 42.00267 -4.09397 18.95435
#
# Velocity S-wave (km/s) = 4.75177 -1.48351 3.19206
# Velocity P-wave (km/s) = 7.53977 5.17143 6.46497
#
# Compressibility (1/GPa) = 0.02010177
#
# Stress axis : x y z
#
# Youngs Moduli (GPa) = 76.55089 72.56876 134.89880
#
# Poissons Ratio (x) = 0.25552 -0.07130
# Poissons Ratio (y) = 0.26954 0.55101
# Poissons Ratio (z) = -0.04046 0.29642
#
# Static dielectric constant tensor:
#      x y z
#    x 1.611230 0.000000 0.000000 
#    y 0.000000 1.698200 0.000000 
#    z 0.000000 0.000000 1.566330 
# 
# From -- ./inp_files/11116.got.cif
#   From: 2010.05.17/outbox.cif.g08.bks.cpg/sg53_6_cif.got.tgz:11116.got - 2010.06.03 12:45:16.
