data_PCOD9419082
_publ_section_title
;
Structure prediction by ZEFSAII (Michael W. Deem and Ramdas Pophale) SiO2 
 PCOD9419082
Probable space group: P M N A
;
_chemical_formula_sum "Si O2"
_cell_formula_units_Z 64
_cell_length_a 10.010420
_cell_length_b 16.347649
_cell_length_c 21.301165
_cell_angle_alpha 90.000000
_cell_angle_beta 90.000000
_cell_angle_gamma 90.000000
_cell_volume 3485.868181
_symmetry_space_group_name_H-M "P M N A"
_symmetry_group_IT_number 53
_symmetry_cell_setting 'orthorhombic'
loop_
_space_group_symop_operation_xyz
x,y,z
1/2-x,-y,1/2+z
x,-y,-z
1/2-x,y,1/2-z
-x,-y,-z
1/2+x,y,1/2-z
-x,y,z
1/2+x,-y,1/2+z
loop_
_atom_site_type_symbol
_atom_site_label
_atom_site_fract_x
_atom_site_fract_y
_atom_site_fract_z
Si Si1 0.650588 0.786433 0.300950
Si Si2 0.350579 0.703225 0.436386
Si Si3 0.654076 0.961677 0.357926
Si Si4 0.655292 0.259705 0.191361
Si Si5 0.341875 0.447449 0.937283
Si Si6 0.658236 0.899634 0.890037
Si Si7 0.840636 0.549538 0.688318
Si Si8 0.151511 0.120437 0.995294
O O1 0.750000 0.752497 0.250000
O O2 0.500000 0.783293 0.276786
O O3 0.656505 0.737366 0.365589
O O4 0.681960 0.880867 0.317214
O O5 0.500000 0.669735 0.446794
O O6 0.240488 0.635162 0.444439
O O7 0.335645 0.783675 0.479024
O O8 0.500000 0.987372 0.346281
O O9 0.660485 0.928697 0.429957
O O10 0.761348 0.033021 0.349567
O O11 0.750000 0.242513 0.250000
O O12 0.500000 0.254117 0.210666
O O13 0.676587 0.190829 0.138884
O O14 0.678688 0.354055 0.171696
O O15 0.500000 0.430753 0.934012
O O16 0.306115 0.495371 0.872790
O O17 0.317837 0.500000 0.000000
O O18 0.500000 0.916815 0.893685
O O19 0.733011 0.902140 0.956711
O O20 0.750000 0.532252 0.750000
O O21 0.000000 0.538424 0.701885
O O22 0.000000 0.106386 0.020430
#
# Coordination Sequence:
#
# PCOD9419082 Si02
#       8
#     8   8   8   8   8   8   8   8
#     4   9  19  36  57  79 106 144 183 223 271 321
#     4   9  20  38  56  79 110 141 179 223 264 320
#     4   9  19  36  53  72 105 144 180 219 265 319
#     4   9  20  37  54  74 103 137 175 219 262 312
#     4  10  22  37  58  86 116 148 181 224 284 340
#     4  11  22  32  51  81 107 135 175 225 273 315
#     4   9  19  38  59  79 107 146 187 223 269 330
#     4   9  19  36  55  74 102 143 182 214 261 322
#
# _framework density 18.359845
#
# number of rings (size 3 to 8) (size 9 to 14) (size 15 to 20)
#    0.000    2.625    0.000    2.250    1.750    6.250 
#    0.000    7.500    0.000    0.000    0.000    0.000 
#    0.000    0.000    0.000    0.000    0.000    0.000 
#
# Total GULP energy -356950.468387 kJ/mol
# GULP energy per Si atom -5577.351069 kJ/mol
# Density = 1.831806 g / cm^3
# Si number density = 18.359845 Si / 1000 Ang^3
#
#
#
# Elastic Constant Matrix: (Units=GPa)
#
#
# Indices 1 2 3 4 5 6 
#
# 1 64.9404 48.6309 32.5537 0.0000 0.0000 0.0000
# 2 48.6309 79.8291 16.4327 0.0000 0.0000 0.0000
# 3 32.5537 16.4327 37.0087 0.0000 0.0000 0.0000
# 4 0.0000 0.0000 0.0000 3.3760 0.0000 0.0000
# 5 0.0000 0.0000 0.0000 0.0000 11.0862 0.0000
# 6 0.0000 0.0000 0.0000 0.0000 0.0000 48.7671
#
#
#
# Elastic Compliance Matrix: (Units=1/GPa)
#
#
# Indices 1 2 3 4 5 6 
#
# 1 0.049500 -0.023324 -0.033185 0.000000 0.000000 0.000000
# 2 -0.023324 0.024777 0.009515 0.000000 0.000000 0.000000
# 3 -0.033185 0.009515 0.051986 0.000000 0.000000 0.000000
# 4 0.000000 0.000000 0.000000 0.296209 0.000000 0.000000
# 5 0.000000 0.000000 0.000000 0.000000 0.090202 0.000000
# 6 0.000000 0.000000 0.000000 0.000000 0.000000 0.020506
#
#
# Mechanical properties :
#
#
# Convention : Reuss Voigt Hill
#
# Bulk Modulus (GPa) = 30.98395 41.89029 36.43712
# Shear Modulus (GPa) = 7.83790 18.25658 13.04724
#
# Velocity S-wave (km/s) = 2.06841 3.15679 2.66867
# Velocity P-wave (km/s) = 4.75573 6.01273 5.42079
#
# Compressibility (1/GPa) = 0.03227477
#
# Stress axis : x y z
#
# Youngs Moduli (GPa) = 20.20201 40.36046 19.23582
#
# Poissons Ratio (x) = 0.94136 0.63834
# Poissons Ratio (y) = 0.47119 -0.18302
# Poissons Ratio (z) = 0.67041 -0.38402
#
# Static dielectric constant tensor:
#      x y z
#    x 1.613820 0.000000 0.000000 
#    y 0.000000 1.638250 0.000000 
#    z 0.000000 0.000000 1.717680 
# 
# From -- ./inp_files/31139.got.cif
#   From: 2010.05.17/outbox.cif.g08.bks.cpg/sg53_16_cif.got.tgz:31139.got - 2010.06.03 12:45:16.
