data_PCOD9419048
_publ_section_title
;
Structure prediction by ZEFSAII (Michael W. Deem and Ramdas Pophale) SiO2 
 PCOD9419048
Probable space group: P M N A
;
_chemical_formula_sum "Si O2"
_cell_formula_units_Z 32
_cell_length_a 9.603313
_cell_length_b 11.287317
_cell_length_c 15.106053
_cell_angle_alpha 90.000000
_cell_angle_beta 90.000000
_cell_angle_gamma 90.000000
_cell_volume 1637.430254
_symmetry_space_group_name_H-M "P M N A"
_symmetry_group_IT_number 53
_symmetry_cell_setting 'orthorhombic'
loop_
_space_group_symop_operation_xyz
x,y,z
1/2-x,-y,1/2+z
x,-y,-z
1/2-x,y,1/2-z
-x,-y,-z
1/2+x,y,1/2-z
-x,y,z
1/2+x,-y,1/2+z
loop_
_atom_site_type_symbol
_atom_site_label
_atom_site_fract_x
_atom_site_fract_y
_atom_site_fract_z
Si Si1 0.000000 0.372942 0.544343
Si Si2 0.000000 0.908986 0.861269
Si Si3 0.780069 0.237336 0.646399
Si Si4 0.000000 0.760919 0.638473
Si Si5 0.000000 0.168029 0.934846
Si Si6 0.000000 0.965353 0.397163
Si Si7 0.250000 0.206700 0.250000
O O1 0.000000 0.500000 0.500000
O O2 0.870490 0.343598 0.606926
O O3 0.000000 0.279648 0.462659
O O4 0.857842 0.866277 0.812742
O O5 0.000000 0.049496 0.874309
O O6 0.000000 0.860710 0.961555
O O7 0.750000 0.246645 0.750000
O O8 0.638738 0.234073 0.592100
O O9 0.868057 0.116122 0.628228
O O10 0.141698 0.722458 0.687693
O O11 0.000000 0.904919 0.646101
O O12 0.000000 0.000000 0.500000
#
# Coordination Sequence:
#
# PCOD9419048 Si02
#       7
#     4   4   8   4   4   4   4
#     4  11  25  50  72  85 122 180 232 275 330 388
#     4  10  22  32  51  87 129 171 200 235 311 384
#     4  11  24  40  65 100 131 171 216 269 329 400
#     4  11  21  39  60  95 127 168 214 259 329 388
#     4  11  22  34  56  88 129 162 203 252 310 382
#     4  11  22  36  62  92 138 177 207 245 325 408
#     4  10  22  34  56  86 126 160 206 260 310 384
#
# _framework density 19.542818
#
# number of rings (size 3 to 8) (size 9 to 14) (size 15 to 20)
#    0.000    1.250    2.500    4.500   14.000    0.000 
#    2.250    0.625    0.000    0.000    0.000    0.000 
#    0.000    0.000    0.000    0.000    0.000    0.000 
#
# Total GULP energy -178715.336797 kJ/mol
# GULP energy per Si atom -5584.854275 kJ/mol
# Density = 1.949834 g / cm^3
# Si number density = 19.542818 Si / 1000 Ang^3
#
#
#
# Elastic Constant Matrix: (Units=GPa)
#
#
# Indices 1 2 3 4 5 6 
#
# 1 167.6848 30.2051 51.6783 0.0000 0.0000 0.0000
# 2 30.2051 73.5492 28.1225 0.0000 0.0000 0.0000
# 3 51.6783 28.1225 120.4052 0.0000 0.0000 0.0000
# 4 0.0000 0.0000 0.0000 22.1033 0.0000 0.0000
# 5 0.0000 0.0000 0.0000 0.0000 50.8640 0.0000
# 6 0.0000 0.0000 0.0000 0.0000 0.0000 7.8872
#
#
#
# Elastic Compliance Matrix: (Units=1/GPa)
#
#
# Indices 1 2 3 4 5 6 
#
# 1 0.007113 -0.001926 -0.002603 0.000000 0.000000 0.000000
# 2 -0.001926 0.015451 -0.002782 0.000000 0.000000 0.000000
# 3 -0.002603 -0.002782 0.010072 0.000000 0.000000 0.000000
# 4 0.000000 0.000000 0.000000 0.045242 0.000000 0.000000
# 5 0.000000 0.000000 0.000000 0.000000 0.019660 0.000000
# 6 0.000000 0.000000 0.000000 0.000000 0.000000 0.126788
#
#
# Mechanical properties :
#
#
# Convention : Reuss Voigt Hill
#
# Bulk Modulus (GPa) = 55.51234 64.62788 60.07011
# Shear Modulus (GPa) = 20.41207 32.94647 26.67927
#
# Velocity S-wave (km/s) = 3.23535 4.11038 3.69883
# Velocity P-wave (km/s) = 6.51335 7.46114 7.00330
#
# Compressibility (1/GPa) = 0.01801401
#
# Stress axis : x y z
#
# Youngs Moduli (GPa) = 140.59440 64.72050 99.28170
#
# Poissons Ratio (x) = 0.12463 0.25843
# Poissons Ratio (y) = 0.27075 0.27623
# Poissons Ratio (z) = 0.36597 0.18007
#
# Static dielectric constant tensor:
#      x y z
#    x 1.798770 0.000000 0.000000 
#    y 0.000000 1.680440 0.000000 
#    z 0.000000 0.000000 1.706420 
# 
# From -- ./inp_files/19699.got.cif
#   From: 2010.05.17/outbox.cif.g08.bks.cpg/sg53_10_cif.got.tgz:19699.got - 2010.06.03 12:45:16.
