data_PCOD9419430
_publ_section_title
;
Structure prediction by ZEFSAII (Michael W. Deem and Ramdas Pophale) SiO2 
 PCOD9419430
Probable space group: P M N A
;
_chemical_formula_sum "Si O2"
_cell_formula_units_Z 56
_cell_length_a 15.147165
_cell_length_b 9.385034
_cell_length_c 20.286451
_cell_angle_alpha 90.000000
_cell_angle_beta 90.000000
_cell_angle_gamma 90.000000
_cell_volume 2883.854088
_symmetry_space_group_name_H-M "P M N A"
_symmetry_group_IT_number 53
_symmetry_cell_setting 'orthorhombic'
loop_
_space_group_symop_operation_xyz
x,y,z
1/2-x,-y,1/2+z
x,-y,-z
1/2-x,y,1/2-z
-x,-y,-z
1/2+x,y,1/2-z
-x,y,z
1/2+x,-y,1/2+z
loop_
_atom_site_type_symbol
_atom_site_label
_atom_site_fract_x
_atom_site_fract_y
_atom_site_fract_z
Si Si1 0.719345 0.892406 0.057694
Si Si2 0.847300 0.152328 0.231242
Si Si3 0.602121 0.948491 0.379158
Si Si4 0.354843 0.261096 0.739941
Si Si5 0.396386 0.449081 0.206857
Si Si6 0.893359 0.596542 0.433948
Si Si7 0.409686 0.955669 0.161118
O O1 0.824892 0.898569 0.067712
O O2 0.668882 0.738521 0.057527
O O3 0.677897 0.971062 0.120479
O O4 0.695060 0.000000 0.000000
O O5 0.750000 0.099742 0.250000
O O6 0.853401 0.312335 0.258379
O O7 0.872358 0.098271 0.157926
O O8 0.909891 0.065847 0.280016
O O9 0.500000 0.954067 0.400609
O O10 0.613479 0.828785 0.322131
O O11 0.250000 0.245057 0.750000
O O12 0.379237 0.424678 0.741407
O O13 0.402605 0.196065 0.803712
O O14 0.500000 0.418943 0.200339
O O15 0.368418 0.507318 0.133407
O O16 0.882148 0.500000 0.500000
O O17 0.000000 0.629938 0.429818
O O18 0.500000 0.968146 0.121255
#
# Coordination Sequence:
#
# PCOD9419430 Si02
#       7
#     8   8   8   8   8   8   8
#     4  12  25  41  62  86 118 162 214 257 296 357
#     4  11  21  36  58  90 125 159 192 243 307 361
#     4  11  22  41  63  87 121 158 201 253 306 355
#     4  11  18  35  60  87 117 157 194 242 300 364
#     4  11  21  34  55  89 124 156 197 241 296 367
#     4  10  23  41  60  88 129 169 202 245 306 370
#     4  11  20  36  58  85 119 151 191 244 300 359
#
# _framework density 19.418458000000001
#
# number of rings (size 3 to 8) (size 9 to 14) (size 15 to 20)
#    0.000    1.000    4.286    5.143    2.000    1.429 
#    0.000    0.000    0.000    0.429    0.000    0.000 
#    0.000    0.000    0.000    0.000    0.000    0.000 
#
# Total GULP energy -311833.266123 kJ/mol
# GULP energy per Si atom -5568.451181 kJ/mol
# Density = 1.937426 g / cm^3
# Si number density = 19.418458 Si / 1000 Ang^3
#
#
#
# Elastic Constant Matrix: (Units=GPa)
#
#
# Indices 1 2 3 4 5 6 
#
# 1 132.8932 20.8222 4.8244 0.0000 0.0000 0.0000
# 2 20.8222 113.3481 40.5339 0.0000 0.0000 0.0000
# 3 4.8244 40.5339 41.2998 0.0000 0.0000 0.0000
# 4 0.0000 0.0000 0.0000 21.5457 0.0000 0.0000
# 5 0.0000 0.0000 0.0000 0.0000 20.3219 0.0000
# 6 0.0000 0.0000 0.0000 0.0000 0.0000 17.3522
#
#
#
# Elastic Compliance Matrix: (Units=1/GPa)
#
#
# Indices 1 2 3 4 5 6 
#
# 1 0.007763 -0.001698 0.000759 0.000000 0.000000 0.000000
# 2 -0.001698 0.013965 -0.013507 0.000000 0.000000 0.000000
# 3 0.000759 -0.013507 0.037381 0.000000 0.000000 0.000000
# 4 0.000000 0.000000 0.000000 0.046413 0.000000 0.000000
# 5 0.000000 0.000000 0.000000 0.000000 0.049208 0.000000
# 6 0.000000 0.000000 0.000000 0.000000 0.000000 0.057630
#
#
# Mechanical properties :
#
#
# Convention : Reuss Voigt Hill
#
# Bulk Modulus (GPa) = 33.09300 46.65581 39.87440
# Shear Modulus (GPa) = 19.89466 26.60130 23.24798
#
# Velocity S-wave (km/s) = 3.20429 3.70523 3.46383
# Velocity P-wave (km/s) = 5.54698 6.51027 6.04784
#
# Compressibility (1/GPa) = 0.03021787
#
# Stress axis : x y z
#
# Youngs Moduli (GPa) = 128.81169 71.61007 26.75136
#
# Poissons Ratio (x) = 0.12157 -0.02031
# Poissons Ratio (y) = 0.21868 0.36134
# Poissons Ratio (z) = -0.09781 0.96726
#
# Static dielectric constant tensor:
#      x y z
#    x 1.588340 0.000000 0.000000 
#    y 0.000000 1.738380 0.000000 
#    z 0.000000 0.000000 1.773580 
# 
# From -- ./inp_files/32410.got.cif
#   From: 2010.05.17/outbox.cif.g08.bks.cpg/sg53_17_cif.got.tgz:32410.got - 2010.06.03 12:45:16.
