data_PCOD9419372
_publ_section_title
;
Structure prediction by ZEFSAII (Michael W. Deem and Ramdas Pophale) SiO2 
 PCOD9419372
Probable space group: P M N A
;
_chemical_formula_sum "Si O2"
_cell_formula_units_Z 60
_cell_length_a 18.935108
_cell_length_b 14.509817
_cell_length_c 11.702109
_cell_angle_alpha 90.000000
_cell_angle_beta 90.000000
_cell_angle_gamma 90.000000
_cell_volume 3215.095375
_symmetry_space_group_name_H-M "P M N A"
_symmetry_group_IT_number 53
_symmetry_cell_setting 'orthorhombic'
loop_
_space_group_symop_operation_xyz
x,y,z
1/2-x,-y,1/2+z
x,-y,-z
1/2-x,y,1/2-z
-x,-y,-z
1/2+x,y,1/2-z
-x,y,z
1/2+x,-y,1/2+z
loop_
_atom_site_type_symbol
_atom_site_label
_atom_site_fract_x
_atom_site_fract_y
_atom_site_fract_z
Si Si1 0.202020 0.305428 0.990396
Si Si2 0.361089 0.680292 0.098971
Si Si3 0.125585 0.500000 0.000000
Si Si4 0.417494 0.996696 0.637481
Si Si5 0.919025 0.684610 0.643784
Si Si6 0.667728 0.174754 0.719063
Si Si7 0.826852 0.821166 0.789485
Si Si8 0.418938 0.484921 0.757521
O O1 0.283420 0.319113 0.956611
O O2 0.170007 0.406214 0.008258
O O3 0.168491 0.247568 0.885661
O O4 0.188463 0.245195 0.102890
O O5 0.366369 0.772272 0.174137
O O6 0.372147 0.593775 0.183323
O O7 0.413541 0.678399 0.992547
O O8 0.085338 0.488615 0.879776
O O9 0.500000 0.997347 0.671837
O O10 0.377630 0.904743 0.677043
O O11 0.414871 0.000000 0.500000
O O12 0.375412 0.084543 0.685704
O O13 0.866238 0.760681 0.693553
O O14 0.898595 0.585087 0.694708
O O15 0.000000 0.703794 0.679090
O O16 0.750000 0.154552 0.750000
O O17 0.750000 0.855608 0.750000
O O18 0.500000 0.466978 0.791227
#
# Coordination Sequence:
#
# PCOD9419372 Si02
#       8
#     8   8   4   8   8   8   8   8
#     4  11  23  40  65  93 130 166 220 267 318 368
#     4  11  23  41  63  93 126 172 218 263 317 381
#     4  12  23  40  62  98 131 166 218 274 308 376
#     4  11  24  42  68  99 127 161 208 266 329 388
#     4  11  24  41  61  91 132 175 218 260 314 386
#     4  10  22  44  66  94 127 166 214 269 318 380
#     4  12  23  43  68  95 126 169 212 267 322 385
#     4  11  24  40  60  89 131 178 218 260 320 380
#
# _framework density 18.661966
#
# number of rings (size 3 to 8) (size 9 to 14) (size 15 to 20)
#    0.000    0.933    5.333    1.800    1.867    2.133 
#    0.000    0.667    0.000    1.600    0.000    0.000 
#    0.000    0.000    0.000    0.000    0.000    0.000 
#
# Total GULP energy -335190.546033 kJ/mol
# GULP energy per Si atom -5586.509101 kJ/mol
# Density = 1.861949 g / cm^3
# Si number density = 18.661966 Si / 1000 Ang^3
#
#
#
# Elastic Constant Matrix: (Units=GPa)
#
#
# Indices 1 2 3 4 5 6 
#
# 1 85.1900 73.6561 35.0405 0.0000 0.0000 0.0000
# 2 73.6561 132.8290 43.2873 0.0000 0.0000 0.0000
# 3 35.0405 43.2873 103.2729 0.0000 0.0000 0.0000
# 4 0.0000 0.0000 0.0000 30.8557 0.0000 0.0000
# 5 0.0000 0.0000 0.0000 0.0000 32.1188 0.0000
# 6 0.0000 0.0000 0.0000 0.0000 0.0000 24.8304
#
#
#
# Elastic Compliance Matrix: (Units=1/GPa)
#
#
# Indices 1 2 3 4 5 6 
#
# 1 0.023267 -0.011963 -0.002880 0.000000 0.000000 0.000000
# 2 -0.011963 0.014871 -0.002174 0.000000 0.000000 0.000000
# 3 -0.002880 -0.002174 0.011571 0.000000 0.000000 0.000000
# 4 0.000000 0.000000 0.000000 0.032409 0.000000 0.000000
# 5 0.000000 0.000000 0.000000 0.000000 0.031134 0.000000
# 6 0.000000 0.000000 0.000000 0.000000 0.000000 0.040273
#
#
# Mechanical properties :
#
#
# Convention : Reuss Voigt Hill
#
# Bulk Modulus (GPa) = 63.79781 69.47329 66.63555
# Shear Modulus (GPa) = 25.93569 28.84818 27.39194
#
# Velocity S-wave (km/s) = 3.73200 3.93597 3.83534
# Velocity P-wave (km/s) = 7.26847 7.61340 7.44293
#
# Compressibility (1/GPa) = 0.01567452
#
# Stress axis : x y z
#
# Youngs Moduli (GPa) = 42.98018 67.24597 86.41927
#
# Poissons Ratio (x) = 0.80448 0.24888
# Poissons Ratio (y) = 0.51418 0.18788
# Poissons Ratio (z) = 0.12378 0.14620
#
# Static dielectric constant tensor:
#      x y z
#    x 1.640050 0.000000 0.000000 
#    y 0.000000 1.605820 0.000000 
#    z 0.000000 0.000000 1.645010 
# 
# From -- ./inp_files/17047.got.cif
#   From: 2010.05.17/outbox.cif.g08.bks.cpg/sg53_9_cif.got.tgz:17047.got - 2010.06.03 12:45:16.
