data_PCOD9419330
_publ_section_title
;
Structure prediction by ZEFSAII (Michael W. Deem and Ramdas Pophale) SiO2 
 PCOD9419330
Probable space group: P M N A
;
_chemical_formula_sum "Si O2"
_cell_formula_units_Z 58
_cell_length_a 28.596062
_cell_length_b 9.932487
_cell_length_c 10.758304
_cell_angle_alpha 90.000000
_cell_angle_beta 90.000000
_cell_angle_gamma 90.000000
_cell_volume 3055.681236
_symmetry_space_group_name_H-M "P M N A"
_symmetry_group_IT_number 53
_symmetry_cell_setting 'orthorhombic'
loop_
_space_group_symop_operation_xyz
x,y,z
1/2-x,-y,1/2+z
x,-y,-z
1/2-x,y,1/2-z
-x,-y,-z
1/2+x,y,1/2-z
-x,y,z
1/2+x,-y,1/2+z
loop_
_atom_site_type_symbol
_atom_site_label
_atom_site_fract_x
_atom_site_fract_y
_atom_site_fract_z
Si Si1 0.790618 0.291689 0.430123
Si Si2 0.804052 0.023539 0.289579
Si Si3 0.551289 0.682485 0.695919
Si Si4 0.126316 0.525137 0.644856
Si Si5 0.821160 0.716327 0.293080
Si Si6 0.000000 0.500000 0.000000
Si Si7 0.692041 0.344714 0.519241
Si Si8 0.124334 0.871730 0.915507
O O1 0.802008 0.136899 0.396772
O O2 0.825282 0.387056 0.351349
O O3 0.800445 0.326859 0.573822
O O4 0.735010 0.313583 0.424667
O O5 0.750000 0.001994 0.250000
O O6 0.835800 0.085574 0.181882
O O7 0.825743 0.876217 0.310235
O O8 0.500000 0.713879 0.750734
O O9 0.585592 0.608326 0.790858
O O10 0.539881 0.583729 0.580681
O O11 0.578474 0.813822 0.649347
O O12 0.115754 0.500000 0.500000
O O13 0.134107 0.382147 0.712217
O O14 0.795144 0.687977 0.163154
O O15 0.680485 0.500000 0.500000
O O16 0.648643 0.248382 0.491688
O O17 0.114179 0.000000 0.000000
#
# Coordination Sequence:
#
# PCOD9419330 Si02
#       8
#     8   8   8   8   8   2   8   8
#     4  11  23  40  57  89 131 177 221 261 308 374
#     4  12  23  39  61  88 135 181 219 256 310 385
#     4  10  23  44  71  92 125 156 209 281 350 398
#     4  10  22  42  66  97 128 168 223 267 325 393
#     4  11  24  36  59  90 130 174 221 263 307 373
#     4   8  24  40  72 100 116 148 206 274 354 406
#     4  12  24  37  61  90 134 179 223 270 310 376
#     4  12  25  41  63  96 128 172 220 267 331 398
#
# _framework density 18.981038000000002
#
# number of rings (size 3 to 8) (size 9 to 14) (size 15 to 20)
#    0.414    0.552    4.138    3.724    2.897    0.552 
#    0.000    0.000    0.000    0.000    0.000    1.931 
#    0.000    0.000    0.000    0.000    0.000    0.000 
#
# Total GULP energy -322995.092418 kJ/mol
# GULP energy per Si atom -5568.880904 kJ/mol
# Density = 1.893784 g / cm^3
# Si number density = 18.981038 Si / 1000 Ang^3
#
#
#
# Elastic Constant Matrix: (Units=GPa)
#
#
# Indices 1 2 3 4 5 6 
#
# 1 114.5246 62.4038 40.2629 0.0000 0.0000 0.0000
# 2 62.4038 159.8713 40.4531 0.0000 0.0000 0.0000
# 3 40.2629 40.4531 58.6023 0.0000 0.0000 0.0000
# 4 0.0000 0.0000 0.0000 34.7453 0.0000 0.0000
# 5 0.0000 0.0000 0.0000 0.0000 15.6979 0.0000
# 6 0.0000 0.0000 0.0000 0.0000 0.0000 1.6473
#
#
#
# Elastic Compliance Matrix: (Units=1/GPa)
#
#
# Indices 1 2 3 4 5 6 
#
# 1 0.012856 -0.003372 -0.006505 0.000000 0.000000 0.000000
# 2 -0.003372 0.008463 -0.003525 0.000000 0.000000 0.000000
# 3 -0.006505 -0.003525 0.023967 0.000000 0.000000 0.000000
# 4 0.000000 0.000000 0.000000 0.028781 0.000000 0.000000
# 5 0.000000 0.000000 0.000000 0.000000 0.063703 0.000000
# 6 0.000000 0.000000 0.000000 0.000000 0.000000 0.607047
#
#
# Mechanical properties :
#
#
# Convention : Reuss Voigt Hill
#
# Bulk Modulus (GPa) = 54.10860 68.80418 61.45639
# Shear Modulus (GPa) = 6.42853 23.07666 14.75259
#
# Velocity S-wave (km/s) = 1.84233 3.49058 2.79091
# Velocity P-wave (km/s) = 5.75275 7.25073 6.54474
#
# Compressibility (1/GPa) = 0.01848135
#
# Stress axis : x y z
#
# Youngs Moduli (GPa) = 77.78336 118.15596 41.72399
#
# Poissons Ratio (x) = 0.39845 0.27142
# Poissons Ratio (y) = 0.26231 0.14709
# Poissons Ratio (z) = 0.50598 0.41654
#
# Static dielectric constant tensor:
#      x y z
#    x 1.671060 0.000000 0.000000 
#    y 0.000000 1.670820 0.000000 
#    z 0.000000 0.000000 1.702360 
# 
# From -- ./inp_files/18800.got.cif
#   From: 2010.05.17/outbox.cif.g08.bks.cpg/sg53_10_cif.got.tgz:18800.got - 2010.06.03 12:45:16.
