data_PCOD9419579
_publ_section_title
;
Structure prediction by ZEFSAII (Michael W. Deem and Ramdas Pophale) SiO2 
 PCOD9419579
Probable space group: P M N A
;
_chemical_formula_sum "Si O2"
_cell_formula_units_Z 20
_cell_length_a 31.223705
_cell_length_b 4.906333
_cell_length_c 5.219118
_cell_angle_alpha 90.000000
_cell_angle_beta 90.000000
_cell_angle_gamma 90.000000
_cell_volume 799.537011
_symmetry_space_group_name_H-M "P M N A"
_symmetry_group_IT_number 53
_symmetry_cell_setting 'orthorhombic'
loop_
_space_group_symop_operation_xyz
x,y,z
1/2-x,-y,1/2+z
x,-y,-z
1/2-x,y,1/2-z
-x,-y,-z
1/2+x,y,1/2-z
-x,y,z
1/2+x,-y,1/2+z
loop_
_atom_site_type_symbol
_atom_site_label
_atom_site_fract_x
_atom_site_fract_y
_atom_site_fract_z
Si Si1 0.500000 0.809503 0.246719
Si Si2 0.202604 0.311409 0.747252
Si Si3 0.572690 0.500000 0.500000
Si Si4 0.367943 0.000000 0.500000
O O1 0.541526 0.619413 0.281515
O O2 0.500000 0.000000 0.500000
O O3 0.500000 0.000000 0.000000
O O4 0.198573 0.500000 0.500000
O O5 0.250000 0.180741 0.750000
O O6 0.164000 0.103298 0.780044
O O7 0.200673 0.500000 0.000000
O O8 0.602393 0.250258 0.415267
#
# Coordination Sequence:
#
# PCOD9419579 Si02
#       4
#     4   8   4   4
#     4  11  26  56  85 113 160 205 257 324 407 489
#     4  10  24  48  77 110 158 219 271 324 393 461
#     4  11  26  52  82 126 152 210 260 332 402 479
#     4  12  24  53  76 122 164 204 270 335 388 470
#
# _framework density 25.014476999999999
#
# number of rings (size 3 to 8) (size 9 to 14) (size 15 to 20)
#    0.000    1.200    4.000    0.000    0.000    9.600 
#   14.400    0.000    0.000    0.000    0.000    0.000 
#    0.000    0.000    0.000    0.000    0.000    0.000 
#
# Total GULP energy -112209.665960 kJ/mol
# GULP energy per Si atom -5610.483298 kJ/mol
# Density = 2.495754 g / cm^3
# Si number density = 25.014477 Si / 1000 Ang^3
#
#
#
# Elastic Constant Matrix: (Units=GPa)
#
#
# Indices 1 2 3 4 5 6 
#
# 1 242.2740 125.0989 65.3076 0.0000 0.0000 0.0000
# 2 125.0989 184.2399 81.2430 0.0000 0.0000 0.0000
# 3 65.3076 81.2430 200.7535 0.0000 0.0000 0.0000
# 4 0.0000 0.0000 0.0000 57.3894 0.0000 0.0000
# 5 0.0000 0.0000 0.0000 0.0000 -14.7009 0.0000
# 6 0.0000 0.0000 0.0000 0.0000 0.0000 663.3358
#
#
#
# Elastic Compliance Matrix: (Units=1/GPa)
#
#
# Indices 1 2 3 4 5 6 
#
# 1 0.006381 -0.004160 -0.000392 0.000000 0.000000 0.000000
# 2 -0.004160 0.009318 -0.002418 0.000000 0.000000 0.000000
# 3 -0.000392 -0.002418 0.006087 0.000000 0.000000 0.000000
# 4 0.000000 0.000000 0.000000 0.017425 0.000000 0.000000
# 5 0.000000 0.000000 0.000000 0.000000 -0.068023 0.000000
# 6 0.000000 0.000000 0.000000 0.000000 0.000000 0.001508
#
#
# Mechanical properties :
#
#
# Convention : Reuss Voigt Hill
#
# Bulk Modulus (GPa) = 127.44010 130.06293 128.75152
# Shear Modulus (GPa) = -465.22108 164.91270 -150.15419
#
# Velocity S-wave (km/s) = -13.65227 8.12835 -7.75611
# Velocity P-wave (km/s) = 14.05189 11.84066 5.35043
#
# Compressibility (1/GPa) = 0.00784682
#
# Stress axis : x y z
#
# Youngs Moduli (GPa) = 156.70803 107.31455 164.27434
#
# Poissons Ratio (x) = 0.44641 0.06447
# Poissons Ratio (y) = 0.65188 0.39719
# Poissons Ratio (z) = 0.06150 0.25947
#
# Static dielectric constant tensor:
#      x y z
#    x 1.993280 0.000000 0.000000 
#    y 0.000000 2.091870 0.000000 
#    z 0.000000 0.000000 1.955010 
# 
# From -- ./inp_files/4795.got.cif
#   From: 2010.05.17/outbox.cif.g08.bks.cpg/sg53_3_cif.got.tgz:4795.got - 2010.06.03 12:45:16.
