data_PCOD9419133
_publ_section_title
;
Structure prediction by ZEFSAII (Michael W. Deem and Ramdas Pophale) SiO2 
 PCOD9419133
Probable space group: P M N A
;
_chemical_formula_sum "Si O2"
_cell_formula_units_Z 56
_cell_length_a 8.913926
_cell_length_b 19.412326
_cell_length_c 17.309605
_cell_angle_alpha 90.000000
_cell_angle_beta 90.000000
_cell_angle_gamma 90.000000
_cell_volume 2995.254697
_symmetry_space_group_name_H-M "P M N A"
_symmetry_group_IT_number 53
_symmetry_cell_setting 'orthorhombic'
loop_
_space_group_symop_operation_xyz
x,y,z
1/2-x,-y,1/2+z
x,-y,-z
1/2-x,y,1/2-z
-x,-y,-z
1/2+x,y,1/2-z
-x,y,z
1/2+x,-y,1/2+z
loop_
_atom_site_type_symbol
_atom_site_label
_atom_site_fract_x
_atom_site_fract_y
_atom_site_fract_z
Si Si1 0.677553 0.853317 0.331438
Si Si2 0.319154 0.465324 0.419339
Si Si3 0.178220 0.413924 0.670392
Si Si4 0.824068 0.789866 0.573367
Si Si5 0.674820 0.274271 0.903846
Si Si6 0.680821 0.921078 0.017697
Si Si7 0.679492 0.328190 0.333800
O O1 0.750000 0.873222 0.250000
O O2 0.500000 0.860182 0.328120
O O3 0.724012 0.774769 0.351355
O O4 0.744142 0.896531 0.402946
O O5 0.266633 0.500000 0.500000
O O6 0.500000 0.466922 0.420135
O O7 0.256258 0.515755 0.354033
O O8 0.274039 0.387853 0.395373
O O9 0.250000 0.389335 0.750000
O O10 0.208929 0.354139 0.608158
O O11 0.000000 0.423021 0.677523
O O12 0.809005 0.749752 0.491764
O O13 0.776021 0.867513 0.550593
O O14 0.733348 0.745975 0.635310
O O15 0.000000 0.790589 0.594900
O O16 0.500000 0.263140 0.881683
O O17 0.500000 0.914287 0.026136
O O18 0.716901 0.000000 0.000000
O O19 0.750000 0.342526 0.250000
O O20 0.500000 0.329683 0.327789
#
# Coordination Sequence:
#
# PCOD9419133 Si02
#       7
#     8   8   8   8   8   8   8
#     4  11  21  33  53  81 113 148 186 226 269 323
#     4  10  22  39  57  78 105 138 180 231 285 337
#     4  11  22  34  51  76 106 140 177 219 268 321
#     4   9  18  35  59  84 109 138 176 220 267 324
#     4   9  19  35  54  79 110 143 179 219 268 326
#     4   9  19  38  62  86 115 148 180 221 276 334
#     4  11  23  38  57  80 109 147 190 236 284 335
#
# _framework density 18.69624
#
# number of rings (size 3 to 8) (size 9 to 14) (size 15 to 20)
#    0.000    2.000    0.000    4.714    0.000    7.429 
#    0.000    0.714    0.000    0.000    0.000    0.000 
#    0.000    0.000    0.000    0.000    0.000    0.000 
#
# Total GULP energy -312563.063232 kJ/mol
# GULP energy per Si atom -5581.483272 kJ/mol
# Density = 1.865369 g / cm^3
# Si number density = 18.696240 Si / 1000 Ang^3
#
#
#
# Elastic Constant Matrix: (Units=GPa)
#
#
# Indices 1 2 3 4 5 6 
#
# 1 29.0841 32.3965 31.8170 0.0000 0.0000 0.0000
# 2 32.3965 123.5242 34.8139 0.0000 0.0000 0.0000
# 3 31.8170 34.8139 69.6840 0.0000 0.0000 0.0000
# 4 0.0000 0.0000 0.0000 18.6720 0.0000 0.0000
# 5 0.0000 0.0000 0.0000 0.0000 27.3969 0.0000
# 6 0.0000 0.0000 0.0000 0.0000 0.0000 19.5971
#
#
#
# Elastic Compliance Matrix: (Units=1/GPa)
#
#
# Indices 1 2 3 4 5 6 
#
# 1 0.083394 -0.012966 -0.031599 0.000000 0.000000 0.000000
# 2 -0.012966 0.011438 0.000206 0.000000 0.000000 0.000000
# 3 -0.031599 0.000206 0.028676 0.000000 0.000000 0.000000
# 4 0.000000 0.000000 0.000000 0.053556 0.000000 0.000000
# 5 0.000000 0.000000 0.000000 0.000000 0.036501 0.000000
# 6 0.000000 0.000000 0.000000 0.000000 0.000000 0.051028
#
#
# Mechanical properties :
#
#
# Convention : Reuss Voigt Hill
#
# Bulk Modulus (GPa) = 28.74472 46.70523 37.72498
# Shear Modulus (GPa) = 13.70212 21.35085 17.52648
#
# Velocity S-wave (km/s) = 2.71011 3.38300 3.06508
# Velocity P-wave (km/s) = 5.02005 6.34782 5.72258
#
# Compressibility (1/GPa) = 0.03478899
#
# Stress axis : x y z
#
# Youngs Moduli (GPa) = 11.99131 87.42689 34.87276
#
# Poissons Ratio (x) = 1.13355 1.10195
# Poissons Ratio (y) = 0.15548 -0.00717
# Poissons Ratio (z) = 0.37892 -0.01797
#
# Static dielectric constant tensor:
#      x y z
#    x 1.623070 0.000000 0.000000 
#    y 0.000000 1.658570 0.000000 
#    z 0.000000 0.000000 1.651800 
# 
# From -- ./inp_files/20548.got.cif
#   From: 2010.05.17/outbox.cif.g08.bks.cpg/sg53_11_cif.got.tgz:20548.got - 2010.06.03 12:45:16.
