data_PCOD9419699
_publ_section_title
;
Structure prediction by ZEFSAII (Michael W. Deem and Ramdas Pophale) SiO2 
 PCOD9419699
Probable space group: P M N A
;
_chemical_formula_sum "Si O2"
_cell_formula_units_Z 56
_cell_length_a 8.444002
_cell_length_b 19.554922
_cell_length_c 17.483590
_cell_angle_alpha 90.000000
_cell_angle_beta 90.000000
_cell_angle_gamma 90.000000
_cell_volume 2886.921860
_symmetry_space_group_name_H-M "P M N A"
_symmetry_group_IT_number 53
_symmetry_cell_setting 'orthorhombic'
loop_
_space_group_symop_operation_xyz
x,y,z
1/2-x,-y,1/2+z
x,-y,-z
1/2-x,y,1/2-z
-x,-y,-z
1/2+x,y,1/2-z
-x,y,z
1/2+x,-y,1/2+z
loop_
_atom_site_type_symbol
_atom_site_label
_atom_site_fract_x
_atom_site_fract_y
_atom_site_fract_z
Si Si1 0.689290 0.167346 0.665357
Si Si2 0.313408 0.644926 0.832878
Si Si3 0.191235 0.576906 0.987498
Si Si4 0.810138 0.777012 0.906043
Si Si5 0.308278 0.710157 0.431727
Si Si6 0.187248 0.039304 0.576025
Si Si7 0.310318 0.083518 0.332873
O O1 0.750000 0.150306 0.750000
O O2 0.500000 0.168420 0.667670
O O3 0.748325 0.242375 0.637669
O O4 0.738371 0.110636 0.602757
O O5 0.250000 0.624170 0.750000
O O6 0.500000 0.635600 0.835683
O O7 0.236517 0.604458 0.903740
O O8 0.271074 0.724345 0.848254
O O9 0.000000 0.576016 0.991774
O O10 0.250000 0.500000 0.000000
O O11 0.248035 0.633167 0.049978
O O12 0.768151 0.855138 0.890454
O O13 0.000000 0.770263 0.896239
O O14 0.770802 0.752122 0.990980
O O15 0.500000 0.706707 0.425758
O O16 0.000000 0.049404 0.566458
O O17 0.249630 0.000000 0.500000
O O18 0.224484 0.985664 0.643143
O O19 0.250000 0.105071 0.250000
O O20 0.500000 0.073851 0.333324
#
# Coordination Sequence:
#
# PCOD9419699 Si02
#       7
#     8   8   8   8   8   8   8
#     4  11  22  38  59  81 110 146 188 235 282 334
#     4  11  21  33  52  79 112 147 183 223 269 324
#     4   9  18  36  61  85 112 146 183 225 276 333
#     4   9  18  34  55  79 106 138 179 221 265 322
#     4   8  16  33  57  82 106 138 179 218 263 323
#     4  11  24  40  57  78 105 137 180 232 283 335
#     4  11  22  35  53  77 107 141 176 217 267 321
#
# _framework density 19.397822999999999
#
# number of rings (size 3 to 8) (size 9 to 14) (size 15 to 20)
#    0.000    2.000    0.000    5.143    0.000    4.857 
#    0.000    7.857    0.000    1.714    0.000    0.000 
#    0.000    0.000    0.000    0.000    0.000    0.000 
#
# Total GULP energy -312527.465431 kJ/mol
# GULP energy per Si atom -5580.847597 kJ/mol
# Density = 1.935367 g / cm^3
# Si number density = 19.397823 Si / 1000 Ang^3
#
#
#
# Elastic Constant Matrix: (Units=GPa)
#
#
# Indices 1 2 3 4 5 6 
#
# 1 23.2175 15.4419 9.0741 0.0000 0.0000 0.0000
# 2 15.4419 130.5150 32.8760 0.0000 0.0000 0.0000
# 3 9.0741 32.8760 66.4000 0.0000 0.0000 0.0000
# 4 0.0000 0.0000 0.0000 17.8095 0.0000 0.0000
# 5 0.0000 0.0000 0.0000 0.0000 18.1996 0.0000
# 6 0.0000 0.0000 0.0000 0.0000 0.0000 10.7468
#
#
#
# Elastic Compliance Matrix: (Units=1/GPa)
#
#
# Indices 1 2 3 4 5 6 
#
# 1 0.047783 -0.004580 -0.004262 0.000000 0.000000 0.000000
# 2 -0.004580 0.009193 -0.003926 0.000000 0.000000 0.000000
# 3 -0.004262 -0.003926 0.017586 0.000000 0.000000 0.000000
# 4 0.000000 0.000000 0.000000 0.056150 0.000000 0.000000
# 5 0.000000 0.000000 0.000000 0.000000 0.054946 0.000000
# 6 0.000000 0.000000 0.000000 0.000000 0.000000 0.093051
#
#
# Mechanical properties :
#
#
# Convention : Reuss Voigt Hill
#
# Bulk Modulus (GPa) = 20.39722 37.21295 28.80508
# Shear Modulus (GPa) = 15.59645 20.20056 17.89850
#
# Velocity S-wave (km/s) = 2.83862 3.23055 3.04090
# Velocity P-wave (km/s) = 4.61321 5.75682 5.21645
#
# Compressibility (1/GPa) = 0.04902629
#
# Stress axis : x y z
#
# Youngs Moduli (GPa) = 20.92805 108.78256 56.86219
#
# Poissons Ratio (x) = 0.49820 0.24237
# Poissons Ratio (y) = 0.09585 0.22322
# Poissons Ratio (z) = 0.08920 0.42704
#
# Static dielectric constant tensor:
#      x y z
#    x 1.654890 0.000000 0.000000 
#    y 0.000000 1.699080 0.000000 
#    z 0.000000 0.000000 1.748110 
# 
# From -- ./inp_files/20452.got.cif
#   From: 2010.05.17/outbox.cif.g08.bks.cpg/sg53_11_cif.got.tgz:20452.got - 2010.06.03 12:45:16.
