data_PCOD9419704
_publ_section_title
;
Structure prediction by ZEFSAII (Michael W. Deem and Ramdas Pophale) SiO2 
 PCOD9419704
Probable space group: P M N A
;
_chemical_formula_sum "Si O2"
_cell_formula_units_Z 40
_cell_length_a 8.521802
_cell_length_b 13.089680
_cell_length_c 21.582377
_cell_angle_alpha 90.000000
_cell_angle_beta 90.000000
_cell_angle_gamma 90.000000
_cell_volume 2407.463678
_symmetry_space_group_name_H-M "P M N A"
_symmetry_group_IT_number 53
_symmetry_cell_setting 'orthorhombic'
loop_
_space_group_symop_operation_xyz
x,y,z
1/2-x,-y,1/2+z
x,-y,-z
1/2-x,y,1/2-z
-x,-y,-z
1/2+x,y,1/2-z
-x,y,z
1/2+x,-y,1/2+z
loop_
_atom_site_type_symbol
_atom_site_label
_atom_site_fract_x
_atom_site_fract_y
_atom_site_fract_z
Si Si1 0.688922 0.140852 0.052245
Si Si2 0.188618 0.641512 0.949362
Si Si3 0.189745 0.579320 0.088463
Si Si4 0.812176 0.252528 0.680519
Si Si5 0.308943 0.079101 0.913015
O O1 0.500000 0.143044 0.052955
O O2 0.750200 0.250088 0.073609
O O3 0.740557 0.039456 0.089237
O O4 0.738243 0.122284 0.980540
O O5 0.237964 0.539804 0.912426
O O6 0.000000 0.643033 0.949149
O O7 0.237837 0.624348 0.021178
O O8 0.258710 0.647748 0.142650
O O9 0.000000 0.583224 0.091278
O O10 0.750000 0.252084 0.750000
O O11 0.754706 0.154084 0.641060
O O12 0.000000 0.249740 0.681650
O O13 0.500000 0.079510 0.912596
#
# Coordination Sequence:
#
# PCOD9419704 Si02
#       5
#     8   8   8   8   8
#     4   9  15  28  49  71  96 125 157 198 241 288
#     4   9  17  29  47  72 102 128 153 197 249 286
#     4   9  18  32  47  68 100 132 160 195 241 288
#     4  11  21  34  51  71  96 129 165 200 236 283
#     4   8  16  29  46  69  97 126 158 196 240 283
#
# _framework density 16.614996999999999
#
# number of rings (size 3 to 8) (size 9 to 14) (size 15 to 20)
#    0.000    2.800    2.000    3.000    0.000    0.800 
#    0.000    6.000    0.000    1.200    0.000    5.600 
#    0.000    0.000    0.000    0.000    0.000    0.000 
#
# Total GULP energy -222847.055761 kJ/mol
# GULP energy per Si atom -5571.176394 kJ/mol
# Density = 1.657718 g / cm^3
# Si number density = 16.614997 Si / 1000 Ang^3
#
#
#
# Elastic Constant Matrix: (Units=GPa)
#
#
# Indices 1 2 3 4 5 6 
#
# 1 14.6161 27.3508 21.2036 0.0000 0.0000 0.0000
# 2 27.3508 190.1358 74.8635 0.0000 0.0000 0.0000
# 3 21.2036 74.8635 97.9952 0.0000 0.0000 0.0000
# 4 0.0000 0.0000 0.0000 19.0663 0.0000 0.0000
# 5 0.0000 0.0000 0.0000 0.0000 79.8079 0.0000
# 6 0.0000 0.0000 0.0000 0.0000 0.0000 44.6372
#
#
#
# Elastic Compliance Matrix: (Units=1/GPa)
#
#
# Indices 1 2 3 4 5 6 
#
# 1 0.109978 -0.009226 -0.016748 0.000000 0.000000 0.000000
# 2 -0.009226 0.008296 -0.004341 0.000000 0.000000 0.000000
# 3 -0.016748 -0.004341 0.017145 0.000000 0.000000 0.000000
# 4 0.000000 0.000000 0.000000 0.052449 0.000000 0.000000
# 5 0.000000 0.000000 0.000000 0.000000 0.012530 0.000000
# 6 0.000000 0.000000 0.000000 0.000000 0.000000 0.022403
#
#
# Mechanical properties :
#
#
# Convention : Reuss Voigt Hill
#
# Bulk Modulus (GPa) = 13.37109 61.06476 37.21792
# Shear Modulus (GPa) = 16.21473 40.65757 28.43615
#
# Velocity S-wave (km/s) = 3.12734 4.95212 4.14149
# Velocity P-wave (km/s) = 4.59407 8.33850 6.73187
#
# Compressibility (1/GPa) = 0.07478824
#
# Stress axis : x y z
#
# Youngs Moduli (GPa) = 9.09269 120.54156 58.32558
#
# Poissons Ratio (x) = 1.11209 0.97686
# Poissons Ratio (y) = 0.08389 0.25322
# Poissons Ratio (z) = 0.15229 0.52332
#
# Static dielectric constant tensor:
#      x y z
#    x 1.568560 0.000000 0.000000 
#    y 0.000000 1.587870 0.000000 
#    z 0.000000 0.000000 1.527810 
# 
# From -- ./inp_files/30344.got.cif
#   From: 2010.05.17/outbox.cif.g08.bks.cpg/sg53_16_cif.got.tgz:30344.got - 2010.06.03 12:45:16.
