data_PCOD9419277
_publ_section_title
;
Structure prediction by ZEFSAII (Michael W. Deem and Ramdas Pophale) SiO2 
 PCOD9419277
Probable space group: P M N A
;
_chemical_formula_sum "Si O2"
_cell_formula_units_Z 28
_cell_length_a 9.230354
_cell_length_b 8.118928
_cell_length_c 17.411264
_cell_angle_alpha 90.000000
_cell_angle_beta 90.000000
_cell_angle_gamma 90.000000
_cell_volume 1304.810215
_symmetry_space_group_name_H-M "P M N A"
_symmetry_group_IT_number 53
_symmetry_cell_setting 'orthorhombic'
loop_
_space_group_symop_operation_xyz
x,y,z
1/2-x,-y,1/2+z
x,-y,-z
1/2-x,y,1/2-z
-x,-y,-z
1/2+x,y,1/2-z
-x,y,z
1/2+x,-y,1/2+z
loop_
_atom_site_type_symbol
_atom_site_label
_atom_site_fract_x
_atom_site_fract_y
_atom_site_fract_z
Si Si1 0.326028 0.733090 0.464484
Si Si2 0.832553 0.582560 0.599808
Si Si3 0.160100 0.079427 0.820665
Si Si4 0.250000 0.754365 0.750000
O O1 0.500000 0.730921 0.480248
O O2 0.272941 0.571804 0.416808
O O3 0.231740 0.719775 0.541515
O O4 0.289214 0.881893 0.406538
O O5 0.826082 0.644097 0.686732
O O6 0.000000 0.543947 0.581998
O O7 0.250000 0.154202 0.750000
O O8 0.000000 0.149767 0.816804
O O9 0.158054 0.886303 0.799703
#
# Coordination Sequence:
#
# PCOD9419277 Si02
#       4
#     8   8   8   4
#     4  10  22  41  64  89 121 158 201 248 301 357
#     4  11  23  40  63  91 121 158 202 249 297 355
#     4   9  21  40  60  86 118 157 198 241 297 356
#     4  10  24  40  58  90 122 156 198 250 296 354
#
# _framework density 21.459057999999999
#
# number of rings (size 3 to 8) (size 9 to 14) (size 15 to 20)
#    0.857    1.143    0.000    4.286    2.000    8.000 
#    0.000    4.286    0.000    0.000    0.000    0.000 
#    0.000    0.000    0.000    0.000    0.000    0.000 
#
# Total GULP energy -155897.035063 kJ/mol
# GULP energy per Si atom -5567.751252 kJ/mol
# Density = 2.141022 g / cm^3
# Si number density = 21.459058 Si / 1000 Ang^3
#
#
#
# Elastic Constant Matrix: (Units=GPa)
#
#
# Indices 1 2 3 4 5 6 
#
# 1 61.1233 -1.1793 5.0226 0.0000 0.0000 0.0000
# 2 -1.1793 44.1703 29.3519 0.0000 0.0000 0.0000
# 3 5.0226 29.3519 109.3250 0.0000 0.0000 0.0000
# 4 0.0000 0.0000 0.0000 40.5975 0.0000 0.0000
# 5 0.0000 0.0000 0.0000 0.0000 25.7398 0.0000
# 6 0.0000 0.0000 0.0000 0.0000 0.0000 -27.5035
#
#
#
# Elastic Compliance Matrix: (Units=1/GPa)
#
#
# Indices 1 2 3 4 5 6 
#
# 1 0.016470 0.001147 -0.001065 0.000000 0.000000 0.000000
# 2 0.001147 0.027636 -0.007472 0.000000 0.000000 0.000000
# 3 -0.001065 -0.007472 0.011202 0.000000 0.000000 0.000000
# 4 0.000000 0.000000 0.000000 0.024632 0.000000 0.000000
# 5 0.000000 0.000000 0.000000 0.000000 0.038850 0.000000
# 6 0.000000 0.000000 0.000000 0.000000 0.000000 -0.036359
#
#
# Mechanical properties :
#
#
# Convention : Reuss Voigt Hill
#
# Bulk Modulus (GPa) = 24.67419 31.22324 27.94871
# Shear Modulus (GPa) = 45.15873 19.86166 32.51019
#
# Velocity S-wave (km/s) = 4.59237 3.04560 3.89651
# Velocity P-wave (km/s) = 6.29627 5.19127 5.77028
#
# Compressibility (1/GPa) = 0.04052818
#
# Stress axis : x y z
#
# Youngs Moduli (GPa) = 60.71649 36.18491 89.26832
#
# Poissons Ratio (x) = -0.04151 0.09504
# Poissons Ratio (y) = -0.06966 0.66705
# Poissons Ratio (z) = 0.06464 0.27039
#
# Static dielectric constant tensor:
#      x y z
#    x 1.735660 0.000000 0.000000 
#    y 0.000000 1.833520 0.000000 
#    z 0.000000 0.000000 1.828310 
# 
# From -- ./inp_files/25610.got.cif
#   From: 2010.05.17/outbox.cif.g08.bks.cpg/sg53_13_cif.got.tgz:25610.got - 2010.06.03 12:45:16.
