data_PCOD9419546
_publ_section_title
;
Structure prediction by ZEFSAII (Michael W. Deem and Ramdas Pophale) SiO2 
 PCOD9419546
Probable space group: P M N A
;
_chemical_formula_sum "Si O2"
_cell_formula_units_Z 34
_cell_length_a 10.429516
_cell_length_b 7.389116
_cell_length_c 19.586259
_cell_angle_alpha 90.000000
_cell_angle_beta 90.000000
_cell_angle_gamma 90.000000
_cell_volume 1509.413161
_symmetry_space_group_name_H-M "P M N A"
_symmetry_group_IT_number 53
_symmetry_cell_setting 'orthorhombic'
loop_
_space_group_symop_operation_xyz
x,y,z
1/2-x,-y,1/2+z
x,-y,-z
1/2-x,y,1/2-z
-x,-y,-z
1/2+x,y,1/2-z
-x,y,z
1/2+x,-y,1/2+z
loop_
_atom_site_type_symbol
_atom_site_label
_atom_site_fract_x
_atom_site_fract_y
_atom_site_fract_z
Si Si1 0.500000 0.217805 0.466217
Si Si2 0.738192 0.512142 0.173227
Si Si3 0.500000 0.000000 0.000000
Si Si4 0.000000 0.608089 0.107325
Si Si5 0.214773 0.832433 0.578037
Si Si6 0.139511 0.106368 0.695833
O O1 0.500000 0.243288 0.547932
O O2 0.500000 0.416745 0.432224
O O3 0.363327 0.139378 0.442331
O O4 0.750000 0.433666 0.250000
O O5 0.873246 0.604629 0.152615
O O6 0.706821 0.357072 0.119029
O O7 0.643937 0.682001 0.177067
O O8 0.385260 0.150589 0.016575
O O9 0.165303 0.987158 0.629380
O O10 0.250000 0.070619 0.750000
O O11 0.000000 0.058175 0.724026
#
# Coordination Sequence:
#
# PCOD9419546 Si02
#       6
#     4   8   2   4   8   8
#     4   9  22  42  75  97 133 191 226 294 336 417
#     4  10  24  43  74  99 139 182 227 294 353 413
#     4  12  28  44  64 104 142 182 242 276 348 438
#     4   9  20  42  67 108 132 169 251 276 342 427
#     4  11  25  48  68 103 140 185 238 284 353 418
#     4  11  26  44  68 105 140 182 236 293 348 417
#
# _framework density 22.525312
#
# number of rings (size 3 to 8) (size 9 to 14) (size 15 to 20)
#    0.000    1.647    1.176    0.706   13.176    0.471 
#    4.235    1.176    0.000    0.000    0.000    0.000 
#    0.000    0.000    0.000    0.000    0.000    0.000 
#
# Total GULP energy -189544.497053 kJ/mol
# GULP energy per Si atom -5574.838149 kJ/mol
# Density = 2.247404 g / cm^3
# Si number density = 22.525312 Si / 1000 Ang^3
#
#
#
# Elastic Constant Matrix: (Units=GPa)
#
#
# Indices 1 2 3 4 5 6 
#
# 1 210.1231 10.8348 34.5621 0.0000 0.0000 0.0000
# 2 10.8348 50.6439 -6.4548 0.0000 0.0000 0.0000
# 3 34.5621 -6.4548 52.3465 0.0000 0.0000 0.0000
# 4 0.0000 0.0000 0.0000 26.5676 0.0000 0.0000
# 5 0.0000 0.0000 0.0000 0.0000 -54.8549 0.0000
# 6 0.0000 0.0000 0.0000 0.0000 0.0000 12.2772
#
#
#
# Elastic Compliance Matrix: (Units=1/GPa)
#
#
# Indices 1 2 3 4 5 6 
#
# 1 0.005473 -0.001657 -0.003818 0.000000 0.000000 0.000000
# 2 -0.001657 0.020563 0.003630 0.000000 0.000000 0.000000
# 3 -0.003818 0.003630 0.022072 0.000000 0.000000 0.000000
# 4 0.000000 0.000000 0.000000 0.037640 0.000000 0.000000
# 5 0.000000 0.000000 0.000000 0.000000 -0.018230 0.000000
# 6 0.000000 0.000000 0.000000 0.000000 0.000000 0.081452
#
#
# Mechanical properties :
#
#
# Convention : Reuss Voigt Hill
#
# Bulk Modulus (GPa) = 22.51391 43.44418 32.97904
# Shear Modulus (GPa) = 29.85699 15.07607 22.46653
#
# Velocity S-wave (km/s) = 3.64467 2.58988 3.16157
# Velocity P-wave (km/s) = 5.26575 5.31714 5.29151
#
# Compressibility (1/GPa) = 0.04441699
#
# Stress axis : x y z
#
# Youngs Moduli (GPa) = 182.73115 48.63113 45.30685
#
# Poissons Ratio (x) = 0.08060 0.17297
# Poissons Ratio (y) = 0.30285 -0.16446
# Poissons Ratio (z) = 0.69760 -0.17653
#
# Static dielectric constant tensor:
#      x y z
#    x 1.869570 0.000000 0.000000 
#    y 0.000000 1.816590 0.000000 
#    z 0.000000 0.000000 1.988720 
# 
# From -- ./inp_files/30180.got.cif
#   From: 2010.05.17/outbox.cif.g08.bks.cpg/sg53_16_cif.got.tgz:30180.got - 2010.06.03 12:45:16.
