data_PCOD9419020
_publ_section_title
;
Structure prediction by ZEFSAII (Michael W. Deem and Ramdas Pophale) SiO2 
 PCOD9419020
Probable space group: P M N A
;
_chemical_formula_sum "Si O2"
_cell_formula_units_Z 36
_cell_length_a 21.978785
_cell_length_b 13.393037
_cell_length_c 4.884774
_cell_angle_alpha 90.000000
_cell_angle_beta 90.000000
_cell_angle_gamma 90.000000
_cell_volume 1437.895169
_symmetry_space_group_name_H-M "P M N A"
_symmetry_group_IT_number 53
_symmetry_cell_setting 'orthorhombic'
loop_
_space_group_symop_operation_xyz
x,y,z
1/2-x,-y,1/2+z
x,-y,-z
1/2-x,y,1/2-z
-x,-y,-z
1/2+x,y,1/2-z
-x,y,z
1/2+x,-y,1/2+z
loop_
_atom_site_type_symbol
_atom_site_label
_atom_site_fract_x
_atom_site_fract_y
_atom_site_fract_z
Si Si1 0.184445 0.594646 0.648224
Si Si2 0.674647 0.935700 0.242449
Si Si3 0.250000 0.751985 0.250000
Si Si4 0.434570 0.185573 0.867719
Si Si5 0.567942 0.675408 0.634770
O O1 0.155049 0.500000 0.500000
O O2 0.250000 0.556934 0.750000
O O3 0.209037 0.685098 0.453434
O O4 0.134418 0.623674 0.877298
O O5 0.705255 0.835681 0.374670
O O6 0.618661 0.889862 0.077259
O O7 0.655442 0.000000 0.500000
O O8 0.708689 0.000000 0.000000
O O9 0.500000 0.138303 0.914485
O O10 0.431167 0.229465 0.563220
O O11 0.431070 0.283231 0.057025
O O12 0.500000 0.627358 0.590715
#
# Coordination Sequence:
#
# PCOD9419020 Si02
#       5
#     8   8   4   8   8
#     4  12  26  44  73 105 138 184 238 290 362 422
#     4  12  26  42  66  99 134 183 233 279 352 414
#     4  12  26  46  64  94 140 182 218 306 336 428
#     4  10  21  42  69  99 137 182 228 284 348 412
#     4  10  22  43  72 102 140 188 230 283 356 420
#
# _framework density 25.036593
#
# number of rings (size 3 to 8) (size 9 to 14) (size 15 to 20)
#    0.000    0.889    3.333    3.333    3.111    1.333 
#    0.000    0.000    0.000    4.667    0.000    0.000 
#    0.000    0.000    0.000    0.000    0.000    0.000 
#
# Total GULP energy -200721.162613 kJ/mol
# GULP energy per Si atom -5575.587850 kJ/mol
# Density = 2.497961 g / cm^3
# Si number density = 25.036593 Si / 1000 Ang^3
#
#
#
# Elastic Constant Matrix: (Units=GPa)
#
#
# Indices 1 2 3 4 5 6 
#
# 1 123.1112 -1.8312 -1.3365 0.0000 0.0000 0.0000
# 2 -1.8312 92.9199 20.2891 0.0000 0.0000 0.0000
# 3 -1.3365 20.2891 56.6993 0.0000 0.0000 0.0000
# 4 0.0000 0.0000 0.0000 35.7458 0.0000 0.0000
# 5 0.0000 0.0000 0.0000 0.0000 144.7555 0.0000
# 6 0.0000 0.0000 0.0000 0.0000 0.0000 -22.4915
#
#
#
# Elastic Compliance Matrix: (Units=1/GPa)
#
#
# Indices 1 2 3 4 5 6 
#
# 1 0.008126 0.000128 0.000146 0.000000 0.000000 0.000000
# 2 0.000128 0.011676 -0.004175 0.000000 0.000000 0.000000
# 3 0.000146 -0.004175 0.019134 0.000000 0.000000 0.000000
# 4 0.000000 0.000000 0.000000 0.027975 0.000000 0.000000
# 5 0.000000 0.000000 0.000000 0.000000 0.006908 0.000000
# 6 0.000000 0.000000 0.000000 0.000000 0.000000 -0.044461
#
#
# Mechanical properties :
#
#
# Convention : Reuss Voigt Hill
#
# Bulk Modulus (GPa) = 32.11879 34.10811 33.11345
# Shear Modulus (GPa) = 105.17587 48.64257 76.90922
#
# Velocity S-wave (km/s) = 6.48846 4.41257 5.54846
# Velocity P-wave (km/s) = 8.30602 6.29396 7.36899
#
# Compressibility (1/GPa) = 0.03113442
#
# Stress axis : x y z
#
# Youngs Moduli (GPa) = 123.05831 85.64482 52.26205
#
# Poissons Ratio (x) = -0.01099 -0.00761
# Poissons Ratio (y) = -0.01579 0.21820
# Poissons Ratio (z) = -0.01792 0.35758
#
# Static dielectric constant tensor:
#      x y z
#    x 2.145830 0.000000 0.000000 
#    y 0.000000 1.944230 0.000000 
#    z 0.000000 0.000000 2.013390 
# 
# From -- ./inp_files/3497.got.cif
#   From: 2010.05.17/outbox.cif.g08.bks.cpg/sg53_2_cif.got.tgz:3497.got - 2010.06.03 12:45:16.
