data_PCOD9419112
_publ_section_title
;
Structure prediction by ZEFSAII (Michael W. Deem and Ramdas Pophale) SiO2 
 PCOD9419112
Probable space group: P M N A
;
_chemical_formula_sum "Si O2"
_cell_formula_units_Z 58
_cell_length_a 26.261565
_cell_length_b 9.600543
_cell_length_c 11.630802
_cell_angle_alpha 90.000000
_cell_angle_beta 90.000000
_cell_angle_gamma 90.000000
_cell_volume 2932.419258
_symmetry_space_group_name_H-M "P M N A"
_symmetry_group_IT_number 53
_symmetry_cell_setting 'orthorhombic'
loop_
_space_group_symop_operation_xyz
x,y,z
1/2-x,-y,1/2+z
x,-y,-z
1/2-x,y,1/2-z
-x,-y,-z
1/2+x,y,1/2-z
-x,y,z
1/2+x,-y,1/2+z
loop_
_atom_site_type_symbol
_atom_site_label
_atom_site_fract_x
_atom_site_fract_y
_atom_site_fract_z
Si Si1 0.059975 0.874141 0.090921
Si Si2 0.406711 0.880256 0.149159
Si Si3 0.798344 0.112679 0.094979
Si Si4 0.742350 0.423114 0.625368
Si Si5 0.678924 0.103238 0.138443
Si Si6 0.645141 0.343135 0.533493
Si Si7 0.153715 0.661378 0.464818
Si Si8 0.500000 0.000000 0.000000
O O1 0.079213 0.909355 0.218784
O O2 0.095133 0.745464 0.054594
O O3 0.000000 0.840273 0.094731
O O4 0.066119 0.000000 0.000000
O O5 0.357472 0.972390 0.115145
O O6 0.389643 0.723745 0.117382
O O7 0.455194 0.922920 0.075548
O O8 0.737238 0.103026 0.095956
O O9 0.816634 0.095105 0.224206
O O10 0.821537 0.260904 0.060477
O O11 0.816193 0.000000 0.000000
O O12 0.739602 0.500000 0.500000
O O13 0.750000 0.497547 0.750000
O O14 0.687386 0.349812 0.634874
O O15 0.791925 0.329155 0.601778
O O16 0.655921 0.242280 0.079468
O O17 0.631862 0.500000 0.500000
O O18 0.146653 0.500000 0.500000
#
# Coordination Sequence:
#
# PCOD9419112 Si02
#       8
#     8   8   8   8   8   8   8   2
#     4  11  25  46  72  98 126 174 231 286 338 388
#     4  12  23  46  69  96 131 169 221 282 332 399
#     4  11  23  40  61  99 133 178 220 270 329 407
#     4  10  22  38  60  92 133 179 215 257 325 404
#     4  11  23  39  67  93 137 174 219 271 334 397
#     4  11  23  40  63  95 138 175 221 271 334 398
#     4  11  23  41  66  99 136 174 218 267 334 409
#     4  12  24  40  76  88 122 170 226 262 352 374
#
# _framework density 19.778891000000002
#
# number of rings (size 3 to 8) (size 9 to 14) (size 15 to 20)
#    0.000    0.966    3.448    3.724    0.000    5.793 
#    0.000    0.345    0.000    0.000    0.000    0.000 
#    0.000    0.000    0.000    0.000    0.000    0.000 
#
# Total GULP energy -322888.443866 kJ/mol
# GULP energy per Si atom -5567.042136 kJ/mol
# Density = 1.973387 g / cm^3
# Si number density = 19.778891 Si / 1000 Ang^3
#
#
#
# Elastic Constant Matrix: (Units=GPa)
#
#
# Indices 1 2 3 4 5 6 
#
# 1 155.0515 60.6296 41.3681 0.0000 0.0000 0.0000
# 2 60.6296 117.3899 47.2562 0.0000 0.0000 0.0000
# 3 41.3681 47.2562 125.7183 0.0000 0.0000 0.0000
# 4 0.0000 0.0000 0.0000 22.0923 0.0000 0.0000
# 5 0.0000 0.0000 0.0000 0.0000 28.1395 0.0000
# 6 0.0000 0.0000 0.0000 0.0000 0.0000 28.2333
#
#
#
# Elastic Compliance Matrix: (Units=1/GPa)
#
#
# Indices 1 2 3 4 5 6 
#
# 1 0.008262 -0.003738 -0.001313 0.000000 0.000000 0.000000
# 2 -0.003738 0.011729 -0.003179 0.000000 0.000000 0.000000
# 3 -0.001313 -0.003179 0.009581 0.000000 0.000000 0.000000
# 4 0.000000 0.000000 0.000000 0.045265 0.000000 0.000000
# 5 0.000000 0.000000 0.000000 0.000000 0.035537 0.000000
# 6 0.000000 0.000000 0.000000 0.000000 0.000000 0.035419
#
#
# Mechanical properties :
#
#
# Convention : Reuss Voigt Hill
#
# Bulk Modulus (GPa) = 76.27034 77.40750 76.83892
# Shear Modulus (GPa) = 30.00767 32.28674 31.14720
#
# Velocity S-wave (km/s) = 3.89929 4.04466 3.97264
# Velocity P-wave (km/s) = 7.67580 7.81241 7.74440
#
# Compressibility (1/GPa) = 0.01311126
#
# Stress axis : x y z
#
# Youngs Moduli (GPa) = 121.04113 85.25881 104.36995
#
# Poissons Ratio (x) = 0.31872 0.13707
# Poissons Ratio (y) = 0.45249 0.33176
# Poissons Ratio (z) = 0.15897 0.27101
#
# Static dielectric constant tensor:
#      x y z
#    x 1.694890 0.000000 0.000000 
#    y 0.000000 1.885890 0.000000 
#    z 0.000000 0.000000 1.481640 
# 
# From -- ./inp_files/18796.got.cif
#   From: 2010.05.17/outbox.cif.g08.bks.cpg/sg53_10_cif.got.tgz:18796.got - 2010.06.03 12:45:16.
