data_PCOD9419536
_publ_section_title
;
Structure prediction by ZEFSAII (Michael W. Deem and Ramdas Pophale) SiO2 
 PCOD9419536
Probable space group: P M N A
;
_chemical_formula_sum "Si O2"
_cell_formula_units_Z 30
_cell_length_a 8.993384
_cell_length_b 4.831103
_cell_length_c 26.493997
_cell_angle_alpha 90.000000
_cell_angle_beta 90.000000
_cell_angle_gamma 90.000000
_cell_volume 1151.110239
_symmetry_space_group_name_H-M "P M N A"
_symmetry_group_IT_number 53
_symmetry_cell_setting 'orthorhombic'
loop_
_space_group_symop_operation_xyz
x,y,z
1/2-x,-y,1/2+z
x,-y,-z
1/2-x,y,1/2-z
-x,-y,-z
1/2+x,y,1/2-z
-x,y,z
1/2+x,-y,1/2+z
loop_
_atom_site_type_symbol
_atom_site_label
_atom_site_fract_x
_atom_site_fract_y
_atom_site_fract_z
Si Si1 0.500000 0.302752 0.614289
Si Si2 0.000000 0.197545 0.183530
Si Si3 0.500000 0.138830 0.119345
Si Si4 0.750000 0.075882 0.750000
Si Si5 0.500000 0.363518 0.814873
Si Si6 0.245373 0.610529 0.948736
Si Si7 0.500000 0.000000 0.500000
O O1 0.500000 0.489133 0.664769
O O2 0.355063 0.384483 0.581605
O O3 0.500000 0.990794 0.633267
O O4 0.855756 0.111256 0.215101
O O5 0.500000 0.314971 0.171401
O O6 0.357118 0.238036 0.088622
O O7 0.500000 0.817074 0.133500
O O8 0.643882 0.266805 0.784132
O O9 0.126827 0.819542 0.971144
O O10 0.321908 0.500000 0.000000
#
# Coordination Sequence:
#
# PCOD9419536 Si02
#       7
#     4   4   4   4   4   8   2
#     4  11  24  41  67  95 134 170 235 274 341 401
#     4  11  24  41  65  97 126 178 212 292 331 418
#     4  12  27  46  72 105 148 180 238 291 359 407
#     4  10  24  44  70  96 140 172 234 270 362 414
#     4  11  26  46  70 107 138 190 224 296 346 432
#     4  11  26  43  69 101 139 190 233 295 343 423
#     4  10  24  42  68  94 132 186 236 278 348 402
#
# _framework density 26.061796000000001
#
# number of rings (size 3 to 8) (size 9 to 14) (size 15 to 20)
#    0.000    1.067    0.000    5.200   11.200    6.933 
#    0.000    0.000    0.000    0.000    0.000    0.000 
#    0.000    0.000    0.000    0.000    0.000    0.000 
#
# Total GULP energy -168122.709099 kJ/mol
# GULP energy per Si atom -5604.090303 kJ/mol
# Density = 2.600248 g / cm^3
# Si number density = 26.061796 Si / 1000 Ang^3
#
#
#
# Elastic Constant Matrix: (Units=GPa)
#
#
# Indices 1 2 3 4 5 6 
#
# 1 147.3122 6.3323 37.8233 0.0000 0.0000 0.0000
# 2 6.3323 76.0919 10.0116 0.0000 0.0000 0.0000
# 3 37.8233 10.0116 109.7846 0.0000 0.0000 0.0000
# 4 0.0000 0.0000 0.0000 49.7906 0.0000 0.0000
# 5 0.0000 0.0000 0.0000 0.0000 102.7653 0.0000
# 6 0.0000 0.0000 0.0000 0.0000 0.0000 7.6057
#
#
#
# Elastic Compliance Matrix: (Units=1/GPa)
#
#
# Indices 1 2 3 4 5 6 
#
# 1 0.007453 -0.000286 -0.002542 0.000000 0.000000 0.000000
# 2 -0.000286 0.013313 -0.001116 0.000000 0.000000 0.000000
# 3 -0.002542 -0.001116 0.010086 0.000000 0.000000 0.000000
# 4 0.000000 0.000000 0.000000 0.020084 0.000000 0.000000
# 5 0.000000 0.000000 0.000000 0.000000 0.009731 0.000000
# 6 0.000000 0.000000 0.000000 0.000000 0.000000 0.131481
#
#
# Mechanical properties :
#
#
# Convention : Reuss Voigt Hill
#
# Bulk Modulus (GPa) = 43.54317 49.05813 46.30065
# Shear Modulus (GPa) = 24.07440 50.63375 37.35408
#
# Velocity S-wave (km/s) = 3.04261 4.41254 3.78999
# Velocity P-wave (km/s) = 5.39326 6.69517 6.07917
#
# Compressibility (1/GPa) = 0.02296571
#
# Stress axis : x y z
#
# Youngs Moduli (GPa) = 134.17068 75.11704 99.14582
#
# Poissons Ratio (x) = 0.02147 0.25200
# Poissons Ratio (y) = 0.03835 0.11060
# Poissons Ratio (z) = 0.34103 0.08380
#
# Static dielectric constant tensor:
#      x y z
#    x 1.943450 0.000000 0.000000 
#    y 0.000000 2.006590 0.000000 
#    z 0.000000 0.000000 2.091160 
# 
# From -- ./inp_files/37445.got.cif
#   From: 2010.05.17/outbox.cif.g08.bks.cpg/sg53_19_cif.got.tgz:37445.got - 2010.06.03 12:45:16.
