data_PCOD9419375
_publ_section_title
;
Structure prediction by ZEFSAII (Michael W. Deem and Ramdas Pophale) SiO2 
 PCOD9419375
Probable space group: P M N A
;
_chemical_formula_sum "Si O2"
_cell_formula_units_Z 28
_cell_length_a 21.090853
_cell_length_b 4.910420
_cell_length_c 10.618417
_cell_angle_alpha 90.000000
_cell_angle_beta 90.000000
_cell_angle_gamma 90.000000
_cell_volume 1099.695787
_symmetry_space_group_name_H-M "P M N A"
_symmetry_group_IT_number 53
_symmetry_cell_setting 'orthorhombic'
loop_
_space_group_symop_operation_xyz
x,y,z
1/2-x,-y,1/2+z
x,-y,-z
1/2-x,y,1/2-z
-x,-y,-z
1/2+x,y,1/2-z
-x,y,z
1/2+x,-y,1/2+z
loop_
_atom_site_type_symbol
_atom_site_label
_atom_site_fract_x
_atom_site_fract_y
_atom_site_fract_z
Si Si1 0.572899 0.790826 0.895734
Si Si2 0.286533 0.078825 0.369617
Si Si3 0.108092 0.274958 0.757445
Si Si4 0.384117 0.500000 0.500000
O O1 0.500000 0.736181 0.929781
O O2 0.604353 0.508551 0.850079
O O3 0.574830 0.997553 0.780464
O O4 0.601067 0.000000 0.000000
O O5 0.250000 0.204537 0.250000
O O6 0.339194 0.279270 0.428881
O O7 0.250038 0.000000 0.500000
O O8 0.321945 0.823521 0.302251
O O9 0.077395 0.380710 0.885174
#
# Coordination Sequence:
#
# PCOD9419375 Si02
#       4
#     8   8   8   4
#     4  11  24  44  70 101 137 179 229 288 348 413
#     4  10  23  44  71 100 140 185 232 290 348 421
#     4  11  22  44  69  97 140 179 220 285 346 410
#     4  10  22  44  69  94 146 174 227 288 350 402
#
# _framework density 25.461587000000002
#
# number of rings (size 3 to 8) (size 9 to 14) (size 15 to 20)
#    0.000    1.429    2.857    1.714    0.000    8.000 
#    5.143    4.286    0.000    0.000    0.000    0.000 
#    0.000    0.000    0.000    0.000    0.000    0.000 
#
# Total GULP energy -156089.945499 kJ/mol
# GULP energy per Si atom -5574.640911 kJ/mol
# Density = 2.540364 g / cm^3
# Si number density = 25.461587 Si / 1000 Ang^3
#
#
#
# Elastic Constant Matrix: (Units=GPa)
#
#
# Indices 1 2 3 4 5 6 
#
# 1 77.7545 33.1216 37.6130 0.0000 0.0000 0.0000
# 2 33.1216 199.5481 64.5946 0.0000 0.0000 0.0000
# 3 37.6130 64.5946 133.8519 0.0000 0.0000 0.0000
# 4 0.0000 0.0000 0.0000 72.7505 0.0000 0.0000
# 5 0.0000 0.0000 0.0000 0.0000 15.5739 0.0000
# 6 0.0000 0.0000 0.0000 0.0000 0.0000 10.9467
#
#
#
# Elastic Compliance Matrix: (Units=1/GPa)
#
#
# Indices 1 2 3 4 5 6 
#
# 1 0.015185 -0.001350 -0.003616 0.000000 0.000000 0.000000
# 2 -0.001350 0.006059 -0.002545 0.000000 0.000000 0.000000
# 3 -0.003616 -0.002545 0.009715 0.000000 0.000000 0.000000
# 4 0.000000 0.000000 0.000000 0.013746 0.000000 0.000000
# 5 0.000000 0.000000 0.000000 0.000000 0.064210 0.000000
# 6 0.000000 0.000000 0.000000 0.000000 0.000000 0.091352
#
#
# Mechanical properties :
#
#
# Convention : Reuss Voigt Hill
#
# Bulk Modulus (GPa) = 62.74088 75.75698 69.24893
# Shear Modulus (GPa) = 22.66547 38.24258 30.45402
#
# Velocity S-wave (km/s) = 2.98683 3.87973 3.46219
# Velocity P-wave (km/s) = 6.04895 7.06313 6.57562
#
# Compressibility (1/GPa) = 0.01593857
#
# Stress axis : x y z
#
# Youngs Moduli (GPa) = 65.85404 165.04018 102.93432
#
# Poissons Ratio (x) = 0.22282 0.37216
# Poissons Ratio (y) = 0.08891 0.26193
# Poissons Ratio (z) = 0.23810 0.41997
#
# Static dielectric constant tensor:
#      x y z
#    x 2.083900 0.000000 0.000000 
#    y 0.000000 2.077480 0.000000 
#    z 0.000000 0.000000 2.181230 
# 
# From -- ./inp_files/17390.got.cif
#   From: 2010.05.17/outbox.cif.g08.bks.cpg/sg53_9_cif.got.tgz:17390.got - 2010.06.03 12:45:16.
