data_PCOD9419135
_publ_section_title
;
Structure prediction by ZEFSAII (Michael W. Deem and Ramdas Pophale) SiO2 
 PCOD9419135
Probable space group: P M N A
;
_chemical_formula_sum "Si O2"
_cell_formula_units_Z 56
_cell_length_a 14.374258
_cell_length_b 23.754167
_cell_length_c 9.210937
_cell_angle_alpha 90.000000
_cell_angle_beta 90.000000
_cell_angle_gamma 90.000000
_cell_volume 3145.060853
_symmetry_space_group_name_H-M "P M N A"
_symmetry_group_IT_number 53
_symmetry_cell_setting 'orthorhombic'
loop_
_space_group_symop_operation_xyz
x,y,z
1/2-x,-y,1/2+z
x,-y,-z
1/2-x,y,1/2-z
-x,-y,-z
1/2+x,y,1/2-z
-x,y,z
1/2+x,-y,1/2+z
loop_
_atom_site_type_symbol
_atom_site_label
_atom_site_fract_x
_atom_site_fract_y
_atom_site_fract_z
Si Si1 0.892162 0.650522 0.570283
Si Si2 0.500000 0.917554 0.100469
Si Si3 0.500000 0.039624 0.229997
Si Si4 0.311255 0.951418 0.615567
Si Si5 0.390820 0.337869 0.416662
Si Si6 0.740646 0.559408 0.577344
Si Si7 0.260384 0.735534 0.078798
Si Si8 0.204097 0.133015 0.593926
O O1 0.880232 0.664788 0.741597
O O2 0.831978 0.595217 0.534948
O O3 0.848187 0.701291 0.480982
O O4 0.000000 0.641986 0.541232
O O5 0.404612 0.882508 0.111888
O O6 0.500000 0.971017 0.211807
O O7 0.500000 0.940579 0.935918
O O8 0.410152 0.062445 0.313971
O O9 0.250000 0.972840 0.750000
O O10 0.253585 0.903526 0.531641
O O11 0.326667 0.000000 0.500000
O O12 0.500000 0.334366 0.452130
O O13 0.345002 0.398287 0.455434
O O14 0.328737 0.290099 0.493922
O O15 0.732612 0.500000 0.500000
O O16 0.750000 0.550708 0.750000
O O17 0.250000 0.725098 0.250000
O O18 0.277146 0.801723 0.058707
O O19 0.250000 0.120609 0.750000
#
# Coordination Sequence:
#
# PCOD9419135 Si02
#       8
#     8   4   4   8   8   8   8   8
#     4   9  19  37  61  80 109 158 199 240 292 349
#     4  11  22  44  64  88 122 156 195 238 299 360
#     4  11  23  40  64  92 118 158 194 238 292 360
#     4  12  23  39  63  90 120 154 197 239 293 352
#     4   9  19  39  60  82 113 156 199 239 289 347
#     4   9  18  32  52  82 119 151 191 240 290 348
#     4  10  22  39  57  86 116 149 190 241 299 341
#     4  11  25  43  62  88 121 158 193 247 297 354
#
# _framework density 17.805696999999999
#
# number of rings (size 3 to 8) (size 9 to 14) (size 15 to 20)
#    0.000    1.857    1.429    3.643    1.000    5.143 
#    5.143    0.000    0.000    0.000    0.000    0.000 
#    0.000    0.000    0.000    0.000    0.000    0.000 
#
# Total GULP energy -312484.652884 kJ/mol
# GULP energy per Si atom -5580.083087 kJ/mol
# Density = 1.776517 g / cm^3
# Si number density = 17.805697 Si / 1000 Ang^3
#
#
#
# Elastic Constant Matrix: (Units=GPa)
#
#
# Indices 1 2 3 4 5 6 
#
# 1 141.0002 49.7611 30.8749 0.0000 0.0000 0.0000
# 2 49.7611 97.6615 37.0612 0.0000 0.0000 0.0000
# 3 30.8749 37.0612 49.2872 0.0000 0.0000 0.0000
# 4 0.0000 0.0000 0.0000 25.9543 0.0000 0.0000
# 5 0.0000 0.0000 0.0000 0.0000 24.8512 0.0000
# 6 0.0000 0.0000 0.0000 0.0000 0.0000 8.4052
#
#
#
# Elastic Compliance Matrix: (Units=1/GPa)
#
#
# Indices 1 2 3 4 5 6 
#
# 1 0.008964 -0.003409 -0.003052 0.000000 0.000000 0.000000
# 2 -0.003409 0.015625 -0.009613 0.000000 0.000000 0.000000
# 3 -0.003052 -0.009613 0.029429 0.000000 0.000000 0.000000
# 4 0.000000 0.000000 0.000000 0.038529 0.000000 0.000000
# 5 0.000000 0.000000 0.000000 0.000000 0.040239 0.000000
# 6 0.000000 0.000000 0.000000 0.000000 0.000000 0.118973
#
#
# Mechanical properties :
#
#
# Convention : Reuss Voigt Hill
#
# Bulk Modulus (GPa) = 45.72530 58.14927 51.93729
# Shear Modulus (GPa) = 17.17049 23.19228 20.18138
#
# Velocity S-wave (km/s) = 3.10873 3.61296 3.37029
# Velocity P-wave (km/s) = 6.21462 7.08048 6.66163
#
# Compressibility (1/GPa) = 0.02186973
#
# Stress axis : x y z
#
# Youngs Moduli (GPa) = 111.56337 64.00164 33.97961
#
# Poissons Ratio (x) = 0.21819 0.10369
# Poissons Ratio (y) = 0.38034 0.32665
# Poissons Ratio (z) = 0.34044 0.61526
#
# Static dielectric constant tensor:
#      x y z
#    x 1.618280 0.000000 0.000000 
#    y 0.000000 1.589640 0.000000 
#    z 0.000000 0.000000 1.596580 
# 
# From -- ./inp_files/8886.got.cif
#   From: 2010.05.17/outbox.cif.g08.bks.cpg/sg53_5_cif.got.tgz:8886.got - 2010.06.03 12:45:16.
