data_PCOD9419670
_publ_section_title
;
Structure prediction by ZEFSAII (Michael W. Deem and Ramdas Pophale) SiO2 
 PCOD9419670
Probable space group: P M N A
;
_chemical_formula_sum "Si O2"
_cell_formula_units_Z 32
_cell_length_a 18.845229
_cell_length_b 5.876113
_cell_length_c 12.600924
_cell_angle_alpha 90.000000
_cell_angle_beta 90.000000
_cell_angle_gamma 90.000000
_cell_volume 1395.384679
_symmetry_space_group_name_H-M "P M N A"
_symmetry_group_IT_number 53
_symmetry_cell_setting 'orthorhombic'
loop_
_space_group_symop_operation_xyz
x,y,z
1/2-x,-y,1/2+z
x,-y,-z
1/2-x,y,1/2-z
-x,-y,-z
1/2+x,y,1/2-z
-x,y,z
1/2+x,-y,1/2+z
loop_
_atom_site_type_symbol
_atom_site_label
_atom_site_fract_x
_atom_site_fract_y
_atom_site_fract_z
Si Si1 0.750000 0.089545 0.250000
Si Si2 0.156364 0.469107 0.327172
Si Si3 0.797109 0.308736 0.887720
Si Si4 0.500000 0.506195 0.199443
Si Si5 0.617951 0.000000 0.500000
Si Si6 0.000000 0.993779 0.819902
O O1 0.691333 0.223386 0.182680
O O2 0.709418 0.935316 0.332420
O O3 0.163027 0.548200 0.202918
O O4 0.216020 0.607676 0.391815
O O5 0.075682 0.496012 0.360261
O O6 0.837779 0.238260 0.993120
O O7 0.500000 0.257203 0.262067
O O8 0.500000 0.760481 0.256467
O O9 0.567287 0.998658 0.602128
#
# Coordination Sequence:
#
# PCOD9419670 Si02
#       6
#     4   8   8   4   4   4
#     4   8  16  34  52  74 100 150 198 236 276 336
#     4   9  19  33  53  77 105 152 201 238 281 334
#     4   9  18  34  53  77 113 147 199 232 286 344
#     4  12  22  41  58  85 123 154 194 242 287 353
#     4  11  20  38  54  89 126 158 188 235 298 372
#     4  11  26  36  58  90 126 159 181 231 315 358
#
# _framework density 22.932742999999999
#
# number of rings (size 3 to 8) (size 9 to 14) (size 15 to 20)
#    0.000    2.750    2.500    1.500    3.500    2.000 
#    9.000    0.000    0.000    0.750    0.000    1.750 
#    0.000    0.000    0.000    0.000    0.000    0.000 
#
# Total GULP energy -178219.300337 kJ/mol
# GULP energy per Si atom -5569.353136 kJ/mol
# Density = 2.288055 g / cm^3
# Si number density = 22.932743 Si / 1000 Ang^3
#
#
#
# Elastic Constant Matrix: (Units=GPa)
#
#
# Indices 1 2 3 4 5 6 
#
# 1 185.8797 13.4020 9.6915 0.0000 0.0000 0.0000
# 2 13.4020 98.3893 14.5336 0.0000 0.0000 0.0000
# 3 9.6915 14.5336 41.3087 0.0000 0.0000 0.0000
# 4 0.0000 0.0000 0.0000 30.8059 0.0000 0.0000
# 5 0.0000 0.0000 0.0000 0.0000 4.9367 0.0000
# 6 0.0000 0.0000 0.0000 0.0000 0.0000 -214.4089
#
#
#
# Elastic Compliance Matrix: (Units=1/GPa)
#
#
# Indices 1 2 3 4 5 6 
#
# 1 0.005478 -0.000587 -0.001079 0.000000 0.000000 0.000000
# 2 -0.000587 0.010784 -0.003656 0.000000 0.000000 0.000000
# 3 -0.001079 -0.003656 0.025747 0.000000 0.000000 0.000000
# 4 0.000000 0.000000 0.000000 0.032461 0.000000 0.000000
# 5 0.000000 0.000000 0.000000 0.000000 0.202564 0.000000
# 6 0.000000 0.000000 0.000000 0.000000 0.000000 -0.004664
#
#
# Mechanical properties :
#
#
# Convention : Reuss Voigt Hill
#
# Bulk Modulus (GPa) = 31.88214 44.53688 38.20951
# Shear Modulus (GPa) = 17.03750 -16.53655 0.25047
#
# Velocity S-wave (km/s) = 2.72864 -2.68822 0.33084
# Velocity P-wave (km/s) = 4.88466 3.13487 4.10410
#
# Compressibility (1/GPa) = 0.03136553
#
# Stress axis : x y z
#
# Youngs Moduli (GPa) = 182.53550 92.73216 38.83878
#
# Poissons Ratio (x) = 0.05442 0.04190
# Poissons Ratio (y) = 0.10713 0.14201
# Poissons Ratio (z) = 0.19692 0.33906
#
# Static dielectric constant tensor:
#      x y z
#    x 1.978750 0.000000 0.000000 
#    y 0.000000 2.014010 0.000000 
#    z 0.000000 0.000000 2.091490 
# 
# From -- ./inp_files/29176.got.cif
#   From: 2010.05.17/outbox.cif.g08.bks.cpg/sg53_15_cif.got.tgz:29176.got - 2010.06.03 12:45:16.
