data_PCOD9419142
_publ_section_title
;
Structure prediction by ZEFSAII (Michael W. Deem and Ramdas Pophale) SiO2 
 PCOD9419142
Probable space group: P M N A
;
_chemical_formula_sum "Si O2"
_cell_formula_units_Z 58
_cell_length_a 9.174448
_cell_length_b 12.508090
_cell_length_c 28.802607
_cell_angle_alpha 90.000000
_cell_angle_beta 90.000000
_cell_angle_gamma 90.000000
_cell_volume 3305.238019
_symmetry_space_group_name_H-M "P M N A"
_symmetry_group_IT_number 53
_symmetry_cell_setting 'orthorhombic'
loop_
_space_group_symop_operation_xyz
x,y,z
1/2-x,-y,1/2+z
x,-y,-z
1/2-x,y,1/2-z
-x,-y,-z
1/2+x,y,1/2-z
-x,y,z
1/2+x,-y,1/2+z
loop_
_atom_site_type_symbol
_atom_site_label
_atom_site_fract_x
_atom_site_fract_y
_atom_site_fract_z
Si Si1 0.743069 0.150725 0.049301
Si Si2 0.175197 0.263849 0.203326
Si Si3 0.330368 0.348983 0.115135
Si Si4 0.333227 0.037000 0.614102
Si Si5 0.335009 0.235103 0.548117
Si Si6 0.500000 0.000000 0.000000
Si Si7 0.824878 0.969787 0.703365
Si Si8 0.825372 0.545026 0.450634
O O1 0.682705 0.249903 0.079228
O O2 0.624193 0.074663 0.025513
O O3 0.826354 0.072655 0.084695
O O4 0.828003 0.199708 0.005588
O O5 0.250000 0.309189 0.250000
O O6 0.224799 0.328327 0.158223
O O7 0.000000 0.254966 0.207484
O O8 0.250156 0.147013 0.198027
O O9 0.500000 0.353884 0.130292
O O10 0.291019 0.457701 0.088403
O O11 0.500000 0.051120 0.630505
O O12 0.293559 0.133665 0.579659
O O13 0.223264 0.031083 0.657074
O O14 0.500000 0.264188 0.559913
O O15 0.235466 0.337176 0.556697
O O16 0.750000 0.015550 0.750000
O O17 0.000000 0.961554 0.707635
O O18 0.770699 0.500000 0.500000
O O19 0.000000 0.551727 0.453379
#
# Coordination Sequence:
#
# PCOD9419142 Si02
#       8
#     8   8   8   8   8   2   8   8
#     4  12  22  34  56  83 119 155 196 236 284 342
#     4  11  22  37  59  86 118 153 189 237 293 354
#     4  11  22  37  58  85 118 153 196 243 291 340
#     4  11  23  38  56  82 118 154 190 236 290 343
#     4  11  24  39  56  81 117 155 197 241 286 341
#     4  12  24  32  54  90 120 160 202 236 278 352
#     4  11  22  36  57  84 116 149 187 231 286 348
#     4  10  22  39  59  81 112 154 196 243 284 334
#
# _framework density 17.547906000000001
#
# number of rings (size 3 to 8) (size 9 to 14) (size 15 to 20)
#    0.000    0.966    4.828    3.724    1.931    3.034 
#    0.000    0.000    0.000    0.828    0.000    5.793 
#    0.000    0.000    0.000    0.000    0.000    0.000 
#
# Total GULP energy -323257.855078 kJ/mol
# GULP energy per Si atom -5573.411294 kJ/mol
# Density = 1.750797 g / cm^3
# Si number density = 17.547906 Si / 1000 Ang^3
#
#
#
# Elastic Constant Matrix: (Units=GPa)
#
#
# Indices 1 2 3 4 5 6 
#
# 1 105.8348 27.8450 57.2187 0.0000 0.0000 0.0000
# 2 27.8450 78.8779 40.5814 0.0000 0.0000 0.0000
# 3 57.2187 40.5814 112.8797 0.0000 0.0000 0.0000
# 4 0.0000 0.0000 0.0000 14.7717 0.0000 0.0000
# 5 0.0000 0.0000 0.0000 0.0000 158.1420 0.0000
# 6 0.0000 0.0000 0.0000 0.0000 0.0000 33.8972
#
#
#
# Elastic Compliance Matrix: (Units=1/GPa)
#
#
# Indices 1 2 3 4 5 6 
#
# 1 0.013157 -0.001489 -0.006134 0.000000 0.000000 0.000000
# 2 -0.001489 0.015723 -0.004898 0.000000 0.000000 0.000000
# 3 -0.006134 -0.004898 0.013729 0.000000 0.000000 0.000000
# 4 0.000000 0.000000 0.000000 0.067697 0.000000 0.000000
# 5 0.000000 0.000000 0.000000 0.000000 0.006323 0.000000
# 6 0.000000 0.000000 0.000000 0.000000 0.000000 0.029501
#
#
# Mechanical properties :
#
#
# Convention : Reuss Voigt Hill
#
# Bulk Modulus (GPa) = 56.92232 60.98696 58.95464
# Shear Modulus (GPa) = 28.24421 52.82535 40.53478
#
# Velocity S-wave (km/s) = 4.01627 5.49262 4.81141
# Velocity P-wave (km/s) = 7.34955 8.66344 8.03340
#
# Compressibility (1/GPa) = 0.01756780
#
# Stress axis : x y z
#
# Youngs Moduli (GPa) = 76.00761 63.59970 72.83768
#
# Poissons Ratio (x) = 0.09468 0.44678
# Poissons Ratio (y) = 0.11315 0.35677
# Poissons Ratio (z) = 0.46622 0.31152
#
# Static dielectric constant tensor:
#      x y z
#    x 1.607060 0.000000 0.000000 
#    y 0.000000 1.579160 0.000000 
#    z 0.000000 0.000000 1.620720 
# 
# From -- ./inp_files/38096.got.cif
#   From: 2010.05.17/outbox.cif.g08.bks.cpg/sg53_20_cif.got.tgz:38096.got - 2010.06.03 12:45:16.
