data_PCOD9419908
_publ_section_title
;
Structure prediction by ZEFSAII (Michael W. Deem and Ramdas Pophale) SiO2 
 PCOD9419908
Probable space group: P M N A
;
_chemical_formula_sum "Si O2"
_cell_formula_units_Z 56
_cell_length_a 15.308501
_cell_length_b 11.332998
_cell_length_c 14.929118
_cell_angle_alpha 90.000000
_cell_angle_beta 90.000000
_cell_angle_gamma 90.000000
_cell_volume 2590.070764
_symmetry_space_group_name_H-M "P M N A"
_symmetry_group_IT_number 53
_symmetry_cell_setting 'orthorhombic'
loop_
_space_group_symop_operation_xyz
x,y,z
1/2-x,-y,1/2+z
x,-y,-z
1/2-x,y,1/2-z
-x,-y,-z
1/2+x,y,1/2-z
-x,y,z
1/2+x,-y,1/2+z
loop_
_atom_site_type_symbol
_atom_site_label
_atom_site_fract_x
_atom_site_fract_y
_atom_site_fract_z
Si Si1 0.601015 0.687344 0.894444
Si Si2 0.101438 0.888699 0.249333
Si Si3 0.601324 0.665463 0.571395
Si Si4 0.246249 0.496153 0.357379
Si Si5 0.605297 0.153570 0.272395
Si Si6 0.693708 0.747242 0.400481
Si Si7 0.856370 0.126827 0.543977
O O1 0.500000 0.654337 0.877960
O O2 0.663947 0.575109 0.895893
O O3 0.634802 0.769294 0.812290
O O4 0.606630 0.769951 0.981264
O O5 0.153951 0.795062 0.191134
O O6 0.107726 0.869702 0.355348
O O7 0.000000 0.883619 0.222124
O O8 0.137685 0.020041 0.229280
O O9 0.500000 0.632902 0.583445
O O10 0.667016 0.562495 0.600456
O O11 0.622686 0.774275 0.637795
O O12 0.620918 0.706672 0.471042
O O13 0.250000 0.483170 0.250000
O O14 0.246603 0.633301 0.381814
O O15 0.500000 0.145139 0.262592
O O16 0.753441 0.846814 0.445906
O O17 0.874473 0.000000 0.500000
#
# Coordination Sequence:
#
# PCOD9419908 Si02
#       7
#     8   8   8   8   8   8   8
#     4  11  23  44  73 104 139 185 238 294 353 415
#     4  11  24  44  70 101 143 186 230 292 359 427
#     4  11  24  44  73 103 138 188 240 289 351 420
#     4  12  25  46  72  99 144 186 238 300 345 416
#     4   9  20  40  69 104 136 177 236 289 342 418
#     4  12  28  46  64 103 147 185 236 288 355 424
#     4  12  25  43  71 104 143 187 234 292 364 428
#
# _framework density 21.621030000000001
#
# number of rings (size 3 to 8) (size 9 to 14) (size 15 to 20)
#    0.000    0.857    4.286    2.571    2.000    2.286 
#    2.571    5.714    0.000    0.000    0.000    0.000 
#    0.000    0.000    0.000    0.000    0.000    0.000 
#
# Total GULP energy -313484.186958 kJ/mol
# GULP energy per Si atom -5597.931910 kJ/mol
# Density = 2.157182 g / cm^3
# Si number density = 21.621030 Si / 1000 Ang^3
#
#
#
# Elastic Constant Matrix: (Units=GPa)
#
#
# Indices 1 2 3 4 5 6 
#
# 1 93.6697 36.8433 22.0408 0.0000 0.0000 0.0000
# 2 36.8433 128.8986 56.3156 0.0000 0.0000 0.0000
# 3 22.0408 56.3156 127.9698 0.0000 0.0000 0.0000
# 4 0.0000 0.0000 0.0000 33.8538 0.0000 0.0000
# 5 0.0000 0.0000 0.0000 0.0000 28.1760 0.0000
# 6 0.0000 0.0000 0.0000 0.0000 0.0000 10.8966
#
#
#
# Elastic Compliance Matrix: (Units=1/GPa)
#
#
# Indices 1 2 3 4 5 6 
#
# 1 0.012078 -0.003149 -0.000695 0.000000 0.000000 0.000000
# 2 -0.003149 0.010426 -0.004046 0.000000 0.000000 0.000000
# 3 -0.000695 -0.004046 0.009714 0.000000 0.000000 0.000000
# 4 0.000000 0.000000 0.000000 0.029539 0.000000 0.000000
# 5 0.000000 0.000000 0.000000 0.000000 0.035491 0.000000
# 6 0.000000 0.000000 0.000000 0.000000 0.000000 0.091772
#
#
# Mechanical properties :
#
#
# Convention : Reuss Voigt Hill
#
# Bulk Modulus (GPa) = 60.82811 64.54862 62.68836
# Shear Modulus (GPa) = 23.77810 30.27449 27.02629
#
# Velocity S-wave (km/s) = 3.31987 3.74603 3.53937
# Velocity P-wave (km/s) = 6.54906 6.97350 6.76461
#
# Compressibility (1/GPa) = 0.01643977
#
# Stress axis : x y z
#
# Youngs Moduli (GPa) = 82.79695 95.91775 102.94058
#
# Poissons Ratio (x) = 0.30202 0.07150
# Poissons Ratio (y) = 0.26071 0.41646
# Poissons Ratio (z) = 0.05750 0.38805
#
# Static dielectric constant tensor:
#      x y z
#    x 1.784420 0.000000 0.000000 
#    y 0.000000 1.764650 0.000000 
#    z 0.000000 0.000000 1.769890 
# 
# From -- ./inp_files/22854.got.cif
#   From: 2010.05.17/outbox.cif.g08.bks.cpg/sg53_12_cif.got.tgz:22854.got - 2010.06.03 12:45:16.
