data_PCOD9419172
_publ_section_title
;
Structure prediction by ZEFSAII (Michael W. Deem and Ramdas Pophale) SiO2 
 PCOD9419172
Probable space group: P M N A
;
_chemical_formula_sum "Si O2"
_cell_formula_units_Z 40
_cell_length_a 19.635833
_cell_length_b 12.422537
_cell_length_c 7.348524
_cell_angle_alpha 90.000000
_cell_angle_beta 90.000000
_cell_angle_gamma 90.000000
_cell_volume 1792.502399
_symmetry_space_group_name_H-M "P M N A"
_symmetry_group_IT_number 53
_symmetry_cell_setting 'orthorhombic'
loop_
_space_group_symop_operation_xyz
x,y,z
1/2-x,-y,1/2+z
x,-y,-z
1/2-x,y,1/2-z
-x,-y,-z
1/2+x,y,1/2-z
-x,y,z
1/2+x,-y,1/2+z
loop_
_atom_site_type_symbol
_atom_site_label
_atom_site_fract_x
_atom_site_fract_y
_atom_site_fract_z
Si Si1 0.799477 0.899685 0.096220
Si Si2 0.923863 0.018780 0.284524
Si Si3 0.420346 0.724297 0.777188
Si Si4 0.182422 0.333469 0.991245
Si Si5 0.836618 0.615625 0.433904
O O1 0.750000 0.857795 0.250000
O O2 0.810313 0.794794 0.980366
O O3 0.867557 0.949992 0.179952
O O4 0.763630 0.000000 0.000000
O O5 0.918633 0.146306 0.245143
O O6 0.000000 0.982828 0.232724
O O7 0.916061 0.000000 0.500000
O O8 0.500000 0.694696 0.779996
O O9 0.378094 0.648633 0.634972
O O10 0.383001 0.704421 0.969153
O O11 0.163788 0.365430 0.783555
O O12 0.259009 0.377425 0.012371
O O13 0.862944 0.500000 0.500000
#
# Coordination Sequence:
#
# PCOD9419172 Si02
#       5
#     8   8   8   8   8
#     4  12  23  37  62  95 133 170 215 270 327 395
#     4  10  22  39  62  93 135 181 216 258 328 404
#     4  11  25  44  69 101 139 180 225 284 340 408
#     4  11  25  44  68 103 133 179 229 280 338 417
#     4  11  26  46  72  96 131 176 231 291 351 401
#
# _framework density 22.315173000000001
#
# number of rings (size 3 to 8) (size 9 to 14) (size 15 to 20)
#    0.000    1.000    4.000    2.400    8.400    2.400 
#    0.000    1.000    0.000    0.000    0.000    0.000 
#    0.000    0.000    0.000    0.000    0.000    0.000 
#
# Total GULP energy -223422.049251 kJ/mol
# GULP energy per Si atom -5585.551231 kJ/mol
# Density = 2.226438 g / cm^3
# Si number density = 22.315173 Si / 1000 Ang^3
#
#
#
# Elastic Constant Matrix: (Units=GPa)
#
#
# Indices 1 2 3 4 5 6 
#
# 1 118.3104 -1.6061 22.3709 0.0000 0.0000 0.0000
# 2 -1.6061 68.6213 -18.8617 0.0000 0.0000 0.0000
# 3 22.3709 -18.8617 51.6468 0.0000 0.0000 0.0000
# 4 0.0000 0.0000 0.0000 28.0328 0.0000 0.0000
# 5 0.0000 0.0000 0.0000 0.0000 -22.6257 0.0000
# 6 0.0000 0.0000 0.0000 0.0000 0.0000 -12.0341
#
#
#
# Elastic Compliance Matrix: (Units=1/GPa)
#
#
# Indices 1 2 3 4 5 6 
#
# 1 0.009266 -0.000985 -0.004373 0.000000 0.000000 0.000000
# 2 -0.000985 0.016304 0.006381 0.000000 0.000000 0.000000
# 3 -0.004373 0.006381 0.023587 0.000000 0.000000 0.000000
# 4 0.000000 0.000000 0.000000 0.035673 0.000000 0.000000
# 5 0.000000 0.000000 0.000000 0.000000 -0.044197 0.000000
# 6 0.000000 0.000000 0.000000 0.000000 0.000000 -0.083097
#
#
# Mechanical properties :
#
#
# Convention : Reuss Voigt Hill
#
# Bulk Modulus (GPa) = 19.53087 26.93165 23.23126
# Shear Modulus (GPa) = -182.19175 14.45296 -83.86940
#
# Velocity S-wave (km/s) = -9.04555 2.54770 -6.13723
# Velocity P-wave (km/s) = 10.01622 4.55515 6.30775
#
# Compressibility (1/GPa) = 0.05120101
#
# Stress axis : x y z
#
# Youngs Moduli (GPa) = 107.92244 61.33633 42.39637
#
# Poissons Ratio (x) = 0.06043 0.18541
# Poissons Ratio (y) = 0.10633 -0.27053
# Poissons Ratio (z) = 0.47198 -0.39138
#
# Static dielectric constant tensor:
#      x y z
#    x 1.803150 0.000000 0.000000 
#    y 0.000000 1.566300 0.000000 
#    z 0.000000 0.000000 1.941600 
# 
# From -- ./inp_files/9667.got.cif
#   From: 2010.05.17/outbox.cif.g08.bks.cpg/sg53_5_cif.got.tgz:9667.got - 2010.06.03 12:45:16.
