data_PCOD9419764
_publ_section_title
;
Structure prediction by ZEFSAII (Michael W. Deem and Ramdas Pophale) SiO2 
 PCOD9419764
Probable space group: P M N A
;
_chemical_formula_sum "Si O2"
_cell_formula_units_Z 48
_cell_length_a 18.712930
_cell_length_b 15.090858
_cell_length_c 8.862522
_cell_angle_alpha 90.000000
_cell_angle_beta 90.000000
_cell_angle_gamma 90.000000
_cell_volume 2502.724539
_symmetry_space_group_name_H-M "P M N A"
_symmetry_group_IT_number 53
_symmetry_cell_setting 'orthorhombic'
loop_
_space_group_symop_operation_xyz
x,y,z
1/2-x,-y,1/2+z
x,-y,-z
1/2-x,y,1/2-z
-x,-y,-z
1/2+x,y,1/2-z
-x,y,z
1/2+x,-y,1/2+z
loop_
_atom_site_type_symbol
_atom_site_label
_atom_site_fract_x
_atom_site_fract_y
_atom_site_fract_z
Si Si1 0.802586 0.244303 0.611649
Si Si2 0.582517 0.795229 0.625172
Si Si3 0.581464 0.700210 0.303180
Si Si4 0.670745 0.661292 0.820057
Si Si5 0.220351 0.905867 0.919447
Si Si6 0.827874 0.478137 0.821562
O O1 0.750000 0.263649 0.750000
O O2 0.877928 0.230494 0.694548
O O3 0.816144 0.324625 0.496380
O O4 0.766562 0.165975 0.514831
O O5 0.500000 0.819706 0.655066
O O6 0.584090 0.735893 0.473754
O O7 0.617663 0.736150 0.757340
O O8 0.638335 0.873690 0.592891
O O9 0.500000 0.688961 0.256941
O O10 0.622694 0.607018 0.300780
O O11 0.750000 0.674297 0.750000
O O12 0.644269 0.565893 0.764756
O O13 0.250000 0.909926 0.750000
O O14 0.225703 0.000000 0.000000
O O15 0.750000 0.463606 0.750000
O O16 0.821934 0.500000 0.000000
#
# Coordination Sequence:
#
# PCOD9419764 Si02
#       6
#     8   8   8   8   8   8
#     4  12  22  41  71  94 132 170 223 273 322 397
#     4  11  22  42  69  98 135 177 219 267 331 397
#     4  11  25  41  63  96 135 180 223 273 333 391
#     4  11  21  40  64  95 126 178 229 272 319 382
#     4  12  25  45  74 103 128 167 219 272 332 401
#     4  11  25  38  63  93 128 172 230 280 326 380
#
# _framework density 19.179099000000001
#
# number of rings (size 3 to 8) (size 9 to 14) (size 15 to 20)
#    0.000    0.667    6.667    1.000    7.000    2.000 
#    0.000    0.833    0.000    1.000    0.000    0.000 
#    0.000    0.000    0.000    0.000    0.000    0.000 
#
# Total GULP energy -268182.238161 kJ/mol
# GULP energy per Si atom -5587.129962 kJ/mol
# Density = 1.913545 g / cm^3
# Si number density = 19.179099 Si / 1000 Ang^3
#
#
#
# Elastic Constant Matrix: (Units=GPa)
#
#
# Indices 1 2 3 4 5 6 
#
# 1 145.0611 43.9278 48.3991 0.0000 0.0000 0.0000
# 2 43.9278 101.1963 49.2898 0.0000 0.0000 0.0000
# 3 48.3991 49.2898 137.7512 0.0000 0.0000 0.0000
# 4 0.0000 0.0000 0.0000 27.9920 0.0000 0.0000
# 5 0.0000 0.0000 0.0000 0.0000 27.1477 0.0000
# 6 0.0000 0.0000 0.0000 0.0000 0.0000 1.3372
#
#
#
# Elastic Compliance Matrix: (Units=1/GPa)
#
#
# Indices 1 2 3 4 5 6 
#
# 1 0.008362 -0.002663 -0.001985 0.000000 0.000000 0.000000
# 2 -0.002663 0.012816 -0.003650 0.000000 0.000000 0.000000
# 3 -0.001985 -0.003650 0.009263 0.000000 0.000000 0.000000
# 4 0.000000 0.000000 0.000000 0.035725 0.000000 0.000000
# 5 0.000000 0.000000 0.000000 0.000000 0.036836 0.000000
# 6 0.000000 0.000000 0.000000 0.000000 0.000000 0.747836
#
#
# Mechanical properties :
#
#
# Convention : Reuss Voigt Hill
#
# Bulk Modulus (GPa) = 72.23108 74.13801 73.18454
# Shear Modulus (GPa) = 5.73362 27.45483 16.59423
#
# Velocity S-wave (km/s) = 1.73090 3.78762 2.94466
# Velocity P-wave (km/s) = 6.46048 7.60708 7.05710
#
# Compressibility (1/GPa) = 0.01384446
#
# Stress axis : x y z
#
# Youngs Moduli (GPa) = 119.58211 78.03003 107.95611
#
# Poissons Ratio (x) = 0.20780 0.21432
# Poissons Ratio (y) = 0.31845 0.39404
# Poissons Ratio (z) = 0.23740 0.28481
#
# Static dielectric constant tensor:
#      x y z
#    x 1.681750 0.000000 0.000000 
#    y 0.000000 1.686070 0.000000 
#    z 0.000000 0.000000 1.696210 
# 
# From -- ./inp_files/9986.got.cif
#   From: 2010.05.17/outbox.cif.g08.bks.cpg/sg53_5_cif.got.tgz:9986.got - 2010.06.03 12:45:16.
