data_PCOD9419518
_publ_section_title
;
Structure prediction by ZEFSAII (Michael W. Deem and Ramdas Pophale) SiO2 
 PCOD9419518
Probable space group: P M N A
;
_chemical_formula_sum "Si O2"
_cell_formula_units_Z 48
_cell_length_a 18.533842
_cell_length_b 13.194595
_cell_length_c 9.786689
_cell_angle_alpha 90.000000
_cell_angle_beta 90.000000
_cell_angle_gamma 90.000000
_cell_volume 2393.300923
_symmetry_space_group_name_H-M "P M N A"
_symmetry_group_IT_number 53
_symmetry_cell_setting 'orthorhombic'
loop_
_space_group_symop_operation_xyz
x,y,z
1/2-x,-y,1/2+z
x,-y,-z
1/2-x,y,1/2-z
-x,-y,-z
1/2+x,y,1/2-z
-x,y,z
1/2+x,-y,1/2+z
loop_
_atom_site_type_symbol
_atom_site_label
_atom_site_fract_x
_atom_site_fract_y
_atom_site_fract_z
Si Si1 0.148242 0.296258 0.964743
Si Si2 0.914798 0.080003 0.879719
Si Si3 0.315242 0.945363 0.145689
Si Si4 0.415748 0.572262 0.244125
Si Si5 0.833901 0.361952 0.263477
Si Si6 0.685800 0.287862 0.939928
O O1 0.145437 0.300207 0.128227
O O2 0.126089 0.185303 0.911869
O O3 0.098465 0.380466 0.894031
O O4 0.230968 0.322208 0.926010
O O5 0.886402 0.036278 0.736242
O O6 0.000000 0.100008 0.875542
O O7 0.899652 0.000000 0.000000
O O8 0.250000 0.970421 0.250000
O O9 0.314754 0.826494 0.111370
O O10 0.310193 0.000000 0.000000
O O11 0.500000 0.575484 0.211381
O O12 0.384107 0.460070 0.230190
O O13 0.368662 0.643838 0.145711
O O14 0.750000 0.395424 0.250000
O O15 0.836228 0.297495 0.401732
#
# Coordination Sequence:
#
# PCOD9419518 Si02
#       6
#     8   8   8   8   8   8
#     4  11  22  42  68  94 129 171 222 272 325 386
#     4  11  25  45  67  97 137 179 218 270 335 396
#     4  12  25  42  72 102 133 170 223 273 325 397
#     4  12  24  41  64  93 134 177 220 267 328 392
#     4  10  24  40  65  96 128 169 221 276 326 383
#     4  11  23  42  65  97 131 169 213 273 329 387
#
# _framework density 20.055982
#
# number of rings (size 3 to 8) (size 9 to 14) (size 15 to 20)
#    0.000    0.833    3.333    3.500    2.333    7.000 
#    0.000    0.000    0.000    0.000    0.000    0.000 
#    0.000    0.000    0.000    0.000    0.000    0.000 
#
# Total GULP energy -268434.796882 kJ/mol
# GULP energy per Si atom -5592.391602 kJ/mol
# Density = 2.001033 g / cm^3
# Si number density = 20.055982 Si / 1000 Ang^3
#
#
#
# Elastic Constant Matrix: (Units=GPa)
#
#
# Indices 1 2 3 4 5 6 
#
# 1 102.7354 36.1815 61.4357 0.0000 0.0000 0.0000
# 2 36.1815 53.8478 36.7293 0.0000 0.0000 0.0000
# 3 61.4357 36.7293 148.9453 0.0000 0.0000 0.0000
# 4 0.0000 0.0000 0.0000 36.3064 0.0000 0.0000
# 5 0.0000 0.0000 0.0000 0.0000 14.3879 0.0000
# 6 0.0000 0.0000 0.0000 0.0000 0.0000 15.6485
#
#
#
# Elastic Compliance Matrix: (Units=1/GPa)
#
#
# Indices 1 2 3 4 5 6 
#
# 1 0.014811 -0.006954 -0.004394 0.000000 0.000000 0.000000
# 2 -0.006954 0.025592 -0.003442 0.000000 0.000000 0.000000
# 3 -0.004394 -0.003442 0.009375 0.000000 0.000000 0.000000
# 4 0.000000 0.000000 0.000000 0.027543 0.000000 0.000000
# 5 0.000000 0.000000 0.000000 0.000000 0.069503 0.000000
# 6 0.000000 0.000000 0.000000 0.000000 0.000000 0.063904
#
#
# Mechanical properties :
#
#
# Convention : Reuss Voigt Hill
#
# Bulk Modulus (GPa) = 49.51494 63.80239 56.65867
# Shear Modulus (GPa) = 20.23954 24.68069 22.46011
#
# Velocity S-wave (km/s) = 3.18016 3.51178 3.35008
# Velocity P-wave (km/s) = 6.18276 6.95160 6.57842
#
# Compressibility (1/GPa) = 0.02019593
#
# Stress axis : x y z
#
# Youngs Moduli (GPa) = 67.51928 39.07519 106.66515
#
# Poissons Ratio (x) = 0.27175 0.46869
# Poissons Ratio (y) = 0.46956 0.36717
# Poissons Ratio (z) = 0.29668 0.13451
#
# Static dielectric constant tensor:
#      x y z
#    x 1.704730 0.000000 0.000000 
#    y 0.000000 1.671290 0.000000 
#    z 0.000000 0.000000 1.741480 
# 
# From -- ./inp_files/9966.got.cif
#   From: 2010.05.17/outbox.cif.g08.bks.cpg/sg53_5_cif.got.tgz:9966.got - 2010.06.03 12:45:16.
