data_PCOD9419283
_publ_section_title
;
Structure prediction by ZEFSAII (Michael W. Deem and Ramdas Pophale) SiO2 
 PCOD9419283
Probable space group: P M N A
;
_chemical_formula_sum "Si O2"
_cell_formula_units_Z 60
_cell_length_a 23.164762
_cell_length_b 5.358183
_cell_length_c 22.654238
_cell_angle_alpha 90.000000
_cell_angle_beta 90.000000
_cell_angle_gamma 90.000000
_cell_volume 2811.867444
_symmetry_space_group_name_H-M "P M N A"
_symmetry_group_IT_number 53
_symmetry_cell_setting 'orthorhombic'
loop_
_space_group_symop_operation_xyz
x,y,z
1/2-x,-y,1/2+z
x,-y,-z
1/2-x,y,1/2-z
-x,-y,-z
1/2+x,y,1/2-z
-x,y,z
1/2+x,-y,1/2+z
loop_
_atom_site_type_symbol
_atom_site_label
_atom_site_fract_x
_atom_site_fract_y
_atom_site_fract_z
Si Si1 0.285202 0.500000 0.000000
Si Si2 0.566497 0.671201 0.799871
Si Si3 0.232428 0.525332 0.812610
Si Si4 0.831972 0.756192 0.614528
Si Si5 0.567015 0.179403 0.722687
Si Si6 0.142288 0.125828 0.139978
Si Si7 0.569422 0.254789 0.465257
Si Si8 0.756778 0.132589 0.916103
O O1 0.321320 0.411898 0.056612
O O2 0.245572 0.723673 0.022878
O O3 0.500000 0.632482 0.817352
O O4 0.606599 0.716070 0.856383
O O5 0.582146 0.424035 0.761361
O O6 0.569052 0.925872 0.761711
O O7 0.250000 0.413728 0.750000
O O8 0.286931 0.688968 0.833480
O O9 0.176003 0.699780 0.813477
O O10 0.228543 0.322361 0.863500
O O11 0.807440 0.023757 0.594537
O O12 0.500000 0.210484 0.702256
O O13 0.611804 0.111233 0.670810
O O14 0.093621 0.257002 0.101037
O O15 0.193057 0.066294 0.093148
O O16 0.589572 0.500000 0.500000
O O17 0.500000 0.259778 0.462802
O O18 0.585548 0.000000 0.500000
#
# Coordination Sequence:
#
# PCOD9419283 Si02
#       8
#     4   8   8   8   8   8   8   8
#     4  10  22  44  63  90 129 172 226 272 346 394
#     4  10  23  42  69 104 135 176 221 269 336 408
#     4  10  23  39  59  95 129 167 214 268 332 395
#     4  10  22  41  65  90 128 177 209 280 330 407
#     4  10  23  41  67 101 140 177 220 275 333 407
#     4  11  24  40  65  96 127 180 225 274 333 403
#     4  10  24  44  66  93 129 173 223 281 331 378
#     4  10  24  40  62  94 129 172 224 275 335 399
#
# _framework density 21.338132999999999
#
# number of rings (size 3 to 8) (size 9 to 14) (size 15 to 20)
#    0.000    1.867    0.000    1.600    9.333    5.333 
#    4.800    4.333    0.000    1.600    0.000    0.000 
#    0.000    0.000    0.000    0.000    0.000    0.000 
#
# Total GULP energy -335096.708800 kJ/mol
# GULP energy per Si atom -5584.945147 kJ/mol
# Density = 2.128957 g / cm^3
# Si number density = 21.338133 Si / 1000 Ang^3
#
#
#
# Elastic Constant Matrix: (Units=GPa)
#
#
# Indices 1 2 3 4 5 6 
#
# 1 101.0106 41.2834 57.6155 0.0000 0.0000 0.0000
# 2 41.2834 107.7843 25.2844 0.0000 0.0000 0.0000
# 3 57.6155 25.2844 88.5523 0.0000 0.0000 0.0000
# 4 0.0000 0.0000 0.0000 28.9689 0.0000 0.0000
# 5 0.0000 0.0000 0.0000 0.0000 37.4263 0.0000
# 6 0.0000 0.0000 0.0000 0.0000 0.0000 7.0332
#
#
#
# Elastic Compliance Matrix: (Units=1/GPa)
#
#
# Indices 1 2 3 4 5 6 
#
# 1 0.017424 -0.004303 -0.010108 0.000000 0.000000 0.000000
# 2 -0.004303 0.011006 -0.000343 0.000000 0.000000 0.000000
# 3 -0.010108 -0.000343 0.017968 0.000000 0.000000 0.000000
# 4 0.000000 0.000000 0.000000 0.034520 0.000000 0.000000
# 5 0.000000 0.000000 0.000000 0.000000 0.026719 0.000000
# 6 0.000000 0.000000 0.000000 0.000000 0.000000 0.142183
#
#
# Mechanical properties :
#
#
# Convention : Reuss Voigt Hill
#
# Bulk Modulus (GPa) = 59.20709 60.63486 59.92098
# Shear Modulus (GPa) = 17.54644 26.22993 21.88819
#
# Velocity S-wave (km/s) = 2.87070 3.50987 3.20625
# Velocity P-wave (km/s) = 6.22858 6.70101 6.46911
#
# Compressibility (1/GPa) = 0.01688987
#
# Stress axis : x y z
#
# Youngs Moduli (GPa) = 57.39190 90.85749 55.65580
#
# Poissons Ratio (x) = 0.39092 0.56258
# Poissons Ratio (y) = 0.24693 0.01910
# Poissons Ratio (z) = 0.58013 0.03119
#
# Static dielectric constant tensor:
#      x y z
#    x 1.773540 0.000000 0.000000 
#    y 0.000000 1.846030 0.000000 
#    z 0.000000 0.000000 1.785590 
# 
# From -- ./inp_files/33217.got.cif
#   From: 2010.05.17/outbox.cif.g08.bks.cpg/sg53_17_cif.got.tgz:33217.got - 2010.06.03 12:45:16.
