data_PCOD9419635
_publ_section_title
;
Structure prediction by ZEFSAII (Michael W. Deem and Ramdas Pophale) SiO2 
 PCOD9419635
Probable space group: P M N A
;
_chemical_formula_sum "Si O2"
_cell_formula_units_Z 32
_cell_length_a 25.585849
_cell_length_b 6.130690
_cell_length_c 9.557397
_cell_angle_alpha 90.000000
_cell_angle_beta 90.000000
_cell_angle_gamma 90.000000
_cell_volume 1499.162863
_symmetry_space_group_name_H-M "P M N A"
_symmetry_group_IT_number 53
_symmetry_cell_setting 'orthorhombic'
loop_
_space_group_symop_operation_xyz
x,y,z
1/2-x,-y,1/2+z
x,-y,-z
1/2-x,y,1/2-z
-x,-y,-z
1/2+x,y,1/2-z
-x,y,z
1/2+x,-y,1/2+z
loop_
_atom_site_type_symbol
_atom_site_label
_atom_site_fract_x
_atom_site_fract_y
_atom_site_fract_z
Si Si1 0.154738 0.605405 0.149978
Si Si2 0.618113 0.000000 0.000000
Si Si3 0.793538 0.317861 0.381577
Si Si4 0.439581 0.362224 0.855448
Si Si5 0.207809 0.000000 0.000000
O O1 0.194527 0.464909 0.245211
O O2 0.100858 0.579155 0.234191
O O3 0.175137 0.848677 0.109037
O O4 0.149222 0.500000 0.000000
O O5 0.655732 0.172122 0.077966
O O6 0.580075 0.878352 0.105832
O O7 0.786699 0.500000 0.500000
O O8 0.745854 0.150476 0.405997
O O9 0.500000 0.374798 0.814895
O O10 0.433351 0.500000 0.000000
#
# Coordination Sequence:
#
# PCOD9419635 Si02
#       5
#     8   4   8   8   4
#     4  12  27  47  67 106 149 188 235 297 360 437
#     4  11  19  44  79 102 133 180 241 305 344 422
#     4  11  24  48  71 101 140 188 248 293 347 428
#     4  11  24  47  78 106 136 186 247 306 359 418
#     4  11  30  44  74 100 148 200 240 289 364 432
#
# _framework density 21.345247000000001
#
# number of rings (size 3 to 8) (size 9 to 14) (size 15 to 20)
#    0.000    0.750    5.000    1.125    3.500    6.500 
#    0.000    0.625    0.000    0.000    0.000    0.000 
#    0.000    0.000    0.000    0.000    0.000    0.000 
#
# Total GULP energy -178820.527048 kJ/mol
# GULP energy per Si atom -5588.141470 kJ/mol
# Density = 2.129666 g / cm^3
# Si number density = 21.345247 Si / 1000 Ang^3
#
#
#
# Elastic Constant Matrix: (Units=GPa)
#
#
# Indices 1 2 3 4 5 6 
#
# 1 196.7745 75.2294 85.2385 0.0000 0.0000 0.0000
# 2 75.2294 130.7297 65.3937 0.0000 0.0000 0.0000
# 3 85.2385 65.3937 177.3344 0.0000 0.0000 0.0000
# 4 0.0000 0.0000 0.0000 51.9473 0.0000 0.0000
# 5 0.0000 0.0000 0.0000 0.0000 40.4260 0.0000
# 6 0.0000 0.0000 0.0000 0.0000 0.0000 113.3754
#
#
#
# Elastic Compliance Matrix: (Units=1/GPa)
#
#
# Indices 1 2 3 4 5 6 
#
# 1 0.007256 -0.002981 -0.002389 0.000000 0.000000 0.000000
# 2 -0.002981 0.010604 -0.002478 0.000000 0.000000 0.000000
# 3 -0.002389 -0.002478 0.007701 0.000000 0.000000 0.000000
# 4 0.000000 0.000000 0.000000 0.019250 0.000000 0.000000
# 5 0.000000 0.000000 0.000000 0.000000 0.024737 0.000000
# 6 0.000000 0.000000 0.000000 0.000000 0.000000 0.008820
#
#
# Mechanical properties :
#
#
# Convention : Reuss Voigt Hill
#
# Bulk Modulus (GPa) = 101.34698 106.28466 103.81582
# Shear Modulus (GPa) = 51.36041 59.74821 55.55431
#
# Velocity S-wave (km/s) = 4.91060 5.29642 5.10716
# Velocity P-wave (km/s) = 8.92944 9.34366 9.13890
#
# Compressibility (1/GPa) = 0.00986709
#
# Stress axis : x y z
#
# Youngs Moduli (GPa) = 137.81177 94.30372 129.85636
#
# Poissons Ratio (x) = 0.28110 0.31018
# Poissons Ratio (y) = 0.41079 0.32173
# Poissons Ratio (z) = 0.32918 0.23364
#
# Static dielectric constant tensor:
#      x y z
#    x 1.778500 0.000000 0.000000 
#    y 0.000000 1.838980 0.000000 
#    z 0.000000 0.000000 1.711820 
# 
# From -- ./inp_files/12713.got.cif
#   From: 2010.05.17/outbox.cif.g08.bks.cpg/sg53_7_cif.got.tgz:12713.got - 2010.06.03 12:45:16.
