data_PCOD9419317
_publ_section_title
;
Structure prediction by ZEFSAII (Michael W. Deem and Ramdas Pophale) SiO2 
 PCOD9419317
Probable space group: P M N A
;
_chemical_formula_sum "Si O2"
_cell_formula_units_Z 32
_cell_length_a 27.608932
_cell_length_b 9.245855
_cell_length_c 6.410068
_cell_angle_alpha 90.000000
_cell_angle_beta 90.000000
_cell_angle_gamma 90.000000
_cell_volume 1636.286405
_symmetry_space_group_name_H-M "P M N A"
_symmetry_group_IT_number 53
_symmetry_cell_setting 'orthorhombic'
loop_
_space_group_symop_operation_xyz
x,y,z
1/2-x,-y,1/2+z
x,-y,-z
1/2-x,y,1/2-z
-x,-y,-z
1/2+x,y,1/2-z
-x,y,z
1/2+x,-y,1/2+z
loop_
_atom_site_type_symbol
_atom_site_label
_atom_site_fract_x
_atom_site_fract_y
_atom_site_fract_z
Si Si1 0.445210 0.125935 0.171330
Si Si2 0.830751 0.500000 0.000000
Si Si3 0.804758 0.773969 0.258194
Si Si4 0.629699 0.000000 0.500000
Si Si5 0.870043 0.653452 0.608463
O O1 0.500000 0.146370 0.248672
O O2 0.406374 0.082794 0.345091
O O3 0.421127 0.268403 0.076026
O O4 0.445893 0.000000 0.000000
O O5 0.803248 0.384322 0.854347
O O6 0.859637 0.608080 0.846466
O O7 0.750000 0.829610 0.250000
O O8 0.828727 0.747141 0.487301
O O9 0.838080 0.887020 0.131690
O O10 0.870961 0.500000 0.500000
#
# Coordination Sequence:
#
# PCOD9419317 Si02
#       5
#     8   4   8   4   8
#     4  11  23  42  67  90 121 168 212 263 322 378
#     4  10  22  42  65  88 130 168 213 260 312 366
#     4  11  25  39  64  94 128 171 208 255 314 384
#     4  12  23  44  62  92 132 162 211 264 314 378
#     4  10  22  42  63  93 125 161 211 264 312 374
#
# _framework density 19.556479
#
# number of rings (size 3 to 8) (size 9 to 14) (size 15 to 20)
#    0.000    1.250    5.000    0.375    5.250    2.500 
#    0.000    0.625    0.000    0.000    0.000    0.000 
#    0.000    0.000    0.000    0.000    0.000    0.000 
#
# Total GULP energy -178396.586896 kJ/mol
# GULP energy per Si atom -5574.893340 kJ/mol
# Density = 1.951197 g / cm^3
# Si number density = 19.556479 Si / 1000 Ang^3
#
#
#
# Elastic Constant Matrix: (Units=GPa)
#
#
# Indices 1 2 3 4 5 6 
#
# 1 175.3762 53.5893 47.9105 0.0000 0.0000 0.0000
# 2 53.5893 56.7918 28.5240 0.0000 0.0000 0.0000
# 3 47.9105 28.5240 80.3581 0.0000 0.0000 0.0000
# 4 0.0000 0.0000 0.0000 26.0381 0.0000 0.0000
# 5 0.0000 0.0000 0.0000 0.0000 20.2599 0.0000
# 6 0.0000 0.0000 0.0000 0.0000 0.0000 30.3457
#
#
#
# Elastic Compliance Matrix: (Units=1/GPa)
#
#
# Indices 1 2 3 4 5 6 
#
# 1 0.008465 -0.006636 -0.002691 0.000000 0.000000 0.000000
# 2 -0.006636 0.026630 -0.005496 0.000000 0.000000 0.000000
# 3 -0.002691 -0.005496 0.016000 0.000000 0.000000 0.000000
# 4 0.000000 0.000000 0.000000 0.038405 0.000000 0.000000
# 5 0.000000 0.000000 0.000000 0.000000 0.049359 0.000000
# 6 0.000000 0.000000 0.000000 0.000000 0.000000 0.032954
#
#
# Mechanical properties :
#
#
# Convention : Reuss Voigt Hill
#
# Bulk Modulus (GPa) = 46.62442 63.61930 55.12186
# Shear Modulus (GPa) = 23.96822 27.49558 25.73190
#
# Velocity S-wave (km/s) = 3.50464 3.75368 3.63129
# Velocity P-wave (km/s) = 6.34581 7.16858 6.76971
#
# Compressibility (1/GPa) = 0.02144799
#
# Stress axis : x y z
#
# Youngs Moduli (GPa) = 118.13352 37.55102 62.50008
#
# Poissons Ratio (x) = 0.24918 0.16822
# Poissons Ratio (y) = 0.78392 0.34353
# Poissons Ratio (z) = 0.31795 0.20640
#
# Static dielectric constant tensor:
#      x y z
#    x 1.661460 0.000000 0.000000 
#    y 0.000000 1.778820 0.000000 
#    z 0.000000 0.000000 1.770100 
# 
# From -- ./inp_files/4970.got.cif
#   From: 2010.05.17/outbox.cif.g08.bks.cpg/sg53_3_cif.got.tgz:4970.got - 2010.06.03 12:45:16.
