data_PCOD9419643
_publ_section_title
;
Structure prediction by ZEFSAII (Michael W. Deem and Ramdas Pophale) SiO2 
 PCOD9419643
Probable space group: P M N A
;
_chemical_formula_sum "Si O2"
_cell_formula_units_Z 64
_cell_length_a 31.462611
_cell_length_b 8.292669
_cell_length_c 14.836327
_cell_angle_alpha 90.000000
_cell_angle_beta 90.000000
_cell_angle_gamma 90.000000
_cell_volume 3870.931522
_symmetry_space_group_name_H-M "P M N A"
_symmetry_group_IT_number 53
_symmetry_cell_setting 'orthorhombic'
loop_
_space_group_symop_operation_xyz
x,y,z
1/2-x,-y,1/2+z
x,-y,-z
1/2-x,y,1/2-z
-x,-y,-z
1/2+x,y,1/2-z
-x,y,z
1/2+x,-y,1/2+z
loop_
_atom_site_type_symbol
_atom_site_label
_atom_site_fract_x
_atom_site_fract_y
_atom_site_fract_z
Si Si1 0.793481 0.808144 0.301471
Si Si2 0.547368 0.695888 0.395284
Si Si3 0.222478 0.314825 0.500000
Si Si4 0.813406 0.816172 0.000000
Si Si5 0.363531 0.307932 0.670096
Si Si6 0.206519 0.191856 0.301471
Si Si7 0.136469 0.692069 0.829904
Si Si8 0.952632 0.695888 0.895284
O O1 0.750000 0.752176 0.250000
O O2 0.791313 0.767319 0.406826
O O3 0.834992 0.730703 0.256369
O O4 0.795618 1.000000 0.288694
O O5 0.500000 0.753158 0.370258
O O6 0.587008 0.742922 0.333049
O O7 0.546011 0.500000 0.394773
O O8 0.555545 0.742695 0.500000
O O9 0.208815 0.500000 0.500000
O O10 0.273480 0.301427 0.500000
O O11 0.208687 0.232681 0.406826
O O12 0.840956 0.782730 0.087814
O O13 0.840956 0.782730 0.912186
O O14 0.797372 0.000000 0.000000
O O15 0.362017 0.500000 0.652915
O O16 0.250000 0.247823 0.250000
O O17 0.165008 0.269296 0.256369
O O18 0.087008 0.742922 0.833049
O O19 0.000000 0.753158 0.870258
#
# Coordination Sequence:
#
# PCOD9419643 Si02
#       8
#     8   8   8   8   8   8   8   8
#     4  11  23  37  53  74 105 140 169 206 259 310
#     4   8  14  26  46  74 105 134 167 211 258 297
#     4  12  24  38  56  75  98 131 178 223 250 292
#     4  12  22  32  47  71 106 142 171 208 260 305
#     4  11  20  32  52  77 101 136 181 217 247 296
#     4  11  23  37  53  74 105 140 169 206 259 310
#     4  11  20  32  52  77 101 136 181 217 247 296
#     4   8  14  26  46  74 105 134 167 211 258 297
#
# _framework density 16.533487999999998
#
# number of rings (size 3 to 8) (size 9 to 14) (size 15 to 20)
#    0.000    1.500    3.750    4.500    0.000    1.000 
#    0.000    0.000    0.000    3.750    0.000    0.875 
#    0.000    7.000    0.000    0.000    0.000    0.000 
#
# Total GULP energy -357079.366224 kJ/mol
# GULP energy per Si atom -5579.365097 kJ/mol
# Density = 1.649586 g / cm^3
# Si number density = 16.533488 Si / 1000 Ang^3
#
#
#
# Elastic Constant Matrix: (Units=GPa)
#
#
# Indices 1 2 3 4 5 6 
#
# 1 135.3991 3.6405 49.8643 0.0000 0.0000 0.0000
# 2 3.6405 33.2087 -0.4714 0.0000 0.0000 0.0000
# 3 49.8643 -0.4714 89.1960 0.0000 0.0000 0.0000
# 4 0.0000 0.0000 0.0000 22.8039 0.0000 0.0000
# 5 0.0000 0.0000 0.0000 0.0000 -4.4759 0.0000
# 6 0.0000 0.0000 0.0000 0.0000 0.0000 0.8658
#
#
#
# Elastic Compliance Matrix: (Units=1/GPa)
#
#
# Indices 1 2 3 4 5 6 
#
# 1 0.009340 -0.001098 -0.005227 0.000000 0.000000 0.000000
# 2 -0.001098 0.030244 0.000774 0.000000 0.000000 0.000000
# 3 -0.005227 0.000774 0.014138 0.000000 0.000000 0.000000
# 4 0.000000 0.000000 0.000000 0.043852 0.000000 0.000000
# 5 0.000000 0.000000 0.000000 0.000000 -0.223419 0.000000
# 6 0.000000 0.000000 0.000000 0.000000 0.000000 1.154980
#
#
# Mechanical properties :
#
#
# Convention : Reuss Voigt Hill
#
# Bulk Modulus (GPa) = 23.46408 40.43007 31.94708
# Shear Modulus (GPa) = 4.74183 17.49012 11.11597
#
# Velocity S-wave (km/s) = 1.69536 3.25600 2.59575
# Velocity P-wave (km/s) = 4.24912 6.21626 5.32433
#
# Compressibility (1/GPa) = 0.04261833
#
# Stress axis : x y z
#
# Youngs Moduli (GPa) = 107.06381 33.06445 70.73290
#
# Poissons Ratio (x) = 0.03631 0.36975
# Poissons Ratio (y) = 0.11757 -0.05473
# Poissons Ratio (z) = 0.55966 -0.02558
#
# Static dielectric constant tensor:
#      x y z
#    x 1.575430 0.000000 0.000000 
#    y 0.000000 1.566260 0.000000 
#    z 0.000000 0.000000 1.533610 
# 
# From -- ./inp_files/19022.got.cif
#   From: 2010.05.17/outbox.cif.g08.bks.cpg/sg53_10_cif.got.tgz:19022.got - 2010.06.03 12:45:16.
