data_PCOD9419808
_publ_section_title
;
Structure prediction by ZEFSAII (Michael W. Deem and Ramdas Pophale) SiO2 
 PCOD9419808
Probable space group: P M N A
;
_chemical_formula_sum "Si O2"
_cell_formula_units_Z 40
_cell_length_a 15.773476
_cell_length_b 13.965503
_cell_length_c 8.450655
_cell_angle_alpha 90.000000
_cell_angle_beta 90.000000
_cell_angle_gamma 90.000000
_cell_volume 1861.548534
_symmetry_space_group_name_H-M "P M N A"
_symmetry_group_IT_number 53
_symmetry_cell_setting 'orthorhombic'
loop_
_space_group_symop_operation_xyz
x,y,z
1/2-x,-y,1/2+z
x,-y,-z
1/2-x,y,1/2-z
-x,-y,-z
1/2+x,y,1/2-z
-x,y,z
1/2+x,-y,1/2+z
loop_
_atom_site_type_symbol
_atom_site_label
_atom_site_fract_x
_atom_site_fract_y
_atom_site_fract_z
Si Si1 0.153757 0.990185 0.313521
Si Si2 0.594691 0.198326 0.656956
Si Si3 0.846809 0.398818 0.807390
Si Si4 0.347617 0.605162 0.690703
Si Si5 0.345714 0.187990 0.315645
O O1 0.250000 0.981265 0.250000
O O2 0.106397 0.894086 0.263775
O O3 0.156022 0.000000 0.500000
O O4 0.115380 0.087978 0.240925
O O5 0.500000 0.201289 0.589965
O O6 0.611159 0.299236 0.743068
O O7 0.656072 0.187897 0.506089
O O8 0.750000 0.395880 0.750000
O O9 0.883901 0.502160 0.755920
O O10 0.849217 0.397092 0.999184
O O11 0.250000 0.605179 0.750000
O O12 0.384340 0.709222 0.735876
O O13 0.250000 0.187305 0.250000
#
# Coordination Sequence:
#
# PCOD9419808 Si02
#       5
#     8   8   8   8   8
#     4  11  22  37  59  84 110 145 190 236 279 332
#     4  11  23  37  55  83 118 151 185 230 282 331
#     4   9  17  31  53  79 107 143 183 223 268 324
#     4   8  15  29  51  82 108 134 179 230 270 317
#     4   9  18  35  57  80 109 145 186 228 274 331
#
# _framework density 21.487487000000002
#
# number of rings (size 3 to 8) (size 9 to 14) (size 15 to 20)
#    0.000    2.400    0.000    3.600    0.000    6.800 
#    0.000    8.000    0.000    0.000    0.000   18.200 
#    0.000    0.000    0.000    0.000    0.000    0.000 
#
# Total GULP energy -222935.517591 kJ/mol
# GULP energy per Si atom -5573.387940 kJ/mol
# Density = 2.143858 g / cm^3
# Si number density = 21.487487 Si / 1000 Ang^3
#
#
#
# Elastic Constant Matrix: (Units=GPa)
#
#
# Indices 1 2 3 4 5 6 
#
# 1 37.7497 17.1014 -0.4904 0.0000 0.0000 0.0000
# 2 17.1014 267.1971 33.4857 0.0000 0.0000 0.0000
# 3 -0.4904 33.4857 32.0228 0.0000 0.0000 0.0000
# 4 0.0000 0.0000 0.0000 14.4514 0.0000 0.0000
# 5 0.0000 0.0000 0.0000 0.0000 0.9339 0.0000
# 6 0.0000 0.0000 0.0000 0.0000 0.0000 -26.2171
#
#
#
# Elastic Compliance Matrix: (Units=1/GPa)
#
#
# Indices 1 2 3 4 5 6 
#
# 1 0.027468 -0.002084 0.002600 0.000000 0.000000 0.000000
# 2 -0.002084 0.004465 -0.004701 0.000000 0.000000 0.000000
# 3 0.002600 -0.004701 0.036183 0.000000 0.000000 0.000000
# 4 0.000000 0.000000 0.000000 0.069197 0.000000 0.000000
# 5 0.000000 0.000000 0.000000 0.000000 1.070768 0.000000
# 6 0.000000 0.000000 0.000000 0.000000 0.000000 -0.038143
#
#
# Mechanical properties :
#
#
# Convention : Reuss Voigt Hill
#
# Bulk Modulus (GPa) = 16.73745 48.57365 32.65555
# Shear Modulus (GPa) = 4.17284 16.95850 10.56567
#
# Velocity S-wave (km/s) = 1.39506 2.81237 2.21987
# Velocity P-wave (km/s) = 3.22510 5.76199 4.66914
#
# Compressibility (1/GPa) = 0.05974627
#
# Stress axis : x y z
#
# Youngs Moduli (GPa) = 36.40591 223.96111 27.63704
#
# Poissons Ratio (x) = 0.46670 -0.07185
# Poissons Ratio (y) = 0.07586 0.12992
# Poissons Ratio (z) = -0.09464 1.05283
#
# Static dielectric constant tensor:
#      x y z
#    x 1.762380 0.000000 0.000000 
#    y 0.000000 1.892180 0.000000 
#    z 0.000000 0.000000 1.736390 
# 
# From -- ./inp_files/9769.got.cif
#   From: 2010.05.17/outbox.cif.g08.bks.cpg/sg53_5_cif.got.tgz:9769.got - 2010.06.03 12:45:16.
