data_PCOD9419993
_publ_section_title
;
Structure prediction by ZEFSAII (Michael W. Deem and Ramdas Pophale) SiO2 
 PCOD9419993
Probable space group: P M N A
;
_chemical_formula_sum "Si O2"
_cell_formula_units_Z 48
_cell_length_a 15.156341
_cell_length_b 29.193034
_cell_length_c 5.410905
_cell_angle_alpha 90.000000
_cell_angle_beta 90.000000
_cell_angle_gamma 90.000000
_cell_volume 2394.106744
_symmetry_space_group_name_H-M "P M N A"
_symmetry_group_IT_number 53
_symmetry_cell_setting 'orthorhombic'
loop_
_space_group_symop_operation_xyz
x,y,z
1/2-x,-y,1/2+z
x,-y,-z
1/2-x,y,1/2-z
-x,-y,-z
1/2+x,y,1/2-z
-x,y,z
1/2+x,-y,1/2+z
loop_
_atom_site_type_symbol
_atom_site_label
_atom_site_fract_x
_atom_site_fract_y
_atom_site_fract_z
Si Si1 0.500000 0.240795 0.682145
Si Si2 0.250000 0.387440 0.750000
Si Si3 0.853398 0.163940 0.767131
Si Si4 0.851031 0.366137 0.155477
Si Si5 0.250000 0.029639 0.250000
Si Si6 0.103754 0.107109 0.267033
Si Si7 0.839885 0.542987 0.624587
Si Si8 0.000000 0.701214 0.679227
O O1 0.585147 0.208286 0.711559
O O2 0.500000 0.263506 0.410418
O O3 0.500000 0.275721 0.911943
O O4 0.328583 0.358100 0.630229
O O5 0.195483 0.422431 0.581089
O O6 0.750000 0.174973 0.750000
O O7 0.878508 0.136411 0.516631
O O8 0.870817 0.134529 0.016471
O O9 0.750000 0.361624 0.250000
O O10 0.881294 0.419466 0.189122
O O11 0.915901 0.331465 0.280026
O O12 0.165169 0.062542 0.275156
O O13 0.257582 0.000000 0.500000
O O14 0.000000 0.096466 0.256546
O O15 0.887699 0.500000 0.500000
O O16 0.750000 0.524063 0.750000
#
# Coordination Sequence:
#
# PCOD9419993 Si02
#       8
#     4   4   8   8   4   8   8   4
#     4  12  28  44  72 102 130 162 226 294 338 418
#     4   8  16  32  56  84 115 159 208 252 300 382
#     4  12  23  45  74 105 131 174 234 288 363 404
#     4   9  22  38  63  88 124 172 216 245 332 412
#     4  12  26  42  66 108 155 195 248 278 332 398
#     4  12  23  43  75 101 145 191 233 289 345 405
#     4   9  15  27  54  91 119 152 212 261 309 367
#     4  12  28  46  65  95 137 171 206 280 346 398
#
# _framework density 20.049232
#
# number of rings (size 3 to 8) (size 9 to 14) (size 15 to 20)
#    0.000    1.667    4.167    2.000    4.667    2.000 
#    0.000    0.417    0.000    1.000    0.000    0.000 
#    0.000    0.000    0.000    0.000    0.000    0.000 
#
# Total GULP energy -267413.925248 kJ/mol
# GULP energy per Si atom -5571.123443 kJ/mol
# Density = 2.000360 g / cm^3
# Si number density = 20.049232 Si / 1000 Ang^3
#
#
#
# Elastic Constant Matrix: (Units=GPa)
#
#
# Indices 1 2 3 4 5 6 
#
# 1 131.3150 40.5904 4.0721 0.0000 0.0000 0.0000
# 2 40.5904 83.3268 20.7701 0.0000 0.0000 0.0000
# 3 4.0721 20.7701 93.8322 0.0000 0.0000 0.0000
# 4 0.0000 0.0000 0.0000 42.8545 0.0000 0.0000
# 5 0.0000 0.0000 0.0000 0.0000 23.6028 0.0000
# 6 0.0000 0.0000 0.0000 0.0000 0.0000 10.6940
#
#
#
# Elastic Compliance Matrix: (Units=1/GPa)
#
#
# Indices 1 2 3 4 5 6 
#
# 1 0.008998 -0.004536 0.000614 0.000000 0.000000 0.000000
# 2 -0.004536 0.014989 -0.003121 0.000000 0.000000 0.000000
# 3 0.000614 -0.003121 0.011322 0.000000 0.000000 0.000000
# 4 0.000000 0.000000 0.000000 0.023335 0.000000 0.000000
# 5 0.000000 0.000000 0.000000 0.000000 0.042368 0.000000
# 6 0.000000 0.000000 0.000000 0.000000 0.000000 0.093510
#
#
# Mechanical properties :
#
#
# Convention : Reuss Voigt Hill
#
# Bulk Modulus (GPa) = 47.12231 48.81545 47.96888
# Shear Modulus (GPa) = 23.18225 31.63303 27.40764
#
# Velocity S-wave (km/s) = 3.40408 3.97642 3.70133
# Velocity P-wave (km/s) = 6.24537 6.74412 6.49953
#
# Compressibility (1/GPa) = 0.02122137
#
# Stress axis : x y z
#
# Youngs Moduli (GPa) = 111.13021 66.71736 88.32735
#
# Poissons Ratio (x) = 0.30265 -0.05420
# Poissons Ratio (y) = 0.50412 0.27566
# Poissons Ratio (z) = -0.06819 0.20822
#
# Static dielectric constant tensor:
#      x y z
#    x 1.703870 0.000000 0.000000 
#    y 0.000000 1.699760 0.000000 
#    z 0.000000 0.000000 2.127980 
# 
# From -- ./inp_files/1466.got.cif
#   From: 2010.05.17/outbox.cif.g08.bks.cpg/sg53_1_cif.got.tgz:1466.got - 2010.06.03 12:45:16.
