data_PCOD9419214
_publ_section_title
;
Structure prediction by ZEFSAII (Michael W. Deem and Ramdas Pophale) SiO2 
 PCOD9419214
Probable space group: P M N A
;
_chemical_formula_sum "Si O2"
_cell_formula_units_Z 40
_cell_length_a 17.649138
_cell_length_b 5.037929
_cell_length_c 20.714112
_cell_angle_alpha 90.000000
_cell_angle_beta 90.000000
_cell_angle_gamma 90.000000
_cell_volume 1841.797426
_symmetry_space_group_name_H-M "P M N A"
_symmetry_group_IT_number 53
_symmetry_cell_setting 'orthorhombic'
loop_
_space_group_symop_operation_xyz
x,y,z
1/2-x,-y,1/2+z
x,-y,-z
1/2-x,y,1/2-z
-x,-y,-z
1/2+x,y,1/2-z
-x,y,z
1/2+x,-y,1/2+z
loop_
_atom_site_type_symbol
_atom_site_label
_atom_site_fract_x
_atom_site_fract_y
_atom_site_fract_z
Si Si1 0.910825 0.963960 0.622013
Si Si2 0.085418 0.765328 0.042064
Si Si3 0.177123 0.525587 0.425701
Si Si4 0.326492 0.518784 0.340711
Si Si5 0.336423 0.034801 0.261347
O O1 0.887381 0.691107 0.587943
O O2 0.886035 0.945202 0.697143
O O3 0.000000 0.018322 0.616507
O O4 0.859368 0.190379 0.589496
O O5 0.127076 0.677026 0.105637
O O6 0.000000 0.854726 0.058095
O O7 0.082082 0.500000 0.000000
O O8 0.122407 0.000000 0.000000
O O9 0.203495 0.500000 0.500000
O O10 0.245314 0.476955 0.375097
O O11 0.361718 0.240737 0.317048
O O12 0.328681 0.729248 0.282398
O O13 0.250000 0.129034 0.250000
#
# Coordination Sequence:
#
# PCOD9419214 Si02
#       5
#     8   8   8   8   8
#     4  12  27  45  66  96 132 173 220 273 328 391
#     4  10  22  40  61  93 137 172 208 264 321 379
#     4  12  25  43  68  97 130 174 221 269 326 392
#     4  12  23  40  71  97 129 169 222 266 325 396
#     4  12  23  43  68  92 130 168 209 274 333 380
#
# _framework density 21.717915999999999
#
# number of rings (size 3 to 8) (size 9 to 14) (size 15 to 20)
#    0.000    0.400    4.000    4.800    0.000    5.600 
#    0.000    0.000    0.000    0.000    0.000    0.000 
#    0.000    0.000    0.000    0.000    0.000    0.000 
#
# Total GULP energy -223718.988371 kJ/mol
# GULP energy per Si atom -5592.974709 kJ/mol
# Density = 2.166848 g / cm^3
# Si number density = 21.717916 Si / 1000 Ang^3
#
#
#
# Elastic Constant Matrix: (Units=GPa)
#
#
# Indices 1 2 3 4 5 6 
#
# 1 32.6612 -7.5436 -2.0140 0.0000 0.0000 0.0000
# 2 -7.5436 99.6157 11.9615 0.0000 0.0000 0.0000
# 3 -2.0140 11.9615 61.4957 0.0000 0.0000 0.0000
# 4 0.0000 0.0000 0.0000 46.5365 0.0000 0.0000
# 5 0.0000 0.0000 0.0000 0.0000 23.9006 0.0000
# 6 0.0000 0.0000 0.0000 0.0000 0.0000 27.9934
#
#
#
# Elastic Compliance Matrix: (Units=1/GPa)
#
#
# Indices 1 2 3 4 5 6 
#
# 1 0.031182 0.002292 0.000575 0.000000 0.000000 0.000000
# 2 0.002292 0.010447 -0.001957 0.000000 0.000000 0.000000
# 3 0.000575 -0.001957 0.016661 0.000000 0.000000 0.000000
# 4 0.000000 0.000000 0.000000 0.021489 0.000000 0.000000
# 5 0.000000 0.000000 0.000000 0.000000 0.041840 0.000000
# 6 0.000000 0.000000 0.000000 0.000000 0.000000 0.035723
#
#
# Mechanical properties :
#
#
# Convention : Reuss Voigt Hill
#
# Bulk Modulus (GPa) = 16.63576 22.06449 19.35012
# Shear Modulus (GPa) = 28.48072 32.44400 30.46236
#
# Velocity S-wave (km/s) = 3.62524 3.86927 3.74924
# Velocity P-wave (km/s) = 5.01993 5.49029 5.26037
#
# Compressibility (1/GPa) = 0.06011148
#
# Stress axis : x y z
#
# Youngs Moduli (GPa) = 32.06948 95.71985 60.02116
#
# Poissons Ratio (x) = -0.21942 -0.03453
# Poissons Ratio (y) = -0.07351 0.11746
# Poissons Ratio (z) = -0.01845 0.18732
#
# Static dielectric constant tensor:
#      x y z
#    x 1.786470 0.000000 0.000000 
#    y 0.000000 1.784830 0.000000 
#    z 0.000000 0.000000 1.821790 
# 
# From -- ./inp_files/32676.got.cif
#   From: 2010.05.17/outbox.cif.g08.bks.cpg/sg53_17_cif.got.tgz:32676.got - 2010.06.03 12:45:16.
