data_PCOD9419349
_publ_section_title
;
Structure prediction by ZEFSAII (Michael W. Deem and Ramdas Pophale) SiO2 
 PCOD9419349
Probable space group: P M N A
;
_chemical_formula_sum "Si O2"
_cell_formula_units_Z 48
_cell_length_a 9.733305
_cell_length_b 16.240338
_cell_length_c 15.635255
_cell_angle_alpha 90.000000
_cell_angle_beta 90.000000
_cell_angle_gamma 90.000000
_cell_volume 2471.498578
_symmetry_space_group_name_H-M "P M N A"
_symmetry_group_IT_number 53
_symmetry_cell_setting 'orthorhombic'
loop_
_space_group_symop_operation_xyz
x,y,z
1/2-x,-y,1/2+z
x,-y,-z
1/2-x,y,1/2-z
-x,-y,-z
1/2+x,y,1/2-z
-x,y,z
1/2+x,-y,1/2+z
loop_
_atom_site_type_symbol
_atom_site_label
_atom_site_fract_x
_atom_site_fract_y
_atom_site_fract_z
Si Si1 0.664362 0.401661 0.508270
Si Si2 0.000000 0.820940 0.677483
Si Si3 0.664958 0.314530 0.840302
Si Si4 0.769812 0.872688 0.351329
Si Si5 0.257708 0.309642 0.155576
Si Si6 0.000000 0.806207 0.864509
Si Si7 0.000000 0.908036 0.037345
Si Si8 0.500000 0.999190 0.899687
O O1 0.663093 0.500000 0.500000
O O2 0.500000 0.375700 0.510271
O O3 0.749187 0.368162 0.590377
O O4 0.747669 0.369502 0.424839
O O5 0.123841 0.758559 0.659461
O O6 0.000000 0.903882 0.624658
O O7 0.000000 0.854796 0.775166
O O8 0.750000 0.320419 0.750000
O O9 0.500000 0.334951 0.831993
O O10 0.673273 0.218856 0.871314
O O11 0.750000 0.871845 0.250000
O O12 0.632120 0.888105 0.404970
O O13 0.870106 0.948417 0.369246
O O14 0.250000 0.350649 0.250000
O O15 0.127156 0.253171 0.142416
O O16 0.000000 0.853783 0.952110
O O17 0.000000 0.000000 0.000000
O O18 0.500000 0.000000 0.000000
#
# Coordination Sequence:
#
# PCOD9419349 Si02
#       8
#     8   4   8   8   8   4   4   4
#     4  11  25  45  73 105 141 181 225 288 352 419
#     4  10  26  40  69  92 135 181 225 283 349 407
#     4  11  25  46  73 103 138 186 236 283 351 421
#     4  11  26  44  66  93 133 182 227 289 341 400
#     4  10  22  43  67  98 132 179 222 275 344 421
#     4  10  22  43  65  92 125 175 226 276 334 402
#     4  12  27  40  64  95 126 175 239 289 348 411
#     4  12  27  43  60  96 133 174 225 285 337 401
#
# _framework density 19.421417000000002
#
# number of rings (size 3 to 8) (size 9 to 14) (size 15 to 20)
#    0.000    1.167    1.667    2.500   15.167    1.667 
#    0.000    0.000    0.000    0.000    0.000    0.000 
#    0.000    0.000    0.000    0.000    0.000    0.000 
#
# Total GULP energy -267685.801427 kJ/mol
# GULP energy per Si atom -5576.787530 kJ/mol
# Density = 1.937721 g / cm^3
# Si number density = 19.421417 Si / 1000 Ang^3
#
#
#
# Elastic Constant Matrix: (Units=GPa)
#
#
# Indices 1 2 3 4 5 6 
#
# 1 160.9834 43.2408 59.3777 0.0000 0.0000 0.0000
# 2 43.2408 86.0333 64.0850 0.0000 0.0000 0.0000
# 3 59.3777 64.0850 161.3863 0.0000 0.0000 0.0000
# 4 0.0000 0.0000 0.0000 7.2886 0.0000 0.0000
# 5 0.0000 0.0000 0.0000 0.0000 24.8199 0.0000
# 6 0.0000 0.0000 0.0000 0.0000 0.0000 34.5301
#
#
#
# Elastic Compliance Matrix: (Units=1/GPa)
#
#
# Indices 1 2 3 4 5 6 
#
# 1 0.007533 -0.002445 -0.001801 0.000000 0.000000 0.000000
# 2 -0.002445 0.017299 -0.005970 0.000000 0.000000 0.000000
# 3 -0.001801 -0.005970 0.009229 0.000000 0.000000 0.000000
# 4 0.000000 0.000000 0.000000 0.137201 0.000000 0.000000
# 5 0.000000 0.000000 0.000000 0.000000 0.040290 0.000000
# 6 0.000000 0.000000 0.000000 0.000000 0.000000 0.028960
#
#
# Mechanical properties :
#
#
# Convention : Reuss Voigt Hill
#
# Bulk Modulus (GPa) = 73.36391 82.42335 77.89363
# Shear Modulus (GPa) = 18.83334 29.44099 24.13716
#
# Velocity S-wave (km/s) = 3.11741 3.89768 3.52918
# Velocity P-wave (km/s) = 7.12842 7.92385 7.53664
#
# Compressibility (1/GPa) = 0.01363068
#
# Stress axis : x y z
#
# Youngs Moduli (GPa) = 132.75572 57.80707 108.34964
#
# Poissons Ratio (x) = 0.14132 0.19510
# Poissons Ratio (y) = 0.32454 0.64683
# Poissons Ratio (z) = 0.23905 0.34510
#
# Static dielectric constant tensor:
#      x y z
#    x 1.738580 0.000000 0.000000 
#    y 0.000000 2.453640 0.000000 
#    z 0.000000 0.000000 1.723350 
# 
# From -- ./inp_files/20302.got.cif
#   From: 2010.05.17/outbox.cif.g08.bks.cpg/sg53_11_cif.got.tgz:20302.got - 2010.06.03 12:45:16.
