data_PCOD9419273
_publ_section_title
;
Structure prediction by ZEFSAII (Michael W. Deem and Ramdas Pophale) SiO2 
 PCOD9419273
Probable space group: P M N A
;
_chemical_formula_sum "Si O2"
_cell_formula_units_Z 40
_cell_length_a 15.730926
_cell_length_b 7.994664
_cell_length_c 16.088338
_cell_angle_alpha 90.000000
_cell_angle_beta 90.000000
_cell_angle_gamma 90.000000
_cell_volume 2023.325178
_symmetry_space_group_name_H-M "P M N A"
_symmetry_group_IT_number 53
_symmetry_cell_setting 'orthorhombic'
loop_
_space_group_symop_operation_xyz
x,y,z
1/2-x,-y,1/2+z
x,-y,-z
1/2-x,y,1/2-z
-x,-y,-z
1/2+x,y,1/2-z
-x,y,z
1/2+x,-y,1/2+z
loop_
_atom_site_type_symbol
_atom_site_label
_atom_site_fract_x
_atom_site_fract_y
_atom_site_fract_z
Si Si1 0.806108 0.727305 0.330620
Si Si2 0.601422 0.377664 0.131674
Si Si3 0.905957 0.880077 0.920289
Si Si4 0.249788 0.690325 0.990097
Si Si5 0.902159 0.949859 0.731847
O O1 0.750000 0.685667 0.250000
O O2 0.865826 0.564458 0.346505
O O3 0.756202 0.758590 0.416664
O O4 0.851151 0.901852 0.310349
O O5 0.500000 0.380790 0.116247
O O6 0.657892 0.314068 0.053817
O O7 0.620340 0.238788 0.202948
O O8 0.821717 0.773594 0.934294
O O9 0.896326 0.966662 0.831079
O O10 0.000000 0.794044 0.917190
O O11 0.908830 0.000000 0.000000
O O12 0.222766 0.500000 0.000000
O O13 0.000000 0.971684 0.707303
#
# Coordination Sequence:
#
# PCOD9419273 Si02
#       5
#     8   8   8   8   8
#     4  11  24  39  63  96 126 169 214 263 320 383
#     4  10  24  43  65  95 131 169 214 267 321 384
#     4  10  22  41  63  91 128 167 213 264 317 382
#     4  10  24  40  63  95 124 170 212 259 330 374
#     4  10  23  41  65  92 123 171 212 263 328 372
#
# _framework density 19.769437
#
# number of rings (size 3 to 8) (size 9 to 14) (size 15 to 20)
#    0.000    1.800    0.000    1.800   11.200    4.800 
#    0.000    3.000    0.000    0.000    0.000    0.000 
#    0.000    0.000    0.000    0.000    0.000    0.000 
#
# Total GULP energy -223117.231281 kJ/mol
# GULP energy per Si atom -5577.930782 kJ/mol
# Density = 1.972444 g / cm^3
# Si number density = 19.769437 Si / 1000 Ang^3
#
#
#
# Elastic Constant Matrix: (Units=GPa)
#
#
# Indices 1 2 3 4 5 6 
#
# 1 99.9908 36.5868 19.1202 0.0000 0.0000 0.0000
# 2 36.5868 64.8964 8.6402 0.0000 0.0000 0.0000
# 3 19.1202 8.6402 60.4254 0.0000 0.0000 0.0000
# 4 0.0000 0.0000 0.0000 27.9850 0.0000 0.0000
# 5 0.0000 0.0000 0.0000 0.0000 40.1134 0.0000
# 6 0.0000 0.0000 0.0000 0.0000 0.0000 -70.4594
#
#
#
# Elastic Compliance Matrix: (Units=1/GPa)
#
#
# Indices 1 2 3 4 5 6 
#
# 1 0.013168 -0.007003 -0.003166 0.000000 0.000000 0.000000
# 2 -0.007003 0.019432 -0.000563 0.000000 0.000000 0.000000
# 3 -0.003166 -0.000563 0.017631 0.000000 0.000000 0.000000
# 4 0.000000 0.000000 0.000000 0.035733 0.000000 0.000000
# 5 0.000000 0.000000 0.000000 0.000000 0.024929 0.000000
# 6 0.000000 0.000000 0.000000 0.000000 0.000000 -0.014193
#
#
# Mechanical properties :
#
#
# Convention : Reuss Voigt Hill
#
# Bulk Modulus (GPa) = 34.75829 39.33411 37.04620
# Shear Modulus (GPa) = 39.13770 10.25882 24.69826
#
# Velocity S-wave (km/s) = 4.45422 2.28046 3.53840
# Velocity P-wave (km/s) = 6.63878 5.18398 5.95596
#
# Compressibility (1/GPa) = 0.02877012
#
# Stress axis : x y z
#
# Youngs Moduli (GPa) = 75.93880 51.46157 56.71680
#
# Poissons Ratio (x) = 0.36036 0.17954
# Poissons Ratio (y) = 0.53177 0.03192
# Poissons Ratio (z) = 0.24039 0.02896
#
# Static dielectric constant tensor:
#      x y z
#    x 1.725450 0.000000 0.000000 
#    y 0.000000 1.688440 0.000000 
#    z 0.000000 0.000000 1.448480 
# 
# From -- ./inp_files/22389.got.cif
#   From: 2010.05.17/outbox.cif.g08.bks.cpg/sg53_12_cif.got.tgz:22389.got - 2010.06.03 12:45:16.
