data_PCOD9419648
_publ_section_title
;
Structure prediction by ZEFSAII (Michael W. Deem and Ramdas Pophale) SiO2 
 PCOD9419648
Probable space group: P M N A
;
_chemical_formula_sum "Si O2"
_cell_formula_units_Z 40
_cell_length_a 13.711104
_cell_length_b 9.800233
_cell_length_c 17.597573
_cell_angle_alpha 90.000000
_cell_angle_beta 90.000000
_cell_angle_gamma 90.000000
_cell_volume 2364.621324
_symmetry_space_group_name_H-M "P M N A"
_symmetry_group_IT_number 53
_symmetry_cell_setting 'orthorhombic'
loop_
_space_group_symop_operation_xyz
x,y,z
1/2-x,-y,1/2+z
x,-y,-z
1/2-x,y,1/2-z
-x,-y,-z
1/2+x,y,1/2-z
-x,y,z
1/2+x,-y,1/2+z
loop_
_atom_site_type_symbol
_atom_site_label
_atom_site_fract_x
_atom_site_fract_y
_atom_site_fract_z
Si Si1 0.611053 0.356386 0.955365
Si Si2 0.885012 0.715812 0.868535
Si Si3 0.766070 0.503894 0.335347
Si Si4 0.385017 0.772894 0.807629
Si Si5 0.781504 0.869628 0.553896
O O1 0.500000 0.327212 0.931183
O O2 0.685731 0.382311 0.887054
O O3 0.610300 0.500000 0.000000
O O4 0.652087 0.240355 0.009940
O O5 0.832462 0.567525 0.866239
O O6 0.869797 0.779193 0.783409
O O7 0.824394 0.805874 0.927955
O O8 0.000000 0.707576 0.882458
O O9 0.750000 0.552962 0.250000
O O10 0.840149 0.374567 0.329952
O O11 0.500000 0.774917 0.821999
O O12 0.332227 0.881193 0.862704
O O13 0.776433 0.000000 0.500000
#
# Coordination Sequence:
#
# PCOD9419648 Si02
#       5
#     8   8   8   8   8
#     4  11  20  33  55  80 106 133 167 213 267 313
#     4   9  18  33  54  75  99 138 181 213 249 308
#     4   9  17  31  51  78 106 133 169 215 261 309
#     4   9  16  30  53  77  99 129 173 217 258 311
#     4  11  22  34  50  77 111 139 171 216 263 305
#
# _framework density 16.916028000000001
#
# number of rings (size 3 to 8) (size 9 to 14) (size 15 to 20)
#    0.000    2.200    4.000    3.000    0.000    2.800 
#    0.000    4.000    0.000    0.000    0.000    0.000 
#    0.000    0.000    0.000    0.000    0.000    0.000 
#
# Total GULP energy -222854.116433 kJ/mol
# GULP energy per Si atom -5571.352911 kJ/mol
# Density = 1.687753 g / cm^3
# Si number density = 16.916028 Si / 1000 Ang^3
#
#
#
# Elastic Constant Matrix: (Units=GPa)
#
#
# Indices 1 2 3 4 5 6 
#
# 1 136.6035 28.7237 41.1803 0.0000 0.0000 0.0000
# 2 28.7237 40.4353 22.3908 0.0000 0.0000 0.0000
# 3 41.1803 22.3908 68.0674 0.0000 0.0000 0.0000
# 4 0.0000 0.0000 0.0000 20.2838 0.0000 0.0000
# 5 0.0000 0.0000 0.0000 0.0000 30.3976 0.0000
# 6 0.0000 0.0000 0.0000 0.0000 0.0000 3.8128
#
#
#
# Elastic Compliance Matrix: (Units=1/GPa)
#
#
# Indices 1 2 3 4 5 6 
#
# 1 0.009549 -0.004382 -0.004335 0.000000 0.000000 0.000000
# 2 -0.004382 0.032250 -0.007957 0.000000 0.000000 0.000000
# 3 -0.004335 -0.007957 0.019932 0.000000 0.000000 0.000000
# 4 0.000000 0.000000 0.000000 0.049300 0.000000 0.000000
# 5 0.000000 0.000000 0.000000 0.000000 0.032897 0.000000
# 6 0.000000 0.000000 0.000000 0.000000 0.000000 0.262273
#
#
# Mechanical properties :
#
#
# Convention : Reuss Voigt Hill
#
# Bulk Modulus (GPa) = 35.23546 47.74399 41.48973
# Shear Modulus (GPa) = 11.13554 21.08626 16.11090
#
# Velocity S-wave (km/s) = 2.56849 3.53445 3.08945
# Velocity P-wave (km/s) = 5.44711 6.70387 6.10790
#
# Compressibility (1/GPa) = 0.02838050
#
# Stress axis : x y z
#
# Youngs Moduli (GPa) = 104.72403 31.00738 50.17103
#
# Poissons Ratio (x) = 0.13589 0.21751
# Poissons Ratio (y) = 0.45895 0.39923
# Poissons Ratio (z) = 0.45402 0.24674
#
# Static dielectric constant tensor:
#      x y z
#    x 1.588360 0.000000 0.000000 
#    y 0.000000 1.541870 0.000000 
#    z 0.000000 0.000000 1.640190 
# 
# From -- ./inp_files/28064.got.cif
#   From: 2010.05.17/outbox.cif.g08.bks.cpg/sg53_15_cif.got.tgz:28064.got - 2010.06.03 12:45:16.
