data_PCOD9419983
_publ_section_title
;
Structure prediction by ZEFSAII (Michael W. Deem and Ramdas Pophale) SiO2 
 PCOD9419983
Probable space group: P M N A
;
_chemical_formula_sum "Si O2"
_cell_formula_units_Z 64
_cell_length_a 18.600833
_cell_length_b 16.974496
_cell_length_c 11.415298
_cell_angle_alpha 90.000000
_cell_angle_beta 90.000000
_cell_angle_gamma 90.000000
_cell_volume 3604.263512
_symmetry_space_group_name_H-M "P M N A"
_symmetry_group_IT_number 53
_symmetry_cell_setting 'orthorhombic'
loop_
_space_group_symop_operation_xyz
x,y,z
1/2-x,-y,1/2+z
x,-y,-z
1/2-x,y,1/2-z
-x,-y,-z
1/2+x,y,1/2-z
-x,y,z
1/2+x,-y,1/2+z
loop_
_atom_site_type_symbol
_atom_site_label
_atom_site_fract_x
_atom_site_fract_y
_atom_site_fract_z
Si Si1 0.852217 0.646748 0.579164
Si Si2 0.415568 0.376414 0.829684
Si Si3 0.915324 0.103068 0.880037
Si Si4 0.334842 0.521866 0.721485
Si Si5 0.680655 0.347061 0.455338
Si Si6 0.169674 0.744646 0.196247
Si Si7 0.416242 0.074440 0.340848
Si Si8 0.336470 0.223389 0.253284
O O1 0.894937 0.618428 0.466280
O O2 0.861758 0.584126 0.682287
O O3 0.767253 0.648556 0.550863
O O4 0.866192 0.731812 0.638233
O O5 0.500000 0.381267 0.812921
O O6 0.376735 0.442604 0.750654
O O7 0.383096 0.293184 0.790907
O O8 0.861535 0.170817 0.839639
O O9 0.000000 0.121034 0.855432
O O10 0.897728 0.017512 0.825502
O O11 0.909541 0.092852 0.020462
O O12 0.250000 0.508731 0.750000
O O13 0.342789 0.567798 0.597437
O O14 0.665126 0.313539 0.583562
O O15 0.651011 0.281811 0.363860
O O16 0.250000 0.747148 0.250000
O O17 0.500000 0.083958 0.310332
O O18 0.370045 0.138459 0.272870
O O19 0.250000 0.217828 0.250000
#
# Coordination Sequence:
#
# PCOD9419983 Si02
#       8
#     8   8   8   8   8   8   8   8
#     4   9  19  36  57  82 109 142 184 228 279 326
#     4  12  25  38  52  82 119 150 182 223 278 344
#     4   9  19  35  54  81 113 144 183 237 283 329
#     4   9  20  38  61  80 102 143 188 234 280 320
#     4   9  18  37  57  82 106 136 190 242 273 323
#     4  12  22  36  60  80 109 149 192 226 281 341
#     4   9  17  32  56  82 110 145 186 228 284 339
#     4   9  17  32  59  84 111 140 180 241 284 318
#
# _framework density 17.756748000000002
#
# number of rings (size 3 to 8) (size 9 to 14) (size 15 to 20)
#    0.000    2.250    2.500    3.375    0.000    2.500 
#    0.000    3.750    0.000    0.750    0.000    2.625 
#    0.000    0.000    0.000    0.000    0.000    0.000 
#
# Total GULP energy -356666.949334 kJ/mol
# GULP energy per Si atom -5572.921083 kJ/mol
# Density = 1.771633 g / cm^3
# Si number density = 17.756748 Si / 1000 Ang^3
#
#
#
# Elastic Constant Matrix: (Units=GPa)
#
#
# Indices 1 2 3 4 5 6 
#
# 1 68.2228 66.5163 40.5408 0.0000 0.0000 0.0000
# 2 66.5163 121.4679 48.7731 0.0000 0.0000 0.0000
# 3 40.5408 48.7731 66.9243 0.0000 0.0000 0.0000
# 4 0.0000 0.0000 0.0000 102.1308 0.0000 0.0000
# 5 0.0000 0.0000 0.0000 0.0000 10.1206 0.0000
# 6 0.0000 0.0000 0.0000 0.0000 0.0000 27.7145
#
#
#
# Elastic Compliance Matrix: (Units=1/GPa)
#
#
# Indices 1 2 3 4 5 6 
#
# 1 0.036028 -0.015502 -0.010527 0.000000 0.000000 0.000000
# 2 -0.015502 0.018309 -0.003952 0.000000 0.000000 0.000000
# 3 -0.010527 -0.003952 0.024199 0.000000 0.000000 0.000000
# 4 0.000000 0.000000 0.000000 0.009791 0.000000 0.000000
# 5 0.000000 0.000000 0.000000 0.000000 0.098809 0.000000
# 6 0.000000 0.000000 0.000000 0.000000 0.000000 0.036082
#
#
# Mechanical properties :
#
#
# Convention : Reuss Voigt Hill
#
# Bulk Modulus (GPa) = 53.84073 63.14171 58.49122
# Shear Modulus (GPa) = 17.27883 34.71216 25.99549
#
# Velocity S-wave (km/s) = 3.12282 4.42619 3.83035
# Velocity P-wave (km/s) = 6.58709 7.85863 7.25078
#
# Compressibility (1/GPa) = 0.01857330
#
# Stress axis : x y z
#
# Youngs Moduli (GPa) = 27.75648 54.61939 41.32318
#
# Poissons Ratio (x) = 0.84671 0.43501
# Poissons Ratio (y) = 0.43028 0.16332
# Poissons Ratio (z) = 0.29219 0.21587
#
# Static dielectric constant tensor:
#      x y z
#    x 1.581520 0.000000 0.000000 
#    y 0.000000 1.619140 0.000000 
#    z 0.000000 0.000000 1.631320 
# 
# From -- ./inp_files/16229.got.cif
#   From: 2010.05.17/outbox.cif.g08.bks.cpg/sg53_9_cif.got.tgz:16229.got - 2010.06.03 12:45:16.
