data_PCOD9419304
_publ_section_title
;
Structure prediction by ZEFSAII (Michael W. Deem and Ramdas Pophale) SiO2 
 PCOD9419304
Probable space group: P M N A
;
_chemical_formula_sum "Si O2"
_cell_formula_units_Z 40
_cell_length_a 13.050938
_cell_length_b 8.196080
_cell_length_c 14.029832
_cell_angle_alpha 90.000000
_cell_angle_beta 90.000000
_cell_angle_gamma 90.000000
_cell_volume 1500.722473
_symmetry_space_group_name_H-M "P M N A"
_symmetry_group_IT_number 53
_symmetry_cell_setting 'orthorhombic'
loop_
_space_group_symop_operation_xyz
x,y,z
1/2-x,-y,1/2+z
x,-y,-z
1/2-x,y,1/2-z
-x,-y,-z
1/2+x,y,1/2-z
-x,y,z
1/2+x,-y,1/2+z
loop_
_atom_site_type_symbol
_atom_site_label
_atom_site_fract_x
_atom_site_fract_y
_atom_site_fract_z
Si Si1 0.616223 0.097379 0.693712
Si Si2 0.883342 0.538998 0.237051
Si Si3 0.392066 0.669163 0.555851
Si Si4 0.170735 0.616725 0.580396
Si Si5 0.677866 0.959841 0.889968
O O1 0.500000 0.060730 0.665805
O O2 0.628318 0.069522 0.807082
O O3 0.700828 0.989503 0.638243
O O4 0.635623 0.290892 0.682083
O O5 0.887766 0.385686 0.165988
O O6 0.814758 0.500360 0.328800
O O7 0.000000 0.557785 0.275410
O O8 0.402589 0.500000 0.500000
O O9 0.500000 0.759568 0.536788
O O10 0.272989 0.702659 0.534953
O O11 0.125067 0.500000 0.500000
O O12 0.126344 0.781544 0.623666
O O13 0.658607 0.000000 0.000000
#
# Coordination Sequence:
#
# PCOD9419304 Si02
#       5
#     8   8   8   8   8
#     4  10  25  46  69  98 136 178 222 275 340 404
#     4  10  22  41  67  93 125 172 220 271 322 387
#     4   9  20  35  59  92 125 162 209 260 317 376
#     4  11  24  40  66  96 126 173 222 271 323 386
#     4  11  26  44  67 100 136 180 222 276 343 404
#
# _framework density 26.653829999999999
#
# number of rings (size 3 to 8) (size 9 to 14) (size 15 to 20)
#    0.000    1.800    0.000    1.800   16.800    2.800 
#    0.000    0.000    0.000    0.000    0.000    0.000 
#    0.000    0.000    0.000    0.000    0.000    0.000 
#
# Total GULP energy -223092.307140 kJ/mol
# GULP energy per Si atom -5577.307678 kJ/mol
# Density = 2.659316 g / cm^3
# Si number density = 26.653830 Si / 1000 Ang^3
#
#
#
# Elastic Constant Matrix: (Units=GPa)
#
#
# Indices 1 2 3 4 5 6 
#
# 1 115.8126 5.1214 -17.8124 0.0000 0.0000 0.0000
# 2 5.1214 108.7267 22.4608 0.0000 0.0000 0.0000
# 3 -17.8124 22.4608 153.6737 0.0000 0.0000 0.0000
# 4 0.0000 0.0000 0.0000 52.6324 0.0000 0.0000
# 5 0.0000 0.0000 0.0000 0.0000 -410.5150 0.0000
# 6 0.0000 0.0000 0.0000 0.0000 0.0000 10.1240
#
#
#
# Elastic Compliance Matrix: (Units=1/GPa)
#
#
# Indices 1 2 3 4 5 6 
#
# 1 0.008835 -0.000647 0.001119 0.000000 0.000000 0.000000
# 2 -0.000647 0.009531 -0.001468 0.000000 0.000000 0.000000
# 3 0.001119 -0.001468 0.006852 0.000000 0.000000 0.000000
# 4 0.000000 0.000000 0.000000 0.019000 0.000000 0.000000
# 5 0.000000 0.000000 0.000000 0.000000 -0.002436 0.000000
# 6 0.000000 0.000000 0.000000 0.000000 0.000000 0.098775
#
#
# Mechanical properties :
#
#
# Convention : Reuss Voigt Hill
#
# Bulk Modulus (GPa) = 43.05761 44.19472 43.62616
# Shear Modulus (GPa) = 33.26858 -44.98884 -5.86013
#
# Velocity S-wave (km/s) = 3.53678 -4.11286 -1.48438
# Velocity P-wave (km/s) = 5.73305 2.43662 3.66952
#
# Compressibility (1/GPa) = 0.02322470
#
# Stress axis : x y z
#
# Youngs Moduli (GPa) = 113.18206 104.91922 145.95261
#
# Poissons Ratio (x) = 0.06791 -0.16328
# Poissons Ratio (y) = 0.07326 0.21427
# Poissons Ratio (z) = -0.12662 0.15403
#
# Static dielectric constant tensor:
#      x y z
#    x 2.397950 0.000000 0.000000 
#    y 0.000000 2.076430 0.000000 
#    z 0.000000 0.000000 2.026110 
# 
# From -- ./inp_files/22453.got.cif
#   From: 2010.05.17/outbox.cif.g08.bks.cpg/sg53_12_cif.got.tgz:22453.got - 2010.06.03 12:45:16.
