data_PCOD9419182
_publ_section_title
;
Structure prediction by ZEFSAII (Michael W. Deem and Ramdas Pophale) SiO2 
 PCOD9419182
Probable space group: P M N A
;
_chemical_formula_sum "Si O2"
_cell_formula_units_Z 64
_cell_length_a 15.578690
_cell_length_b 19.229028
_cell_length_c 9.431109
_cell_angle_alpha 90.000000
_cell_angle_beta 90.000000
_cell_angle_gamma 90.000000
_cell_volume 2825.211930
_symmetry_space_group_name_H-M "P M N A"
_symmetry_group_IT_number 53
_symmetry_cell_setting 'orthorhombic'
loop_
_space_group_symop_operation_xyz
x,y,z
1/2-x,-y,1/2+z
x,-y,-z
1/2-x,y,1/2-z
-x,-y,-z
1/2+x,y,1/2-z
-x,y,z
1/2+x,-y,1/2+z
loop_
_atom_site_type_symbol
_atom_site_label
_atom_site_fract_x
_atom_site_fract_y
_atom_site_fract_z
Si Si1 0.852922 0.749025 0.235876
Si Si2 0.096418 0.756915 0.820860
Si Si3 0.768289 0.433795 0.417996
Si Si4 0.406238 0.902050 0.375373
Si Si5 0.403559 0.629918 0.486579
Si Si6 0.679634 0.058144 0.878334
Si Si7 0.598015 0.692037 0.963734
Si Si8 0.273447 0.870700 0.590879
O O1 0.750000 0.750783 0.250000
O O2 0.885460 0.822685 0.175068
O O3 0.891482 0.727599 0.385476
O O4 0.882874 0.687039 0.132687
O O5 0.096937 0.677779 0.873128
O O6 0.110067 0.751434 0.654463
O O7 0.174483 0.799478 0.887318
O O8 0.000000 0.784238 0.852683
O O9 0.807104 0.500000 0.500000
O O10 0.750000 0.444339 0.250000
O O11 0.676904 0.420024 0.495412
O O12 0.830645 0.367602 0.440783
O O13 0.500000 0.908276 0.434648
O O14 0.400527 0.942630 0.226240
O O15 0.341353 0.918175 0.504151
O O16 0.500000 0.600929 0.466929
O O17 0.750000 0.056712 0.750000
O O18 0.696998 0.126249 0.976049
O O19 0.679460 0.000000 0.000000
O O20 0.500000 0.665198 0.947762
O O21 0.250000 0.894408 0.750000
#
# Coordination Sequence:
#
# PCOD9419182 Si02
#       8
#     8   8   8   8   8   8   8   8
#     4  12  23  39  67 102 137 176 219 272 345 412
#     4  10  22  39  63  96 132 172 212 269 345 405
#     4  12  28  46  68  94 129 174 229 276 329 404
#     4  11  24  42  64  99 143 180 221 283 345 404
#     4  11  23  43  69  95 132 174 215 275 341 410
#     4  10  23  44  68  97 133 184 237 280 328 397
#     4  11  25  44  66  96 135 175 221 282 344 407
#     4  11  23  37  66  99 132 173 225 280 335 396
#
# _framework density 22.653168000000001
#
# number of rings (size 3 to 8) (size 9 to 14) (size 15 to 20)
#    0.000    1.000    3.750    3.000    7.000    0.750 
#    0.000    0.625    0.000   19.125    0.000    0.000 
#    0.000    0.000    0.000    0.000    0.000    0.000 
#
# Total GULP energy -357332.633446 kJ/mol
# GULP energy per Si atom -5583.322398 kJ/mol
# Density = 2.260161 g / cm^3
# Si number density = 22.653168 Si / 1000 Ang^3
#
#
#
# Elastic Constant Matrix: (Units=GPa)
#
#
# Indices 1 2 3 4 5 6 
#
# 1 97.5926 13.2425 4.6650 0.0000 0.0000 0.0000
# 2 13.2425 61.9064 16.2483 0.0000 0.0000 0.0000
# 3 4.6650 16.2483 145.5803 0.0000 0.0000 0.0000
# 4 0.0000 0.0000 0.0000 33.5422 0.0000 0.0000
# 5 0.0000 0.0000 0.0000 0.0000 30.7393 0.0000
# 6 0.0000 0.0000 0.0000 0.0000 0.0000 64.5006
#
#
#
# Elastic Compliance Matrix: (Units=1/GPa)
#
#
# Indices 1 2 3 4 5 6 
#
# 1 0.010554 -0.002234 -0.000089 0.000000 0.000000 0.000000
# 2 -0.002234 0.017114 -0.001838 0.000000 0.000000 0.000000
# 3 -0.000089 -0.001838 0.007077 0.000000 0.000000 0.000000
# 4 0.000000 0.000000 0.000000 0.029813 0.000000 0.000000
# 5 0.000000 0.000000 0.000000 0.000000 0.032532 0.000000
# 6 0.000000 0.000000 0.000000 0.000000 0.000000 0.015504
#
#
# Mechanical properties :
#
#
# Convention : Reuss Voigt Hill
#
# Bulk Modulus (GPa) = 37.84752 41.48789 39.66770
# Shear Modulus (GPa) = 38.54330 43.81799 41.18064
#
# Velocity S-wave (km/s) = 4.12934 4.40284 4.26828
# Velocity P-wave (km/s) = 6.28323 6.64837 6.46837
#
# Compressibility (1/GPa) = 0.02642181
#
# Stress axis : x y z
#
# Youngs Moduli (GPa) = 94.74984 58.43199 141.30078
#
# Poissons Ratio (x) = 0.13056 0.01255
# Poissons Ratio (y) = 0.21170 0.25978
# Poissons Ratio (z) = 0.00842 0.10743
#
# Static dielectric constant tensor:
#      x y z
#    x 1.942320 0.000000 0.000000 
#    y 0.000000 1.857710 0.000000 
#    z 0.000000 0.000000 1.852130 
# 
# From -- ./inp_files/8928.got.cif
#   From: 2010.05.17/outbox.cif.g08.bks.cpg/sg53_5_cif.got.tgz:8928.got - 2010.06.03 12:45:16.
