data_PCOD9419120
_publ_section_title
;
Structure prediction by ZEFSAII (Michael W. Deem and Ramdas Pophale) SiO2 
 PCOD9419120
Probable space group: P M N A
;
_chemical_formula_sum "Si O2"
_cell_formula_units_Z 40
_cell_length_a 15.020246
_cell_length_b 8.757267
_cell_length_c 13.380226
_cell_angle_alpha 90.000000
_cell_angle_beta 90.000000
_cell_angle_gamma 90.000000
_cell_volume 1759.985483
_symmetry_space_group_name_H-M "P M N A"
_symmetry_group_IT_number 53
_symmetry_cell_setting 'orthorhombic'
loop_
_space_group_symop_operation_xyz
x,y,z
1/2-x,-y,1/2+z
x,-y,-z
1/2-x,y,1/2-z
-x,-y,-z
1/2+x,y,1/2-z
-x,y,z
1/2+x,-y,1/2+z
loop_
_atom_site_type_symbol
_atom_site_label
_atom_site_fract_x
_atom_site_fract_y
_atom_site_fract_z
Si Si1 0.396822 0.322751 0.998856
Si Si2 0.892410 0.694407 0.887123
Si Si3 0.760662 0.904975 0.600639
Si Si4 0.841089 0.191070 0.710076
Si Si5 0.601766 0.358747 0.613761
O O1 0.500000 0.303687 0.029656
O O2 0.385733 0.270279 0.884183
O O3 0.373308 0.500000 0.000000
O O4 0.331438 0.222546 0.066214
O O5 0.826259 0.826576 0.850982
O O6 0.868735 0.525187 0.845510
O O7 0.000000 0.724759 0.876748
O O8 0.862546 0.682327 0.004664
O O9 0.735056 0.000000 0.500000
O O10 0.811402 0.027734 0.669135
O O11 0.750000 0.268579 0.750000
O O12 0.896150 0.218540 0.809990
O O13 0.500000 0.392431 0.590550
#
# Coordination Sequence:
#
# PCOD9419120 Si02
#       5
#     8   8   8   8   8
#     4  10  23  43  67  93 126 179 232 275 329 395
#     4   9  19  37  64  97 131 172 217 263 331 405
#     4  10  22  38  62  93 130 173 218 265 335 397
#     4  11  23  39  60  95 130 169 217 273 335 387
#     4   9  18  35  64  95 123 165 219 275 327 387
#
# _framework density 22.727461999999999
#
# number of rings (size 3 to 8) (size 9 to 14) (size 15 to 20)
#    0.000    2.200    0.000    4.200    5.600    4.800 
#    3.600    2.000    0.000    0.000    0.000    0.000 
#    0.000    0.000    0.000    0.000    0.000    0.000 
#
# Total GULP energy -223041.475215 kJ/mol
# GULP energy per Si atom -5576.036880 kJ/mol
# Density = 2.267573 g / cm^3
# Si number density = 22.727462 Si / 1000 Ang^3
#
#
#
# Elastic Constant Matrix: (Units=GPa)
#
#
# Indices 1 2 3 4 5 6 
#
# 1 82.4351 68.1030 8.0768 0.0000 0.0000 0.0000
# 2 68.1030 139.4724 40.1029 0.0000 0.0000 0.0000
# 3 8.0768 40.1029 65.8470 0.0000 0.0000 0.0000
# 4 0.0000 0.0000 0.0000 25.5147 0.0000 0.0000
# 5 0.0000 0.0000 0.0000 0.0000 25.9641 0.0000
# 6 0.0000 0.0000 0.0000 0.0000 0.0000 -4.0108
#
#
#
# Elastic Compliance Matrix: (Units=1/GPa)
#
#
# Indices 1 2 3 4 5 6 
#
# 1 0.021393 -0.011749 0.004531 0.000000 0.000000 0.000000
# 2 -0.011749 0.015144 -0.007782 0.000000 0.000000 0.000000
# 3 0.004531 -0.007782 0.019371 0.000000 0.000000 0.000000
# 4 0.000000 0.000000 0.000000 0.039193 0.000000 0.000000
# 5 0.000000 0.000000 0.000000 0.000000 0.038515 0.000000
# 6 0.000000 0.000000 0.000000 0.000000 0.000000 -0.249327
#
#
# Mechanical properties :
#
#
# Convention : Reuss Voigt Hill
#
# Bulk Modulus (GPa) = 38.59762 57.81333 48.20547
# Shear Modulus (GPa) = -64.87122 20.92506 -21.97308
#
# Velocity S-wave (km/s) = -5.34837 3.03759 -3.11273
# Velocity P-wave (km/s) = 4.59569 6.14780 2.88748
#
# Compressibility (1/GPa) = 0.02590833
#
# Stress axis : x y z
#
# Youngs Moduli (GPa) = 46.74415 66.03091 51.62477
#
# Poissons Ratio (x) = 0.77579 -0.23393
# Poissons Ratio (y) = 0.54919 0.40176
# Poissons Ratio (z) = -0.21182 0.51387
#
# Static dielectric constant tensor:
#      x y z
#    x 2.914910 0.000000 0.000000 
#    y 0.000000 1.911000 0.000000 
#    z 0.000000 0.000000 2.243420 
# 
# From -- ./inp_files/22436.got.cif
#   From: 2010.05.17/outbox.cif.g08.bks.cpg/sg53_12_cif.got.tgz:22436.got - 2010.06.03 12:45:16.
