data_PCOD9419883
_publ_section_title
;
Structure prediction by ZEFSAII (Michael W. Deem and Ramdas Pophale) SiO2 
 PCOD9419883
Probable space group: P M N A
;
_chemical_formula_sum "Si O2"
_cell_formula_units_Z 48
_cell_length_a 13.858192
_cell_length_b 9.534248
_cell_length_c 18.950008
_cell_angle_alpha 90.000000
_cell_angle_beta 90.000000
_cell_angle_gamma 90.000000
_cell_volume 2503.816033
_symmetry_space_group_name_H-M "P M N A"
_symmetry_group_IT_number 53
_symmetry_cell_setting 'orthorhombic'
loop_
_space_group_symop_operation_xyz
x,y,z
1/2-x,-y,1/2+z
x,-y,-z
1/2-x,y,1/2-z
-x,-y,-z
1/2+x,y,1/2-z
-x,y,z
1/2+x,-y,1/2+z
loop_
_atom_site_type_symbol
_atom_site_label
_atom_site_fract_x
_atom_site_fract_y
_atom_site_fract_z
Si Si1 0.723240 0.924425 0.096000
Si Si2 0.299815 0.797209 0.552884
Si Si3 0.808273 0.465345 0.418252
Si Si4 0.000000 0.393625 0.810066
Si Si5 0.500000 0.399629 0.860076
Si Si6 0.500000 0.381772 0.437852
Si Si7 0.792337 0.325605 0.823223
Si Si8 0.500000 0.922904 0.076564
O O1 0.738977 0.816767 0.158745
O O2 0.609910 0.964346 0.098640
O O3 0.793792 0.057552 0.095333
O O4 0.755591 0.839877 0.024300
O O5 0.222275 0.694082 0.588250
O O6 0.403113 0.716155 0.553029
O O7 0.811178 0.500000 0.500000
O O8 0.727662 0.559503 0.382148
O O9 0.906903 0.516405 0.385204
O O10 0.000000 0.408997 0.724910
O O11 0.000000 0.531470 0.862304
O O12 0.094817 0.304978 0.824226
O O13 0.500000 0.245272 0.899386
O O14 0.500000 0.500000 0.500000
O O15 0.750000 0.381322 0.750000
O O16 0.500000 0.000000 0.000000
#
# Coordination Sequence:
#
# PCOD9419883 Si02
#       8
#     8   8   8   4   4   4   8   4
#     4  11  24  41  65  98 137 175 221 287 353 420
#     4  11  23  40  63  99 134 171 225 288 347 395
#     4  12  22  40  67 102 136 170 233 289 340 411
#     4  12  24  42  71  98 140 190 234 292 349 422
#     4  12  25  41  70 105 136 185 231 285 368 424
#     4  12  24  40  68  98 135 186 241 295 341 402
#     4  12  23  43  68  97 136 184 236 282 342 421
#     4  12  20  40  67  98 138 173 217 287 363 420
#
# _framework density 19.170736999999999
#
# number of rings (size 3 to 8) (size 9 to 14) (size 15 to 20)
#    0.000    0.333    8.333    1.750    0.000    3.333 
#    0.000    2.500    0.000    2.000    0.000    0.000 
#    0.000    0.000    0.000    0.000    0.000    0.000 
#
# Total GULP energy -267311.671921 kJ/mol
# GULP energy per Si atom -5568.993165 kJ/mol
# Density = 1.912710 g / cm^3
# Si number density = 19.170737 Si / 1000 Ang^3
#
#
#
# Elastic Constant Matrix: (Units=GPa)
#
#
# Indices 1 2 3 4 5 6 
#
# 1 122.2677 20.4693 14.6950 0.0000 0.0000 0.0000
# 2 20.4693 107.3035 22.3630 0.0000 0.0000 0.0000
# 3 14.6950 22.3630 82.1110 0.0000 0.0000 0.0000
# 4 0.0000 0.0000 0.0000 -621.2164 0.0000 0.0000
# 5 0.0000 0.0000 0.0000 0.0000 28.9280 0.0000
# 6 0.0000 0.0000 0.0000 0.0000 0.0000 34.9062
#
#
#
# Elastic Compliance Matrix: (Units=1/GPa)
#
#
# Indices 1 2 3 4 5 6 
#
# 1 0.008550 -0.001391 -0.001151 0.000000 0.000000 0.000000
# 2 -0.001391 0.010106 -0.002504 0.000000 0.000000 0.000000
# 3 -0.001151 -0.002504 0.013067 0.000000 0.000000 0.000000
# 4 0.000000 0.000000 0.000000 -0.001610 0.000000 0.000000
# 5 0.000000 0.000000 0.000000 0.000000 0.034569 0.000000
# 6 0.000000 0.000000 0.000000 0.000000 0.000000 0.028648
#
#
# Mechanical properties :
#
#
# Convention : Reuss Voigt Hill
#
# Bulk Modulus (GPa) = 46.22954 47.41519 46.82236
# Shear Modulus (GPa) = 45.19476 -94.53277 -24.66901
#
# Velocity S-wave (km/s) = 4.86066 -7.02980 -3.59110
# Velocity P-wave (km/s) = 7.46112 6.41123 2.69856
#
# Compressibility (1/GPa) = 0.02163119
#
# Stress axis : x y z
#
# Youngs Moduli (GPa) = 116.95862 98.94636 76.53146
#
# Poissons Ratio (x) = 0.13764 0.08811
# Poissons Ratio (y) = 0.16270 0.19160
# Poissons Ratio (z) = 0.13465 0.24772
#
# Static dielectric constant tensor:
#      x y z
#    x -5.708410 0.000000 0.000000 
#    y 0.000000 1.878950 0.000000 
#    z 0.000000 0.000000 1.698180 
# 
# From -- ./inp_files/28330.got.cif
#   From: 2010.05.17/outbox.cif.g08.bks.cpg/sg53_15_cif.got.tgz:28330.got - 2010.06.03 12:45:16.
