data_PCOD9419535
_publ_section_title
;
Structure prediction by ZEFSAII (Michael W. Deem and Ramdas Pophale) SiO2 
 PCOD9419535
Probable space group: P M N A
;
_chemical_formula_sum "Si O2"
_cell_formula_units_Z 38
_cell_length_a 25.294665
_cell_length_b 8.252463
_cell_length_c 8.396463
_cell_angle_alpha 90.000000
_cell_angle_beta 90.000000
_cell_angle_gamma 90.000000
_cell_volume 1752.705286
_symmetry_space_group_name_H-M "P M N A"
_symmetry_group_IT_number 53
_symmetry_cell_setting 'orthorhombic'
loop_
_space_group_symop_operation_xyz
x,y,z
1/2-x,-y,1/2+z
x,-y,-z
1/2-x,y,1/2-z
-x,-y,-z
1/2+x,y,1/2-z
-x,y,z
1/2+x,-y,1/2+z
loop_
_atom_site_type_symbol
_atom_site_label
_atom_site_fract_x
_atom_site_fract_y
_atom_site_fract_z
Si Si1 0.686594 0.000000 0.000000
Si Si2 0.000000 0.000000 0.500000
Si Si3 0.893579 0.000000 0.000000
Si Si4 0.750000 0.220062 0.250000
Si Si5 0.090173 0.846917 0.312738
Si Si6 0.938630 0.510034 0.689912
Si Si7 0.853733 0.339204 0.105158
O O1 0.723174 0.108880 0.113676
O O2 0.646856 0.894857 0.112951
O O3 0.953778 0.127446 0.553742
O O4 0.860407 0.164662 0.020991
O O5 0.923657 0.966198 0.165100
O O6 0.796978 0.330319 0.185658
O O7 0.083227 0.664274 0.253522
O O8 0.934187 0.500000 0.500000
O O9 0.900976 0.644051 0.766708
O O10 0.000000 0.531862 0.734937
O O11 0.856593 0.500000 0.000000
#
# Coordination Sequence:
#
# PCOD9419535 Si02
#       7
#     4   2   4   4   8   8   8
#     4  11  25  41  76 107 148 190 245 313 366 446
#     4  10  24  42  68 114 142 194 244 282 370 438
#     4  12  25  49  71 107 151 191 241 309 368 438
#     4  12  26  46  72 110 142 196 248 308 372 434
#     4  11  23  45  73 106 150 194 242 301 373 438
#     4  11  25  45  73 108 151 195 242 304 362 439
#     4  12  27  50  71 105 150 190 246 302 371 440
#
# _framework density 21.680768
#
# number of rings (size 3 to 8) (size 9 to 14) (size 15 to 20)
#    0.000    0.632    5.263    1.895    2.947    3.368 
#    1.895    0.000    0.000    0.000    0.000    0.000 
#    0.000    0.000    0.000    0.000    0.000    0.000 
#
# Total GULP energy -211884.526756 kJ/mol
# GULP energy per Si atom -5575.908599 kJ/mol
# Density = 2.163142 g / cm^3
# Si number density = 21.680768 Si / 1000 Ang^3
#
#
#
# Elastic Constant Matrix: (Units=GPa)
#
#
# Indices 1 2 3 4 5 6 
#
# 1 159.6096 50.0952 56.9837 0.0000 0.0000 0.0000
# 2 50.0952 118.3312 36.0346 0.0000 0.0000 0.0000
# 3 56.9837 36.0346 73.3174 0.0000 0.0000 0.0000
# 4 0.0000 0.0000 0.0000 32.9858 0.0000 0.0000
# 5 0.0000 0.0000 0.0000 0.0000 -4.9369 0.0000
# 6 0.0000 0.0000 0.0000 0.0000 0.0000 -2.4968
#
#
#
# Elastic Compliance Matrix: (Units=1/GPa)
#
#
# Indices 1 2 3 4 5 6 
#
# 1 0.009052 -0.001987 -0.006059 0.000000 0.000000 0.000000
# 2 -0.001987 0.010375 -0.003555 0.000000 0.000000 0.000000
# 3 -0.006059 -0.003555 0.020095 0.000000 0.000000 0.000000
# 4 0.000000 0.000000 0.000000 0.030316 0.000000 0.000000
# 5 0.000000 0.000000 0.000000 0.000000 -0.202555 0.000000
# 6 0.000000 0.000000 0.000000 0.000000 0.000000 -0.400519
#
#
# Mechanical properties :
#
#
# Convention : Reuss Voigt Hill
#
# Bulk Modulus (GPa) = 61.27052 70.83166 66.05109
# Shear Modulus (GPa) = -9.90894 18.98673 4.53890
#
# Velocity S-wave (km/s) = -2.14016 2.96250 1.44847
# Velocity P-wave (km/s) = 4.71324 6.66657 5.77311
#
# Compressibility (1/GPa) = 0.01632106
#
# Stress axis : x y z
#
# Youngs Moduli (GPa) = 110.47190 96.38986 49.76282
#
# Poissons Ratio (x) = 0.19154 0.30150
# Poissons Ratio (y) = 0.21952 0.17688
# Poissons Ratio (z) = 0.66933 0.34262
#
# Static dielectric constant tensor:
#      x y z
#    x 1.694180 0.000000 0.000000 
#    y 0.000000 1.882790 0.000000 
#    z 0.000000 0.000000 1.823390 
# 
# From -- ./inp_files/11635.got.cif
#   From: 2010.05.17/outbox.cif.g08.bks.cpg/sg53_6_cif.got.tgz:11635.got - 2010.06.03 12:45:16.
