data_PCOD9419880
_publ_section_title
;
Structure prediction by ZEFSAII (Michael W. Deem and Ramdas Pophale) SiO2 
 PCOD9419880
Probable space group: P M N A
;
_chemical_formula_sum "Si O2"
_cell_formula_units_Z 48
_cell_length_a 9.018097
_cell_length_b 9.736586
_cell_length_c 28.067009
_cell_angle_alpha 90.000000
_cell_angle_beta 90.000000
_cell_angle_gamma 90.000000
_cell_volume 2464.437113
_symmetry_space_group_name_H-M "P M N A"
_symmetry_group_IT_number 53
_symmetry_cell_setting 'orthorhombic'
loop_
_space_group_symop_operation_xyz
x,y,z
1/2-x,-y,1/2+z
x,-y,-z
1/2-x,y,1/2-z
-x,-y,-z
1/2+x,y,1/2-z
-x,y,z
1/2+x,-y,1/2+z
loop_
_atom_site_type_symbol
_atom_site_label
_atom_site_fract_x
_atom_site_fract_y
_atom_site_fract_z
Si Si1 0.329649 0.050921 0.135718
Si Si2 0.823752 0.096826 0.953889
Si Si3 0.324760 0.447608 0.641334
Si Si4 0.669829 0.786137 0.199686
Si Si5 0.322860 0.601801 0.043962
Si Si6 0.824487 0.723173 0.801495
O O1 0.500000 0.086428 0.123697
O O2 0.250488 0.981504 0.090595
O O3 0.332197 0.936528 0.177096
O O4 0.243670 0.178217 0.158335
O O5 0.751499 0.247516 0.960655
O O6 0.000000 0.113397 0.945737
O O7 0.802767 0.000000 0.000000
O O8 0.500000 0.435820 0.632654
O O9 0.259263 0.310388 0.664018
O O10 0.241218 0.467697 0.591628
O O11 0.300527 0.569388 0.679018
O O12 0.750000 0.785733 0.250000
O O13 0.500000 0.737284 0.204192
O O14 0.500000 0.620241 0.048100
O O15 0.292168 0.500000 0.000000
O O16 0.750000 0.743047 0.750000
O O17 0.000000 0.748235 0.797190
#
# Coordination Sequence:
#
# PCOD9419880 Si02
#       6
#     8   8   8   8   8   8
#     4  11  24  42  66  95 129 170 214 266 321 381
#     4  11  25  44  68  98 131 169 214 266 321 384
#     4  11  24  42  66  94 128 170 214 268 322 381
#     4  11  23  39  63  94 126 164 211 261 318 383
#     4  11  25  44  67  98 131 169 215 266 322 385
#     4  11  25  43  64  95 131 172 220 265 320 382
#
# _framework density 19.477063000000001
#
# number of rings (size 3 to 8) (size 9 to 14) (size 15 to 20)
#    0.000    1.000    1.667    4.000    2.333   10.000 
#    0.000    0.000    0.000    0.000    0.000    0.000 
#    0.000    0.000    0.000    0.000    0.000    0.000 
#
# Total GULP energy -268467.070115 kJ/mol
# GULP energy per Si atom -5593.063961 kJ/mol
# Density = 1.943273 g / cm^3
# Si number density = 19.477063 Si / 1000 Ang^3
#
#
#
# Elastic Constant Matrix: (Units=GPa)
#
#
# Indices 1 2 3 4 5 6 
#
# 1 89.0233 31.7761 33.9580 0.0000 0.0000 0.0000
# 2 31.7761 53.3139 -6.5378 0.0000 0.0000 0.0000
# 3 33.9580 -6.5378 91.4669 0.0000 0.0000 0.0000
# 4 0.0000 0.0000 0.0000 34.6058 0.0000 0.0000
# 5 0.0000 0.0000 0.0000 0.0000 30.0847 0.0000
# 6 0.0000 0.0000 0.0000 0.0000 0.0000 56.2347
#
#
#
# Elastic Compliance Matrix: (Units=1/GPa)
#
#
# Indices 1 2 3 4 5 6 
#
# 1 0.018423 -0.011924 -0.007692 0.000000 0.000000 0.000000
# 2 -0.011924 0.026640 0.006331 0.000000 0.000000 0.000000
# 3 -0.007692 0.006331 0.014241 0.000000 0.000000 0.000000
# 4 0.000000 0.000000 0.000000 0.028897 0.000000 0.000000
# 5 0.000000 0.000000 0.000000 0.000000 0.033240 0.000000
# 6 0.000000 0.000000 0.000000 0.000000 0.000000 0.017783
#
#
# Mechanical properties :
#
#
# Convention : Reuss Voigt Hill
#
# Bulk Modulus (GPa) = 30.54875 39.13299 34.84087
# Shear Modulus (GPa) = 28.29571 35.82556 32.06063
#
# Velocity S-wave (km/s) = 3.81566 4.29344 4.06158
# Velocity P-wave (km/s) = 5.92713 6.68683 6.31841
#
# Compressibility (1/GPa) = 0.03273456
#
# Stress axis : x y z
#
# Youngs Moduli (GPa) = 54.27897 37.53741 70.21870
#
# Poissons Ratio (x) = 0.44759 0.54013
# Poissons Ratio (y) = 0.64722 -0.44456
# Poissons Ratio (z) = 0.41752 -0.23765
#
# Static dielectric constant tensor:
#      x y z
#    x 1.678110 0.000000 0.000000 
#    y 0.000000 1.653850 0.000000 
#    z 0.000000 0.000000 1.668300 
# 
# From -- ./inp_files/37723.got.cif
#   From: 2010.05.17/outbox.cif.g08.bks.cpg/sg53_19_cif.got.tgz:37723.got - 2010.06.03 12:45:16.
