data_PCOD9419481
_publ_section_title
;
Structure prediction by ZEFSAII (Michael W. Deem and Ramdas Pophale) SiO2 
 PCOD9419481
Probable space group: P M N A
;
_chemical_formula_sum "Si O2"
_cell_formula_units_Z 32
_cell_length_a 18.673477
_cell_length_b 5.235966
_cell_length_c 13.686721
_cell_angle_alpha 90.000000
_cell_angle_beta 90.000000
_cell_angle_gamma 90.000000
_cell_volume 1338.201225
_symmetry_space_group_name_H-M "P M N A"
_symmetry_group_IT_number 53
_symmetry_cell_setting 'orthorhombic'
loop_
_space_group_symop_operation_xyz
x,y,z
1/2-x,-y,1/2+z
x,-y,-z
1/2-x,y,1/2-z
-x,-y,-z
1/2+x,y,1/2-z
-x,y,z
1/2+x,-y,1/2+z
loop_
_atom_site_type_symbol
_atom_site_label
_atom_site_fract_x
_atom_site_fract_y
_atom_site_fract_z
Si Si1 0.582389 0.778607 0.289608
Si Si2 0.202185 0.239373 0.937373
Si Si3 0.308364 0.447046 0.185183
Si Si4 0.577504 0.850273 0.899167
O O1 0.500000 0.732095 0.314878
O O2 0.630723 0.856785 0.381413
O O3 0.625896 0.531113 0.253283
O O4 0.583412 0.968428 0.196329
O O5 0.262176 0.322202 0.858838
O O6 0.188915 0.500000 0.000000
O O7 0.226823 0.000000 0.000000
O O8 0.250000 0.295955 0.250000
O O9 0.350644 0.312051 0.099602
O O10 0.500000 0.709764 0.890883
O O11 0.574718 0.000000 0.000000
#
# Coordination Sequence:
#
# PCOD9419481 Si02
#       4
#     8   8   8   8
#     4  10  24  45  70 103 142 189 242 299 359 430
#     4  11  28  47  73 109 145 192 242 296 361 429
#     4  10  24  42  68 101 141 188 233 298 359 427
#     4  10  23  43  70 102 141 188 239 296 362 430
#
# _framework density 23.912697000000001
#
# number of rings (size 3 to 8) (size 9 to 14) (size 15 to 20)
#    0.000    1.750    0.000    0.750   14.000    2.000 
#    0.000    3.750    0.000    2.250    0.000    0.000 
#    0.000    0.000    0.000    0.000    0.000    0.000 
#
# Total GULP energy -178896.768405 kJ/mol
# GULP energy per Si atom -5590.524013 kJ/mol
# Density = 2.385827 g / cm^3
# Si number density = 23.912697 Si / 1000 Ang^3
#
#
#
# Elastic Constant Matrix: (Units=GPa)
#
#
# Indices 1 2 3 4 5 6 
#
# 1 228.2695 47.0063 51.0908 0.0000 0.0000 0.0000
# 2 47.0063 58.3823 28.9373 0.0000 0.0000 0.0000
# 3 51.0908 28.9373 93.5517 0.0000 0.0000 0.0000
# 4 0.0000 0.0000 0.0000 39.5909 0.0000 0.0000
# 5 0.0000 0.0000 0.0000 0.0000 64.9661 0.0000
# 6 0.0000 0.0000 0.0000 0.0000 0.0000 22.9139
#
#
#
# Elastic Compliance Matrix: (Units=1/GPa)
#
#
# Indices 1 2 3 4 5 6 
#
# 1 0.005535 -0.003494 -0.001942 0.000000 0.000000 0.000000
# 2 -0.003494 0.022435 -0.005032 0.000000 0.000000 0.000000
# 3 -0.001942 -0.005032 0.013306 0.000000 0.000000 0.000000
# 4 0.000000 0.000000 0.000000 0.025258 0.000000 0.000000
# 5 0.000000 0.000000 0.000000 0.000000 0.015393 0.000000
# 6 0.000000 0.000000 0.000000 0.000000 0.000000 0.043642
#
#
# Mechanical properties :
#
#
# Convention : Reuss Voigt Hill
#
# Bulk Modulus (GPa) = 49.16035 70.47471 59.81753
# Shear Modulus (GPa) = 32.61902 42.37212 37.49557
#
# Velocity S-wave (km/s) = 3.69736 4.21402 3.96412
# Velocity P-wave (km/s) = 6.23139 7.29472 6.78392
#
# Compressibility (1/GPa) = 0.02034159
#
# Stress axis : x y z
#
# Youngs Moduli (GPa) = 180.67112 44.57225 75.15270
#
# Poissons Ratio (x) = 0.15573 0.14595
# Poissons Ratio (y) = 0.63124 0.37814
# Poissons Ratio (z) = 0.35087 0.22427
#
# Static dielectric constant tensor:
#      x y z
#    x 1.914230 0.000000 0.000000 
#    y 0.000000 1.975110 0.000000 
#    z 0.000000 0.000000 1.980410 
# 
# From -- ./inp_files/23159.got.cif
#   From: 2010.05.17/outbox.cif.g08.bks.cpg/sg53_12_cif.got.tgz:23159.got - 2010.06.03 12:45:16.
