data_PCOD9419140
_publ_section_title
;
Structure prediction by ZEFSAII (Michael W. Deem and Ramdas Pophale) SiO2 
 PCOD9419140
Probable space group: P M N A
;
_chemical_formula_sum "Si O2"
_cell_formula_units_Z 48
_cell_length_a 14.194680
_cell_length_b 19.965037
_cell_length_c 9.102480
_cell_angle_alpha 90.000000
_cell_angle_beta 90.000000
_cell_angle_gamma 90.000000
_cell_volume 2579.618359
_symmetry_space_group_name_H-M "P M N A"
_symmetry_group_IT_number 53
_symmetry_cell_setting 'orthorhombic'
loop_
_space_group_symop_operation_xyz
x,y,z
1/2-x,-y,1/2+z
x,-y,-z
1/2-x,y,1/2-z
-x,-y,-z
1/2+x,y,1/2-z
-x,y,z
1/2+x,-y,1/2+z
loop_
_atom_site_type_symbol
_atom_site_label
_atom_site_fract_x
_atom_site_fract_y
_atom_site_fract_z
Si Si1 0.305087 0.438696 0.099289
Si Si2 0.000000 0.391833 0.934846
Si Si3 0.255329 0.815332 0.573283
Si Si4 0.609538 0.065873 0.419471
Si Si5 0.209520 0.675142 0.085673
Si Si6 0.500000 0.529796 0.746812
Si Si7 0.110036 0.929740 0.570164
O O1 0.250000 0.436111 0.250000
O O2 0.410916 0.453013 0.151444
O O3 0.270959 0.500000 0.000000
O O4 0.277159 0.373772 0.007980
O O5 0.900407 0.350770 0.919679
O O6 0.000000 0.453258 0.815881
O O7 0.000000 0.424829 0.098477
O O8 0.250000 0.802329 0.750000
O O9 0.339426 0.866374 0.539233
O O10 0.275031 0.747796 0.486359
O O11 0.165347 0.861679 0.532178
O O12 0.500000 0.071270 0.454966
O O13 0.620938 0.059795 0.244705
O O14 0.646495 0.000000 0.500000
O O15 0.250000 0.674604 0.250000
O O16 0.000000 0.921157 0.534723
O O17 0.141378 0.000000 0.500000
#
# Coordination Sequence:
#
# PCOD9419140 Si02
#       7
#     8   4   8   8   8   4   8
#     4  12  23  41  68  99 129 169 213 264 317 383
#     4  11  24  46  68 100 129 168 213 272 327 384
#     4  10  22  39  58  88 125 168 212 257 326 382
#     4   9  18  33  57  86 114 156 208 259 315 382
#     4  12  27  45  65  94 133 173 215 269 327 392
#     4  11  23  42  72 100 128 164 216 264 326 383
#     4   9  18  35  58  87 122 160 208 266 317 376
#
# _framework density 18.607403000000001
#
# number of rings (size 3 to 8) (size 9 to 14) (size 15 to 20)
#    0.000    1.500    1.667    3.750    1.167    2.000 
#    3.000    0.000    0.000    0.000    0.000    0.000 
#    0.000    0.000    0.000    0.000    0.000    0.000 
#
# Total GULP energy -267779.185472 kJ/mol
# GULP energy per Si atom -5578.733031 kJ/mol
# Density = 1.856505 g / cm^3
# Si number density = 18.607403 Si / 1000 Ang^3
#
#
#
# Elastic Constant Matrix: (Units=GPa)
#
#
# Indices 1 2 3 4 5 6 
#
# 1 105.6871 88.2520 49.7282 0.0000 0.0000 0.0000
# 2 88.2520 198.1663 88.1707 0.0000 0.0000 0.0000
# 3 49.7282 88.1707 97.6450 0.0000 0.0000 0.0000
# 4 0.0000 0.0000 0.0000 47.1921 0.0000 0.0000
# 5 0.0000 0.0000 0.0000 0.0000 56.8956 0.0000
# 6 0.0000 0.0000 0.0000 0.0000 0.0000 29.6089
#
#
#
# Elastic Compliance Matrix: (Units=1/GPa)
#
#
# Indices 1 2 3 4 5 6 
#
# 1 0.015501 -0.005668 -0.002776 0.000000 0.000000 0.000000
# 2 -0.005668 0.010508 -0.006602 0.000000 0.000000 0.000000
# 3 -0.002776 -0.006602 0.017616 0.000000 0.000000 0.000000
# 4 0.000000 0.000000 0.000000 0.021190 0.000000 0.000000
# 5 0.000000 0.000000 0.000000 0.000000 0.017576 0.000000
# 6 0.000000 0.000000 0.000000 0.000000 0.000000 0.033774
#
#
# Mechanical properties :
#
#
# Convention : Reuss Voigt Hill
#
# Bulk Modulus (GPa) = 73.89231 94.86667 84.37949
# Shear Modulus (GPa) = 33.16356 38.42916 35.79636
#
# Velocity S-wave (km/s) = 4.22628 4.54945 4.39084
# Velocity P-wave (km/s) = 7.97576 8.87077 8.43514
#
# Compressibility (1/GPa) = 0.01353321
#
# Stress axis : x y z
#
# Youngs Moduli (GPa) = 64.51092 95.16732 56.76627
#
# Poissons Ratio (x) = 0.53942 0.15760
# Poissons Ratio (y) = 0.36566 0.37475
# Poissons Ratio (z) = 0.17910 0.62826
#
# Static dielectric constant tensor:
#      x y z
#    x 1.277100 0.000000 0.000000 
#    y 0.000000 1.591520 0.000000 
#    z 0.000000 0.000000 1.623460 
# 
# From -- ./inp_files/8722.got.cif
#   From: 2010.05.17/outbox.cif.g08.bks.cpg/sg53_5_cif.got.tgz:8722.got - 2010.06.03 12:45:16.
