data_PCOD9419651
_publ_section_title
;
Structure prediction by ZEFSAII (Michael W. Deem and Ramdas Pophale) SiO2 
 PCOD9419651
Probable space group: P M N A
;
_chemical_formula_sum "Si O2"
_cell_formula_units_Z 40
_cell_length_a 15.278480
_cell_length_b 11.129383
_cell_length_c 11.721215
_cell_angle_alpha 90.000000
_cell_angle_beta 90.000000
_cell_angle_gamma 90.000000
_cell_volume 1993.076050
_symmetry_space_group_name_H-M "P M N A"
_symmetry_group_IT_number 53
_symmetry_cell_setting 'orthorhombic'
loop_
_space_group_symop_operation_xyz
x,y,z
1/2-x,-y,1/2+z
x,-y,-z
1/2-x,y,1/2-z
-x,-y,-z
1/2+x,y,1/2-z
-x,y,z
1/2+x,-y,1/2+z
loop_
_atom_site_type_symbol
_atom_site_label
_atom_site_fract_x
_atom_site_fract_y
_atom_site_fract_z
Si Si1 0.731453 0.234831 0.132401
Si Si2 0.596743 0.638850 0.035337
Si Si3 0.098265 0.023964 0.364943
Si Si4 0.901138 0.854433 0.996366
Si Si5 0.354624 0.773186 0.252097
O O1 0.750000 0.304780 0.250000
O O2 0.672236 0.119596 0.164897
O O3 0.673527 0.299898 0.036845
O O4 0.823340 0.195386 0.080174
O O5 0.500000 0.688492 0.004491
O O6 0.609904 0.668158 0.169292
O O7 0.597543 0.500000 0.000000
O O8 0.000000 0.063234 0.333424
O O9 0.101699 0.000000 0.500000
O O10 0.117862 0.897473 0.307289
O O11 0.888923 0.790591 0.119580
O O12 0.000000 0.830988 0.955518
O O13 0.891003 0.000000 0.000000
O O14 0.250000 0.764212 0.250000
#
# Coordination Sequence:
#
# PCOD9419651 Si02
#       5
#     8   8   8   8   8
#     4  12  24  40  62  91 130 171 212 268 331 394
#     4  11  25  45  68  93 123 169 229 281 327 386
#     4  11  20  33  60  96 130 161 205 259 324 402
#     4  11  23  39  61  98 139 172 209 258 331 414
#     4  12  21  39  68  95 131 171 211 270 336 402
#
# _framework density 20.069479000000001
#
# number of rings (size 3 to 8) (size 9 to 14) (size 15 to 20)
#    0.000    0.600    4.000    6.000    0.000    4.000 
#    0.000    0.000    0.000    0.600    0.000    0.000 
#    0.000    0.000    0.000    0.000    0.000    0.000 
#
# Total GULP energy -223576.913461 kJ/mol
# GULP energy per Si atom -5589.422837 kJ/mol
# Density = 2.002380 g / cm^3
# Si number density = 20.069479 Si / 1000 Ang^3
#
#
#
# Elastic Constant Matrix: (Units=GPa)
#
#
# Indices 1 2 3 4 5 6 
#
# 1 191.7992 29.9301 51.6027 0.0000 0.0000 0.0000
# 2 29.9301 55.2203 30.1852 0.0000 0.0000 0.0000
# 3 51.6027 30.1852 118.5041 0.0000 0.0000 0.0000
# 4 0.0000 0.0000 0.0000 22.4097 0.0000 0.0000
# 5 0.0000 0.0000 0.0000 0.0000 29.2713 0.0000
# 6 0.0000 0.0000 0.0000 0.0000 0.0000 40.3009
#
#
#
# Elastic Compliance Matrix: (Units=1/GPa)
#
#
# Indices 1 2 3 4 5 6 
#
# 1 0.006120 -0.002161 -0.002114 0.000000 0.000000 0.000000
# 2 -0.002161 0.021802 -0.004612 0.000000 0.000000 0.000000
# 3 -0.002114 -0.004612 0.010534 0.000000 0.000000 0.000000
# 4 0.000000 0.000000 0.000000 0.044624 0.000000 0.000000
# 5 0.000000 0.000000 0.000000 0.000000 0.034163 0.000000
# 6 0.000000 0.000000 0.000000 0.000000 0.000000 0.024813
#
#
# Mechanical properties :
#
#
# Convention : Reuss Voigt Hill
#
# Bulk Modulus (GPa) = 48.35568 65.43995 56.89781
# Shear Modulus (GPa) = 29.98946 35.31673 32.65309
#
# Velocity S-wave (km/s) = 3.86979 4.19946 4.03799
# Velocity P-wave (km/s) = 6.64180 7.49609 7.08184
#
# Compressibility (1/GPa) = 0.02068009
#
# Stress axis : x y z
#
# Youngs Moduli (GPa) = 163.40067 45.86755 94.93008
#
# Poissons Ratio (x) = 0.09913 0.20072
# Poissons Ratio (y) = 0.35315 0.43784
# Poissons Ratio (z) = 0.34550 0.21155
#
# Static dielectric constant tensor:
#      x y z
#    x 1.704510 0.000000 0.000000 
#    y 0.000000 1.681390 0.000000 
#    z 0.000000 0.000000 1.768890 
# 
# From -- ./inp_files/15732.got.cif
#   From: 2010.05.17/outbox.cif.g08.bks.cpg/sg53_8_cif.got.tgz:15732.got - 2010.06.03 12:45:16.
