data_PCOD9419951
_publ_section_title
;
Structure prediction by ZEFSAII (Michael W. Deem and Ramdas Pophale) SiO2 
 PCOD9419951
Probable space group: P M N A
;
_chemical_formula_sum "Si O2"
_cell_formula_units_Z 34
_cell_length_a 24.650444
_cell_length_b 9.626504
_cell_length_c 7.040710
_cell_angle_alpha 90.000000
_cell_angle_beta 90.000000
_cell_angle_gamma 90.000000
_cell_volume 1670.743570
_symmetry_space_group_name_H-M "P M N A"
_symmetry_group_IT_number 53
_symmetry_cell_setting 'orthorhombic'
loop_
_space_group_symop_operation_xyz
x,y,z
1/2-x,-y,1/2+z
x,-y,-z
1/2-x,y,1/2-z
-x,-y,-z
1/2+x,y,1/2-z
-x,y,z
1/2+x,-y,1/2+z
loop_
_atom_site_type_symbol
_atom_site_label
_atom_site_fract_x
_atom_site_fract_y
_atom_site_fract_z
Si Si1 0.560633 0.657192 0.578543
Si Si2 0.000000 0.000000 0.500000
Si Si3 0.750000 0.215019 0.250000
Si Si4 0.403695 0.141231 0.759600
Si Si5 0.855839 0.656060 0.578395
Si Si6 0.683961 0.000000 0.500000
O O1 0.562495 0.500000 0.500000
O O2 0.500000 0.684130 0.655240
O O3 0.573054 0.761637 0.408006
O O4 0.604080 0.671911 0.743446
O O5 0.048033 0.053916 0.647838
O O6 0.704005 0.305726 0.148695
O O7 0.721173 0.119188 0.408768
O O8 0.355898 0.051028 0.666806
O O9 0.376941 0.239458 0.918066
O O10 0.858485 0.500000 0.500000
#
# Coordination Sequence:
#
# PCOD9419951 Si02
#       6
#     8   2   4   8   8   4
#     4  11  24  46  74 106 146 191 233 298 371 431
#     4  12  28  44  72 112 146 198 238 296 364 444
#     4  12  26  46  72 102 138 200 238 302 364 420
#     4  12  26  46  71 106 147 189 243 295 359 437
#     4  12  27  46  74 109 143 183 247 305 364 433
#     4  12  26  48  72 100 151 197 250 294 356 448
#
# _framework density 20.350218999999999
#
# number of rings (size 3 to 8) (size 9 to 14) (size 15 to 20)
#    0.000    0.235    5.882    2.824    1.647    3.765 
#    0.000    0.000    0.000    0.000    0.000    0.000 
#    0.000    0.000    0.000    0.000    0.000    0.000 
#
# Total GULP energy -189937.537110 kJ/mol
# GULP energy per Si atom -5586.398150 kJ/mol
# Density = 2.030390 g / cm^3
# Si number density = 20.350219 Si / 1000 Ang^3
#
#
#
# Elastic Constant Matrix: (Units=GPa)
#
#
# Indices 1 2 3 4 5 6 
#
# 1 196.6324 57.3374 98.0078 0.0000 0.0000 0.0000
# 2 57.3374 55.5325 65.7249 0.0000 0.0000 0.0000
# 3 98.0078 65.7249 151.3385 0.0000 0.0000 0.0000
# 4 0.0000 0.0000 0.0000 47.8819 0.0000 0.0000
# 5 0.0000 0.0000 0.0000 0.0000 30.8190 0.0000
# 6 0.0000 0.0000 0.0000 0.0000 0.0000 32.5696
#
#
#
# Elastic Compliance Matrix: (Units=1/GPa)
#
#
# Indices 1 2 3 4 5 6 
#
# 1 0.007995 -0.004377 -0.003277 0.000000 0.000000 0.000000
# 2 -0.004377 0.039448 -0.014298 0.000000 0.000000 0.000000
# 3 -0.003277 -0.014298 0.014939 0.000000 0.000000 0.000000
# 4 0.000000 0.000000 0.000000 0.020885 0.000000 0.000000
# 5 0.000000 0.000000 0.000000 0.000000 0.032447 0.000000
# 6 0.000000 0.000000 0.000000 0.000000 0.000000 0.030703
#
#
# Mechanical properties :
#
#
# Convention : Reuss Voigt Hill
#
# Bulk Modulus (GPa) = 54.11227 93.96040 74.03633
# Shear Modulus (GPa) = 25.44774 34.41633 29.93204
#
# Velocity S-wave (km/s) = 3.54006 4.11688 3.83932
# Velocity P-wave (km/s) = 6.58465 8.29881 7.49092
#
# Compressibility (1/GPa) = 0.01848010
#
# Stress axis : x y z
#
# Youngs Moduli (GPa) = 125.07495 25.34969 66.93746
#
# Poissons Ratio (x) = 0.11094 0.21936
# Poissons Ratio (y) = 0.54740 0.95705
# Poissons Ratio (z) = 0.40988 0.36244
#
# Static dielectric constant tensor:
#      x y z
#    x 1.686100 0.000000 0.000000 
#    y 0.000000 1.703700 0.000000 
#    z 0.000000 0.000000 1.657450 
# 
# From -- ./inp_files/3516.got.cif
#   From: 2010.05.17/outbox.cif.g08.bks.cpg/sg53_2_cif.got.tgz:3516.got - 2010.06.03 12:45:16.
