data_PCOD9419320
_publ_section_title
;
Structure prediction by ZEFSAII (Michael W. Deem and Ramdas Pophale) SiO2 
 PCOD9419320
Probable space group: P M N A
;
_chemical_formula_sum "Si O2"
_cell_formula_units_Z 40
_cell_length_a 15.477427
_cell_length_b 13.608035
_cell_length_c 9.098888
_cell_angle_alpha 90.000000
_cell_angle_beta 90.000000
_cell_angle_gamma 90.000000
_cell_volume 1916.383845
_symmetry_space_group_name_H-M "P M N A"
_symmetry_group_IT_number 53
_symmetry_cell_setting 'orthorhombic'
loop_
_space_group_symop_operation_xyz
x,y,z
1/2-x,-y,1/2+z
x,-y,-z
1/2-x,y,1/2-z
-x,-y,-z
1/2+x,y,1/2-z
-x,y,z
1/2+x,-y,1/2+z
loop_
_atom_site_type_symbol
_atom_site_label
_atom_site_fract_x
_atom_site_fract_y
_atom_site_fract_z
Si Si1 0.404182 0.614177 0.451282
Si Si2 0.739607 0.744258 0.577385
Si Si3 0.343325 0.973920 0.170681
Si Si4 0.094908 0.100607 0.088270
Si Si5 0.151828 0.248517 0.689263
O O1 0.403371 0.500000 0.500000
O O2 0.500000 0.647182 0.496521
O O3 0.322328 0.655062 0.537224
O O4 0.392079 0.664558 0.286244
O O5 0.750000 0.749941 0.750000
O O6 0.676599 0.835741 0.538546
O O7 0.827556 0.736369 0.484111
O O8 0.250000 0.975018 0.250000
O O9 0.382245 0.864207 0.199254
O O10 0.394650 0.063085 0.245503
O O11 0.334864 0.000000 0.000000
O O12 0.000000 0.145277 0.066365
O O13 0.097591 0.000000 0.000000
O O14 0.250000 0.246333 0.750000
#
# Coordination Sequence:
#
# PCOD9419320 Si02
#       5
#     8   8   8   8   8
#     4  10  22  42  65  87 115 152 196 251 313 370
#     4  11  22  37  60  89 120 156 199 251 305 365
#     4  11  20  33  55  83 120 165 212 255 300 360
#     4  11  22  35  54  82 120 164 206 249 300 361
#     4   9  19  35  59  87 117 159 208 251 297 357
#
# _framework density 20.872644999999999
#
# number of rings (size 3 to 8) (size 9 to 14) (size 15 to 20)
#    0.000    1.600    0.000    7.800    0.000    5.200 
#    0.000    4.000    0.000    2.400    0.000    0.000 
#    0.000    2.400    0.000    0.000    0.000    0.000 
#
# Total GULP energy -222745.190195 kJ/mol
# GULP energy per Si atom -5568.629755 kJ/mol
# Density = 2.082514 g / cm^3
# Si number density = 20.872645 Si / 1000 Ang^3
#
#
#
# Elastic Constant Matrix: (Units=GPa)
#
#
# Indices 1 2 3 4 5 6 
#
# 1 53.8803 31.6983 3.3132 0.0000 0.0000 0.0000
# 2 31.6983 145.2729 36.6192 0.0000 0.0000 0.0000
# 3 3.3132 36.6192 110.9606 0.0000 0.0000 0.0000
# 4 0.0000 0.0000 0.0000 23.3724 0.0000 0.0000
# 5 0.0000 0.0000 0.0000 0.0000 18.9565 0.0000
# 6 0.0000 0.0000 0.0000 0.0000 0.0000 17.9409
#
#
#
# Elastic Compliance Matrix: (Units=1/GPa)
#
#
# Indices 1 2 3 4 5 6 
#
# 1 0.021391 -0.004915 0.000983 0.000000 0.000000 0.000000
# 2 -0.004915 0.008638 -0.002704 0.000000 0.000000 0.000000
# 3 0.000983 -0.002704 0.009875 0.000000 0.000000 0.000000
# 4 0.000000 0.000000 0.000000 0.042785 0.000000 0.000000
# 5 0.000000 0.000000 0.000000 0.000000 0.052752 0.000000
# 6 0.000000 0.000000 0.000000 0.000000 0.000000 0.055738
#
#
# Mechanical properties :
#
#
# Convention : Reuss Voigt Hill
#
# Bulk Modulus (GPa) = 37.54839 50.37502 43.96171
# Shear Modulus (GPa) = 23.43795 27.95283 25.69539
#
# Velocity S-wave (km/s) = 3.35461 3.66349 3.51245
# Velocity P-wave (km/s) = 5.74742 6.48704 6.12840
#
# Compressibility (1/GPa) = 0.02663230
#
# Stress axis : x y z
#
# Youngs Moduli (GPa) = 46.74870 115.77173 101.26411
#
# Poissons Ratio (x) = 0.56906 -0.09959
# Poissons Ratio (y) = 0.22979 0.27380
# Poissons Ratio (z) = -0.04598 0.31303
#
# Static dielectric constant tensor:
#      x y z
#    x 1.758340 0.000000 0.000000 
#    y 0.000000 1.805350 0.000000 
#    z 0.000000 0.000000 1.909220 
# 
# From -- ./inp_files/8375.got.cif
#   From: 2010.05.17/outbox.cif.g08.bks.cpg/sg53_5_cif.got.tgz:8375.got - 2010.06.03 12:45:16.
