data_PCOD9419960
_publ_section_title
;
Structure prediction by ZEFSAII (Michael W. Deem and Ramdas Pophale) SiO2 
 PCOD9419960
Probable space group: P M N A
;
_chemical_formula_sum "Si O2"
_cell_formula_units_Z 38
_cell_length_a 14.866420
_cell_length_b 9.158398
_cell_length_c 11.787569
_cell_angle_alpha 90.000000
_cell_angle_beta 90.000000
_cell_angle_gamma 90.000000
_cell_volume 1604.908063
_symmetry_space_group_name_H-M "P M N A"
_symmetry_group_IT_number 53
_symmetry_cell_setting 'orthorhombic'
loop_
_space_group_symop_operation_xyz
x,y,z
1/2-x,-y,1/2+z
x,-y,-z
1/2-x,y,1/2-z
-x,-y,-z
1/2+x,y,1/2-z
-x,y,z
1/2+x,-y,1/2+z
loop_
_atom_site_type_symbol
_atom_site_label
_atom_site_fract_x
_atom_site_fract_y
_atom_site_fract_z
Si Si1 0.149053 0.760065 0.515935
Si Si2 0.000000 0.500000 0.500000
Si Si3 0.675820 0.630254 0.564642
Si Si4 0.750000 0.423744 0.750000
Si Si5 0.606438 0.134099 0.262347
Si Si6 0.604382 0.176794 0.776532
O O1 0.079071 0.625877 0.514986
O O2 0.252504 0.717759 0.488922
O O3 0.150750 0.820941 0.643462
O O4 0.115429 0.857413 0.410769
O O5 0.623263 0.500000 0.500000
O O6 0.739423 0.534865 0.646574
O O7 0.623651 0.746202 0.641000
O O8 0.663171 0.320123 0.755901
O O9 0.500000 0.127347 0.240678
O O10 0.634292 0.967871 0.290738
O O11 0.500000 0.208724 0.752353
#
# Coordination Sequence:
#
# PCOD9419960 Si02
#       6
#     8   2   8   4   8   8
#     4  12  21  39  69 103 138 170 230 295 358 406
#     4  12  20  32  70 108 136 166 214 308 350 412
#     4  12  25  43  66 104 139 182 237 282 349 423
#     4  12  24  42  70 100 140 184 228 290 350 416
#     4  11  25  44  68  98 141 188 232 286 354 424
#     4  11  25  44  69 105 137 179 234 293 360 424
#
# _framework density 23.677367
#
# number of rings (size 3 to 8) (size 9 to 14) (size 15 to 20)
#    0.000    0.421    7.368    0.632    2.947    2.947 
#    0.000    1.053    0.000    2.526    0.000    0.000 
#    0.000    0.000    0.000    0.000    0.000    0.000 
#
# Total GULP energy -211847.781904 kJ/mol
# GULP energy per Si atom -5574.941629 kJ/mol
# Density = 2.362348 g / cm^3
# Si number density = 23.677367 Si / 1000 Ang^3
#
#
#
# Elastic Constant Matrix: (Units=GPa)
#
#
# Indices 1 2 3 4 5 6 
#
# 1 59.9626 25.0414 0.1749 0.0000 0.0000 0.0000
# 2 25.0414 132.9936 19.2252 0.0000 0.0000 0.0000
# 3 0.1749 19.2252 42.5705 0.0000 0.0000 0.0000
# 4 0.0000 0.0000 0.0000 36.4621 0.0000 0.0000
# 5 0.0000 0.0000 0.0000 0.0000 26.5197 0.0000
# 6 0.0000 0.0000 0.0000 0.0000 0.0000 27.8206
#
#
#
# Elastic Compliance Matrix: (Units=1/GPa)
#
#
# Indices 1 2 3 4 5 6 
#
# 1 0.018199 -0.003654 0.001576 0.000000 0.000000 0.000000
# 2 -0.003654 0.008778 -0.003949 0.000000 0.000000 0.000000
# 3 0.001576 -0.003949 0.025268 0.000000 0.000000 0.000000
# 4 0.000000 0.000000 0.000000 0.027426 0.000000 0.000000
# 5 0.000000 0.000000 0.000000 0.000000 0.037708 0.000000
# 6 0.000000 0.000000 0.000000 0.000000 0.000000 0.035945
#
#
# Mechanical properties :
#
#
# Convention : Reuss Voigt Hill
#
# Bulk Modulus (GPa) = 24.88298 36.04551 30.46425
# Shear Modulus (GPa) = 27.96819 30.89949 29.43384
#
# Velocity S-wave (km/s) = 3.44062 3.61643 3.52962
# Velocity P-wave (km/s) = 5.12989 5.71793 5.43187
#
# Compressibility (1/GPa) = 0.04018811
#
# Stress axis : x y z
#
# Youngs Moduli (GPa) = 54.94931 113.91939 39.57653
#
# Poissons Ratio (x) = 0.41630 -0.06236
# Poissons Ratio (y) = 0.20081 0.15630
# Poissons Ratio (z) = -0.08658 0.44990
#
# Static dielectric constant tensor:
#      x y z
#    x 1.852120 0.000000 0.000000 
#    y 0.000000 1.950180 0.000000 
#    z 0.000000 0.000000 2.003720 
# 
# From -- ./inp_files/16729.got.cif
#   From: 2010.05.17/outbox.cif.g08.bks.cpg/sg53_9_cif.got.tgz:16729.got - 2010.06.03 12:45:16.
