data_PCOD9419717
_publ_section_title
;
Structure prediction by ZEFSAII (Michael W. Deem and Ramdas Pophale) SiO2 
 PCOD9419717
Probable space group: P M N A
;
_chemical_formula_sum "Si O2"
_cell_formula_units_Z 48
_cell_length_a 15.999923
_cell_length_b 12.402467
_cell_length_c 13.861122
_cell_angle_alpha 90.000000
_cell_angle_beta 90.000000
_cell_angle_gamma 90.000000
_cell_volume 2750.580494
_symmetry_space_group_name_H-M "P M N A"
_symmetry_group_IT_number 53
_symmetry_cell_setting 'orthorhombic'
loop_
_space_group_symop_operation_xyz
x,y,z
1/2-x,-y,1/2+z
x,-y,-z
1/2-x,y,1/2-z
-x,-y,-z
1/2+x,y,1/2-z
-x,y,z
1/2+x,-y,1/2+z
loop_
_atom_site_type_symbol
_atom_site_label
_atom_site_fract_x
_atom_site_fract_y
_atom_site_fract_z
Si Si1 0.189364 0.270273 0.658151
Si Si2 0.233298 0.670683 0.554800
Si Si3 0.162129 0.153010 0.299219
Si Si4 0.092465 0.333705 0.162523
Si Si5 0.160968 0.499279 0.693246
Si Si6 0.097871 0.948822 0.399630
O O1 0.250000 0.254485 0.750000
O O2 0.233440 0.308194 0.558695
O O3 0.133454 0.376398 0.679559
O O4 0.142886 0.159631 0.633927
O O5 0.188900 0.771196 0.610223
O O6 0.328701 0.659297 0.591037
O O7 0.182358 0.567585 0.596747
O O8 0.250000 0.123555 0.250000
O O9 0.110060 0.227586 0.226537
O O10 0.112882 0.046443 0.326251
O O11 0.101421 0.431548 0.238403
O O12 0.000000 0.332027 0.119247
O O13 0.250000 0.495677 0.750000
O O14 0.000000 0.925549 0.412022
O O15 0.130513 0.000000 0.500000
#
# Coordination Sequence:
#
# PCOD9419717 Si02
#       6
#     8   8   8   8   8   8
#     4  11  21  35  54  75 103 145 182 210 252 315
#     4   9  17  33  54  78 104 137 175 213 255 308
#     4   9  17  33  56  76 100 135 176 216 257 313
#     4   9  17  31  56  85 107 130 168 221 271 308
#     4   8  17  32  53  77 104 135 171 209 250 310
#     4  11  22  35  51  73 105 137 171 221 271 308
#
# _framework density 17.450862999999998
#
# number of rings (size 3 to 8) (size 9 to 14) (size 15 to 20)
#    0.000    2.500    1.667    3.500    0.000    0.667 
#    0.000    0.833    0.000   16.000    0.000    5.833 
#    0.000    0.000    0.000    0.000    0.000    0.000 
#
# Total GULP energy -267339.219163 kJ/mol
# GULP energy per Si atom -5569.567066 kJ/mol
# Density = 1.741114 g / cm^3
# Si number density = 17.450863 Si / 1000 Ang^3
#
#
#
# Elastic Constant Matrix: (Units=GPa)
#
#
# Indices 1 2 3 4 5 6 
#
# 1 43.8711 24.3212 1.5019 0.0000 0.0000 0.0000
# 2 24.3212 130.3268 28.9251 0.0000 0.0000 0.0000
# 3 1.5019 28.9251 78.7862 0.0000 0.0000 0.0000
# 4 0.0000 0.0000 0.0000 16.9119 0.0000 0.0000
# 5 0.0000 0.0000 0.0000 0.0000 9.5813 0.0000
# 6 0.0000 0.0000 0.0000 0.0000 0.0000 5.7513
#
#
#
# Elastic Compliance Matrix: (Units=1/GPa)
#
#
# Indices 1 2 3 4 5 6 
#
# 1 0.025561 -0.005075 0.001376 0.000000 0.000000 0.000000
# 2 -0.005075 0.009362 -0.003340 0.000000 0.000000 0.000000
# 3 0.001376 -0.003340 0.013893 0.000000 0.000000 0.000000
# 4 0.000000 0.000000 0.000000 0.059130 0.000000 0.000000
# 5 0.000000 0.000000 0.000000 0.000000 0.104370 0.000000
# 6 0.000000 0.000000 0.000000 0.000000 0.000000 0.173874
#
#
# Mechanical properties :
#
#
# Convention : Reuss Voigt Hill
#
# Bulk Modulus (GPa) = 28.78882 40.27563 34.53222
# Shear Modulus (GPa) = 12.14044 19.66462 15.90253
#
# Velocity S-wave (km/s) = 2.64046 3.36051 3.02201
# Velocity P-wave (km/s) = 5.08222 6.17956 5.65755
#
# Compressibility (1/GPa) = 0.03473571
#
# Stress axis : x y z
#
# Youngs Moduli (GPa) = 39.12266 106.82037 71.98063
#
# Poissons Ratio (x) = 0.54216 -0.09905
# Poissons Ratio (y) = 0.19857 0.24043
# Poissons Ratio (z) = -0.05384 0.35680
#
# Static dielectric constant tensor:
#      x y z
#    x 1.570680 0.000000 0.000000 
#    y 0.000000 1.611700 0.000000 
#    z 0.000000 0.000000 1.617030 
# 
# From -- ./inp_files/22697.got.cif
#   From: 2010.05.17/outbox.cif.g08.bks.cpg/sg53_12_cif.got.tgz:22697.got - 2010.06.03 12:45:16.
