data_PCOD9419757
_publ_section_title
;
Structure prediction by ZEFSAII (Michael W. Deem and Ramdas Pophale) SiO2 
 PCOD9419757
Probable space group: P M N A
;
_chemical_formula_sum "Si O2"
_cell_formula_units_Z 56
_cell_length_a 20.346975
_cell_length_b 14.740605
_cell_length_c 9.368005
_cell_angle_alpha 90.000000
_cell_angle_beta 90.000000
_cell_angle_gamma 90.000000
_cell_volume 2809.715026
_symmetry_space_group_name_H-M "P M N A"
_symmetry_group_IT_number 53
_symmetry_cell_setting 'orthorhombic'
loop_
_space_group_symop_operation_xyz
x,y,z
1/2-x,-y,1/2+z
x,-y,-z
1/2-x,y,1/2-z
-x,-y,-z
1/2+x,y,1/2-z
-x,y,z
1/2+x,-y,1/2+z
loop_
_atom_site_type_symbol
_atom_site_label
_atom_site_fract_x
_atom_site_fract_y
_atom_site_fract_z
Si Si1 0.302723 0.608321 0.000024
Si Si2 0.500000 0.371166 0.650099
Si Si3 0.619767 0.695704 0.753556
Si Si4 0.781319 0.084845 0.406978
Si Si5 0.000000 0.572796 0.818925
Si Si6 0.800376 0.748395 0.021148
Si Si7 0.925078 0.143393 0.452205
Si Si8 0.382484 0.263681 0.787835
O O1 0.350372 0.658377 0.112989
O O2 0.306371 0.500000 0.000000
O O3 0.322431 0.651031 0.847147
O O4 0.231451 0.648714 0.036803
O O5 0.500000 0.401551 0.486420
O O6 0.500000 0.468435 0.725949
O O7 0.437881 0.312389 0.694566
O O8 0.566515 0.617973 0.733842
O O9 0.648120 0.738767 0.608540
O O10 0.583010 0.772933 0.843286
O O11 0.750000 0.080788 0.250000
O O12 0.755093 0.178672 0.476651
O O13 0.860977 0.084616 0.409796
O O14 0.757946 0.000000 0.500000
O O15 0.831314 0.774607 0.172481
O O16 0.911412 0.186572 0.608440
O O17 0.000000 0.107399 0.444070
#
# Coordination Sequence:
#
# PCOD9419757 Si02
#       8
#     8   4   8   8   4   8   8   8
#     4  11  24  37  57  89 126 169 218 274 332 389
#     4  11  22  37  53  93 132 175 234 275 324 397
#     4  11  21  39  62  89 124 172 220 270 324 387
#     4  12  27  47  75 105 134 172 221 278 344 418
#     4  11  22  35  59  87 130 185 227 274 332 387
#     4  12  23  42  65  92 131 169 221 276 330 400
#     4  11  23  43  71  97 129 172 218 268 333 397
#     4  11  23  38  62  92 129 172 225 274 325 389
#
# _framework density 19.930848000000001
#
# number of rings (size 3 to 8) (size 9 to 14) (size 15 to 20)
#    0.000    0.714    7.143    1.714    2.000    3.714 
#    0.000    2.143    0.000    0.429    0.000    0.000 
#    0.000    0.000    0.000    0.000    0.000    0.000 
#
# Total GULP energy -312742.882102 kJ/mol
# GULP energy per Si atom -5584.694323 kJ/mol
# Density = 1.988548 g / cm^3
# Si number density = 19.930848 Si / 1000 Ang^3
#
#
#
# Elastic Constant Matrix: (Units=GPa)
#
#
# Indices 1 2 3 4 5 6 
#
# 1 104.6709 17.1766 29.1762 0.0000 0.0000 0.0000
# 2 17.1766 69.3632 15.7720 0.0000 0.0000 0.0000
# 3 29.1762 15.7720 75.0835 0.0000 0.0000 0.0000
# 4 0.0000 0.0000 0.0000 19.6230 0.0000 0.0000
# 5 0.0000 0.0000 0.0000 0.0000 26.9047 0.0000
# 6 0.0000 0.0000 0.0000 0.0000 0.0000 17.2155
#
#
#
# Elastic Compliance Matrix: (Units=1/GPa)
#
#
# Indices 1 2 3 4 5 6 
#
# 1 0.010931 -0.001828 -0.003863 0.000000 0.000000 0.000000
# 2 -0.001828 0.015446 -0.002534 0.000000 0.000000 0.000000
# 3 -0.003863 -0.002534 0.015352 0.000000 0.000000 0.000000
# 4 0.000000 0.000000 0.000000 0.050960 0.000000 0.000000
# 5 0.000000 0.000000 0.000000 0.000000 0.037168 0.000000
# 6 0.000000 0.000000 0.000000 0.000000 0.000000 0.058087
#
#
# Mechanical properties :
#
#
# Convention : Reuss Voigt Hill
#
# Bulk Modulus (GPa) = 39.56179 41.48525 40.52352
# Shear Modulus (GPa) = 23.49382 25.21483 24.35433
#
# Velocity S-wave (km/s) = 3.43704 3.56071 3.49942
# Velocity P-wave (km/s) = 5.97023 6.14529 6.05839
#
# Compressibility (1/GPa) = 0.02527692
#
# Stress axis : x y z
#
# Youngs Moduli (GPa) = 91.48556 64.74243 65.13776
#
# Poissons Ratio (x) = 0.11837 0.25165
# Poissons Ratio (y) = 0.16726 0.16506
# Poissons Ratio (z) = 0.35345 0.16406
#
# Static dielectric constant tensor:
#      x y z
#    x 1.732480 0.000000 0.000000 
#    y 0.000000 1.678360 0.000000 
#    z 0.000000 0.000000 1.728750 
# 
# From -- ./inp_files/11134.got.cif
#   From: 2010.05.17/outbox.cif.g08.bks.cpg/sg53_6_cif.got.tgz:11134.got - 2010.06.03 12:45:16.
