data_PCOD9419541
_publ_section_title
;
Structure prediction by ZEFSAII (Michael W. Deem and Ramdas Pophale) SiO2 
 PCOD9419541
Probable space group: P M N A
;
_chemical_formula_sum "Si O2"
_cell_formula_units_Z 52
_cell_length_a 20.025039
_cell_length_b 8.902107
_cell_length_c 13.775696
_cell_angle_alpha 90.000000
_cell_angle_beta 90.000000
_cell_angle_gamma 90.000000
_cell_volume 2455.724997
_symmetry_space_group_name_H-M "P M N A"
_symmetry_group_IT_number 53
_symmetry_cell_setting 'orthorhombic'
loop_
_space_group_symop_operation_xyz
x,y,z
1/2-x,-y,1/2+z
x,-y,-z
1/2-x,y,1/2-z
-x,-y,-z
1/2+x,y,1/2-z
-x,y,z
1/2+x,-y,1/2+z
loop_
_atom_site_type_symbol
_atom_site_label
_atom_site_fract_x
_atom_site_fract_y
_atom_site_fract_z
Si Si1 0.382683 0.335691 0.533914
Si Si2 0.577137 0.769783 0.658456
Si Si3 0.320401 0.424720 0.216803
Si Si4 0.830888 0.000000 0.500000
Si Si5 0.424112 0.661596 0.242270
Si Si6 0.574458 0.000543 0.822814
Si Si7 0.226562 0.324664 0.481738
O O1 0.407826 0.500000 0.500000
O O2 0.413457 0.219866 0.456750
O O3 0.401411 0.318700 0.645779
O O4 0.303625 0.332561 0.514270
O O5 0.500000 0.720784 0.676236
O O6 0.635161 0.660283 0.701272
O O7 0.587455 0.919970 0.720359
O O8 0.250000 0.496103 0.250000
O O9 0.372104 0.554076 0.188397
O O10 0.293998 0.316326 0.132135
O O11 0.875619 0.038711 0.407256
O O12 0.795380 0.160757 0.522833
O O13 0.500000 0.603578 0.239973
O O14 0.423758 0.822801 0.193300
O O15 0.500000 0.953774 0.853106
O O16 0.202585 0.500000 0.500000
#
# Coordination Sequence:
#
# PCOD9419541 Si02
#       7
#     8   8   8   4   8   8   8
#     4  11  22  41  63  96 139 173 220 277 337 410
#     4  11  22  39  66  93 124 173 220 264 333 406
#     4  12  21  41  64  91 135 171 216 280 330 398
#     4  12  23  44  70  92 131 184 232 282 352 416
#     4  11  24  42  68 101 134 177 230 280 344 418
#     4  10  24  43  63  94 131 170 225 289 343 404
#     4  11  24  41  63  98 134 174 225 282 340 406
#
# _framework density 21.175008999999999
#
# number of rings (size 3 to 8) (size 9 to 14) (size 15 to 20)
#    0.000    0.923    4.615    3.000    0.000    2.462 
#    0.000    4.615    0.000    3.692    0.000    0.000 
#    0.000    0.000    0.000    0.000    0.000    0.000 
#
# Total GULP energy -289698.583090 kJ/mol
# GULP energy per Si atom -5571.126598 kJ/mol
# Density = 2.112681 g / cm^3
# Si number density = 21.175009 Si / 1000 Ang^3
#
#
#
# Elastic Constant Matrix: (Units=GPa)
#
#
# Indices 1 2 3 4 5 6 
#
# 1 139.2190 36.9053 25.7927 0.0000 0.0000 0.0000
# 2 36.9053 77.1803 -16.9330 0.0000 0.0000 0.0000
# 3 25.7927 -16.9330 38.4060 0.0000 0.0000 0.0000
# 4 0.0000 0.0000 0.0000 31.8523 0.0000 0.0000
# 5 0.0000 0.0000 0.0000 0.0000 -109.3530 0.0000
# 6 0.0000 0.0000 0.0000 0.0000 0.0000 37.9755
#
#
#
# Elastic Compliance Matrix: (Units=1/GPa)
#
#
# Indices 1 2 3 4 5 6 
#
# 1 0.011304 -0.007828 -0.011043 0.000000 0.000000 0.000000
# 2 -0.007828 0.019765 0.013971 0.000000 0.000000 0.000000
# 3 -0.011043 0.013971 0.039614 0.000000 0.000000 0.000000
# 4 0.000000 0.000000 0.000000 0.031395 0.000000 0.000000
# 5 0.000000 0.000000 0.000000 0.000000 -0.009145 0.000000
# 6 0.000000 0.000000 0.000000 0.000000 0.000000 0.026333
#
#
# Mechanical properties :
#
#
# Convention : Reuss Voigt Hill
#
# Bulk Modulus (GPa) = 16.42471 38.48170 27.45321
# Shear Modulus (GPa) = 33.47645 6.03096 19.75370
#
# Velocity S-wave (km/s) = 3.98042 1.68948 3.05762
# Velocity P-wave (km/s) = 5.37573 4.69238 5.04564
#
# Compressibility (1/GPa) = 0.06088387
#
# Stress axis : x y z
#
# Youngs Moduli (GPa) = 88.46525 50.59451 25.24385
#
# Poissons Ratio (x) = 0.39605 0.27876
# Poissons Ratio (y) = 0.69250 -0.35269
# Poissons Ratio (z) = 0.97690 -0.70687
#
# Static dielectric constant tensor:
#      x y z
#    x 1.769020 0.000000 0.000000 
#    y 0.000000 1.818070 0.000000 
#    z 0.000000 0.000000 1.787770 
# 
# From -- ./inp_files/24257.got.cif
#   From: 2010.05.17/outbox.cif.g08.bks.cpg/sg53_13_cif.got.tgz:24257.got - 2010.06.03 12:45:16.
