data_PCOD9419632
_publ_section_title
;
Structure prediction by ZEFSAII (Michael W. Deem and Ramdas Pophale) SiO2 
 PCOD9419632
Probable space group: P M N A
;
_chemical_formula_sum "Si O2"
_cell_formula_units_Z 44
_cell_length_a 14.490170
_cell_length_b 22.877034
_cell_length_c 6.688592
_cell_angle_alpha 90.000000
_cell_angle_beta 90.000000
_cell_angle_gamma 90.000000
_cell_volume 2217.215487
_symmetry_space_group_name_H-M "P M N A"
_symmetry_group_IT_number 53
_symmetry_cell_setting 'orthorhombic'
loop_
_space_group_symop_operation_xyz
x,y,z
1/2-x,-y,1/2+z
x,-y,-z
1/2-x,y,1/2-z
-x,-y,-z
1/2+x,y,1/2-z
-x,y,z
1/2+x,-y,1/2+z
loop_
_atom_site_type_symbol
_atom_site_label
_atom_site_fract_x
_atom_site_fract_y
_atom_site_fract_z
Si Si1 0.658519 0.062532 0.883737
Si Si2 0.500000 0.933483 0.438198
Si Si3 0.814135 0.441293 0.421795
Si Si4 0.650408 0.327046 0.819886
Si Si5 0.000000 0.331561 0.019173
Si Si6 0.500000 0.540421 0.694673
Si Si7 0.000000 0.738291 0.585543
Si Si8 0.000000 0.124511 0.362309
O O1 0.750000 0.076772 0.750000
O O2 0.586777 0.069629 0.704251
O O3 0.597180 0.098110 0.050810
O O4 0.672849 0.000000 0.000000
O O5 0.500000 0.890675 0.626751
O O6 0.500000 0.000000 0.500000
O O7 0.764242 0.500000 0.500000
O O8 0.750000 0.414055 0.250000
O O9 0.835592 0.391537 0.583467
O O10 0.907548 0.465727 0.322613
O O11 0.750000 0.304247 0.750000
O O12 0.588130 0.330278 0.623398
O O13 0.590222 0.289003 0.975791
O O14 0.000000 0.392430 0.132047
O O15 0.000000 0.281953 0.185248
O O16 0.500000 0.500000 0.500000
O O17 0.000000 0.807708 0.580592
#
# Coordination Sequence:
#
# PCOD9419632 Si02
#       8
#     8   4   8   8   4   4   4   4
#     4  11  23  39  70 106 142 177 220 270 331 392
#     4  11  19  40  65  95 139 184 218 273 334 375
#     4  12  23  39  61  99 133 161 214 278 345 415
#     4  11  24  43  70  94 128 178 224 277 341 399
#     4  11  22  44  64  94 127 173 228 277 329 395
#     4  12  21  36  62  89 131 171 213 272 336 403
#     4  11  26  47  67  96 135 180 231 273 325 387
#     4  11  25  44  67 101 139 183 225 274 323 388
#
# _framework density 19.844709999999999
#
# number of rings (size 3 to 8) (size 9 to 14) (size 15 to 20)
#    0.000    0.727    3.636    5.182    0.000    3.636 
#    0.000    1.818    0.000    0.000    0.000    0.000 
#    0.000    0.000    0.000    0.000    0.000    0.000 
#
# Total GULP energy -245226.772382 kJ/mol
# GULP energy per Si atom -5573.335736 kJ/mol
# Density = 1.979954 g / cm^3
# Si number density = 19.844710 Si / 1000 Ang^3
#
#
#
# Elastic Constant Matrix: (Units=GPa)
#
#
# Indices 1 2 3 4 5 6 
#
# 1 152.1882 8.7163 49.6914 0.0000 0.0000 0.0000
# 2 8.7163 84.3007 16.2653 0.0000 0.0000 0.0000
# 3 49.6914 16.2653 115.3808 0.0000 0.0000 0.0000
# 4 0.0000 0.0000 0.0000 23.8608 0.0000 0.0000
# 5 0.0000 0.0000 0.0000 0.0000 -31.3296 0.0000
# 6 0.0000 0.0000 0.0000 0.0000 0.0000 9.8045
#
#
#
# Elastic Compliance Matrix: (Units=1/GPa)
#
#
# Indices 1 2 3 4 5 6 
#
# 1 0.007648 -0.000160 -0.003271 0.000000 0.000000 0.000000
# 2 -0.000160 0.012197 -0.001651 0.000000 0.000000 0.000000
# 3 -0.003271 -0.001651 0.010309 0.000000 0.000000 0.000000
# 4 0.000000 0.000000 0.000000 0.041910 0.000000 0.000000
# 5 0.000000 0.000000 0.000000 0.000000 -0.031919 0.000000
# 6 0.000000 0.000000 0.000000 0.000000 0.000000 0.101994
#
#
# Mechanical properties :
#
#
# Convention : Reuss Voigt Hill
#
# Bulk Modulus (GPa) = 50.02347 55.69062 52.85705
# Shear Modulus (GPa) = 31.45324 18.94691 25.20008
#
# Velocity S-wave (km/s) = 3.98549 3.09327 3.56738
# Velocity P-wave (km/s) = 6.81476 6.39389 6.60768
#
# Compressibility (1/GPa) = 0.01999062
#
# Stress axis : x y z
#
# Youngs Moduli (GPa) = 130.75170 81.98541 97.00705
#
# Poissons Ratio (x) = 0.01308 0.31734
# Poissons Ratio (y) = 0.02087 0.16013
# Poissons Ratio (z) = 0.42773 0.13534
#
# Static dielectric constant tensor:
#      x y z
#    x 1.648450 0.000000 0.000000 
#    y 0.000000 1.648030 0.000000 
#    z 0.000000 0.000000 1.676200 
# 
# From -- ./inp_files/1421.got.cif
#   From: 2010.05.17/outbox.cif.g08.bks.cpg/sg53_1_cif.got.tgz:1421.got - 2010.06.03 12:45:16.
