data_PCOD9419066
_publ_section_title
;
Structure prediction by ZEFSAII (Michael W. Deem and Ramdas Pophale) SiO2 
 PCOD9419066
Probable space group: P M N A
;
_chemical_formula_sum "Si O2"
_cell_formula_units_Z 44
_cell_length_a 14.075313
_cell_length_b 9.706166
_cell_length_c 15.879725
_cell_angle_alpha 90.000000
_cell_angle_beta 90.000000
_cell_angle_gamma 90.000000
_cell_volume 2169.445543
_symmetry_space_group_name_H-M "P M N A"
_symmetry_group_IT_number 53
_symmetry_cell_setting 'orthorhombic'
loop_
_space_group_symop_operation_xyz
x,y,z
1/2-x,-y,1/2+z
x,-y,-z
1/2-x,y,1/2-z
-x,-y,-z
1/2+x,y,1/2-z
-x,y,z
1/2+x,-y,1/2+z
loop_
_atom_site_type_symbol
_atom_site_label
_atom_site_fract_x
_atom_site_fract_y
_atom_site_fract_z
Si Si1 0.500000 0.723047 0.520610
Si Si2 0.000000 0.558937 0.273755
Si Si3 0.138549 0.023409 0.258875
Si Si4 0.156799 0.421967 0.581342
Si Si5 0.389454 0.884701 0.061896
Si Si6 0.662796 0.500000 0.500000
Si Si7 0.500000 0.163585 0.659830
Si Si8 0.000000 0.249926 0.212172
O O1 0.593676 0.628002 0.512934
O O2 0.500000 0.818403 0.439499
O O3 0.500000 0.784882 0.613341
O O4 0.091690 0.564266 0.336276
O O5 0.000000 0.413132 0.225971
O O6 0.000000 0.689018 0.209743
O O7 0.250000 0.032755 0.250000
O O8 0.112946 0.950184 0.346195
O O9 0.090652 0.924430 0.189761
O O10 0.089739 0.172555 0.253136
O O11 0.112627 0.500000 0.500000
O O12 0.162573 0.260333 0.560693
O O13 0.264598 0.479684 0.578677
O O14 0.500000 0.857167 0.038826
O O15 0.349664 0.000000 0.000000
#
# Coordination Sequence:
#
# PCOD9419066 Si02
#       8
#     4   4   8   8   8   4   4   4
#     4  11  24  49  64  92 130 184 228 272 322 378
#     4  12  21  41  71 100 140 162 217 282 345 398
#     4  11  25  46  66 100 134 172 227 274 330 400
#     4  10  22  36  65 107 131 167 216 265 341 402
#     4  11  22  40  66  96 138 173 204 269 346 397
#     4   9  24  41  66 100 136 163 224 275 320 398
#     4  11  24  45  74  92 128 179 228 282 324 400
#     4  11  28  45  66  95 135 182 221 277 337 391
#
# _framework density 20.281680999999999
#
# number of rings (size 3 to 8) (size 9 to 14) (size 15 to 20)
#    0.545    0.727    4.545    1.364    5.091    4.364 
#    0.000    2.727    0.000    0.000    0.000    0.000 
#    0.000    0.000    0.000    0.000    0.000    0.000 
#
# Total GULP energy -245653.896764 kJ/mol
# GULP energy per Si atom -5583.043108 kJ/mol
# Density = 2.023552 g / cm^3
# Si number density = 20.281681 Si / 1000 Ang^3
#
#
#
# Elastic Constant Matrix: (Units=GPa)
#
#
# Indices 1 2 3 4 5 6 
#
# 1 132.7884 25.5815 5.0659 0.0000 0.0000 0.0000
# 2 25.5815 94.2072 20.7914 0.0000 0.0000 0.0000
# 3 5.0659 20.7914 70.5585 0.0000 0.0000 0.0000
# 4 0.0000 0.0000 0.0000 24.0017 0.0000 0.0000
# 5 0.0000 0.0000 0.0000 0.0000 30.7227 0.0000
# 6 0.0000 0.0000 0.0000 0.0000 0.0000 16.2903
#
#
#
# Elastic Compliance Matrix: (Units=1/GPa)
#
#
# Indices 1 2 3 4 5 6 
#
# 1 0.007947 -0.002173 0.000070 0.000000 0.000000 0.000000
# 2 -0.002173 0.011948 -0.003365 0.000000 0.000000 0.000000
# 3 0.000070 -0.003365 0.015159 0.000000 0.000000 0.000000
# 4 0.000000 0.000000 0.000000 0.041664 0.000000 0.000000
# 5 0.000000 0.000000 0.000000 0.000000 0.032549 0.000000
# 6 0.000000 0.000000 0.000000 0.000000 0.000000 0.061386
#
#
# Mechanical properties :
#
#
# Convention : Reuss Voigt Hill
#
# Bulk Modulus (GPa) = 41.46383 44.49241 42.97812
# Shear Modulus (GPa) = 26.36744 30.61061 28.48903
#
# Velocity S-wave (km/s) = 3.60955 3.88915 3.75196
# Velocity P-wave (km/s) = 6.15306 6.49247 6.32504
#
# Compressibility (1/GPa) = 0.02411741
#
# Stress axis : x y z
#
# Youngs Moduli (GPa) = 125.83680 83.69876 65.96720
#
# Poissons Ratio (x) = 0.18190 -0.00461
# Poissons Ratio (y) = 0.27348 0.22195
# Poissons Ratio (z) = -0.00879 0.28161
#
# Static dielectric constant tensor:
#      x y z
#    x 1.661320 0.000000 0.000000 
#    y 0.000000 1.730780 0.000000 
#    z 0.000000 0.000000 1.729530 
# 
# From -- ./inp_files/28219.got.cif
#   From: 2010.05.17/outbox.cif.g08.bks.cpg/sg53_15_cif.got.tgz:28219.got - 2010.06.03 12:45:16.
