data_PCOD9419687
_publ_section_title
;
Structure prediction by ZEFSAII (Michael W. Deem and Ramdas Pophale) SiO2 
 PCOD9419687
Probable space group: P M N A
;
_chemical_formula_sum "Si O2"
_cell_formula_units_Z 40
_cell_length_a 28.538794
_cell_length_b 17.456076
_cell_length_c 5.103392
_cell_angle_alpha 90.000000
_cell_angle_beta 90.000000
_cell_angle_gamma 90.000000
_cell_volume 2542.384132
_symmetry_space_group_name_H-M "P M N A"
_symmetry_group_IT_number 53
_symmetry_cell_setting 'orthorhombic'
loop_
_space_group_symop_operation_xyz
x,y,z
1/2-x,-y,1/2+z
x,-y,-z
1/2-x,y,1/2-z
-x,-y,-z
1/2+x,y,1/2-z
-x,y,z
1/2+x,-y,1/2+z
loop_
_atom_site_type_symbol
_atom_site_label
_atom_site_fract_x
_atom_site_fract_y
_atom_site_fract_z
Si Si1 0.598570 0.086779 0.610248
Si Si2 0.556884 0.673201 0.101231
Si Si3 0.444349 0.840495 0.899291
Si Si4 0.300782 0.055560 0.748673
Si Si5 0.442926 0.583121 0.600419
O O1 0.581647 0.138358 0.368702
O O2 0.651879 0.102548 0.703657
O O3 0.596288 0.000000 0.500000
O O4 0.567101 0.100411 0.866648
O O5 0.500000 0.673829 0.103830
O O6 0.570790 0.757455 0.008553
O O7 0.571716 0.609932 0.887873
O O8 0.571565 0.646974 0.388886
O O9 0.500000 0.839075 0.847567
O O10 0.250000 0.096274 0.750000
O O11 0.297382 0.000000 0.500000
O O12 0.306932 0.000000 0.000000
O O13 0.427440 0.500000 0.500000
O O14 0.500000 0.580889 0.604411
#
# Coordination Sequence:
#
# PCOD9419687 Si02
#       5
#     8   8   8   8   8
#     4  11  21  33  47  64  83 109 152 194 223 257
#     4   9  17  28  39  54  78 108 141 173 210 254
#     4  11  22  33  44  59  86 123 155 184 217 252
#     4   9  17  31  50  68  84 101 128 178 237 281
#     4   9  15  24  40  59  76  97 133 180 217 246
#
# _framework density 15.733264999999999
#
# number of rings (size 3 to 8) (size 9 to 14) (size 15 to 20)
#    0.000    2.200    0.000    5.400    0.000    8.000 
#    0.000    0.000    0.000    0.000    0.000    0.000 
#    0.000    0.000    0.000    0.000    0.000   56.000 
#
# Total GULP energy -222873.663200 kJ/mol
# GULP energy per Si atom -5571.841580 kJ/mol
# Density = 1.569746 g / cm^3
# Si number density = 15.733265 Si / 1000 Ang^3
#
#
#
# Elastic Constant Matrix: (Units=GPa)
#
#
# Indices 1 2 3 4 5 6 
#
# 1 51.4847 13.7567 9.1726 0.0000 0.0000 0.0000
# 2 13.7567 33.2531 -5.7273 0.0000 0.0000 0.0000
# 3 9.1726 -5.7273 79.1369 0.0000 0.0000 0.0000
# 4 0.0000 0.0000 0.0000 22.6275 0.0000 0.0000
# 5 0.0000 0.0000 0.0000 0.0000 19.4174 0.0000
# 6 0.0000 0.0000 0.0000 0.0000 0.0000 -1.4032
#
#
#
# Elastic Compliance Matrix: (Units=1/GPa)
#
#
# Indices 1 2 3 4 5 6 
#
# 1 0.022681 -0.009960 -0.003350 0.000000 0.000000 0.000000
# 2 -0.009960 0.034826 0.003675 0.000000 0.000000 0.000000
# 3 -0.003350 0.003675 0.013291 0.000000 0.000000 0.000000
# 4 0.000000 0.000000 0.000000 0.044194 0.000000 0.000000
# 5 0.000000 0.000000 0.000000 0.000000 0.051500 0.000000
# 6 0.000000 0.000000 0.000000 0.000000 0.000000 -0.712660
#
#
# Mechanical properties :
#
#
# Convention : Reuss Voigt Hill
#
# Bulk Modulus (GPa) = 19.40708 22.03098 20.71903
# Shear Modulus (GPa) = -9.80927 17.90653 4.04863
#
# Velocity S-wave (km/s) = -2.49965 3.37728 1.60589
# Velocity P-wave (km/s) = 2.00769 5.40752 4.07873
#
# Compressibility (1/GPa) = 0.05152758
#
# Stress axis : x y z
#
# Youngs Moduli (GPa) = 44.08901 28.71435 75.24136
#
# Poissons Ratio (x) = 0.28600 0.25204
# Poissons Ratio (y) = 0.43913 -0.27650
# Poissons Ratio (z) = 0.14769 -0.10552
#
# Static dielectric constant tensor:
#      x y z
#    x 1.543700 0.000000 0.000000 
#    y 0.000000 1.543360 0.000000 
#    z 0.000000 0.000000 1.537620 
# 
# From -- ./inp_files/4377.got.cif
#   From: 2010.05.17/outbox.cif.g08.bks.cpg/sg53_3_cif.got.tgz:4377.got - 2010.06.03 12:45:16.
