data_PCOD9419025
_publ_section_title
;
Structure prediction by ZEFSAII (Michael W. Deem and Ramdas Pophale) SiO2 
 PCOD9419025
Probable space group: P M N A
;
_chemical_formula_sum "Si O2"
_cell_formula_units_Z 16
_cell_length_a 15.170470
_cell_length_b 8.499701
_cell_length_c 5.190364
_cell_angle_alpha 90.000000
_cell_angle_beta 90.000000
_cell_angle_gamma 90.000000
_cell_volume 669.268678
_symmetry_space_group_name_H-M "P M N A"
_symmetry_group_IT_number 53
_symmetry_cell_setting 'orthorhombic'
loop_
_space_group_symop_operation_xyz
x,y,z
1/2-x,-y,1/2+z
x,-y,-z
1/2-x,y,1/2-z
-x,-y,-z
1/2+x,y,1/2-z
-x,y,z
1/2+x,-y,1/2+z
loop_
_atom_site_type_symbol
_atom_site_label
_atom_site_fract_x
_atom_site_fract_y
_atom_site_fract_z
Si Si1 0.250000 0.391078 0.750000
Si Si2 0.899667 0.824696 0.446850
Si Si3 0.500000 0.389952 0.255481
O O1 0.256842 0.500000 0.500000
O O2 0.165693 0.278887 0.717859
O O3 0.917436 0.726209 0.710259
O O4 0.000000 0.838952 0.336098
O O5 0.867170 0.000000 0.500000
O O6 0.500000 0.500000 0.500000
O O7 0.500000 0.500000 0.000000
#
# Coordination Sequence:
#
# PCOD9419025 Si02
#       3
#     4   8   4
#     4  12  28  48  76 116 156 204 252 320 388 458
#     4   9  23  50  78 111 152 206 254 317 384 459
#     4  10  21  42  75 108 141 188 251 310 365 446
#
# _framework density 23.906692
#
# number of rings (size 3 to 8) (size 9 to 14) (size 15 to 20)
#    1.500    0.500    0.000    1.500    0.000   11.000 
#    0.000   10.000    0.000    0.000    0.000    0.000 
#    0.000    0.000    0.000    0.000    0.000    0.000 
#
# Total GULP energy -89477.766614 kJ/mol
# GULP energy per Si atom -5592.360413 kJ/mol
# Density = 2.385228 g / cm^3
# Si number density = 23.906692 Si / 1000 Ang^3
#
#
#
# Elastic Constant Matrix: (Units=GPa)
#
#
# Indices 1 2 3 4 5 6 
#
# 1 113.8359 58.1130 50.2217 0.0000 0.0000 0.0000
# 2 58.1130 239.7096 108.1425 0.0000 0.0000 0.0000
# 3 50.2217 108.1425 169.3377 0.0000 0.0000 0.0000
# 4 0.0000 0.0000 0.0000 18.3950 0.0000 0.0000
# 5 0.0000 0.0000 0.0000 0.0000 20.9058 0.0000
# 6 0.0000 0.0000 0.0000 0.0000 0.0000 44.4213
#
#
#
# Elastic Compliance Matrix: (Units=1/GPa)
#
#
# Indices 1 2 3 4 5 6 
#
# 1 0.010530 -0.001607 -0.002097 0.000000 0.000000 0.000000
# 2 -0.001607 0.006105 -0.003422 0.000000 0.000000 0.000000
# 3 -0.002097 -0.003422 0.008713 0.000000 0.000000 0.000000
# 4 0.000000 0.000000 0.000000 0.054363 0.000000 0.000000
# 5 0.000000 0.000000 0.000000 0.000000 0.047834 0.000000
# 6 0.000000 0.000000 0.000000 0.000000 0.000000 0.022512
#
#
# Mechanical properties :
#
#
# Convention : Reuss Voigt Hill
#
# Bulk Modulus (GPa) = 90.12269 106.20419 98.16344
# Shear Modulus (GPa) = 29.76076 37.17148 33.46612
#
# Velocity S-wave (km/s) = 3.53210 3.94745 3.74553
# Velocity P-wave (km/s) = 7.37657 8.08068 7.73664
#
# Compressibility (1/GPa) = 0.01109598
#
# Stress axis : x y z
#
# Youngs Moduli (GPa) = 94.96757 163.79404 114.77351
#
# Poissons Ratio (x) = 0.26319 0.24065
# Poissons Ratio (y) = 0.15260 0.39280
# Poissons Ratio (z) = 0.19913 0.56056
#
# Static dielectric constant tensor:
#      x y z
#    x 1.985590 0.000000 0.000000 
#    y 0.000000 1.915170 0.000000 
#    z 0.000000 0.000000 1.928660 
# 
# From -- ./inp_files/1560.got.cif
#   From: 2010.05.17/outbox.cif.g08.bks.cpg/sg53_1_cif.got.tgz:1560.got - 2010.06.03 12:45:16.
