data_PCOD9419810
_publ_section_title
;
Structure prediction by ZEFSAII (Michael W. Deem and Ramdas Pophale) SiO2 
 PCOD9419810
Probable space group: P M N A
;
_chemical_formula_sum "Si O2"
_cell_formula_units_Z 64
_cell_length_a 8.109372
_cell_length_b 25.166616
_cell_length_c 15.725422
_cell_angle_alpha 90.000000
_cell_angle_beta 90.000000
_cell_angle_gamma 90.000000
_cell_volume 3209.329843
_symmetry_space_group_name_H-M "P M N A"
_symmetry_group_IT_number 53
_symmetry_cell_setting 'orthorhombic'
loop_
_space_group_symop_operation_xyz
x,y,z
1/2-x,-y,1/2+z
x,-y,-z
1/2-x,y,1/2-z
-x,-y,-z
1/2+x,y,1/2-z
-x,y,z
1/2+x,-y,1/2+z
loop_
_atom_site_type_symbol
_atom_site_label
_atom_site_fract_x
_atom_site_fract_y
_atom_site_fract_z
Si Si1 0.701907 0.807286 0.000002
Si Si2 0.804023 0.385367 0.342620
Si Si3 0.303413 0.499997 0.403118
Si Si4 0.699448 0.116652 0.151391
Si Si5 0.198520 0.999998 0.651256
Si Si6 0.695979 0.614628 0.157381
Si Si7 0.800552 0.116649 0.651391
Si Si8 0.797630 0.685108 0.499998
O O1 0.500000 0.807567 0.000002
O O2 0.755296 0.838877 0.084713
O O3 0.755280 0.746177 0.000004
O O4 0.755296 0.838874 0.915288
O O5 0.750000 0.367215 0.250000
O O6 0.750207 0.445970 0.358147
O O7 0.740601 0.347456 0.417470
O O8 0.000000 0.384512 0.346649
O O9 0.237361 0.500000 0.500000
O O10 0.500000 0.499993 0.406390
O O11 0.249812 0.554026 0.358146
O O12 0.750000 0.124547 0.250000
O O13 0.500000 0.116395 0.150458
O O14 0.756014 0.057797 0.120064
O O15 0.250000 0.999998 0.750000
O O16 0.000000 0.999998 0.643254
O O17 0.256014 0.057794 0.620063
O O18 0.750000 0.632781 0.250000
O O19 0.500000 0.615478 0.153351
O O20 0.759394 0.652541 0.082532
O O21 0.750000 0.124543 0.750000
O O22 0.000000 0.116392 0.650458
O O23 0.000000 0.685026 0.499998
#
# Coordination Sequence:
#
# PCOD9419810 Si02
#       8
#     8   8   8   8   8   8   8   8
#     4   9  18  33  52  75 100 135 178 219 260 308
#     4  11  22  38  59  83 110 143 179 216 262 316
#     4  11  22  37  60  88 116 142 172 215 261 311
#     4   9  17  30  50  73 102 134 170 213 261 313
#     4   8  14  25  43  71 100 130 164 207 259 311
#     4  11  22  38  59  83 110 143 179 216 262 316
#     4   9  17  30  50  73 102 134 170 213 261 313
#     4   9  20  37  55  75 105 141 178 217 264 314
#
# _framework density 19.941859000000001
#
# number of rings (size 3 to 8) (size 9 to 14) (size 15 to 20)
#    0.000    2.375    1.250    1.500    0.000    2.000 
#    0.000    3.125    0.000    4.500    0.000    8.750 
#    0.000    0.000    0.000    0.000    0.000    0.000 
#
# Total GULP energy -357059.604675 kJ/mol
# GULP energy per Si atom -5579.056323 kJ/mol
# Density = 1.989647 g / cm^3
# Si number density = 19.941859 Si / 1000 Ang^3
#
#
#
# Elastic Constant Matrix: (Units=GPa)
#
#
# Indices 1 2 3 4 5 6 
#
# 1 18.6988 14.0701 11.9756 0.0000 0.0000 0.0000
# 2 14.0701 200.5772 105.2847 0.0000 0.0000 0.0000
# 3 11.9756 105.2847 161.9727 0.0000 0.0000 0.0000
# 4 0.0000 0.0000 0.0000 -13.6566 0.0000 0.0000
# 5 0.0000 0.0000 0.0000 0.0000 21.2736 0.0000
# 6 0.0000 0.0000 0.0000 0.0000 0.0000 4.7572
#
#
#
# Elastic Compliance Matrix: (Units=1/GPa)
#
#
# Indices 1 2 3 4 5 6 
#
# 1 0.057096 -0.002716 -0.002456 0.000000 0.000000 0.000000
# 2 -0.002716 0.007697 -0.004802 0.000000 0.000000 0.000000
# 3 -0.002456 -0.004802 0.009477 0.000000 0.000000 0.000000
# 4 0.000000 0.000000 0.000000 -0.073225 0.000000 0.000000
# 5 0.000000 0.000000 0.000000 0.000000 0.047007 0.000000
# 6 0.000000 0.000000 0.000000 0.000000 0.000000 0.210207
#
#
# Mechanical properties :
#
#
# Convention : Reuss Voigt Hill
#
# Bulk Modulus (GPa) = 18.40900 71.54550 44.97725
# Shear Modulus (GPa) = 16.87395 19.13606 18.00500
#
# Velocity S-wave (km/s) = 2.91203 3.10109 3.00805
# Velocity P-wave (km/s) = 4.53409 6.98407 5.88792
#
# Compressibility (1/GPa) = 0.05432125
#
# Stress axis : x y z
#
# Youngs Moduli (GPa) = 17.51439 129.92260 105.51831
#
# Poissons Ratio (x) = 0.35286 0.25916
# Poissons Ratio (y) = 0.04757 0.50673
# Poissons Ratio (z) = 0.04302 0.62393
#
# Static dielectric constant tensor:
#      x y z
#    x 1.699420 0.000000 0.000000 
#    y 0.000000 1.709370 0.000000 
#    z 0.000000 0.000000 1.720270 
# 
# From -- ./inp_files/20844.got.cif
#   From: 2010.05.17/outbox.cif.g08.bks.cpg/sg53_11_cif.got.tgz:20844.got - 2010.06.03 12:45:16.
