data_PCOD9419230
_publ_section_title
;
Structure prediction by ZEFSAII (Michael W. Deem and Ramdas Pophale) SiO2 
 PCOD9419230
Probable space group: P M N A
;
_chemical_formula_sum "Si O2"
_cell_formula_units_Z 40
_cell_length_a 9.610272
_cell_length_b 24.685205
_cell_length_c 8.755858
_cell_angle_alpha 90.000000
_cell_angle_beta 90.000000
_cell_angle_gamma 90.000000
_cell_volume 2077.165629
_symmetry_space_group_name_H-M "P M N A"
_symmetry_group_IT_number 53
_symmetry_cell_setting 'orthorhombic'
loop_
_space_group_symop_operation_xyz
x,y,z
1/2-x,-y,1/2+z
x,-y,-z
1/2-x,y,1/2-z
-x,-y,-z
1/2+x,y,1/2-z
-x,y,z
1/2+x,-y,1/2+z
loop_
_atom_site_type_symbol
_atom_site_label
_atom_site_fract_x
_atom_site_fract_y
_atom_site_fract_z
Si Si1 0.000000 0.938006 0.063220
Si Si2 0.000000 0.941177 0.428666
Si Si3 0.832898 0.335943 0.090506
Si Si4 0.662961 0.447492 0.596112
Si Si5 0.170743 0.241692 0.588692
Si Si6 0.743547 0.128712 0.067410
O O1 0.000000 0.942167 0.246137
O O2 0.875414 0.901088 0.003121
O O3 0.000000 0.000000 0.000000
O O4 0.126393 0.908557 0.496844
O O5 0.000000 0.000000 0.500000
O O6 0.750000 0.338647 0.250000
O O7 0.000000 0.322375 0.106953
O O8 0.825621 0.393844 0.006613
O O9 0.746277 0.292861 0.989935
O O10 0.708875 0.500000 0.500000
O O11 0.750000 0.441692 0.750000
O O12 0.500000 0.455056 0.634782
O O13 0.250000 0.234513 0.750000
O O14 0.210619 0.189282 0.488351
O O15 0.000000 0.246551 0.601535
O O16 0.750000 0.127504 0.250000
#
# Coordination Sequence:
#
# PCOD9419230 Si02
#       6
#     4   4   8   8   8   8
#     4  12  26  44  70 100 132 176 217 274 333 404
#     4  12  24  46  68  96 134 170 221 270 333 400
#     4  11  24  42  67  98 135 179 227 281 339 402
#     4  10  22  40  63  95 133 175 225 278 339 404
#     4  12  26  45  69  98 134 176 225 280 341 408
#     4  12  26  44  68  98 132 173 220 273 335 403
#
# _framework density 19.257009
#
# number of rings (size 3 to 8) (size 9 to 14) (size 15 to 20)
#    0.000    0.600    1.000    7.200    2.800    3.600 
#    0.000    0.000    0.000    0.000    0.000    0.000 
#    0.000    0.000    0.000    0.000    0.000    0.000 
#
# Total GULP energy -223437.166354 kJ/mol
# GULP energy per Si atom -5585.929159 kJ/mol
# Density = 1.921318 g / cm^3
# Si number density = 19.257009 Si / 1000 Ang^3
#
#
#
# Elastic Constant Matrix: (Units=GPa)
#
#
# Indices 1 2 3 4 5 6 
#
# 1 184.5447 62.2428 77.4222 0.0000 0.0000 0.0000
# 2 62.2428 139.9063 58.4176 0.0000 0.0000 0.0000
# 3 77.4222 58.4176 203.0946 0.0000 0.0000 0.0000
# 4 0.0000 0.0000 0.0000 39.5826 0.0000 0.0000
# 5 0.0000 0.0000 0.0000 0.0000 32.7011 0.0000
# 6 0.0000 0.0000 0.0000 0.0000 0.0000 36.7073
#
#
#
# Elastic Compliance Matrix: (Units=1/GPa)
#
#
# Indices 1 2 3 4 5 6 
#
# 1 0.007040 -0.002286 -0.002026 0.000000 0.000000 0.000000
# 2 -0.002286 0.008866 -0.001679 0.000000 0.000000 0.000000
# 3 -0.002026 -0.001679 0.006179 0.000000 0.000000 0.000000
# 4 0.000000 0.000000 0.000000 0.025264 0.000000 0.000000
# 5 0.000000 0.000000 0.000000 0.000000 0.030580 0.000000
# 6 0.000000 0.000000 0.000000 0.000000 0.000000 0.027243
#
#
# Mechanical properties :
#
#
# Convention : Reuss Voigt Hill
#
# Bulk Modulus (GPa) = 98.98080 102.63453 100.80767
# Shear Modulus (GPa) = 41.48707 43.76241 42.62474
#
# Velocity S-wave (km/s) = 4.64657 4.77229 4.70985
# Velocity P-wave (km/s) = 8.96097 9.15310 9.05755
#
# Compressibility (1/GPa) = 0.01010297
#
# Stress axis : x y z
#
# Youngs Moduli (GPa) = 142.05056 112.79640 161.83747
#
# Poissons Ratio (x) = 0.25784 0.32790
# Poissons Ratio (y) = 0.32471 0.27167
# Poissons Ratio (z) = 0.28781 0.18934
#
# Static dielectric constant tensor:
#      x y z
#    x 1.623470 0.000000 0.000000 
#    y 0.000000 1.613060 0.000000 
#    z 0.000000 0.000000 1.637720 
# 
# From -- ./inp_files/6362.got.cif
#   From: 2010.05.17/outbox.cif.g08.bks.cpg/sg53_4_cif.got.tgz:6362.got - 2010.06.03 12:45:16.
