data_PCOD9419901
_publ_section_title
;
Structure prediction by ZEFSAII (Michael W. Deem and Ramdas Pophale) SiO2 
 PCOD9419901
Probable space group: P M N A
;
_chemical_formula_sum "Si O2"
_cell_formula_units_Z 40
_cell_length_a 18.214289
_cell_length_b 11.923064
_cell_length_c 8.393896
_cell_angle_alpha 90.000000
_cell_angle_beta 90.000000
_cell_angle_gamma 90.000000
_cell_volume 1822.903515
_symmetry_space_group_name_H-M "P M N A"
_symmetry_group_IT_number 53
_symmetry_cell_setting 'orthorhombic'
loop_
_space_group_symop_operation_xyz
x,y,z
1/2-x,-y,1/2+z
x,-y,-z
1/2-x,y,1/2-z
-x,-y,-z
1/2+x,y,1/2-z
-x,y,z
1/2+x,-y,1/2+z
loop_
_atom_site_type_symbol
_atom_site_label
_atom_site_fract_x
_atom_site_fract_y
_atom_site_fract_z
Si Si1 0.834461 0.301840 0.294023
Si Si2 0.087273 0.480605 0.816400
Si Si3 0.172029 0.277375 0.674861
Si Si4 0.084335 0.894656 0.886848
Si Si5 0.672607 0.021331 0.818774
O O1 0.750000 0.315785 0.250000
O O2 0.876503 0.419120 0.282027
O O3 0.834320 0.269850 0.482341
O O4 0.870531 0.218025 0.159289
O O5 0.113259 0.362042 0.747469
O O6 0.000000 0.488968 0.808766
O O7 0.110342 0.500000 0.000000
O O8 0.250000 0.316263 0.750000
O O9 0.164154 0.149675 0.732384
O O10 0.000000 0.869497 0.927150
O O11 0.097610 0.958164 0.721442
O O12 0.110895 0.000000 0.000000
O O13 0.750000 0.975448 0.750000
O O14 0.685228 0.000000 0.000000
#
# Coordination Sequence:
#
# PCOD9419901 Si02
#       5
#     8   8   8   8   8
#     4  12  25  45  73 101 135 180 233 288 347 413
#     4  11  26  47  71  99 138 183 230 287 353 421
#     4  11  25  43  69 105 136 180 230 292 346 411
#     4  11  26  43  65  98 139 183 225 279 345 412
#     4  11  23  42  69 101 137 179 230 282 339 407
#
# _framework density 21.943014999999999
#
# number of rings (size 3 to 8) (size 9 to 14) (size 15 to 20)
#    0.000    0.800    2.000    4.200    8.400    3.600 
#    0.000    0.000    0.000    0.000    0.000    0.000 
#    0.000    0.000    0.000    0.000    0.000    0.000 
#
# Total GULP energy -223001.788872 kJ/mol
# GULP energy per Si atom -5575.044722 kJ/mol
# Density = 2.189307 g / cm^3
# Si number density = 21.943015 Si / 1000 Ang^3
#
#
#
# Elastic Constant Matrix: (Units=GPa)
#
#
# Indices 1 2 3 4 5 6 
#
# 1 64.2101 33.7807 0.5924 0.0000 0.0000 0.0000
# 2 33.7807 78.2043 -1.7345 0.0000 0.0000 0.0000
# 3 0.5924 -1.7345 68.3980 0.0000 0.0000 0.0000
# 4 0.0000 0.0000 0.0000 8.8865 0.0000 0.0000
# 5 0.0000 0.0000 0.0000 0.0000 3.2437 0.0000
# 6 0.0000 0.0000 0.0000 0.0000 0.0000 13.7344
#
#
#
# Elastic Compliance Matrix: (Units=1/GPa)
#
#
# Indices 1 2 3 4 5 6 
#
# 1 0.020165 -0.008719 -0.000396 0.000000 0.000000 0.000000
# 2 -0.008719 0.016564 0.000496 0.000000 0.000000 0.000000
# 3 -0.000396 0.000496 0.014636 0.000000 0.000000 0.000000
# 4 0.000000 0.000000 0.000000 0.112530 0.000000 0.000000
# 5 0.000000 0.000000 0.000000 0.000000 0.308294 0.000000
# 6 0.000000 0.000000 0.000000 0.000000 0.000000 0.072810
#
#
# Mechanical properties :
#
#
# Convention : Reuss Voigt Hill
#
# Bulk Modulus (GPa) = 29.30248 30.67661 29.98954
# Shear Modulus (GPa) = 8.71668 17.05117 12.88392
#
# Velocity S-wave (km/s) = 1.99525 2.79061 2.42575
# Velocity P-wave (km/s) = 4.32330 4.93901 4.64138
#
# Compressibility (1/GPa) = 0.03412680
#
# Stress axis : x y z
#
# Youngs Moduli (GPa) = 49.59203 60.37121 68.32325
#
# Poissons Ratio (x) = 0.52637 0.02704
# Poissons Ratio (y) = 0.43239 -0.03386
# Poissons Ratio (z) = 0.01963 -0.02992
#
# Static dielectric constant tensor:
#      x y z
#    x 1.804490 0.000000 0.000000 
#    y 0.000000 1.846310 0.000000 
#    z 0.000000 0.000000 1.866520 
# 
# From -- ./inp_files/9612.got.cif
#   From: 2010.05.17/outbox.cif.g08.bks.cpg/sg53_5_cif.got.tgz:9612.got - 2010.06.03 12:45:16.
