data_PCOD9419634
_publ_section_title
;
Structure prediction by ZEFSAII (Michael W. Deem and Ramdas Pophale) SiO2 
 PCOD9419634
Probable space group: P M N A
;
_chemical_formula_sum "Si O2"
_cell_formula_units_Z 48
_cell_length_a 16.192425
_cell_length_b 9.507388
_cell_length_c 15.439893
_cell_angle_alpha 90.000000
_cell_angle_beta 90.000000
_cell_angle_gamma 90.000000
_cell_volume 2376.935508
_symmetry_space_group_name_H-M "P M N A"
_symmetry_group_IT_number 53
_symmetry_cell_setting 'orthorhombic'
loop_
_space_group_symop_operation_xyz
x,y,z
1/2-x,-y,1/2+z
x,-y,-z
1/2-x,y,1/2-z
-x,-y,-z
1/2+x,y,1/2-z
-x,y,z
1/2+x,-y,1/2+z
loop_
_atom_site_type_symbol
_atom_site_label
_atom_site_fract_x
_atom_site_fract_y
_atom_site_fract_z
Si Si1 0.407127 0.655980 0.457846
Si Si2 0.176299 0.017567 0.593847
Si Si3 0.594681 0.201094 0.215233
Si Si4 0.754669 0.299262 0.653437
Si Si5 0.814837 0.788899 0.896590
Si Si6 0.333218 0.571714 0.908451
O O1 0.402239 0.500000 0.500000
O O2 0.500000 0.674344 0.423861
O O3 0.335010 0.673809 0.387664
O O4 0.387099 0.766708 0.534293
O O5 0.196256 0.180261 0.602476
O O6 0.135901 0.000000 0.500000
O O7 0.123736 0.942499 0.668423
O O8 0.263502 0.932720 0.595276
O O9 0.500000 0.193723 0.242258
O O10 0.651787 0.227878 0.299092
O O11 0.606764 0.324447 0.143733
O O12 0.750000 0.243741 0.750000
O O13 0.805490 0.443087 0.651534
O O14 0.748461 0.667643 0.920842
O O15 0.358219 0.500000 0.000000
#
# Coordination Sequence:
#
# PCOD9419634 Si02
#       6
#     8   8   8   8   8   8
#     4  11  22  38  64  98 131 160 197 259 323 365
#     4  11  22  41  67  86 122 167 216 252 308 379
#     4  11  25  41  63  94 126 166 215 266 310 366
#     4  12  21  38  60  93 124 164 206 251 305 382
#     4  11  19  42  64  94 121 167 212 252 305 384
#     4  11  20  39  65  90 122 164 215 254 300 378
#
# _framework density 20.194068999999999
#
# number of rings (size 3 to 8) (size 9 to 14) (size 15 to 20)
#    0.000    0.833    5.000    5.500    0.000    0.667 
#    0.000    5.833    0.000    0.000    0.000    0.000 
#    0.000    0.000    0.000    0.000    0.000    0.000 
#
# Total GULP energy -268126.998792 kJ/mol
# GULP energy per Si atom -5585.979141 kJ/mol
# Density = 2.014811 g / cm^3
# Si number density = 20.194069 Si / 1000 Ang^3
#
#
#
# Elastic Constant Matrix: (Units=GPa)
#
#
# Indices 1 2 3 4 5 6 
#
# 1 55.7815 17.0471 8.1347 0.0000 0.0000 0.0000
# 2 17.0471 77.6404 -13.1129 0.0000 0.0000 0.0000
# 3 8.1347 -13.1129 86.5067 0.0000 0.0000 0.0000
# 4 0.0000 0.0000 0.0000 31.2676 0.0000 0.0000
# 5 0.0000 0.0000 0.0000 0.0000 22.5453 0.0000
# 6 0.0000 0.0000 0.0000 0.0000 0.0000 6.7340
#
#
#
# Elastic Compliance Matrix: (Units=1/GPa)
#
#
# Indices 1 2 3 4 5 6 
#
# 1 0.019763 -0.004775 -0.002582 0.000000 0.000000 0.000000
# 2 -0.004775 0.014372 0.002628 0.000000 0.000000 0.000000
# 3 -0.002582 0.002628 0.012201 0.000000 0.000000 0.000000
# 4 0.000000 0.000000 0.000000 0.031982 0.000000 0.000000
# 5 0.000000 0.000000 0.000000 0.000000 0.044355 0.000000
# 6 0.000000 0.000000 0.000000 0.000000 0.000000 0.148500
#
#
# Mechanical properties :
#
#
# Convention : Reuss Voigt Hill
#
# Bulk Modulus (GPa) = 27.11790 27.11850 27.11820
# Shear Modulus (GPa) = 17.06918 25.96668 21.51793
#
# Velocity S-wave (km/s) = 2.91048 3.58977 3.26783
# Velocity P-wave (km/s) = 4.97517 5.53535 5.26272
#
# Compressibility (1/GPa) = 0.03687602
#
# Stress axis : x y z
#
# Youngs Moduli (GPa) = 50.59944 69.57884 81.96098
#
# Poissons Ratio (x) = 0.33227 0.21165
# Poissons Ratio (y) = 0.24163 -0.21536
# Poissons Ratio (z) = 0.13066 -0.18283
#
# Static dielectric constant tensor:
#      x y z
#    x 1.696660 0.000000 0.000000 
#    y 0.000000 1.703560 0.000000 
#    z 0.000000 0.000000 1.798960 
# 
# From -- ./inp_files/23664.got.cif
#   From: 2010.05.17/outbox.cif.g08.bks.cpg/sg53_12_cif.got.tgz:23664.got - 2010.06.03 12:45:16.
