data_PCOD9419819
_publ_section_title
;
Structure prediction by ZEFSAII (Michael W. Deem and Ramdas Pophale) SiO2 
 PCOD9419819
Probable space group: P M N A
;
_chemical_formula_sum "Si O2"
_cell_formula_units_Z 56
_cell_length_a 21.161244
_cell_length_b 15.153132
_cell_length_c 8.850879
_cell_angle_alpha 90.000000
_cell_angle_beta 90.000000
_cell_angle_gamma 90.000000
_cell_volume 2838.115103
_symmetry_space_group_name_H-M "P M N A"
_symmetry_group_IT_number 53
_symmetry_cell_setting 'orthorhombic'
loop_
_space_group_symop_operation_xyz
x,y,z
1/2-x,-y,1/2+z
x,-y,-z
1/2-x,y,1/2-z
-x,-y,-z
1/2+x,y,1/2-z
-x,y,z
1/2+x,-y,1/2+z
loop_
_atom_site_type_symbol
_atom_site_label
_atom_site_fract_x
_atom_site_fract_y
_atom_site_fract_z
Si Si1 0.734217 0.592579 0.925535
Si Si2 0.180692 0.904346 0.565380
Si Si3 0.132342 0.594636 0.073448
Si Si4 0.572977 0.243249 0.416161
Si Si5 0.173993 0.094857 0.070648
Si Si6 0.430567 0.421597 0.878815
Si Si7 0.882392 0.273377 0.427129
O O1 0.750000 0.576683 0.750000
O O2 0.681395 0.667714 0.926342
O O3 0.714695 0.500000 0.000000
O O4 0.797498 0.619798 0.016238
O O5 0.253762 0.883365 0.523528
O O6 0.176089 0.910011 0.747112
O O7 0.135936 0.824067 0.517274
O O8 0.164697 0.000000 0.500000
O O9 0.122524 0.581647 0.250955
O O10 0.118664 0.500000 0.000000
O O11 0.085868 0.669653 0.013576
O O12 0.500000 0.215877 0.425294
O O13 0.622108 0.167994 0.468478
O O14 0.590682 0.265924 0.242243
O O15 0.158558 0.000000 0.000000
O O16 0.500000 0.434293 0.807642
O O17 0.423094 0.500000 0.000000
O O18 0.427878 0.329448 0.967235
#
# Coordination Sequence:
#
# PCOD9419819 Si02
#       7
#     8   8   8   8   8   8   8
#     4  11  24  39  62  92 126 158 200 256 318 373
#     4   9  19  36  60  87 115 153 195 246 313 384
#     4  11  24  40  61  86 119 160 201 254 307 365
#     4  11  22  38  61  88 117 161 211 250 301 372
#     4   9  19  36  60  85 118 150 192 251 314 368
#     4  11  25  42  60  86 124 168 213 256 302 364
#     4  11  22  38  63  86 122 160 204 253 317 368
#
# _framework density 19.731406
#
# number of rings (size 3 to 8) (size 9 to 14) (size 15 to 20)
#    0.000    1.571    1.429    3.000    8.000    3.714 
#    0.000    2.857    0.000   10.714    0.000    0.000 
#    0.000    0.000    0.000    0.000    0.000    0.000 
#
# Total GULP energy -312883.265263 kJ/mol
# GULP energy per Si atom -5587.201165 kJ/mol
# Density = 1.968650 g / cm^3
# Si number density = 19.731406 Si / 1000 Ang^3
#
#
#
# Elastic Constant Matrix: (Units=GPa)
#
#
# Indices 1 2 3 4 5 6 
#
# 1 99.5190 46.7729 32.4431 0.0000 0.0000 0.0000
# 2 46.7729 110.2877 11.1727 0.0000 0.0000 0.0000
# 3 32.4431 11.1727 43.4309 0.0000 0.0000 0.0000
# 4 0.0000 0.0000 0.0000 35.6215 0.0000 0.0000
# 5 0.0000 0.0000 0.0000 0.0000 21.9112 0.0000
# 6 0.0000 0.0000 0.0000 0.0000 0.0000 18.7157
#
#
#
# Elastic Compliance Matrix: (Units=1/GPa)
#
#
# Indices 1 2 3 4 5 6 
#
# 1 0.016250 -0.005814 -0.010644 0.000000 0.000000 0.000000
# 2 -0.005814 0.011390 0.001413 0.000000 0.000000 0.000000
# 3 -0.010644 0.001413 0.030613 0.000000 0.000000 0.000000
# 4 0.000000 0.000000 0.000000 0.028073 0.000000 0.000000
# 5 0.000000 0.000000 0.000000 0.000000 0.045639 0.000000
# 6 0.000000 0.000000 0.000000 0.000000 0.000000 0.053431
#
#
# Mechanical properties :
#
#
# Convention : Reuss Voigt Hill
#
# Bulk Modulus (GPa) = 35.50670 48.22389 41.86529
# Shear Modulus (GPa) = 22.23487 26.10628 24.17057
#
# Velocity S-wave (km/s) = 3.36054 3.64137 3.50377
# Velocity P-wave (km/s) = 5.75254 6.49405 6.13451
#
# Compressibility (1/GPa) = 0.02816370
#
# Stress axis : x y z
#
# Youngs Moduli (GPa) = 61.53680 87.79952 32.66639
#
# Poissons Ratio (x) = 0.51043 0.34769
# Poissons Ratio (y) = 0.35775 -0.04615
# Poissons Ratio (z) = 0.65497 -0.12404
#
# Static dielectric constant tensor:
#      x y z
#    x 1.732880 0.000000 0.000000 
#    y 0.000000 1.666250 0.000000 
#    z 0.000000 0.000000 1.694270 
# 
# From -- ./inp_files/11077.got.cif
#   From: 2010.05.17/outbox.cif.g08.bks.cpg/sg53_6_cif.got.tgz:11077.got - 2010.06.03 12:45:16.
