data_PCOD9419462
_publ_section_title
;
Structure prediction by ZEFSAII (Michael W. Deem and Ramdas Pophale) SiO2 
 PCOD9419462
Probable space group: P M N A
;
_chemical_formula_sum "Si O2"
_cell_formula_units_Z 28
_cell_length_a 14.190084
_cell_length_b 5.021937
_cell_length_c 17.273722
_cell_angle_alpha 90.000000
_cell_angle_beta 90.000000
_cell_angle_gamma 90.000000
_cell_volume 1230.954931
_symmetry_space_group_name_H-M "P M N A"
_symmetry_group_IT_number 53
_symmetry_cell_setting 'orthorhombic'
loop_
_space_group_symop_operation_xyz
x,y,z
1/2-x,-y,1/2+z
x,-y,-z
1/2-x,y,1/2-z
-x,-y,-z
1/2+x,y,1/2-z
-x,y,z
1/2+x,-y,1/2+z
loop_
_atom_site_type_symbol
_atom_site_label
_atom_site_fract_x
_atom_site_fract_y
_atom_site_fract_z
Si Si1 0.608038 0.331686 0.822618
Si Si2 0.607025 0.534796 0.657774
Si Si3 0.716015 0.165543 0.121845
Si Si4 0.693812 0.500000 0.500000
O O1 0.500000 0.272305 0.842719
O O2 0.678596 0.125619 0.862091
O O3 0.617276 0.336955 0.729682
O O4 0.637125 0.626926 0.848950
O O5 0.500000 0.636430 0.658838
O O6 0.686834 0.760752 0.666177
O O7 0.630589 0.412829 0.573328
O O8 0.742770 0.266530 0.035858
#
# Coordination Sequence:
#
# PCOD9419462 Si02
#       4
#     8   8   8   4
#     4  11  23  43  68 100 134 183 233 280 332 402
#     4   9  20  41  73 103 137 177 226 285 350 410
#     4  10  23  42  68 102 138 177 227 280 343 403
#     4   8  21  42  71 102 146 172 229 272 373 390
#
# _framework density 22.746566999999999
#
# number of rings (size 3 to 8) (size 9 to 14) (size 15 to 20)
#    1.714    0.571    0.000    2.143    0.000    5.714 
#    0.000    8.571    0.000    5.143    0.000    0.000 
#    0.000    0.000    0.000    0.000    0.000    0.000 
#
# Total GULP energy -156322.167303 kJ/mol
# GULP energy per Si atom -5582.934547 kJ/mol
# Density = 2.269479 g / cm^3
# Si number density = 22.746567 Si / 1000 Ang^3
#
#
#
# Elastic Constant Matrix: (Units=GPa)
#
#
# Indices 1 2 3 4 5 6 
#
# 1 143.1177 8.6417 33.9086 0.0000 0.0000 0.0000
# 2 8.6417 45.0850 10.6880 0.0000 0.0000 0.0000
# 3 33.9086 10.6880 76.6708 0.0000 0.0000 0.0000
# 4 0.0000 0.0000 0.0000 18.7584 0.0000 0.0000
# 5 0.0000 0.0000 0.0000 0.0000 27.0999 0.0000
# 6 0.0000 0.0000 0.0000 0.0000 0.0000 3.0033
#
#
#
# Elastic Compliance Matrix: (Units=1/GPa)
#
#
# Indices 1 2 3 4 5 6 
#
# 1 0.007827 -0.000703 -0.003363 0.000000 0.000000 0.000000
# 2 -0.000703 0.023001 -0.002896 0.000000 0.000000 0.000000
# 3 -0.003363 -0.002896 0.014934 0.000000 0.000000 0.000000
# 4 0.000000 0.000000 0.000000 0.053310 0.000000 0.000000
# 5 0.000000 0.000000 0.000000 0.000000 0.036901 0.000000
# 6 0.000000 0.000000 0.000000 0.000000 0.000000 0.332971
#
#
# Mechanical properties :
#
#
# Convention : Reuss Voigt Hill
#
# Bulk Modulus (GPa) = 31.40872 41.26112 36.33492
# Shear Modulus (GPa) = 10.13214 23.88132 17.00673
#
# Velocity S-wave (km/s) = 2.11282 3.24371 2.73731
# Velocity P-wave (km/s) = 4.44861 5.67519 5.09892
#
# Compressibility (1/GPa) = 0.03183829
#
# Stress axis : x y z
#
# Youngs Moduli (GPa) = 127.76967 43.47551 66.96162
#
# Poissons Ratio (x) = 0.03056 0.22522
# Poissons Ratio (y) = 0.08980 0.19389
# Poissons Ratio (z) = 0.42974 0.12589
#
# Static dielectric constant tensor:
#      x y z
#    x 1.819210 0.000000 0.000000 
#    y 0.000000 1.833540 0.000000 
#    z 0.000000 0.000000 1.906070 
# 
# From -- ./inp_files/23092.got.cif
#   From: 2010.05.17/outbox.cif.g08.bks.cpg/sg53_12_cif.got.tgz:23092.got - 2010.06.03 12:45:16.
