data_PCOD9419171
_publ_section_title
;
Structure prediction by ZEFSAII (Michael W. Deem and Ramdas Pophale) SiO2 
 PCOD9419171
Probable space group: P M N A
;
_chemical_formula_sum "Si O2"
_cell_formula_units_Z 56
_cell_length_a 18.262908
_cell_length_b 16.523711
_cell_length_c 9.990948
_cell_angle_alpha 90.000000
_cell_angle_beta 90.000000
_cell_angle_gamma 90.000000
_cell_volume 3014.978507
_symmetry_space_group_name_H-M "P M N A"
_symmetry_group_IT_number 53
_symmetry_cell_setting 'orthorhombic'
loop_
_space_group_symop_operation_xyz
x,y,z
1/2-x,-y,1/2+z
x,-y,-z
1/2-x,y,1/2-z
-x,-y,-z
1/2+x,y,1/2-z
-x,y,z
1/2+x,-y,1/2+z
loop_
_atom_site_type_symbol
_atom_site_label
_atom_site_fract_x
_atom_site_fract_y
_atom_site_fract_z
Si Si1 0.086930 0.731218 0.506252
Si Si2 0.587344 0.857036 0.221585
Si Si3 0.177286 0.985905 0.659595
Si Si4 0.837642 0.193841 0.251870
Si Si5 0.588358 0.251650 0.520029
Si Si6 0.835683 0.578399 0.089259
Si Si7 0.162751 0.425850 0.598071
O O1 0.109047 0.803398 0.406273
O O2 0.127851 0.743218 0.645002
O O3 0.111743 0.648682 0.438799
O O4 0.000000 0.733943 0.524745
O O5 0.500000 0.866109 0.219859
O O6 0.606341 0.805319 0.352973
O O7 0.624189 0.943682 0.210293
O O8 0.250000 0.992480 0.750000
O O9 0.146429 0.896498 0.692155
O O10 0.190212 0.000000 0.500000
O O11 0.750000 0.202303 0.250000
O O12 0.873075 0.212045 0.108619
O O13 0.500000 0.254517 0.504655
O O14 0.619660 0.341593 0.547878
O O15 0.847494 0.556584 0.245010
O O16 0.748524 0.595830 0.075434
O O17 0.853342 0.500000 0.000000
O O18 0.146208 0.500000 0.500000
#
# Coordination Sequence:
#
# PCOD9419171 Si02
#       7
#     8   8   8   8   8   8   8
#     4  11  22  41  64  92 125 165 211 257 312 372
#     4  10  23  41  65  90 125 167 206 251 309 379
#     4  11  25  42  65  94 126 162 211 263 315 370
#     4  11  25  42  63  94 126 163 209 261 315 372
#     4  11  24  43  64  93 127 166 211 257 313 378
#     4  10  22  40  62  90 127 168 207 254 313 372
#     4  10  22  39  62  93 125 164 212 258 307 370
#
# _framework density 18.573929
#
# number of rings (size 3 to 8) (size 9 to 14) (size 15 to 20)
#    0.000    1.429    2.857    1.286    6.000    3.143 
#    0.000    1.429    0.000    0.000    0.000    0.000 
#    0.000    0.000    0.000    0.000    0.000    0.000 
#
# Total GULP energy -312809.667596 kJ/mol
# GULP energy per Si atom -5585.886921 kJ/mol
# Density = 1.853165 g / cm^3
# Si number density = 18.573929 Si / 1000 Ang^3
#
#
#
# Elastic Constant Matrix: (Units=GPa)
#
#
# Indices 1 2 3 4 5 6 
#
# 1 43.7794 38.1968 45.5029 0.0000 0.0000 0.0000
# 2 38.1968 87.3858 51.7489 0.0000 0.0000 0.0000
# 3 45.5029 51.7489 132.9271 0.0000 0.0000 0.0000
# 4 0.0000 0.0000 0.0000 37.9864 0.0000 0.0000
# 5 0.0000 0.0000 0.0000 0.0000 26.3982 0.0000
# 6 0.0000 0.0000 0.0000 0.0000 0.0000 2.2802
#
#
#
# Elastic Compliance Matrix: (Units=1/GPa)
#
#
# Indices 1 2 3 4 5 6 
#
# 1 0.045529 -0.013869 -0.010186 0.000000 0.000000 0.000000
# 2 -0.013869 0.019097 -0.002687 0.000000 0.000000 0.000000
# 3 -0.010186 -0.002687 0.012056 0.000000 0.000000 0.000000
# 4 0.000000 0.000000 0.000000 0.026325 0.000000 0.000000
# 5 0.000000 0.000000 0.000000 0.000000 0.037881 0.000000
# 6 0.000000 0.000000 0.000000 0.000000 0.000000 0.438561
#
#
# Mechanical properties :
#
#
# Convention : Reuss Voigt Hill
#
# Bulk Modulus (GPa) = 43.10717 59.44326 51.27522
# Shear Modulus (GPa) = 7.80437 21.90920 14.85679
#
# Velocity S-wave (km/s) = 2.05205 3.43821 2.83127
# Velocity P-wave (km/s) = 5.37339 6.91627 6.19307
#
# Compressibility (1/GPa) = 0.02319799
#
# Stress axis : x y z
#
# Youngs Moduli (GPa) = 21.96381 52.36454 82.94767
#
# Poissons Ratio (x) = 0.72625 0.84492
# Poissons Ratio (y) = 0.30462 0.22287
# Poissons Ratio (z) = 0.22373 0.14070
#
# Static dielectric constant tensor:
#      x y z
#    x 1.621670 0.000000 0.000000 
#    y 0.000000 1.634170 0.000000 
#    z 0.000000 0.000000 1.700960 
# 
# From -- ./inp_files/11101.got.cif
#   From: 2010.05.17/outbox.cif.g08.bks.cpg/sg53_6_cif.got.tgz:11101.got - 2010.06.03 12:45:16.
