data_PCOD9419931
_publ_section_title
;
Structure prediction by ZEFSAII (Michael W. Deem and Ramdas Pophale) SiO2 
 PCOD9419931
Probable space group: P M N A
;
_chemical_formula_sum "Si O2"
_cell_formula_units_Z 24
_cell_length_a 14.857351
_cell_length_b 5.119561
_cell_length_c 13.043006
_cell_angle_alpha 90.000000
_cell_angle_beta 90.000000
_cell_angle_gamma 90.000000
_cell_volume 992.091662
_symmetry_space_group_name_H-M "P M N A"
_symmetry_group_IT_number 53
_symmetry_cell_setting 'orthorhombic'
loop_
_space_group_symop_operation_xyz
x,y,z
1/2-x,-y,1/2+z
x,-y,-z
1/2-x,y,1/2-z
-x,-y,-z
1/2+x,y,1/2-z
-x,y,z
1/2+x,-y,1/2+z
loop_
_atom_site_type_symbol
_atom_site_label
_atom_site_fract_x
_atom_site_fract_y
_atom_site_fract_z
Si Si1 0.895659 0.561462 0.716388
Si Si2 0.099201 0.936650 0.879859
Si Si3 0.699770 0.063407 0.879055
O O1 0.891006 0.635916 0.838859
O O2 0.854815 0.825521 0.670170
O O3 0.000000 0.530642 0.691183
O O4 0.843144 0.329962 0.661171
O O5 0.194421 0.063773 0.851290
O O6 0.000000 0.021132 0.836967
O O7 0.093289 0.000000 0.000000
O O8 0.695038 0.000000 0.000000
#
# Coordination Sequence:
#
# PCOD9419931 Si02
#       3
#     8   8   8
#     4  11  24  43  69 101 139 185 238 296 358 431
#     4   9  21  44  72 103 140 185 240 302 367 431
#     4  11  24  43  69 102 142 187 235 293 359 430
#
# _framework density 24.191312
#
# number of rings (size 3 to 8) (size 9 to 14) (size 15 to 20)
#    0.000    1.667    0.000    3.000    0.000    9.333 
#    0.000   10.000    0.000   26.000    0.000    0.000 
#    0.000    0.000    0.000    0.000    0.000    0.000 
#
# Total GULP energy -133975.146493 kJ/mol
# GULP energy per Si atom -5582.297771 kJ/mol
# Density = 2.413625 g / cm^3
# Si number density = 24.191312 Si / 1000 Ang^3
#
#
#
# Elastic Constant Matrix: (Units=GPa)
#
#
# Indices 1 2 3 4 5 6 
#
# 1 268.4799 84.7998 49.8890 0.0000 0.0000 0.0000
# 2 84.7998 170.8744 57.4738 0.0000 0.0000 0.0000
# 3 49.8890 57.4738 128.9623 0.0000 0.0000 0.0000
# 4 0.0000 0.0000 0.0000 36.5350 0.0000 0.0000
# 5 0.0000 0.0000 0.0000 0.0000 30.5185 0.0000
# 6 0.0000 0.0000 0.0000 0.0000 0.0000 52.1896
#
#
#
# Elastic Compliance Matrix: (Units=1/GPa)
#
#
# Indices 1 2 3 4 5 6 
#
# 1 0.004500 -0.001938 -0.000877 0.000000 0.000000 0.000000
# 2 -0.001938 0.007719 -0.002690 0.000000 0.000000 0.000000
# 3 -0.000877 -0.002690 0.009292 0.000000 0.000000 0.000000
# 4 0.000000 0.000000 0.000000 0.027371 0.000000 0.000000
# 5 0.000000 0.000000 0.000000 0.000000 0.032767 0.000000
# 6 0.000000 0.000000 0.000000 0.000000 0.000000 0.019161
#
#
# Mechanical properties :
#
#
# Convention : Reuss Voigt Hill
#
# Bulk Modulus (GPa) = 95.23482 105.84909 100.54195
# Shear Modulus (GPa) = 43.35720 48.92555 46.14137
#
# Velocity S-wave (km/s) = 4.23811 4.50204 4.37206
# Velocity P-wave (km/s) = 7.96251 8.41870 8.19378
#
# Compressibility (1/GPa) = 0.01050036
#
# Stress axis : x y z
#
# Youngs Moduli (GPa) = 222.23209 129.55083 107.61437
#
# Poissons Ratio (x) = 0.25109 0.09438
# Poissons Ratio (y) = 0.43072 0.28951
# Poissons Ratio (z) = 0.19490 0.34853
#
# Static dielectric constant tensor:
#      x y z
#    x 1.893690 0.000000 0.000000 
#    y 0.000000 1.970330 0.000000 
#    z 0.000000 0.000000 2.077220 
# 
# From -- ./inp_files/21992.got.cif
#   From: 2010.05.17/outbox.cif.g08.bks.cpg/sg53_11_cif.got.tgz:21992.got - 2010.06.03 12:45:16.
