data_PCOD9419732
_publ_section_title
;
Structure prediction by ZEFSAII (Michael W. Deem and Ramdas Pophale) SiO2 
 PCOD9419732
Probable space group: P M N A
;
_chemical_formula_sum "Si O2"
_cell_formula_units_Z 64
_cell_length_a 8.118782
_cell_length_b 25.656941
_cell_length_c 15.014750
_cell_angle_alpha 90.000000
_cell_angle_beta 90.000000
_cell_angle_gamma 90.000000
_cell_volume 3127.619132
_symmetry_space_group_name_H-M "P M N A"
_symmetry_group_IT_number 53
_symmetry_cell_setting 'orthorhombic'
loop_
_space_group_symop_operation_xyz
x,y,z
1/2-x,-y,1/2+z
x,-y,-z
1/2-x,y,1/2-z
-x,-y,-z
1/2+x,y,1/2-z
-x,y,z
1/2+x,-y,1/2+z
loop_
_atom_site_type_symbol
_atom_site_label
_atom_site_fract_x
_atom_site_fract_y
_atom_site_fract_z
Si Si1 0.199462 0.374993 0.543220
Si Si2 0.807763 0.976948 0.591808
Si Si3 0.699344 0.593972 0.845694
Si Si4 0.196970 0.728328 0.147100
Si Si5 0.798563 0.826339 0.031825
Si Si6 0.187280 0.483278 0.603821
Si Si7 0.306250 0.136117 0.348876
Si Si8 0.196285 0.918170 0.158792
O O1 0.252117 0.378800 0.438846
O O2 0.248510 0.322994 0.593814
O O3 0.263321 0.425855 0.597728
O O4 0.000000 0.379140 0.542458
O O5 0.729329 0.924496 0.628621
O O6 0.000000 0.965586 0.577749
O O7 0.733693 0.000000 0.500000
O O8 0.786413 0.026551 0.655027
O O9 0.750000 0.616781 0.750000
O O10 0.500000 0.591960 0.848506
O O11 0.764567 0.533994 0.850647
O O12 0.250000 0.728098 0.250000
O O13 0.259927 0.778585 0.092016
O O14 0.000000 0.730355 0.146281
O O15 0.753531 0.881031 0.077894
O O16 0.000000 0.824542 0.031792
O O17 0.737800 0.829327 0.930309
O O18 0.175470 0.500000 0.500000
O O19 0.000000 0.477979 0.638987
O O20 0.250000 0.148634 0.250000
O O21 0.500000 0.142901 0.350255
O O22 0.250000 0.890914 0.250000
O O23 0.000000 0.925701 0.156344
#
# Coordination Sequence:
#
# PCOD9419732 Si02
#       8
#     8   8   8   8   8   8   8   8
#     4   9  18  35  56  80 111 149 190 232 280 334
#     4  11  22  36  55  84 117 149 185 223 266 321
#     4   9  17  30  51  79 113 152 191 230 275 328
#     4  11  23  41  62  85 110 141 181 230 285 336
#     4   9  21  40  61  81 108 143 181 226 276 326
#     4   7  12  26  48  72 103 144 186 227 271 320
#     4  11  22  40  62  85 113 148 187 226 274 327
#     4  11  21  36  57  82 110 145 182 221 270 322
#
# _framework density 20.46285
#
# number of rings (size 3 to 8) (size 9 to 14) (size 15 to 20)
#    0.000    2.250    1.250    3.750    0.000    1.500 
#    0.000    6.875    0.000    5.250    0.000    0.000 
#    0.000    0.000    0.000    0.000    0.000    0.000 
#
# Total GULP energy -356896.674635 kJ/mol
# GULP energy per Si atom -5576.510541 kJ/mol
# Density = 2.041628 g / cm^3
# Si number density = 20.462850 Si / 1000 Ang^3
#
#
#
# Elastic Constant Matrix: (Units=GPa)
#
#
# Indices 1 2 3 4 5 6 
#
# 1 22.9592 2.5565 12.1975 0.0000 0.0000 0.0000
# 2 2.5565 105.7461 59.4625 0.0000 0.0000 0.0000
# 3 12.1975 59.4625 171.1565 0.0000 0.0000 0.0000
# 4 0.0000 0.0000 0.0000 26.7200 0.0000 0.0000
# 5 0.0000 0.0000 0.0000 0.0000 15.5789 0.0000
# 6 0.0000 0.0000 0.0000 0.0000 0.0000 12.3789
#
#
#
# Elastic Compliance Matrix: (Units=1/GPa)
#
#
# Indices 1 2 3 4 5 6 
#
# 1 0.045338 0.000896 -0.003542 0.000000 0.000000 0.000000
# 2 0.000896 0.011770 -0.004153 0.000000 0.000000 0.000000
# 3 -0.003542 -0.004153 0.007538 0.000000 0.000000 0.000000
# 4 0.000000 0.000000 0.000000 0.037425 0.000000 0.000000
# 5 0.000000 0.000000 0.000000 0.000000 0.064190 0.000000
# 6 0.000000 0.000000 0.000000 0.000000 0.000000 0.080783
#
#
# Mechanical properties :
#
#
# Convention : Reuss Voigt Hill
#
# Bulk Modulus (GPa) = 19.58986 49.81052 34.70019
# Shear Modulus (GPa) = 18.00780 25.97857 21.99318
#
# Velocity S-wave (km/s) = 2.96974 3.56694 3.28195
# Velocity P-wave (km/s) = 4.62096 6.43108 5.59965
#
# Compressibility (1/GPa) = 0.05104682
#
# Stress axis : x y z
#
# Youngs Moduli (GPa) = 22.05677 84.95988 132.66351
#
# Poissons Ratio (x) = -0.07610 0.46992
# Poissons Ratio (y) = -0.01976 0.55095
# Poissons Ratio (z) = 0.07813 0.35284
#
# Static dielectric constant tensor:
#      x y z
#    x 1.731080 0.000000 0.000000 
#    y 0.000000 1.731180 0.000000 
#    z 0.000000 0.000000 1.807650 
# 
# From -- ./inp_files/21010.got.cif
#   From: 2010.05.17/outbox.cif.g08.bks.cpg/sg53_11_cif.got.tgz:21010.got - 2010.06.03 12:45:16.
