data_PCOD9419513
_publ_section_title
;
Structure prediction by ZEFSAII (Michael W. Deem and Ramdas Pophale) SiO2 
 PCOD9419513
Probable space group: P M N A
;
_chemical_formula_sum "Si O2"
_cell_formula_units_Z 20
_cell_length_a 30.745187
_cell_length_b 5.417715
_cell_length_c 4.951787
_cell_angle_alpha 90.000000
_cell_angle_beta 90.000000
_cell_angle_gamma 90.000000
_cell_volume 824.812529
_symmetry_space_group_name_H-M "P M N A"
_symmetry_group_IT_number 53
_symmetry_cell_setting 'orthorhombic'
loop_
_space_group_symop_operation_xyz
x,y,z
1/2-x,-y,1/2+z
x,-y,-z
1/2-x,y,1/2-z
-x,-y,-z
1/2+x,y,1/2-z
-x,y,z
1/2+x,-y,1/2+z
loop_
_atom_site_type_symbol
_atom_site_label
_atom_site_fract_x
_atom_site_fract_y
_atom_site_fract_z
Si Si1 0.118102 0.000000 0.500000
Si Si2 0.548838 0.253627 0.676388
Si Si3 0.750000 0.651425 0.250000
Si Si4 0.177611 0.000000 0.000000
O O1 0.086328 0.785423 0.394323
O O2 0.147529 0.916852 0.752011
O O3 0.554945 0.500000 0.500000
O O4 0.500000 0.264754 0.795037
O O5 0.550528 0.000000 0.500000
O O6 0.768380 0.500000 0.500000
O O7 0.710452 0.802147 0.375917
#
# Coordination Sequence:
#
# PCOD9419513 Si02
#       4
#     4   8   4   4
#     4  12  24  48  72 117 154 201 258 338 384 456
#     4  10  23  47  76 109 158 216 263 315 389 464
#     4  12  26  52  80 108 148 206 250 312 398 484
#     4  12  27  50  79 111 156 193 259 322 393 474
#
# _framework density 24.247935999999999
#
# number of rings (size 3 to 8) (size 9 to 14) (size 15 to 20)
#    0.000    0.800    2.000    5.400    0.000    3.200 
#   14.400    6.000    0.000    0.000    0.000    0.000 
#    0.000    0.000    0.000    0.000    0.000    0.000 
#
# Total GULP energy -112102.968860 kJ/mol
# GULP energy per Si atom -5605.148443 kJ/mol
# Density = 2.419275 g / cm^3
# Si number density = 24.247936 Si / 1000 Ang^3
#
#
#
# Elastic Constant Matrix: (Units=GPa)
#
#
# Indices 1 2 3 4 5 6 
#
# 1 208.8815 72.9693 121.3572 0.0000 0.0000 0.0000
# 2 72.9693 152.3930 84.4535 0.0000 0.0000 0.0000
# 3 121.3572 84.4535 200.1333 0.0000 0.0000 0.0000
# 4 0.0000 0.0000 0.0000 48.6569 0.0000 0.0000
# 5 0.0000 0.0000 0.0000 0.0000 412.6523 0.0000
# 6 0.0000 0.0000 0.0000 0.0000 0.0000 -106.7641
#
#
#
# Elastic Compliance Matrix: (Units=1/GPa)
#
#
# Indices 1 2 3 4 5 6 
#
# 1 0.007620 -0.001420 -0.004021 0.000000 0.000000 0.000000
# 2 -0.001420 0.008830 -0.002865 0.000000 0.000000 0.000000
# 3 -0.004021 -0.002865 0.008644 0.000000 0.000000 0.000000
# 4 0.000000 0.000000 0.000000 0.020552 0.000000 0.000000
# 5 0.000000 0.000000 0.000000 0.000000 0.002423 0.000000
# 6 0.000000 0.000000 0.000000 0.000000 0.000000 -0.009366
#
#
# Mechanical properties :
#
#
# Convention : Reuss Voigt Hill
#
# Bulk Modulus (GPa) = 117.90987 124.32974 121.11981
# Shear Modulus (GPa) = 85.99677 89.75086 87.87382
#
# Velocity S-wave (km/s) = 5.96176 6.09050 6.02647
# Velocity P-wave (km/s) = 9.80421 10.04214 9.92389
#
# Compressibility (1/GPa) = 0.00848105
#
# Stress axis : x y z
#
# Youngs Moduli (GPa) = 131.23782 113.25551 115.68661
#
# Poissons Ratio (x) = 0.16082 0.46521
# Poissons Ratio (y) = 0.18636 0.33143
# Poissons Ratio (z) = 0.52774 0.32447
#
# Static dielectric constant tensor:
#      x y z
#    x 1.921600 0.000000 0.000000 
#    y 0.000000 1.964800 0.000000 
#    z 0.000000 0.000000 1.930450 
# 
# From -- ./inp_files/4794.got.cif
#   From: 2010.05.17/outbox.cif.g08.bks.cpg/sg53_3_cif.got.tgz:4794.got - 2010.06.03 12:45:16.
