data_PCOD9419612
_publ_section_title
;
Structure prediction by ZEFSAII (Michael W. Deem and Ramdas Pophale) SiO2 
 PCOD9419612
Probable space group: P M N A
;
_chemical_formula_sum "Si O2"
_cell_formula_units_Z 56
_cell_length_a 20.201473
_cell_length_b 9.434457
_cell_length_c 17.175642
_cell_angle_alpha 90.000000
_cell_angle_beta 90.000000
_cell_angle_gamma 90.000000
_cell_volume 3273.504378
_symmetry_space_group_name_H-M "P M N A"
_symmetry_group_IT_number 53
_symmetry_cell_setting 'orthorhombic'
loop_
_space_group_symop_operation_xyz
x,y,z
1/2-x,-y,1/2+z
x,-y,-z
1/2-x,y,1/2-z
-x,-y,-z
1/2+x,y,1/2-z
-x,y,z
1/2+x,-y,1/2+z
loop_
_atom_site_type_symbol
_atom_site_label
_atom_site_fract_x
_atom_site_fract_y
_atom_site_fract_z
Si Si1 0.743132 0.568197 0.076117
Si Si2 0.425544 0.141224 0.690799
Si Si3 0.810491 0.210812 0.692019
Si Si4 0.787749 0.294426 0.168727
Si Si5 0.358460 0.214360 0.541912
Si Si6 0.577593 0.182481 0.371177
Si Si7 0.245006 0.987234 0.583070
O O1 0.695599 0.673141 0.124013
O O2 0.767998 0.444667 0.132888
O O3 0.807269 0.654897 0.044318
O O4 0.710459 0.500000 0.000000
O O5 0.500000 0.162147 0.717138
O O6 0.374810 0.192817 0.755973
O O7 0.410196 0.226640 0.611819
O O8 0.417956 0.975567 0.665695
O O9 0.750000 0.243894 0.750000
O O10 0.794868 0.061283 0.651439
O O11 0.750000 0.274132 0.250000
O O12 0.867250 0.276098 0.173364
O O13 0.764361 0.169238 0.109776
O O14 0.397141 0.188048 0.461411
O O15 0.310092 0.084539 0.567726
O O16 0.500000 0.224360 0.367600
O O17 0.209006 0.000000 0.500000
#
# Coordination Sequence:
#
# PCOD9419612 Si02
#       7
#     8   8   8   8   8   8   8
#     4  11  22  37  58  79 114 150 193 237 284 334
#     4  11  21  34  58  87 115 151 191 235 287 337
#     4  11  20  36  58  81 112 146 192 246 280 335
#     4  12  22  34  54  81 113 153 194 235 283 330
#     4  11  19  35  55  84 120 152 187 222 278 352
#     4  11  21  35  55  87 123 156 186 225 283 352
#     4  11  18  32  56  82 112 143 193 238 283 335
#
# _framework density 17.107047999999999
#
# number of rings (size 3 to 8) (size 9 to 14) (size 15 to 20)
#    0.000    0.857    7.143    3.429    0.000    1.143 
#    0.000    2.143    0.000    0.857    0.000    2.000 
#    0.000    0.000    0.000    0.000    0.000    0.000 
#
# Total GULP energy -312354.279692 kJ/mol
# GULP energy per Si atom -5577.754995 kJ/mol
# Density = 1.706811 g / cm^3
# Si number density = 17.107048 Si / 1000 Ang^3
#
#
#
# Elastic Constant Matrix: (Units=GPa)
#
#
# Indices 1 2 3 4 5 6 
#
# 1 122.3015 29.0467 63.9903 0.0000 0.0000 0.0000
# 2 29.0467 80.2897 25.5650 0.0000 0.0000 0.0000
# 3 63.9903 25.5650 97.6322 0.0000 0.0000 0.0000
# 4 0.0000 0.0000 0.0000 26.5408 0.0000 0.0000
# 5 0.0000 0.0000 0.0000 0.0000 24.0216 0.0000
# 6 0.0000 0.0000 0.0000 0.0000 0.0000 9.9911
#
#
#
# Elastic Compliance Matrix: (Units=1/GPa)
#
#
# Indices 1 2 3 4 5 6 
#
# 1 0.012770 -0.002133 -0.007811 0.000000 0.000000 0.000000
# 2 -0.002133 0.013944 -0.002253 0.000000 0.000000 0.000000
# 3 -0.007811 -0.002253 0.015952 0.000000 0.000000 0.000000
# 4 0.000000 0.000000 0.000000 0.037678 0.000000 0.000000
# 5 0.000000 0.000000 0.000000 0.000000 0.041629 0.000000
# 6 0.000000 0.000000 0.000000 0.000000 0.000000 0.100089
#
#
# Mechanical properties :
#
#
# Convention : Reuss Voigt Hill
#
# Bulk Modulus (GPa) = 54.73019 59.71414 57.22217
# Shear Modulus (GPa) = 19.79821 24.21878 22.00850
#
# Velocity S-wave (km/s) = 3.40562 3.76669 3.59070
# Velocity P-wave (km/s) = 6.89395 7.34161 7.12130
#
# Compressibility (1/GPa) = 0.01827145
#
# Stress axis : x y z
#
# Youngs Moduli (GPa) = 78.30824 71.71568 62.68687
#
# Poissons Ratio (x) = 0.15295 0.48967
# Poissons Ratio (y) = 0.16701 0.14126
# Poissons Ratio (z) = 0.61169 0.16161
#
# Static dielectric constant tensor:
#      x y z
#    x 1.576820 0.000000 0.000000 
#    y 0.000000 1.623510 0.000000 
#    z 0.000000 0.000000 1.649300 
# 
# From -- ./inp_files/29576.got.cif
#   From: 2010.05.17/outbox.cif.g08.bks.cpg/sg53_15_cif.got.tgz:29576.got - 2010.06.03 12:45:16.
