data_PCOD9419998
_publ_section_title
;
Structure prediction by ZEFSAII (Michael W. Deem and Ramdas Pophale) SiO2 
 PCOD9419998
Probable space group: P M N A
;
_chemical_formula_sum "Si O2"
_cell_formula_units_Z 32
_cell_length_a 19.120625
_cell_length_b 9.217266
_cell_length_c 7.864811
_cell_angle_alpha 90.000000
_cell_angle_beta 90.000000
_cell_angle_gamma 90.000000
_cell_volume 1386.093400
_symmetry_space_group_name_H-M "P M N A"
_symmetry_group_IT_number 53
_symmetry_cell_setting 'orthorhombic'
loop_
_space_group_symop_operation_xyz
x,y,z
1/2-x,-y,1/2+z
x,-y,-z
1/2-x,y,1/2-z
-x,-y,-z
1/2+x,y,1/2-z
-x,y,z
1/2+x,-y,1/2+z
loop_
_atom_site_type_symbol
_atom_site_label
_atom_site_fract_x
_atom_site_fract_y
_atom_site_fract_z
Si Si1 0.582660 0.774778 0.121912
Si Si2 0.313562 0.589871 0.341101
Si Si3 0.283805 0.154664 0.432070
Si Si4 0.418264 0.895969 0.752137
O O1 0.500000 0.744247 0.140318
O O2 0.628645 0.653476 0.214356
O O3 0.595418 0.935115 0.201828
O O4 0.596461 0.800266 0.921116
O O5 0.343648 0.500000 0.500000
O O6 0.250000 0.505336 0.250000
O O7 0.272877 0.723970 0.429107
O O8 0.250000 0.178459 0.250000
O O9 0.366931 0.149075 0.396747
O O10 0.258974 0.000000 0.500000
O O11 0.500000 0.881700 0.710657
#
# Coordination Sequence:
#
# PCOD9419998 Si02
#       4
#     8   8   8   8
#     4   9  19  38  65  95 129 165 206 260 321 384
#     4  12  26  44  62  88 129 173 214 262 318 380
#     4  12  24  37  62  93 124 163 216 272 311 370
#     4   9  19  37  64  97 130 162 200 261 332 380
#
# _framework density 23.086469000000001
#
# number of rings (size 3 to 8) (size 9 to 14) (size 15 to 20)
#    0.000    1.500    2.500    4.500    3.500    2.000 
#    0.000    0.000    0.000    3.750    0.000    0.000 
#    0.000    0.000    0.000    0.000    0.000    0.000 
#
# Total GULP energy -179125.934296 kJ/mol
# GULP energy per Si atom -5597.685447 kJ/mol
# Density = 2.303392 g / cm^3
# Si number density = 23.086469 Si / 1000 Ang^3
#
#
#
# Elastic Constant Matrix: (Units=GPa)
#
#
# Indices 1 2 3 4 5 6 
#
# 1 100.0774 20.7180 51.7839 0.0000 0.0000 0.0000
# 2 20.7180 73.6030 26.2594 0.0000 0.0000 0.0000
# 3 51.7839 26.2594 97.5775 0.0000 0.0000 0.0000
# 4 0.0000 0.0000 0.0000 41.3288 0.0000 0.0000
# 5 0.0000 0.0000 0.0000 0.0000 46.2092 0.0000
# 6 0.0000 0.0000 0.0000 0.0000 0.0000 11.0273
#
#
#
# Elastic Compliance Matrix: (Units=1/GPa)
#
#
# Indices 1 2 3 4 5 6 
#
# 1 0.013907 -0.001418 -0.006999 0.000000 0.000000 0.000000
# 2 -0.001418 0.015174 -0.003331 0.000000 0.000000 0.000000
# 3 -0.006999 -0.003331 0.014859 0.000000 0.000000 0.000000
# 4 0.000000 0.000000 0.000000 0.024196 0.000000 0.000000
# 5 0.000000 0.000000 0.000000 0.000000 0.021641 0.000000
# 6 0.000000 0.000000 0.000000 0.000000 0.000000 0.090684
#
#
# Mechanical properties :
#
#
# Convention : Reuss Voigt Hill
#
# Bulk Modulus (GPa) = 48.91259 52.08670 50.49964
# Shear Modulus (GPa) = 23.72230 31.21283 27.46757
#
# Velocity S-wave (km/s) = 3.20901 3.68094 3.45304
# Velocity P-wave (km/s) = 5.91295 6.37780 6.14977
#
# Compressibility (1/GPa) = 0.02044464
#
# Stress axis : x y z
#
# Youngs Moduli (GPa) = 71.90469 65.90268 67.29892
#
# Poissons Ratio (x) = 0.09342 0.47103
# Poissons Ratio (y) = 0.10193 0.22418
# Poissons Ratio (z) = 0.50326 0.21953
#
# Static dielectric constant tensor:
#      x y z
#    x 1.857870 0.000000 0.000000 
#    y 0.000000 1.868430 0.000000 
#    z 0.000000 0.000000 1.917890 
# 
# From -- ./inp_files/10428.got.cif
#   From: 2010.05.17/outbox.cif.g08.bks.cpg/sg53_6_cif.got.tgz:10428.got - 2010.06.03 12:45:16.
