data_PCOD9419852
_publ_section_title
;
Structure prediction by ZEFSAII (Michael W. Deem and Ramdas Pophale) SiO2 
 PCOD9419852
Probable space group: P M N A
;
_chemical_formula_sum "Si O2"
_cell_formula_units_Z 20
_cell_length_a 14.943296
_cell_length_b 12.352651
_cell_length_c 4.949407
_cell_angle_alpha 90.000000
_cell_angle_beta 90.000000
_cell_angle_gamma 90.000000
_cell_volume 913.607674
_symmetry_space_group_name_H-M "P M N A"
_symmetry_group_IT_number 53
_symmetry_cell_setting 'orthorhombic'
loop_
_space_group_symop_operation_xyz
x,y,z
1/2-x,-y,1/2+z
x,-y,-z
1/2-x,y,1/2-z
-x,-y,-z
1/2+x,y,1/2-z
-x,y,z
1/2+x,-y,1/2+z
loop_
_atom_site_type_symbol
_atom_site_label
_atom_site_fract_x
_atom_site_fract_y
_atom_site_fract_z
Si Si1 0.853985 0.264326 0.716325
Si Si2 0.500000 0.918901 0.238881
Si Si3 0.896946 0.408147 0.199752
O O1 0.750000 0.239444 0.750000
O O2 0.914606 0.159136 0.683398
O O3 0.862419 0.359268 0.484618
O O4 0.891565 0.308682 0.997844
O O5 0.500000 0.000000 0.500000
O O6 0.500000 0.000000 0.000000
O O7 0.000000 0.440732 0.245379
O O8 0.853635 0.500000 0.000000
#
# Coordination Sequence:
#
# PCOD9419852 Si02
#       3
#     8   4   8
#     4  12  25  44  70 104 140 181 233 290 350 421
#     4  12  26  46  71  96 137 182 238 300 358 410
#     4  11  22  42  71 102 141 185 227 276 346 423
#
# _framework density 21.891234000000001
#
# number of rings (size 3 to 8) (size 9 to 14) (size 15 to 20)
#    0.000    0.400    4.000    4.800    0.000    8.000 
#    0.000    0.000    0.000    0.000    0.000    0.000 
#    0.000    0.000    0.000    0.000    0.000    0.000 
#
# Total GULP energy -111430.360096 kJ/mol
# GULP energy per Si atom -5571.518005 kJ/mol
# Density = 2.184141 g / cm^3
# Si number density = 21.891234 Si / 1000 Ang^3
#
#
#
# Elastic Constant Matrix: (Units=GPa)
#
#
# Indices 1 2 3 4 5 6 
#
# 1 152.2539 63.7897 48.2233 0.0000 0.0000 0.0000
# 2 63.7897 74.3676 29.3766 0.0000 0.0000 0.0000
# 3 48.2233 29.3766 172.5827 0.0000 0.0000 0.0000
# 4 0.0000 0.0000 0.0000 60.0609 0.0000 0.0000
# 5 0.0000 0.0000 0.0000 0.0000 43.2799 0.0000
# 6 0.0000 0.0000 0.0000 0.0000 0.0000 49.2416
#
#
#
# Elastic Compliance Matrix: (Units=1/GPa)
#
#
# Indices 1 2 3 4 5 6 
#
# 1 0.010611 -0.008502 -0.001518 0.000000 0.000000 0.000000
# 2 -0.008502 0.021228 -0.001238 0.000000 0.000000 0.000000
# 3 -0.001518 -0.001238 0.006429 0.000000 0.000000 0.000000
# 4 0.000000 0.000000 0.000000 0.016650 0.000000 0.000000
# 5 0.000000 0.000000 0.000000 0.000000 0.023105 0.000000
# 6 0.000000 0.000000 0.000000 0.000000 0.000000 0.020308
#
#
# Mechanical properties :
#
#
# Convention : Reuss Voigt Hill
#
# Bulk Modulus (GPa) = 63.47894 75.77594 69.62744
# Shear Modulus (GPa) = 39.65191 47.70413 43.67802
#
# Velocity S-wave (km/s) = 4.26057 4.67319 4.47164
# Velocity P-wave (km/s) = 7.29820 7.98800 7.65088
#
# Compressibility (1/GPa) = 0.01575326
#
# Stress axis : x y z
#
# Youngs Moduli (GPa) = 94.24425 47.10685 155.54295
#
# Poissons Ratio (x) = 0.40050 0.23606
# Poissons Ratio (y) = 0.80126 0.19253
# Poissons Ratio (z) = 0.14303 0.05831
#
# Static dielectric constant tensor:
#      x y z
#    x 1.810660 0.000000 0.000000 
#    y 0.000000 1.760350 0.000000 
#    z 0.000000 0.000000 1.790700 
# 
# From -- ./inp_files/934.got.cif
#   From: 2010.05.17/outbox.cif.g08.bks.cpg/sg53_1_cif.got.tgz:934.got - 2010.06.03 12:45:16.
