data_PCOD9419086
_publ_section_title
;
Structure prediction by ZEFSAII (Michael W. Deem and Ramdas Pophale) SiO2 
 PCOD9419086
Probable space group: P M N A
;
_chemical_formula_sum "Si O2"
_cell_formula_units_Z 48
_cell_length_a 17.655432
_cell_length_b 5.094518
_cell_length_c 23.893405
_cell_angle_alpha 90.000000
_cell_angle_beta 90.000000
_cell_angle_gamma 90.000000
_cell_volume 2149.114202
_symmetry_space_group_name_H-M "P M N A"
_symmetry_group_IT_number 53
_symmetry_cell_setting 'orthorhombic'
loop_
_space_group_symop_operation_xyz
x,y,z
1/2-x,-y,1/2+z
x,-y,-z
1/2-x,y,1/2-z
-x,-y,-z
1/2+x,y,1/2-z
-x,y,z
1/2+x,-y,1/2+z
loop_
_atom_site_type_symbol
_atom_site_label
_atom_site_fract_x
_atom_site_fract_y
_atom_site_fract_z
Si Si1 0.913253 0.385962 0.367623
Si Si2 0.681954 0.040864 0.615819
Si Si3 0.918187 0.719365 0.261842
Si Si4 0.796795 0.758812 0.534898
Si Si5 0.801746 0.080035 0.291797
Si Si6 0.413333 0.542717 0.645805
O O1 0.916383 0.642578 0.327745
O O2 0.856855 0.360075 0.420024
O O3 0.872731 0.205547 0.321973
O O4 0.000000 0.320417 0.382191
O O5 0.725366 0.910410 0.562830
O O6 0.750707 0.040785 0.659946
O O7 0.619306 0.828301 0.633416
O O8 0.641515 0.324053 0.617168
O O9 0.915370 0.501189 0.213105
O O10 0.000000 0.853796 0.252365
O O11 0.841521 0.872759 0.252053
O O12 0.773611 0.500000 0.500000
O O13 0.834223 0.000000 0.500000
O O14 0.750000 0.251924 0.250000
O O15 0.500000 0.511985 0.626146
#
# Coordination Sequence:
#
# PCOD9419086 Si02
#       6
#     8   8   8   8   8   8
#     4  10  24  41  63  92 134 180 227 278 333 395
#     4  11  24  41  68  95 131 175 218 281 333 397
#     4  10  22  37  59  94 142 183 215 259 323 403
#     4  11  26  46  71  97 128 173 232 296 347 389
#     4  11  21  34  60  92 133 176 222 260 322 397
#     4  11  23  42  67 101 139 177 214 259 331 415
#
# _framework density 22.334782000000001
#
# number of rings (size 3 to 8) (size 9 to 14) (size 15 to 20)
#    0.000    1.333    1.667    3.000    9.333    1.333 
#    0.000    0.000    0.000   10.000    0.000    0.000 
#    0.000    0.000    0.000    0.000    0.000    0.000 
#
# Total GULP energy -267488.747473 kJ/mol
# GULP energy per Si atom -5572.682239 kJ/mol
# Density = 2.228395 g / cm^3
# Si number density = 22.334782 Si / 1000 Ang^3
#
#
#
# Elastic Constant Matrix: (Units=GPa)
#
#
# Indices 1 2 3 4 5 6 
#
# 1 104.4029 17.4936 22.1550 0.0000 0.0000 0.0000
# 2 17.4936 69.3697 7.3904 0.0000 0.0000 0.0000
# 3 22.1550 7.3904 83.0528 0.0000 0.0000 0.0000
# 4 0.0000 0.0000 0.0000 39.8067 0.0000 0.0000
# 5 0.0000 0.0000 0.0000 0.0000 -22.1645 0.0000
# 6 0.0000 0.0000 0.0000 0.0000 0.0000 30.6305
#
#
#
# Elastic Compliance Matrix: (Units=1/GPa)
#
#
# Indices 1 2 3 4 5 6 
#
# 1 0.010528 -0.002378 -0.002597 0.000000 0.000000 0.000000
# 2 -0.002378 0.015091 -0.000708 0.000000 0.000000 0.000000
# 3 -0.002597 -0.000708 0.012796 0.000000 0.000000 0.000000
# 4 0.000000 0.000000 0.000000 0.025121 0.000000 0.000000
# 5 0.000000 0.000000 0.000000 0.000000 -0.045117 0.000000
# 6 0.000000 0.000000 0.000000 0.000000 0.000000 0.032647
#
#
# Mechanical properties :
#
#
# Convention : Reuss Voigt Hill
#
# Bulk Modulus (GPa) = 36.97132 38.98925 37.98028
# Shear Modulus (GPa) = 69.97986 23.64030 46.81008
#
# Velocity S-wave (km/s) = 5.60359 3.25692 4.58300
# Velocity P-wave (km/s) = 7.64566 5.62476 6.71171
#
# Compressibility (1/GPa) = 0.02704799
#
# Stress axis : x y z
#
# Youngs Moduli (GPa) = 94.98643 66.26588 78.14770
#
# Poissons Ratio (x) = 0.15760 0.20293
# Poissons Ratio (y) = 0.22590 0.05536
# Poissons Ratio (z) = 0.24666 0.04694
#
# Static dielectric constant tensor:
#      x y z
#    x 1.855490 0.000000 0.000000 
#    y 0.000000 1.945250 0.000000 
#    z 0.000000 0.000000 1.849890 
# 
# From -- ./inp_files/35491.got.cif
#   From: 2010.05.17/outbox.cif.g08.bks.cpg/sg53_18_cif.got.tgz:35491.got - 2010.06.03 12:45:16.
