data_PCOD9419915
_publ_section_title
;
Structure prediction by ZEFSAII (Michael W. Deem and Ramdas Pophale) SiO2 
 PCOD9419915
Probable space group: P M N A
;
_chemical_formula_sum "Si O2"
_cell_formula_units_Z 28
_cell_length_a 21.526152
_cell_length_b 5.012096
_cell_length_c 11.363432
_cell_angle_alpha 90.000000
_cell_angle_beta 90.000000
_cell_angle_gamma 90.000000
_cell_volume 1226.013637
_symmetry_space_group_name_H-M "P M N A"
_symmetry_group_IT_number 53
_symmetry_cell_setting 'orthorhombic'
loop_
_space_group_symop_operation_xyz
x,y,z
1/2-x,-y,1/2+z
x,-y,-z
1/2-x,y,1/2-z
-x,-y,-z
1/2+x,y,1/2-z
-x,y,z
1/2+x,-y,1/2+z
loop_
_atom_site_type_symbol
_atom_site_label
_atom_site_fract_x
_atom_site_fract_y
_atom_site_fract_z
Si Si1 0.610929 0.000000 0.000000
Si Si2 0.679217 0.079919 0.241162
Si Si3 0.000000 0.224167 0.784805
Si Si4 0.500000 0.282485 0.117699
Si Si5 0.369892 0.587316 0.368432
O O1 0.654438 0.023942 0.885241
O O2 0.561491 0.775840 0.958860
O O3 0.750000 0.174702 0.250000
O O4 0.673729 0.825986 0.326129
O O5 0.637842 0.328237 0.285753
O O6 0.000000 0.433408 0.678018
O O7 0.061420 0.287520 0.858056
O O8 0.000000 0.936055 0.723855
O O9 0.356170 0.500000 0.500000
#
# Coordination Sequence:
#
# PCOD9419915 Si02
#       5
#     4   8   4   4   8
#     4  11  24  46  74 104 138 185 230 300 348 409
#     4  12  28  48  70 104 140 187 238 283 345 419
#     4  12  21  47  64 110 136 175 233 288 354 416
#     4  11  24  40  73 104 143 170 234 297 354 411
#     4  12  26  47  71 102 141 187 230 284 350 418
#
# _framework density 22.838245000000001
#
# number of rings (size 3 to 8) (size 9 to 14) (size 15 to 20)
#    0.000    0.286    5.714    2.143    4.000    5.714 
#    0.000    4.286    0.000    0.000    0.000    0.000 
#    0.000    0.000    0.000    0.000    0.000    0.000 
#
# Total GULP energy -156727.542665 kJ/mol
# GULP energy per Si atom -5597.412238 kJ/mol
# Density = 2.278626 g / cm^3
# Si number density = 22.838245 Si / 1000 Ang^3
#
#
#
# Elastic Constant Matrix: (Units=GPa)
#
#
# Indices 1 2 3 4 5 6 
#
# 1 101.9415 -3.4828 31.0677 0.0000 0.0000 0.0000
# 2 -3.4828 83.1919 12.9222 0.0000 0.0000 0.0000
# 3 31.0677 12.9222 80.0117 0.0000 0.0000 0.0000
# 4 0.0000 0.0000 0.0000 35.5210 0.0000 0.0000
# 5 0.0000 0.0000 0.0000 0.0000 -25.7684 0.0000
# 6 0.0000 0.0000 0.0000 0.0000 0.0000 -2.5353
#
#
#
# Elastic Compliance Matrix: (Units=1/GPa)
#
#
# Indices 1 2 3 4 5 6 
#
# 1 0.011238 0.001178 -0.004554 0.000000 0.000000 0.000000
# 2 0.001178 0.012453 -0.002469 0.000000 0.000000 0.000000
# 3 -0.004554 -0.002469 0.014665 0.000000 0.000000 0.000000
# 4 0.000000 0.000000 0.000000 0.028152 0.000000 0.000000
# 5 0.000000 0.000000 0.000000 0.000000 -0.038807 0.000000
# 6 0.000000 0.000000 0.000000 0.000000 0.000000 -0.394431
#
#
# Mechanical properties :
#
#
# Convention : Reuss Voigt Hill
#
# Bulk Modulus (GPa) = 37.49976 38.46217 37.98097
# Shear Modulus (GPa) = -14.44451 16.41932 0.98740
#
# Velocity S-wave (km/s) = -2.51762 2.68421 0.65824
# Velocity P-wave (km/s) = 2.82916 5.14630 4.15262
#
# Compressibility (1/GPa) = 0.02666684
#
# Stress axis : x y z
#
# Youngs Moduli (GPa) = 88.98733 80.30098 68.18964
#
# Poissons Ratio (x) = -0.09458 0.31051
# Poissons Ratio (y) = -0.10481 0.16833
# Poissons Ratio (z) = 0.40522 0.19823
#
# Static dielectric constant tensor:
#      x y z
#    x 1.852620 0.000000 0.000000 
#    y 0.000000 1.816820 0.000000 
#    z 0.000000 0.000000 1.858980 
# 
# From -- ./inp_files/17351.got.cif
#   From: 2010.05.17/outbox.cif.g08.bks.cpg/sg53_9_cif.got.tgz:17351.got - 2010.06.03 12:45:16.
