data_PCOD9419809
_publ_section_title
;
Structure prediction by ZEFSAII (Michael W. Deem and Ramdas Pophale) SiO2 
 PCOD9419809
Probable space group: P M N A
;
_chemical_formula_sum "Si O2"
_cell_formula_units_Z 56
_cell_length_a 32.309811
_cell_length_b 16.513417
_cell_length_c 5.053737
_cell_angle_alpha 90.000000
_cell_angle_beta 90.000000
_cell_angle_gamma 90.000000
_cell_volume 2696.398039
_symmetry_space_group_name_H-M "P M N A"
_symmetry_group_IT_number 53
_symmetry_cell_setting 'orthorhombic'
loop_
_space_group_symop_operation_xyz
x,y,z
1/2-x,-y,1/2+z
x,-y,-z
1/2-x,y,1/2-z
-x,-y,-z
1/2+x,y,1/2-z
-x,y,z
1/2+x,-y,1/2+z
loop_
_atom_site_type_symbol
_atom_site_label
_atom_site_fract_x
_atom_site_fract_y
_atom_site_fract_z
Si Si1 0.547230 0.647137 0.903241
Si Si2 0.450959 0.086454 0.378574
Si Si3 0.424183 0.181976 0.886362
Si Si4 0.701862 0.763299 0.682136
Si Si5 0.199439 0.050614 0.249858
Si Si6 0.904666 0.589488 0.104892
Si Si7 0.657368 0.283655 0.825802
O O1 0.500000 0.627829 0.839640
O O2 0.551605 0.739356 0.004448
O O3 0.563990 0.592874 0.146180
O O4 0.575091 0.636433 0.642948
O O5 0.500000 0.082659 0.315738
O O6 0.442973 0.150345 0.612925
O O7 0.438327 0.000000 0.500000
O O8 0.427651 0.114308 0.113912
O O9 0.378159 0.215089 0.834926
O O10 0.750000 0.756509 0.750000
O O11 0.687980 0.855717 0.738969
O O12 0.692373 0.743569 0.379430
O O13 0.675675 0.707981 0.881893
O O14 0.250000 0.050288 0.250000
O O15 0.185177 0.000000 0.500000
O O16 0.184999 0.000000 0.000000
O O17 0.864817 0.636782 0.213569
O O18 0.896337 0.500000 0.000000
#
# Coordination Sequence:
#
# PCOD9419809 Si02
#       7
#     8   8   8   8   8   8   8
#     4  11  22  37  62  92 121 158 201 243 287 343
#     4  11  22  37  59  85 118 165 216 259 292 327
#     4  11  22  39  58  83 121 160 202 248 299 353
#     4  11  22  39  64  89 115 151 199 249 293 349
#     4   9  17  31  52  80 113 145 179 224 280 339
#     4  11  24  41  62  89 123 161 191 232 298 363
#     4  11  23  41  61  86 117 152 193 240 299 367
#
# _framework density 20.768449
#
# number of rings (size 3 to 8) (size 9 to 14) (size 15 to 20)
#    0.000    1.286    0.000    8.143    0.000    5.143 
#    0.000    7.143    0.000    1.714    0.000    0.000 
#    0.000    0.000    0.000    0.000    0.000    0.000 
#
# Total GULP energy -313298.549400 kJ/mol
# GULP energy per Si atom -5594.616954 kJ/mol
# Density = 2.072118 g / cm^3
# Si number density = 20.768449 Si / 1000 Ang^3
#
#
#
# Elastic Constant Matrix: (Units=GPa)
#
#
# Indices 1 2 3 4 5 6 
#
# 1 55.9915 16.2407 4.5511 0.0000 0.0000 0.0000
# 2 16.2407 74.5487 7.5025 0.0000 0.0000 0.0000
# 3 4.5511 7.5025 100.1839 0.0000 0.0000 0.0000
# 4 0.0000 0.0000 0.0000 37.1602 0.0000 0.0000
# 5 0.0000 0.0000 0.0000 0.0000 49.0799 0.0000
# 6 0.0000 0.0000 0.0000 0.0000 0.0000 66.3305
#
#
#
# Elastic Compliance Matrix: (Units=1/GPa)
#
#
# Indices 1 2 3 4 5 6 
#
# 1 0.019096 -0.004104 -0.000560 0.000000 0.000000 0.000000
# 2 -0.004104 0.014398 -0.000892 0.000000 0.000000 0.000000
# 3 -0.000560 -0.000892 0.010074 0.000000 0.000000 0.000000
# 4 0.000000 0.000000 0.000000 0.026910 0.000000 0.000000
# 5 0.000000 0.000000 0.000000 0.000000 0.020375 0.000000
# 6 0.000000 0.000000 0.000000 0.000000 0.000000 0.015076
#
#
# Mechanical properties :
#
#
# Convention : Reuss Voigt Hill
#
# Bulk Modulus (GPa) = 30.81084 31.92362 31.36723
# Shear Modulus (GPa) = 39.10564 44.00945 41.55754
#
# Velocity S-wave (km/s) = 4.34399 4.60831 4.47810
# Velocity P-wave (km/s) = 6.32676 6.61211 6.47101
#
# Compressibility (1/GPa) = 0.03245611
#
# Stress axis : x y z
#
# Youngs Moduli (GPa) = 52.36779 69.45504 99.26671
#
# Poissons Ratio (x) = 0.28502 0.05560
# Poissons Ratio (y) = 0.21490 0.08852
# Poissons Ratio (z) = 0.02933 0.06194
#
# Static dielectric constant tensor:
#      x y z
#    x 1.745240 0.000000 0.000000 
#    y 0.000000 1.739980 0.000000 
#    z 0.000000 0.000000 1.708020 
# 
# From -- ./inp_files/5329.got.cif
#   From: 2010.05.17/outbox.cif.g08.bks.cpg/sg53_3_cif.got.tgz:5329.got - 2010.06.03 12:45:16.
