data_PCOD9419402
_publ_section_title
;
Structure prediction by ZEFSAII (Michael W. Deem and Ramdas Pophale) SiO2 
 PCOD9419402
Probable space group: P M N A
;
_chemical_formula_sum "Si O2"
_cell_formula_units_Z 48
_cell_length_a 27.839759
_cell_length_b 5.334421
_cell_length_c 14.911029
_cell_angle_alpha 90.000000
_cell_angle_beta 90.000000
_cell_angle_gamma 90.000000
_cell_volume 2214.421932
_symmetry_space_group_name_H-M "P M N A"
_symmetry_group_IT_number 53
_symmetry_cell_setting 'orthorhombic'
loop_
_space_group_symop_operation_xyz
x,y,z
1/2-x,-y,1/2+z
x,-y,-z
1/2-x,y,1/2-z
-x,-y,-z
1/2+x,y,1/2-z
-x,y,z
1/2+x,-y,1/2+z
loop_
_atom_site_type_symbol
_atom_site_label
_atom_site_fract_x
_atom_site_fract_y
_atom_site_fract_z
Si Si1 0.444552 0.622739 0.098451
Si Si2 0.860351 0.030526 0.618229
Si Si3 0.556803 0.754327 0.557038
Si Si4 0.612287 0.337989 0.259277
Si Si5 0.222023 0.752908 0.550080
Si Si6 0.294511 0.574721 0.203971
O O1 0.500000 0.675080 0.120572
O O2 0.420529 0.463924 0.180291
O O3 0.411278 0.865368 0.090295
O O4 0.443127 0.500000 0.000000
O O5 0.869619 0.919883 0.716440
O O6 0.835616 0.812839 0.559298
O O7 0.820578 0.247443 0.631001
O O8 0.562290 0.500000 0.500000
O O9 0.500000 0.788091 0.576615
O O10 0.584684 0.711873 0.649606
O O11 0.572197 0.000000 0.500000
O O12 0.661316 0.497613 0.267283
O O13 0.235918 0.500000 0.500000
O O14 0.229058 0.667204 0.653550
O O15 0.242585 0.000000 0.500000
O O16 0.250000 0.708716 0.250000
#
# Coordination Sequence:
#
# PCOD9419402 Si02
#       6
#     8   8   8   8   8   8
#     4  10  23  38  59  96 139 178 218 266 322 392
#     4  10  23  37  69  91 131 175 216 270 326 395
#     4  10  23  43  71  99 128 169 223 280 336 400
#     4  10  23  40  65  96 131 178 218 276 334 400
#     4  11  22  40  67  94 122 171 220 268 318 394
#     4  10  23  42  65  95 131 168 219 275 337 398
#
# _framework density 21.676086000000002
#
# number of rings (size 3 to 8) (size 9 to 14) (size 15 to 20)
#    0.000    1.833    1.667    0.500   11.667    4.000 
#    0.000    3.333    0.000    0.500    0.000    0.000 
#    0.000    0.000    0.000    0.000    0.000    0.000 
#
# Total GULP energy -267564.515144 kJ/mol
# GULP energy per Si atom -5574.260732 kJ/mol
# Density = 2.162675 g / cm^3
# Si number density = 21.676086 Si / 1000 Ang^3
#
#
#
# Elastic Constant Matrix: (Units=GPa)
#
#
# Indices 1 2 3 4 5 6 
#
# 1 107.6385 28.3987 47.1174 0.0000 0.0000 0.0000
# 2 28.3987 104.5515 37.1373 0.0000 0.0000 0.0000
# 3 47.1174 37.1373 131.1215 0.0000 0.0000 0.0000
# 4 0.0000 0.0000 0.0000 29.8839 0.0000 0.0000
# 5 0.0000 0.0000 0.0000 0.0000 19.1816 0.0000
# 6 0.0000 0.0000 0.0000 0.0000 0.0000 7.7390
#
#
#
# Elastic Compliance Matrix: (Units=1/GPa)
#
#
# Indices 1 2 3 4 5 6 
#
# 1 0.011325 -0.001813 -0.003556 0.000000 0.000000 0.000000
# 2 -0.001813 0.010925 -0.002443 0.000000 0.000000 0.000000
# 3 -0.003556 -0.002443 0.009596 0.000000 0.000000 0.000000
# 4 0.000000 0.000000 0.000000 0.033463 0.000000 0.000000
# 5 0.000000 0.000000 0.000000 0.000000 0.052133 0.000000
# 6 0.000000 0.000000 0.000000 0.000000 0.000000 0.129216
#
#
# Mechanical properties :
#
#
# Convention : Reuss Voigt Hill
#
# Bulk Modulus (GPa) = 61.64264 63.17980 62.41122
# Shear Modulus (GPa) = 18.67835 26.73811 22.70823
#
# Velocity S-wave (km/s) = 2.93866 3.51598 3.24020
# Velocity P-wave (km/s) = 6.32567 6.75968 6.54627
#
# Compressibility (1/GPa) = 0.01622254
#
# Stress axis : x y z
#
# Youngs Moduli (GPa) = 88.29737 91.53484 104.20765
#
# Poissons Ratio (x) = 0.16596 0.37058
# Poissons Ratio (y) = 0.16009 0.25455
# Poissons Ratio (z) = 0.31400 0.22359
#
# Static dielectric constant tensor:
#      x y z
#    x 1.760090 0.000000 0.000000 
#    y 0.000000 1.907660 0.000000 
#    z 0.000000 0.000000 1.959660 
# 
# From -- ./inp_files/24931.got.cif
#   From: 2010.05.17/outbox.cif.g08.bks.cpg/sg53_13_cif.got.tgz:24931.got - 2010.06.03 12:45:16.
