data_PCOD9419339
_publ_section_title
;
Structure prediction by ZEFSAII (Michael W. Deem and Ramdas Pophale) SiO2 
 PCOD9419339
Probable space group: P M N A
;
_chemical_formula_sum "Si O2"
_cell_formula_units_Z 32
_cell_length_a 18.489399
_cell_length_b 15.376256
_cell_length_c 5.194499
_cell_angle_alpha 90.000000
_cell_angle_beta 90.000000
_cell_angle_gamma 90.000000
_cell_volume 1476.784286
_symmetry_space_group_name_H-M "P M N A"
_symmetry_group_IT_number 53
_symmetry_cell_setting 'orthorhombic'
loop_
_space_group_symop_operation_xyz
x,y,z
1/2-x,-y,1/2+z
x,-y,-z
1/2-x,y,1/2-z
-x,-y,-z
1/2+x,y,1/2-z
-x,y,z
1/2+x,-y,1/2+z
loop_
_atom_site_type_symbol
_atom_site_label
_atom_site_fract_x
_atom_site_fract_y
_atom_site_fract_z
Si Si1 0.702529 0.648331 0.498786
Si Si2 0.417031 0.253172 0.224023
Si Si3 0.086942 0.951604 0.742304
Si Si4 0.419076 0.414649 0.824470
O O1 0.750000 0.671761 0.250000
O O2 0.648336 0.723230 0.588672
O O3 0.644202 0.582292 0.381941
O O4 0.750000 0.622424 0.750000
O O5 0.500000 0.262225 0.323305
O O6 0.406025 0.150881 0.183611
O O7 0.412039 0.325488 0.994898
O O8 0.000000 0.965424 0.747539
O O9 0.119661 0.000000 0.500000
O O10 0.113996 0.000000 0.000000
O O11 0.500000 0.414615 0.711410
O O12 0.413343 0.500000 0.000000
#
# Coordination Sequence:
#
# PCOD9419339 Si02
#       4
#     8   8   8   8
#     4  12  25  46  67 100 139 186 230 279 337 412
#     4  10  22  42  69  99 137 180 228 286 346 405
#     4   9  19  34  60  98 130 162 216 284 345 399
#     4  10  23  46  74 105 140 182 235 288 345 411
#
# _framework density 21.668700000000001
#
# number of rings (size 3 to 8) (size 9 to 14) (size 15 to 20)
#    0.000    1.750    2.500    0.750    3.500    1.000 
#    4.500    3.750    0.000    3.000    0.000    0.000 
#    0.000    0.000    0.000    0.000    0.000    0.000 
#
# Total GULP energy -178341.829251 kJ/mol
# GULP energy per Si atom -5573.182164 kJ/mol
# Density = 2.161938 g / cm^3
# Si number density = 21.668700 Si / 1000 Ang^3
#
#
#
# Elastic Constant Matrix: (Units=GPa)
#
#
# Indices 1 2 3 4 5 6 
#
# 1 149.2153 39.1481 73.8449 0.0000 0.0000 0.0000
# 2 39.1481 153.7268 89.8885 0.0000 0.0000 0.0000
# 3 73.8449 89.8885 153.8525 0.0000 0.0000 0.0000
# 4 0.0000 0.0000 0.0000 28.2730 0.0000 0.0000
# 5 0.0000 0.0000 0.0000 0.0000 131.7933 0.0000
# 6 0.0000 0.0000 0.0000 0.0000 0.0000 5.4411
#
#
#
# Elastic Compliance Matrix: (Units=1/GPa)
#
#
# Indices 1 2 3 4 5 6 
#
# 1 0.008802 0.000347 -0.004428 0.000000 0.000000 0.000000
# 2 0.000347 0.009894 -0.005948 0.000000 0.000000 0.000000
# 3 -0.004428 -0.005948 0.012100 0.000000 0.000000 0.000000
# 4 0.000000 0.000000 0.000000 0.035369 0.000000 0.000000
# 5 0.000000 0.000000 0.000000 0.000000 0.007588 0.000000
# 6 0.000000 0.000000 0.000000 0.000000 0.000000 0.183786
#
#
# Mechanical properties :
#
#
# Convention : Reuss Voigt Hill
#
# Bulk Modulus (GPa) = 93.10621 95.83976 94.47298
# Shear Modulus (GPa) = 17.78260 50.02901 33.90581
#
# Velocity S-wave (km/s) = 2.86782 4.81023 3.95997
# Velocity P-wave (km/s) = 7.35032 8.67045 8.03753
#
# Compressibility (1/GPa) = 0.01074042
#
# Stress axis : x y z
#
# Youngs Moduli (GPa) = 113.61410 101.06905 82.64674
#
# Poissons Ratio (x) = -0.03512 0.36593
# Poissons Ratio (y) = -0.03948 0.49154
# Poissons Ratio (z) = 0.50304 0.60111
#
# Static dielectric constant tensor:
#      x y z
#    x 1.795510 0.000000 0.000000 
#    y 0.000000 1.844620 0.000000 
#    z 0.000000 0.000000 1.903370 
# 
# From -- ./inp_files/1882.got.cif
#   From: 2010.05.17/outbox.cif.g08.bks.cpg/sg53_1_cif.got.tgz:1882.got - 2010.06.03 12:45:16.
