data_PCOD9419452
_publ_section_title
;
Structure prediction by ZEFSAII (Michael W. Deem and Ramdas Pophale) SiO2 
 PCOD9419452
Probable space group: P M N A
;
_chemical_formula_sum "Si O2"
_cell_formula_units_Z 32
_cell_length_a 15.419875
_cell_length_b 17.229603
_cell_length_c 5.368651
_cell_angle_alpha 90.000000
_cell_angle_beta 90.000000
_cell_angle_gamma 90.000000
_cell_volume 1426.334203
_symmetry_space_group_name_H-M "P M N A"
_symmetry_group_IT_number 53
_symmetry_cell_setting 'orthorhombic'
loop_
_space_group_symop_operation_xyz
x,y,z
1/2-x,-y,1/2+z
x,-y,-z
1/2-x,y,1/2-z
-x,-y,-z
1/2+x,y,1/2-z
-x,y,z
1/2+x,-y,1/2+z
loop_
_atom_site_type_symbol
_atom_site_label
_atom_site_fract_x
_atom_site_fract_y
_atom_site_fract_z
Si Si1 0.105665 0.683448 0.505843
Si Si2 0.397511 0.413819 0.514815
Si Si3 0.000000 0.948334 0.255676
Si Si4 0.250000 0.210983 0.250000
Si Si5 0.830234 0.909487 0.079483
O O1 0.128783 0.639823 0.247926
O O2 0.187364 0.740676 0.565024
O O3 0.000000 0.707977 0.493640
O O4 0.110422 0.627639 0.748247
O O5 0.357528 0.500000 0.500000
O O6 0.500000 0.423945 0.563788
O O7 0.084556 0.897844 0.238930
O O8 0.000000 0.000000 0.500000
O O9 0.000000 0.000000 0.000000
O O10 0.321042 0.151855 0.364395
O O11 0.750000 0.895633 0.250000
O O12 0.825921 0.000000 0.000000
#
# Coordination Sequence:
#
# PCOD9419452 Si02
#       5
#     8   8   4   4   8
#     4  10  23  42  65 100 142 177 226 285 351 420
#     4   9  18  39  71 100 131 178 228 279 340 414
#     4  10  24  44  74 104 132 170 236 311 360 419
#     4  12  28  42  66 100 142 196 230 296 366 428
#     4  11  24  46  71  99 136 185 246 299 358 427
#
# _framework density 22.435131999999999
#
# number of rings (size 3 to 8) (size 9 to 14) (size 15 to 20)
#    0.000    1.750    1.250    1.500    8.750    3.000 
#    2.250    2.500    0.000    0.000    0.000    0.000 
#    0.000    0.000    0.000    0.000    0.000    0.000 
#
# Total GULP energy -178350.544618 kJ/mol
# GULP energy per Si atom -5573.454519 kJ/mol
# Density = 2.238407 g / cm^3
# Si number density = 22.435132 Si / 1000 Ang^3
#
#
#
# Elastic Constant Matrix: (Units=GPa)
#
#
# Indices 1 2 3 4 5 6 
#
# 1 118.0521 28.0090 17.0648 0.0000 0.0000 0.0000
# 2 28.0090 77.3723 11.6622 0.0000 0.0000 0.0000
# 3 17.0648 11.6622 80.9771 0.0000 0.0000 0.0000
# 4 0.0000 0.0000 0.0000 22.0569 0.0000 0.0000
# 5 0.0000 0.0000 0.0000 0.0000 23.4043 0.0000
# 6 0.0000 0.0000 0.0000 0.0000 0.0000 33.8488
#
#
#
# Elastic Compliance Matrix: (Units=1/GPa)
#
#
# Indices 1 2 3 4 5 6 
#
# 1 0.009449 -0.003190 -0.001532 0.000000 0.000000 0.000000
# 2 -0.003190 0.014288 -0.001386 0.000000 0.000000 0.000000
# 3 -0.001532 -0.001386 0.012872 0.000000 0.000000 0.000000
# 4 0.000000 0.000000 0.000000 0.045337 0.000000 0.000000
# 5 0.000000 0.000000 0.000000 0.000000 0.042727 0.000000
# 6 0.000000 0.000000 0.000000 0.000000 0.000000 0.029543
#
#
# Mechanical properties :
#
#
# Convention : Reuss Voigt Hill
#
# Bulk Modulus (GPa) = 40.99307 43.31930 42.15619
# Shear Modulus (GPa) = 28.64313 30.50637 29.57475
#
# Velocity S-wave (km/s) = 3.57698 3.69149 3.63469
# Velocity P-wave (km/s) = 5.94737 6.12536 6.03702
#
# Compressibility (1/GPa) = 0.02439436
#
# Stress axis : x y z
#
# Youngs Moduli (GPa) = 105.83066 69.98862 77.69072
#
# Poissons Ratio (x) = 0.22324 0.11901
# Poissons Ratio (y) = 0.33757 0.10765
# Poissons Ratio (z) = 0.16212 0.09697
#
# Static dielectric constant tensor:
#      x y z
#    x 1.876610 0.000000 0.000000 
#    y 0.000000 1.419050 0.000000 
#    z 0.000000 0.000000 1.711490 
# 
# From -- ./inp_files/1996.got.cif
#   From: 2010.05.17/outbox.cif.g08.bks.cpg/sg53_1_cif.got.tgz:1996.got - 2010.06.03 12:45:16.
