data_PCOD9419856
_publ_section_title
;
Structure prediction by ZEFSAII (Michael W. Deem and Ramdas Pophale) SiO2 
 PCOD9419856
Probable space group: P M N A
;
_chemical_formula_sum "Si O2"
_cell_formula_units_Z 48
_cell_length_a 19.455636
_cell_length_b 14.314165
_cell_length_c 8.646925
_cell_angle_alpha 90.000000
_cell_angle_beta 90.000000
_cell_angle_gamma 90.000000
_cell_volume 2408.092380
_symmetry_space_group_name_H-M "P M N A"
_symmetry_group_IT_number 53
_symmetry_cell_setting 'orthorhombic'
loop_
_space_group_symop_operation_xyz
x,y,z
1/2-x,-y,1/2+z
x,-y,-z
1/2-x,y,1/2-z
-x,-y,-z
1/2+x,y,1/2-z
-x,y,z
1/2+x,-y,1/2+z
loop_
_atom_site_type_symbol
_atom_site_label
_atom_site_fract_x
_atom_site_fract_y
_atom_site_fract_z
Si Si1 0.078613 0.044494 0.670196
Si Si2 0.186852 0.562318 0.850447
Si Si3 0.920610 0.600283 0.583827
Si Si4 0.798030 0.251992 0.970108
Si Si5 0.353588 0.245419 0.858610
Si Si6 0.688703 0.930808 0.632638
O O1 0.102424 0.151634 0.656441
O O2 0.000000 0.039607 0.724351
O O3 0.082643 0.000000 0.500000
O O4 0.128680 0.986309 0.780903
O O5 0.250000 0.520163 0.750000
O O6 0.123786 0.584992 0.738038
O O7 0.170309 0.500000 0.000000
O O8 0.211501 0.660784 0.918822
O O9 0.919095 0.500000 0.500000
O O10 0.887322 0.677962 0.470748
O O11 0.000000 0.625125 0.615599
O O12 0.838501 0.281495 0.815233
O O13 0.721779 0.218940 0.922880
O O14 0.834398 0.165640 0.054318
O O15 0.750000 0.909343 0.750000
O O16 0.715784 0.000000 0.500000
#
# Coordination Sequence:
#
# PCOD9419856 Si02
#       6
#     8   8   8   8   8   8
#     4  11  25  43  65  93 133 179 227 278 337 408
#     4  12  25  42  69 103 134 172 221 282 336 395
#     4  11  25  46  70  97 136 180 220 270 338 411
#     4  11  24  39  68  98 134 166 224 283 333 394
#     4  11  22  44  66  98 131 179 223 277 337 402
#     4  12  23  41  64  96 130 176 224 282 335 398
#
# _framework density 19.932789
#
# number of rings (size 3 to 8) (size 9 to 14) (size 15 to 20)
#    0.000    0.667    3.333    5.000    4.667    0.667 
#    0.000    1.667    0.000    0.000    0.000    0.000 
#    0.000    0.000    0.000    0.000    0.000    0.000 
#
# Total GULP energy -268466.152872 kJ/mol
# GULP energy per Si atom -5593.044851 kJ/mol
# Density = 1.988742 g / cm^3
# Si number density = 19.932789 Si / 1000 Ang^3
#
#
#
# Elastic Constant Matrix: (Units=GPa)
#
#
# Indices 1 2 3 4 5 6 
#
# 1 120.4354 31.7700 64.8856 0.0000 0.0000 0.0000
# 2 31.7700 84.2465 40.0373 0.0000 0.0000 0.0000
# 3 64.8856 40.0373 130.3976 0.0000 0.0000 0.0000
# 4 0.0000 0.0000 0.0000 46.8521 0.0000 0.0000
# 5 0.0000 0.0000 0.0000 0.0000 14.5548 0.0000
# 6 0.0000 0.0000 0.0000 0.0000 0.0000 -17.3208
#
#
#
# Elastic Compliance Matrix: (Units=1/GPa)
#
#
# Indices 1 2 3 4 5 6 
#
# 1 0.011601 -0.001910 -0.005186 0.000000 0.000000 0.000000
# 2 -0.001910 0.014212 -0.003413 0.000000 0.000000 0.000000
# 3 -0.005186 -0.003413 0.011298 0.000000 0.000000 0.000000
# 4 0.000000 0.000000 0.000000 0.021344 0.000000 0.000000
# 5 0.000000 0.000000 0.000000 0.000000 0.068706 0.000000
# 6 0.000000 0.000000 0.000000 0.000000 0.000000 -0.057734
#
#
# Mechanical properties :
#
#
# Convention : Reuss Voigt Hill
#
# Bulk Modulus (GPa) = 62.14369 67.60727 64.87548
# Shear Modulus (GPa) = 52.18661 22.04299 37.11480
#
# Velocity S-wave (km/s) = 5.12232 3.32906 4.31977
# Velocity P-wave (km/s) = 8.13809 6.98342 7.58276
#
# Compressibility (1/GPa) = 0.01609174
#
# Stress axis : x y z
#
# Youngs Moduli (GPa) = 86.19767 70.36109 88.51497
#
# Poissons Ratio (x) = 0.13440 0.45906
# Poissons Ratio (y) = 0.16466 0.30212
# Poissons Ratio (z) = 0.44704 0.24016
#
# Static dielectric constant tensor:
#      x y z
#    x 1.677830 0.000000 0.000000 
#    y 0.000000 1.690280 0.000000 
#    z 0.000000 0.000000 1.722840 
# 
# From -- ./inp_files/10018.got.cif
#   From: 2010.05.17/outbox.cif.g08.bks.cpg/sg53_6_cif.got.tgz:10018.got - 2010.06.03 12:45:16.
