data_PCOD9419403
_publ_section_title
;
Structure prediction by ZEFSAII (Michael W. Deem and Ramdas Pophale) SiO2 
 PCOD9419403
Probable space group: P M N A
;
_chemical_formula_sum "Si O2"
_cell_formula_units_Z 32
_cell_length_a 10.828328
_cell_length_b 10.033269
_cell_length_c 15.236953
_cell_angle_alpha 90.000000
_cell_angle_beta 90.000000
_cell_angle_gamma 90.000000
_cell_volume 1655.396324
_symmetry_space_group_name_H-M "P M N A"
_symmetry_group_IT_number 53
_symmetry_cell_setting 'orthorhombic'
loop_
_space_group_symop_operation_xyz
x,y,z
1/2-x,-y,1/2+z
x,-y,-z
1/2-x,y,1/2-z
-x,-y,-z
1/2+x,y,1/2-z
-x,y,z
1/2+x,-y,1/2+z
loop_
_atom_site_type_symbol
_atom_site_label
_atom_site_fract_x
_atom_site_fract_y
_atom_site_fract_z
Si Si1 0.500000 0.536732 0.216711
Si Si2 0.195374 0.244250 0.657350
Si Si3 0.000000 0.733561 0.609843
Si Si4 0.500000 0.419247 0.407618
Si Si5 0.000000 0.972704 0.396567
Si Si6 0.745414 0.655473 0.519030
O O1 0.385408 0.623384 0.180274
O O2 0.500000 0.389116 0.176922
O O3 0.500000 0.513048 0.321697
O O4 0.250000 0.206538 0.750000
O O5 0.114174 0.120105 0.627391
O O6 0.282888 0.280362 0.575835
O O7 0.873717 0.716221 0.554074
O O8 0.000000 0.882401 0.647951
O O9 0.500000 0.500000 0.500000
O O10 0.628909 0.338192 0.415089
O O11 0.000000 0.000000 0.500000
O O12 0.770420 0.500000 0.500000
#
# Coordination Sequence:
#
# PCOD9419403 Si02
#       6
#     4   8   4   4   4   8
#     4  11  23  39  66  96 126 164 221 273 317 390
#     4  11  22  39  66  93 125 171 221 263 317 394
#     4  12  22  39  68  94 124 169 224 266 315 380
#     4  10  23  38  56  99 139 158 196 278 351 376
#     4  11  23  43  61  91 128 174 220 267 315 387
#     4  11  20  37  64  96 126 163 213 268 326 384
#
# _framework density 19.330717
#
# number of rings (size 3 to 8) (size 9 to 14) (size 15 to 20)
#    0.000    1.000    5.000    4.125    0.000    1.000 
#    4.500    0.000    0.000    3.000    0.000    0.000 
#    0.000    0.000    0.000    0.000    0.000    0.000 
#
# Total GULP energy -178490.324425 kJ/mol
# GULP energy per Si atom -5577.822638 kJ/mol
# Density = 1.928672 g / cm^3
# Si number density = 19.330717 Si / 1000 Ang^3
#
#
#
# Elastic Constant Matrix: (Units=GPa)
#
#
# Indices 1 2 3 4 5 6 
#
# 1 88.6420 27.3247 24.0727 0.0000 0.0000 0.0000
# 2 27.3247 139.1956 43.0333 0.0000 0.0000 0.0000
# 3 24.0727 43.0333 100.2106 0.0000 0.0000 0.0000
# 4 0.0000 0.0000 0.0000 33.3240 0.0000 0.0000
# 5 0.0000 0.0000 0.0000 0.0000 32.7555 0.0000
# 6 0.0000 0.0000 0.0000 0.0000 0.0000 -206.3445
#
#
#
# Elastic Compliance Matrix: (Units=1/GPa)
#
#
# Indices 1 2 3 4 5 6 
#
# 1 0.012427 -0.001749 -0.002234 0.000000 0.000000 0.000000
# 2 -0.001749 0.008530 -0.003243 0.000000 0.000000 0.000000
# 3 -0.002234 -0.003243 0.011908 0.000000 0.000000 0.000000
# 4 0.000000 0.000000 0.000000 0.030008 0.000000 0.000000
# 5 0.000000 0.000000 0.000000 0.000000 0.030529 0.000000
# 6 0.000000 0.000000 0.000000 0.000000 0.000000 -0.004846
#
#
# Mechanical properties :
#
#
# Convention : Reuss Voigt Hill
#
# Bulk Modulus (GPa) = 54.30799 57.43441 55.87120
# Shear Modulus (GPa) = 45.80992 -12.47849 16.66572
#
# Velocity S-wave (km/s) = 4.87334 -2.54348 2.93940
# Velocity P-wave (km/s) = 7.73441 4.59894 6.36283
#
# Compressibility (1/GPa) = 0.01841350
#
# Stress axis : x y z
#
# Youngs Moduli (GPa) = 80.46881 117.23327 83.97489
#
# Poissons Ratio (x) = 0.20501 0.18763
# Poissons Ratio (y) = 0.14072 0.27233
# Poissons Ratio (z) = 0.17979 0.38018
#
# Static dielectric constant tensor:
#      x y z
#    x 1.737960 0.000000 0.000000 
#    y 0.000000 1.653480 0.000000 
#    z 0.000000 0.000000 1.725820 
# 
# From -- ./inp_files/21416.got.cif
#   From: 2010.05.17/outbox.cif.g08.bks.cpg/sg53_11_cif.got.tgz:21416.got - 2010.06.03 12:45:16.
