data_PCOD9419698
_publ_section_title
;
Structure prediction by ZEFSAII (Michael W. Deem and Ramdas Pophale) SiO2 
 PCOD9419698
Probable space group: P M N A
;
_chemical_formula_sum "Si O2"
_cell_formula_units_Z 48
_cell_length_a 9.310066
_cell_length_b 15.554128
_cell_length_c 16.010189
_cell_angle_alpha 90.000000
_cell_angle_beta 90.000000
_cell_angle_gamma 90.000000
_cell_volume 2318.434801
_symmetry_space_group_name_H-M "P M N A"
_symmetry_group_IT_number 53
_symmetry_cell_setting 'orthorhombic'
loop_
_space_group_symop_operation_xyz
x,y,z
1/2-x,-y,1/2+z
x,-y,-z
1/2-x,y,1/2-z
-x,-y,-z
1/2+x,y,1/2-z
-x,y,z
1/2+x,-y,1/2+z
loop_
_atom_site_type_symbol
_atom_site_label
_atom_site_fract_x
_atom_site_fract_y
_atom_site_fract_z
Si Si1 0.334535 0.320010 0.080081
Si Si2 0.833589 0.027338 0.331102
Si Si3 0.665097 0.163497 0.885011
Si Si4 0.170489 0.850076 0.946471
Si Si5 0.838316 0.648934 0.378042
Si Si6 0.663883 0.486833 0.398502
O O1 0.500000 0.308330 0.105129
O O2 0.239803 0.235255 0.094946
O O3 0.263212 0.404761 0.118875
O O4 0.333839 0.335787 0.979106
O O5 0.750000 0.058819 0.250000
O O6 0.749428 0.067400 0.408556
O O7 0.000000 0.053613 0.332334
O O8 0.829367 0.923818 0.333389
O O9 0.500000 0.167014 0.920388
O O10 0.686931 0.255811 0.842197
O O11 0.782283 0.155523 0.957331
O O12 0.000000 0.853164 0.936360
O O13 0.726601 0.574122 0.359611
O O14 0.000000 0.620641 0.357221
O O15 0.665652 0.500000 0.500000
O O16 0.500000 0.471457 0.373899
#
# Coordination Sequence:
#
# PCOD9419698 Si02
#       6
#     8   8   8   8   8   8
#     4   9  16  27  43  64  94 132 168 202 245 296
#     4  11  23  39  56  75 101 133 170 211 257 306
#     4   9  19  35  54  75 102 136 171 209 253 302
#     4  11  21  33  52  78 105 133 169 212 255 302
#     4   8  14  25  41  63  92 128 165 198 241 295
#     4   9  15  22  35  61  96 129 160 199 246 291
#
# _framework density 20.703624000000001
#
# number of rings (size 3 to 8) (size 9 to 14) (size 15 to 20)
#    0.000    2.500    0.000    4.500    0.000    9.333 
#    0.000    0.000    0.000    0.000    0.000    1.167 
#    0.000    2.667    0.000    0.000    0.000    0.000 
#
# Total GULP energy -267821.810927 kJ/mol
# GULP energy per Si atom -5579.621061 kJ/mol
# Density = 2.065650 g / cm^3
# Si number density = 20.703624 Si / 1000 Ang^3
#
#
#
# Elastic Constant Matrix: (Units=GPa)
#
#
# Indices 1 2 3 4 5 6 
#
# 1 184.6067 62.2254 29.3568 0.0000 0.0000 0.0000
# 2 62.2254 82.2077 1.1911 0.0000 0.0000 0.0000
# 3 29.3568 1.1911 11.3405 0.0000 0.0000 0.0000
# 4 0.0000 0.0000 0.0000 -8.1506 0.0000 0.0000
# 5 0.0000 0.0000 0.0000 0.0000 5.1298 0.0000
# 6 0.0000 0.0000 0.0000 0.0000 0.0000 21.9947
#
#
#
# Elastic Compliance Matrix: (Units=1/GPa)
#
#
# Indices 1 2 3 4 5 6 
#
# 1 0.015152 -0.010917 -0.038077 0.000000 0.000000 0.000000
# 2 -0.010917 0.020049 0.026155 0.000000 0.000000 0.000000
# 3 -0.038077 0.026155 0.184001 0.000000 0.000000 0.000000
# 4 0.000000 0.000000 0.000000 -0.122690 0.000000 0.000000
# 5 0.000000 0.000000 0.000000 0.000000 0.194940 0.000000
# 6 0.000000 0.000000 0.000000 0.000000 0.000000 0.045465
#
#
# Mechanical properties :
#
#
# Convention : Reuss Voigt Hill
#
# Bulk Modulus (GPa) = 5.76287 51.52238 28.64263
# Shear Modulus (GPa) = 11.35241 16.15356 13.75298
#
# Velocity S-wave (km/s) = 2.34418 2.79629 2.58016
# Velocity P-wave (km/s) = 3.18064 5.94688 4.76874
#
# Compressibility (1/GPa) = 0.17352450
#
# Stress axis : x y z
#
# Youngs Moduli (GPa) = 65.99853 49.87804 5.43477
#
# Poissons Ratio (x) = 0.54453 0.20694
# Poissons Ratio (y) = 0.72052 -0.14215
# Poissons Ratio (z) = 2.51300 -1.30458
#
# Static dielectric constant tensor:
#      x y z
#    x 1.700970 0.000000 0.000000 
#    y 0.000000 1.759610 0.000000 
#    z 0.000000 0.000000 1.710630 
# 
# From -- ./inp_files/26270.got.cif
#   From: 2010.05.17/outbox.cif.g08.bks.cpg/sg53_14_cif.got.tgz:26270.got - 2010.06.03 12:45:16.
