data_PCOD9419913
_publ_section_title
;
Structure prediction by ZEFSAII (Michael W. Deem and Ramdas Pophale) SiO2 
 PCOD9419913
Probable space group: P M N A
;
_chemical_formula_sum "Si O2"
_cell_formula_units_Z 56
_cell_length_a 15.344012
_cell_length_b 12.061071
_cell_length_c 15.777351
_cell_angle_alpha 90.000000
_cell_angle_beta 90.000000
_cell_angle_gamma 90.000000
_cell_volume 2919.838905
_symmetry_space_group_name_H-M "P M N A"
_symmetry_group_IT_number 53
_symmetry_cell_setting 'orthorhombic'
loop_
_space_group_symop_operation_xyz
x,y,z
1/2-x,-y,1/2+z
x,-y,-z
1/2-x,y,1/2-z
-x,-y,-z
1/2+x,y,1/2-z
-x,y,z
1/2+x,-y,1/2+z
loop_
_atom_site_type_symbol
_atom_site_label
_atom_site_fract_x
_atom_site_fract_y
_atom_site_fract_z
Si Si1 0.654149 0.342038 0.714315
Si Si2 0.897801 0.111076 0.106931
Si Si3 0.099919 0.590397 0.390061
Si Si4 0.733177 0.720874 0.657727
Si Si5 0.605339 0.658064 0.926740
Si Si6 0.897788 0.151004 0.909599
Si Si7 0.098426 0.455858 0.095435
O O1 0.750000 0.364442 0.750000
O O2 0.604118 0.341040 0.803945
O O3 0.650889 0.234394 0.653783
O O4 0.617721 0.442842 0.658644
O O5 0.828149 0.171874 0.164986
O O6 0.000000 0.135563 0.123873
O O7 0.887777 0.978596 0.112486
O O8 0.878387 0.152758 0.010333
O O9 0.134710 0.648177 0.474770
O O10 0.129672 0.462276 0.385065
O O11 0.000000 0.574785 0.413437
O O12 0.750000 0.672812 0.750000
O O13 0.827319 0.741767 0.616255
O O14 0.672884 0.634676 0.607179
O O15 0.500000 0.678582 0.917832
O O16 0.000000 0.180944 0.901204
O O17 0.000000 0.413012 0.112536
O O18 0.100304 0.500000 0.000000
#
# Coordination Sequence:
#
# PCOD9419913 Si02
#       7
#     8   8   8   8   8   8   8
#     4  12  23  32  54  91 120 150 190 247 298 349
#     4   9  20  40  64  85 111 152 195 240 300 354
#     4   9  18  34  53  74 110 158 197 232 278 345
#     4  12  24  35  57  86 118 152 193 241 283 350
#     4   9  20  36  54  77 115 164 200 228 279 356
#     4   9  19  39  63  85 111 147 193 246 301 354
#     4  11  24  39  57  84 122 159 192 238 296 350
#
# _framework density 19.17914
#
# number of rings (size 3 to 8) (size 9 to 14) (size 15 to 20)
#    0.000    1.857    0.000    6.429    6.000    5.143 
#    0.000    0.000    0.000    0.000    0.000    2.000 
#    0.000    0.000    0.000    0.000    0.000    0.000 
#
# Total GULP energy -312117.617230 kJ/mol
# GULP energy per Si atom -5573.528879 kJ/mol
# Density = 1.913549 g / cm^3
# Si number density = 19.179140 Si / 1000 Ang^3
#
#
#
# Elastic Constant Matrix: (Units=GPa)
#
#
# Indices 1 2 3 4 5 6 
#
# 1 94.4886 19.0917 21.3258 0.0000 0.0000 0.0000
# 2 19.0917 45.4350 13.7512 0.0000 0.0000 0.0000
# 3 21.3258 13.7512 69.9536 0.0000 0.0000 0.0000
# 4 0.0000 0.0000 0.0000 12.7170 0.0000 0.0000
# 5 0.0000 0.0000 0.0000 0.0000 28.9777 0.0000
# 6 0.0000 0.0000 0.0000 0.0000 0.0000 2.9440
#
#
#
# Elastic Compliance Matrix: (Units=1/GPa)
#
#
# Indices 1 2 3 4 5 6 
#
# 1 0.012078 -0.004211 -0.002854 0.000000 0.000000 0.000000
# 2 -0.004211 0.024870 -0.003605 0.000000 0.000000 0.000000
# 3 -0.002854 -0.003605 0.015874 0.000000 0.000000 0.000000
# 4 0.000000 0.000000 0.000000 0.078635 0.000000 0.000000
# 5 0.000000 0.000000 0.000000 0.000000 0.034509 0.000000
# 6 0.000000 0.000000 0.000000 0.000000 0.000000 0.339673
#
#
# Mechanical properties :
#
#
# Convention : Reuss Voigt Hill
#
# Bulk Modulus (GPa) = 31.76514 35.35721 33.56118
# Shear Modulus (GPa) = 9.30276 19.30830 14.30553
#
# Velocity S-wave (km/s) = 2.20476 3.17635 2.73406
# Velocity P-wave (km/s) = 4.80412 5.65045 5.24438
#
# Compressibility (1/GPa) = 0.03148105
#
# Stress axis : x y z
#
# Youngs Moduli (GPa) = 82.79216 40.20881 62.99610
#
# Poissons Ratio (x) = 0.16934 0.17981
# Poissons Ratio (y) = 0.34868 0.22710
# Poissons Ratio (z) = 0.23632 0.14495
#
# Static dielectric constant tensor:
#      x y z
#    x 1.783080 0.000000 0.000000 
#    y 0.000000 1.693730 0.000000 
#    z 0.000000 0.000000 1.744550 
# 
# From -- ./inp_files/22823.got.cif
#   From: 2010.05.17/outbox.cif.g08.bks.cpg/sg53_12_cif.got.tgz:22823.got - 2010.06.03 12:45:16.
