data_PCOD9419907
_publ_section_title
;
Structure prediction by ZEFSAII (Michael W. Deem and Ramdas Pophale) SiO2 
 PCOD9419907
Probable space group: P M N A
;
_chemical_formula_sum "Si O2"
_cell_formula_units_Z 48
_cell_length_a 14.274833
_cell_length_b 9.402178
_cell_length_c 19.366930
_cell_angle_alpha 90.000000
_cell_angle_beta 90.000000
_cell_angle_gamma 90.000000
_cell_volume 2599.323229
_symmetry_space_group_name_H-M "P M N A"
_symmetry_group_IT_number 53
_symmetry_cell_setting 'orthorhombic'
loop_
_space_group_symop_operation_xyz
x,y,z
1/2-x,-y,1/2+z
x,-y,-z
1/2-x,y,1/2-z
-x,-y,-z
1/2+x,y,1/2-z
-x,y,z
1/2+x,-y,1/2+z
loop_
_atom_site_type_symbol
_atom_site_label
_atom_site_fract_x
_atom_site_fract_y
_atom_site_fract_z
Si Si1 0.694415 0.133421 0.954412
Si Si2 0.802748 0.395387 0.444426
Si Si3 0.000000 0.692504 0.761898
Si Si4 0.000000 0.514430 0.619057
Si Si5 0.316841 0.799173 0.318402
Si Si6 0.000000 0.964578 0.227801
Si Si7 0.500000 0.172230 0.878908
Si Si8 0.680476 0.464137 0.314684
O O1 0.761365 0.165155 0.889005
O O2 0.591536 0.124885 0.920663
O O3 0.688069 0.253430 0.012678
O O4 0.723899 0.000000 0.000000
O O5 0.758242 0.500000 0.500000
O O6 0.905211 0.451001 0.422085
O O7 0.737777 0.399740 0.378166
O O8 0.090781 0.630006 0.799256
O O9 0.000000 0.616730 0.686220
O O10 0.000000 0.863984 0.764688
O O11 0.000000 0.344253 0.632674
O O12 0.250000 0.814755 0.250000
O O13 0.406800 0.900359 0.308230
O O14 0.343615 0.631625 0.323161
O O15 0.000000 0.900076 0.304644
O O16 0.750000 0.458371 0.250000
#
# Coordination Sequence:
#
# PCOD9419907 Si02
#       8
#     8   8   4   4   8   4   4   8
#     4  12  27  41  68 103 143 178 216 278 348 405
#     4  12  23  42  68 103 136 173 223 277 339 394
#     4  12  28  42  68 106 132 176 228 288 327 387
#     4  12  22  41  70 100 140 173 222 282 331 405
#     4  11  23  46  72  95 133 183 228 271 329 409
#     4  12  28  42  68  99 140 176 228 277 337 399
#     4  12  22  44  66 101 140 181 216 271 341 414
#     4  11  23  44  72  98 131 178 233 276 326 401
#
# _framework density 18.466346000000001
#
# number of rings (size 3 to 8) (size 9 to 14) (size 15 to 20)
#    0.000    0.333    6.667    2.500    4.667    0.667 
#    0.000    1.667    0.000    0.000    0.000    0.000 
#    0.000    0.000    0.000    0.000    0.000    0.000 
#
# Total GULP energy -268117.801368 kJ/mol
# GULP energy per Si atom -5585.787529 kJ/mol
# Density = 1.842432 g / cm^3
# Si number density = 18.466346 Si / 1000 Ang^3
#
#
#
# Elastic Constant Matrix: (Units=GPa)
#
#
# Indices 1 2 3 4 5 6 
#
# 1 101.4387 50.4884 57.5575 0.0000 0.0000 0.0000
# 2 50.4884 83.7555 48.7954 0.0000 0.0000 0.0000
# 3 57.5575 48.7954 145.5585 0.0000 0.0000 0.0000
# 4 0.0000 0.0000 0.0000 32.3531 0.0000 0.0000
# 5 0.0000 0.0000 0.0000 0.0000 61.2680 0.0000
# 6 0.0000 0.0000 0.0000 0.0000 0.0000 36.2160
#
#
#
# Elastic Compliance Matrix: (Units=1/GPa)
#
#
# Indices 1 2 3 4 5 6 
#
# 1 0.015566 -0.007204 -0.003740 0.000000 0.000000 0.000000
# 2 -0.007204 0.018172 -0.003243 0.000000 0.000000 0.000000
# 3 -0.003740 -0.003243 0.009436 0.000000 0.000000 0.000000
# 4 0.000000 0.000000 0.000000 0.030909 0.000000 0.000000
# 5 0.000000 0.000000 0.000000 0.000000 0.016322 0.000000
# 6 0.000000 0.000000 0.000000 0.000000 0.000000 0.027612
#
#
# Mechanical properties :
#
#
# Convention : Reuss Voigt Hill
#
# Bulk Modulus (GPa) = 67.57147 71.60395 69.58771
# Shear Modulus (GPa) = 33.04156 37.56152 35.30154
#
# Velocity S-wave (km/s) = 4.23458 4.51494 4.37701
# Velocity P-wave (km/s) = 7.78332 8.12645 7.95673
#
# Compressibility (1/GPa) = 0.01479914
#
# Stress axis : x y z
#
# Youngs Moduli (GPa) = 64.24185 55.03079 105.97570
#
# Poissons Ratio (x) = 0.39647 0.39636
# Poissons Ratio (y) = 0.46283 0.34366
# Poissons Ratio (z) = 0.24027 0.17846
#
# Static dielectric constant tensor:
#      x y z
#    x 1.632780 0.000000 0.000000 
#    y 0.000000 1.592080 0.000000 
#    z 0.000000 0.000000 1.616650 
# 
# From -- ./inp_files/28357.got.cif
#   From: 2010.05.17/outbox.cif.g08.bks.cpg/sg53_15_cif.got.tgz:28357.got - 2010.06.03 12:45:16.
