data_PCOD9419905
_publ_section_title
;
Structure prediction by ZEFSAII (Michael W. Deem and Ramdas Pophale) SiO2 
 PCOD9419905
Probable space group: P M N A
;
_chemical_formula_sum "Si O2"
_cell_formula_units_Z 32
_cell_length_a 32.892104
_cell_length_b 5.137927
_cell_length_c 8.853738
_cell_angle_alpha 90.000000
_cell_angle_beta 90.000000
_cell_angle_gamma 90.000000
_cell_volume 1496.257190
_symmetry_space_group_name_H-M "P M N A"
_symmetry_group_IT_number 53
_symmetry_cell_setting 'orthorhombic'
loop_
_space_group_symop_operation_xyz
x,y,z
1/2-x,-y,1/2+z
x,-y,-z
1/2-x,y,1/2-z
-x,-y,-z
1/2+x,y,1/2-z
-x,y,z
1/2+x,-y,1/2+z
loop_
_atom_site_type_symbol
_atom_site_label
_atom_site_fract_x
_atom_site_fract_y
_atom_site_fract_z
Si Si1 0.330380 0.747080 0.602369
Si Si2 0.211762 0.081098 0.672658
Si Si3 0.628485 0.408540 0.826547
Si Si4 0.544220 0.752290 0.108791
O O1 0.319122 0.500000 0.500000
O O2 0.295815 0.833950 0.719138
O O3 0.366445 0.644453 0.709658
O O4 0.339341 0.000000 0.500000
O O5 0.250000 0.221700 0.750000
O O6 0.219034 0.000000 0.500000
O O7 0.169300 0.236350 0.682902
O O8 0.585742 0.266879 0.797202
O O9 0.627919 0.500000 0.000000
O O10 0.500000 0.764371 0.187568
O O11 0.543268 0.500000 0.000000
O O12 0.547544 0.000000 0.000000
#
# Coordination Sequence:
#
# PCOD9419905 Si02
#       4
#     8   8   8   8
#     4  12  26  46  68  98 134 182 228 281 340 406
#     4  12  26  46  70 102 135 182 233 287 339 405
#     4  11  23  43  74  99 139 180 234 281 350 406
#     4   9  19  35  64 104 140 172 221 286 345 404
#
# _framework density 21.386697999999999
#
# number of rings (size 3 to 8) (size 9 to 14) (size 15 to 20)
#    0.000    1.000    5.000    1.500    3.500    1.000 
#    4.500    0.000    0.000    1.500    0.000    0.000 
#    0.000    0.000    0.000    0.000    0.000    0.000 
#
# Total GULP energy -178675.816486 kJ/mol
# GULP energy per Si atom -5583.619265 kJ/mol
# Density = 2.133802 g / cm^3
# Si number density = 21.386698 Si / 1000 Ang^3
#
#
#
# Elastic Constant Matrix: (Units=GPa)
#
#
# Indices 1 2 3 4 5 6 
#
# 1 217.0316 46.1078 49.6516 0.0000 0.0000 0.0000
# 2 46.1078 132.8419 52.3085 0.0000 0.0000 0.0000
# 3 49.6516 52.3085 143.4602 0.0000 0.0000 0.0000
# 4 0.0000 0.0000 0.0000 26.8779 0.0000 0.0000
# 5 0.0000 0.0000 0.0000 0.0000 19.1883 0.0000
# 6 0.0000 0.0000 0.0000 0.0000 0.0000 36.2518
#
#
#
# Elastic Compliance Matrix: (Units=1/GPa)
#
#
# Indices 1 2 3 4 5 6 
#
# 1 0.005183 -0.001276 -0.001329 0.000000 0.000000 0.000000
# 2 -0.001276 0.009104 -0.002878 0.000000 0.000000 0.000000
# 3 -0.001329 -0.002878 0.008480 0.000000 0.000000 0.000000
# 4 0.000000 0.000000 0.000000 0.037205 0.000000 0.000000
# 5 0.000000 0.000000 0.000000 0.000000 0.052115 0.000000
# 6 0.000000 0.000000 0.000000 0.000000 0.000000 0.027585
#
#
# Mechanical properties :
#
#
# Convention : Reuss Voigt Hill
#
# Bulk Modulus (GPa) = 84.73291 87.71885 86.22588
# Shear Modulus (GPa) = 32.34792 39.48131 35.91461
#
# Velocity S-wave (km/s) = 3.89334 4.30125 4.10237
# Velocity P-wave (km/s) = 7.74056 8.11001 7.92744
#
# Compressibility (1/GPa) = 0.01180179
#
# Stress axis : x y z
#
# Youngs Moduli (GPa) = 192.95410 109.84502 117.92830
#
# Poissons Ratio (x) = 0.14013 0.15667
# Poissons Ratio (y) = 0.24615 0.33939
# Poissons Ratio (z) = 0.25635 0.31612
#
# Static dielectric constant tensor:
#      x y z
#    x 1.871690 0.000000 0.000000 
#    y 0.000000 1.854370 0.000000 
#    z 0.000000 0.000000 1.784540 
# 
# From -- ./inp_files/12658.got.cif
#   From: 2010.05.17/outbox.cif.g08.bks.cpg/sg53_7_cif.got.tgz:12658.got - 2010.06.03 12:45:16.
