data_PCOD9419543
_publ_section_title
;
Structure prediction by ZEFSAII (Michael W. Deem and Ramdas Pophale) SiO2 
 PCOD9419543
Probable space group: P M N A
;
_chemical_formula_sum "Si O2"
_cell_formula_units_Z 38
_cell_length_a 17.698187
_cell_length_b 12.243449
_cell_length_c 7.867712
_cell_angle_alpha 90.000000
_cell_angle_beta 90.000000
_cell_angle_gamma 90.000000
_cell_volume 1704.829729
_symmetry_space_group_name_H-M "P M N A"
_symmetry_group_IT_number 53
_symmetry_cell_setting 'orthorhombic'
loop_
_space_group_symop_operation_xyz
x,y,z
1/2-x,-y,1/2+z
x,-y,-z
1/2-x,y,1/2-z
-x,-y,-z
1/2+x,y,1/2-z
-x,y,z
1/2+x,-y,1/2+z
loop_
_atom_site_type_symbol
_atom_site_label
_atom_site_fract_x
_atom_site_fract_y
_atom_site_fract_z
Si Si1 0.226732 0.624501 0.948615
Si Si2 0.000000 0.500000 0.500000
Si Si3 0.613265 0.295271 0.989052
Si Si4 0.118626 0.000000 0.000000
Si Si5 0.587648 0.068600 0.830163
Si Si6 0.582860 0.241584 0.384816
O O1 0.250000 0.626486 0.750000
O O2 0.299116 0.676659 0.038701
O O3 0.150553 0.692818 0.971282
O O4 0.214887 0.500000 0.000000
O O5 0.065341 0.405104 0.528579
O O6 0.597950 0.251424 0.182029
O O7 0.590462 0.196229 0.868678
O O8 0.147449 0.965394 0.185773
O O9 0.082795 0.116886 0.053516
O O10 0.500000 0.042935 0.777585
O O11 0.602016 0.000000 0.000000
O O12 0.500000 0.290239 0.417684
#
# Coordination Sequence:
#
# PCOD9419543 Si02
#       6
#     8   2   8   4   8   8
#     4  10  24  43  64  93 137 179 229 293 344 409
#     4  12  20  40  78  98 130 184 242 266 340 430
#     4  11  22  42  69 101 135 181 234 283 347 417
#     4  12  25  42  68 104 142 179 236 293 346 418
#     4  11  21  38  68 100 136 182 227 282 345 405
#     4  11  22  43  65  95 136 180 226 290 349 421
#
# _framework density 22.289615999999999
#
# number of rings (size 3 to 8) (size 9 to 14) (size 15 to 20)
#    0.000    1.053    5.263    1.895    0.000    2.105 
#    1.895    0.000    0.000    0.000    0.000    0.000 
#    0.000    0.000    0.000    0.000    0.000    0.000 
#
# Total GULP energy -211554.874598 kJ/mol
# GULP energy per Si atom -5567.233542 kJ/mol
# Density = 2.223888 g / cm^3
# Si number density = 22.289616 Si / 1000 Ang^3
#
#
#
# Elastic Constant Matrix: (Units=GPa)
#
#
# Indices 1 2 3 4 5 6 
#
# 1 165.6798 64.8793 22.3298 0.0000 0.0000 0.0000
# 2 64.8793 160.7320 48.2026 0.0000 0.0000 0.0000
# 3 22.3298 48.2026 68.6365 0.0000 0.0000 0.0000
# 4 0.0000 0.0000 0.0000 29.2334 0.0000 0.0000
# 5 0.0000 0.0000 0.0000 0.0000 8.4720 0.0000
# 6 0.0000 0.0000 0.0000 0.0000 0.0000 7.7621
#
#
#
# Elastic Compliance Matrix: (Units=1/GPa)
#
#
# Indices 1 2 3 4 5 6 
#
# 1 0.007177 -0.002783 -0.000381 0.000000 0.000000 0.000000
# 2 -0.002783 0.008960 -0.005387 0.000000 0.000000 0.000000
# 3 -0.000381 -0.005387 0.018477 0.000000 0.000000 0.000000
# 4 0.000000 0.000000 0.000000 0.034207 0.000000 0.000000
# 5 0.000000 0.000000 0.000000 0.000000 0.118036 0.000000
# 6 0.000000 0.000000 0.000000 0.000000 0.000000 0.128831
#
#
# Mechanical properties :
#
#
# Convention : Reuss Voigt Hill
#
# Bulk Modulus (GPa) = 57.10211 73.98573 65.54392
# Shear Modulus (GPa) = 14.76551 26.40261 20.58406
#
# Velocity S-wave (km/s) = 2.57658 3.44543 3.04218
# Velocity P-wave (km/s) = 5.87585 7.00663 6.46601
#
# Compressibility (1/GPa) = 0.01751249
#
# Stress axis : x y z
#
# Youngs Moduli (GPa) = 139.33900 111.60125 54.12169
#
# Poissons Ratio (x) = 0.31056 0.02060
# Poissons Ratio (y) = 0.38775 0.29158
# Poissons Ratio (z) = 0.05302 0.60125
#
# Static dielectric constant tensor:
#      x y z
#    x 1.829290 0.000000 0.000000 
#    y 0.000000 1.749480 0.000000 
#    z 0.000000 0.000000 1.895900 
# 
# From -- ./inp_files/9706.got.cif
#   From: 2010.05.17/outbox.cif.g08.bks.cpg/sg53_5_cif.got.tgz:9706.got - 2010.06.03 12:45:16.
