data_PCOD9419065
_publ_section_title
;
Structure prediction by ZEFSAII (Michael W. Deem and Ramdas Pophale) SiO2 
 PCOD9419065
Probable space group: P M N A
;
_chemical_formula_sum "Si O2"
_cell_formula_units_Z 44
_cell_length_a 9.961880
_cell_length_b 19.633274
_cell_length_c 10.742637
_cell_angle_alpha 90.000000
_cell_angle_beta 90.000000
_cell_angle_gamma 90.000000
_cell_volume 2101.091348
_symmetry_space_group_name_H-M "P M N A"
_symmetry_group_IT_number 53
_symmetry_cell_setting 'orthorhombic'
loop_
_space_group_symop_operation_xyz
x,y,z
1/2-x,-y,1/2+z
x,-y,-z
1/2-x,y,1/2-z
-x,-y,-z
1/2+x,y,1/2-z
-x,y,z
1/2+x,-y,1/2+z
loop_
_atom_site_type_symbol
_atom_site_label
_atom_site_fract_x
_atom_site_fract_y
_atom_site_fract_z
Si Si1 0.250000 0.981696 0.750000
Si Si2 0.354717 0.132213 0.077423
Si Si3 0.153680 0.115383 0.858670
Si Si4 0.152822 0.285880 0.358248
Si Si5 0.153363 0.483190 0.639679
Si Si6 0.152969 0.319208 0.639489
O O1 0.160413 0.932161 0.666930
O O2 0.164548 0.033791 0.834338
O O3 0.500000 0.127525 0.010281
O O4 0.229341 0.131485 0.985563
O O5 0.353933 0.203730 0.148693
O O6 0.250000 0.143756 0.750000
O O7 0.000000 0.137315 0.854129
O O8 0.250000 0.311454 0.250000
O O9 0.198723 0.301476 0.499435
O O10 0.000000 0.312142 0.345911
O O11 0.200954 0.500000 0.500000
O O12 0.250000 0.507937 0.750000
O O13 0.148021 0.401218 0.647507
O O14 0.000000 0.508991 0.652523
O O15 0.250000 0.296069 0.750000
O O16 0.000000 0.293023 0.653378
#
# Coordination Sequence:
#
# PCOD9419065 Si02
#       6
#     4   8   8   8   8   8
#     4  10  22  36  60  76 104 136 174 212 264 334
#     4  11  22  38  58  79 106 137 174 221 272 328
#     4  10  23  38  55  79 105 134 171 213 266 328
#     4  10  22  39  58  83 112 146 188 233 282 333
#     4   9  18  33  54  83 118 155 192 233 279 326
#     4   9  19  37  59  82 114 152 193 235 278 328
#
# _framework density 20.941496999999998
#
# number of rings (size 3 to 8) (size 9 to 14) (size 15 to 20)
#    0.545    1.636    0.909    1.636    0.000    6.182 
#    0.000    1.818    0.000    0.000    0.000    0.000 
#    0.000    0.000    0.000    0.000    0.000    0.000 
#
# Total GULP energy -245499.706335 kJ/mol
# GULP energy per Si atom -5579.538780 kJ/mol
# Density = 2.089383 g / cm^3
# Si number density = 20.941497 Si / 1000 Ang^3
#
#
#
# Elastic Constant Matrix: (Units=GPa)
#
#
# Indices 1 2 3 4 5 6 
#
# 1 147.4898 9.0664 91.5585 0.0000 0.0000 0.0000
# 2 9.0664 45.4687 4.0299 0.0000 0.0000 0.0000
# 3 91.5585 4.0299 149.3293 0.0000 0.0000 0.0000
# 4 0.0000 0.0000 0.0000 36.1792 0.0000 0.0000
# 5 0.0000 0.0000 0.0000 0.0000 37.3133 0.0000
# 6 0.0000 0.0000 0.0000 0.0000 0.0000 -20.8529
#
#
#
# Elastic Compliance Matrix: (Units=1/GPa)
#
#
# Indices 1 2 3 4 5 6 
#
# 1 0.011063 -0.001609 -0.006740 0.000000 0.000000 0.000000
# 2 -0.001609 0.022280 0.000385 0.000000 0.000000 0.000000
# 3 -0.006740 0.000385 0.010818 0.000000 0.000000 0.000000
# 4 0.000000 0.000000 0.000000 0.027640 0.000000 0.000000
# 5 0.000000 0.000000 0.000000 0.000000 0.026800 0.000000
# 6 0.000000 0.000000 0.000000 0.000000 0.000000 -0.047955
#
#
# Mechanical properties :
#
#
# Convention : Reuss Voigt Hill
#
# Bulk Modulus (GPa) = 35.41729 61.28861 48.35295
# Shear Modulus (GPa) = 65.80320 26.37011 46.08665
#
# Velocity S-wave (km/s) = 5.61165 3.55241 4.69629
# Velocity P-wave (km/s) = 7.67702 6.79384 7.24889
#
# Compressibility (1/GPa) = 0.02823480
#
# Stress axis : x y z
#
# Youngs Moduli (GPa) = 90.39334 44.88377 92.43481
#
# Poissons Ratio (x) = 0.07220 0.62297
# Poissons Ratio (y) = 0.14540 -0.03559
# Poissons Ratio (z) = 0.60921 -0.01728
#
# Static dielectric constant tensor:
#      x y z
#    x 1.755590 0.000000 0.000000 
#    y 0.000000 1.767130 0.000000 
#    z 0.000000 0.000000 1.746820 
# 
# From -- ./inp_files/14027.got.cif
#   From: 2010.05.17/outbox.cif.g08.bks.cpg/sg53_8_cif.got.tgz:14027.got - 2010.06.03 12:45:16.
