data_PCOD9419318
_publ_section_title
;
Structure prediction by ZEFSAII (Michael W. Deem and Ramdas Pophale) SiO2 
 PCOD9419318
Probable space group: P M N A
;
_chemical_formula_sum "Si O2"
_cell_formula_units_Z 64
_cell_length_a 15.435312
_cell_length_b 11.480688
_cell_length_c 18.229374
_cell_angle_alpha 90.000000
_cell_angle_beta 90.000000
_cell_angle_gamma 90.000000
_cell_volume 3230.390931
_symmetry_space_group_name_H-M "P M N A"
_symmetry_group_IT_number 53
_symmetry_cell_setting 'orthorhombic'
loop_
_space_group_symop_operation_xyz
x,y,z
1/2-x,-y,1/2+z
x,-y,-z
1/2-x,y,1/2-z
-x,-y,-z
1/2+x,y,1/2-z
-x,y,z
1/2+x,-y,1/2+z
loop_
_atom_site_type_symbol
_atom_site_label
_atom_site_fract_x
_atom_site_fract_y
_atom_site_fract_z
Si Si1 0.815204 0.386665 0.309459
Si Si2 0.399826 0.109417 0.555745
Si Si3 0.101686 0.599590 0.218988
Si Si4 0.276794 0.766469 0.043715
Si Si5 0.152925 0.869009 0.223188
Si Si6 0.901344 0.211938 0.408783
Si Si7 0.095650 0.059306 0.625910
Si Si8 0.703242 0.469473 0.583299
O O1 0.750000 0.333107 0.250000
O O2 0.856214 0.501803 0.271605
O O3 0.882561 0.292976 0.338876
O O4 0.756765 0.429757 0.376981
O O5 0.500000 0.152959 0.555307
O O6 0.321939 0.192970 0.529505
O O7 0.373736 0.089024 0.641606
O O8 0.397144 0.000000 0.500000
O O9 0.141118 0.728811 0.226384
O O10 0.123262 0.560039 0.136027
O O11 0.000000 0.606689 0.232711
O O12 0.329149 0.860234 0.092307
O O13 0.265935 0.643076 0.082775
O O14 0.333746 0.755835 0.971506
O O15 0.250000 0.897314 0.250000
O O16 0.095441 0.923600 0.287056
O O17 0.000000 0.230520 0.432808
O O18 0.889265 0.075347 0.392501
O O19 0.000000 0.092122 0.596420
O O20 0.680933 0.500000 0.500000
#
# Coordination Sequence:
#
# PCOD9419318 Si02
#       8
#     8   8   8   8   8   8   8   8
#     4  10  22  42  64  89 124 171 216 267 327 392
#     4  11  24  42  65  96 133 171 216 274 333 393
#     4  11  22  39  66  93 125 164 214 276 325 382
#     4  12  22  41  67  93 128 172 211 263 325 390
#     4  12  22  40  65  96 127 168 217 267 330 388
#     4  11  24  42  64  93 133 174 214 263 325 397
#     4  11  23  39  63  96 130 165 212 264 319 391
#     4  11  22  40  63  90 123 163 214 265 324 386
#
# _framework density 19.811844000000001
#
# number of rings (size 3 to 8) (size 9 to 14) (size 15 to 20)
#    0.000    0.875    3.750    4.875    0.000    1.750 
#    0.000    2.500    0.000    0.000    0.000    0.000 
#    0.000    0.000    0.000    0.000    0.000    0.000 
#
# Total GULP energy -357357.280756 kJ/mol
# GULP energy per Si atom -5583.707512 kJ/mol
# Density = 1.976675 g / cm^3
# Si number density = 19.811844 Si / 1000 Ang^3
#
#
#
# Elastic Constant Matrix: (Units=GPa)
#
#
# Indices 1 2 3 4 5 6 
#
# 1 106.9638 8.1145 32.4548 0.0000 0.0000 0.0000
# 2 8.1145 23.5273 10.7170 0.0000 0.0000 0.0000
# 3 32.4548 10.7170 102.6735 0.0000 0.0000 0.0000
# 4 0.0000 0.0000 0.0000 32.4380 0.0000 0.0000
# 5 0.0000 0.0000 0.0000 0.0000 21.4247 0.0000
# 6 0.0000 0.0000 0.0000 0.0000 0.0000 76.0234
#
#
#
# Elastic Compliance Matrix: (Units=1/GPa)
#
#
# Indices 1 2 3 4 5 6 
#
# 1 0.010448 -0.002204 -0.003073 0.000000 0.000000 0.000000
# 2 -0.002204 0.045091 -0.004010 0.000000 0.000000 0.000000
# 3 -0.003073 -0.004010 0.011129 0.000000 0.000000 0.000000
# 4 0.000000 0.000000 0.000000 0.030828 0.000000 0.000000
# 5 0.000000 0.000000 0.000000 0.000000 0.046675 0.000000
# 6 0.000000 0.000000 0.000000 0.000000 0.000000 0.013154
#
#
# Mechanical properties :
#
#
# Convention : Reuss Voigt Hill
#
# Bulk Modulus (GPa) = 20.79201 37.30412 29.04806
# Shear Modulus (GPa) = 26.05112 38.10242 32.07677
#
# Velocity S-wave (km/s) = 3.63013 4.39020 4.02813
# Velocity P-wave (km/s) = 5.29981 6.67597 6.02729
#
# Compressibility (1/GPa) = 0.04809540
#
# Stress axis : x y z
#
# Youngs Moduli (GPa) = 95.70784 22.17759 89.85186
#
# Poissons Ratio (x) = 0.04888 0.27609
# Poissons Ratio (y) = 0.21094 0.36029
# Poissons Ratio (z) = 0.29408 0.08893
#
# Static dielectric constant tensor:
#      x y z
#    x 0.996610 0.000000 0.000000 
#    y 0.000000 1.689980 0.000000 
#    z 0.000000 0.000000 1.723540 
# 
# From -- ./inp_files/28568.got.cif
#   From: 2010.05.17/outbox.cif.g08.bks.cpg/sg53_15_cif.got.tgz:28568.got - 2010.06.03 12:45:16.
