data_PCOD9419866
_publ_section_title
;
Structure prediction by ZEFSAII (Michael W. Deem and Ramdas Pophale) SiO2 
 PCOD9419866
Probable space group: P M N A
;
_chemical_formula_sum "Si O2"
_cell_formula_units_Z 48
_cell_length_a 8.146772
_cell_length_b 32.237223
_cell_length_c 9.493534
_cell_angle_alpha 90.000000
_cell_angle_beta 90.000000
_cell_angle_gamma 90.000000
_cell_volume 2493.280243
_symmetry_space_group_name_H-M "P M N A"
_symmetry_group_IT_number 53
_symmetry_cell_setting 'orthorhombic'
loop_
_space_group_symop_operation_xyz
x,y,z
1/2-x,-y,1/2+z
x,-y,-z
1/2-x,y,1/2-z
-x,-y,-z
1/2+x,y,1/2-z
-x,y,z
1/2+x,-y,1/2+z
loop_
_atom_site_type_symbol
_atom_site_label
_atom_site_fract_x
_atom_site_fract_y
_atom_site_fract_z
Si Si1 0.801541 0.301442 0.911934
Si Si2 0.801723 0.869345 0.911873
Si Si3 0.696220 0.620017 0.588325
Si Si4 0.696223 0.539851 0.087392
Si Si5 0.301657 0.039218 0.412061
Si Si6 0.801752 0.791249 0.089029
O O1 0.750000 0.309028 0.750000
O O2 0.745174 0.255042 0.953616
O O3 0.000000 0.301576 0.914993
O O4 0.741344 0.337662 0.014740
O O5 0.750000 0.865693 0.750000
O O6 0.746123 0.915046 0.962955
O O7 0.000000 0.869044 0.918815
O O8 0.739456 0.829765 0.997753
O O9 0.750000 0.616007 0.750000
O O10 0.500000 0.621262 0.586612
O O11 0.750624 0.581215 0.493952
O O12 0.750000 0.539432 0.250000
O O13 0.500000 0.538238 0.086360
O O14 0.759742 0.500000 0.000000
O O15 0.250000 0.035242 0.250000
O O16 0.500000 0.038919 0.418328
O O17 0.239520 0.000000 0.500000
O O18 0.750000 0.797054 0.250000
O O19 0.000000 0.791183 0.081358
#
# Coordination Sequence:
#
# PCOD9419866 Si02
#       6
#     8   8   8   8   8   8
#     4   9  19  35  54  76 103 136 172 212 257 306
#     4   9  18  32  49  69  96 129 163 202 248 299
#     4  11  23  38  57  82 112 144 180 221 265 313
#     4  11  24  41  62  87 115 147 182 221 265 312
#     4   9  18  32  48  68  95 126 161 202 248 297
#     4   9  18  33  51  73 101 131 167 209 253 302
#
# _framework density 19.251746000000001
#
# number of rings (size 3 to 8) (size 9 to 14) (size 15 to 20)
#    0.000    2.333    0.000    2.000    0.000    7.667 
#    0.000    0.000    0.000    0.000    0.000    0.000 
#    0.000    0.000    0.000    0.000    0.000    0.000 
#
# Total GULP energy -267835.571169 kJ/mol
# GULP energy per Si atom -5579.907733 kJ/mol
# Density = 1.920793 g / cm^3
# Si number density = 19.251746 Si / 1000 Ang^3
#
#
#
# Elastic Constant Matrix: (Units=GPa)
#
#
# Indices 1 2 3 4 5 6 
#
# 1 17.0061 22.1172 11.7984 0.0000 0.0000 0.0000
# 2 22.1172 227.3871 125.0420 0.0000 0.0000 0.0000
# 3 11.7984 125.0420 126.9371 0.0000 0.0000 0.0000
# 4 0.0000 0.0000 0.0000 43.0236 0.0000 0.0000
# 5 0.0000 0.0000 0.0000 0.0000 32.4531 0.0000
# 6 0.0000 0.0000 0.0000 0.0000 0.0000 -25.9237
#
#
#
# Elastic Compliance Matrix: (Units=1/GPa)
#
#
# Indices 1 2 3 4 5 6 
#
# 1 0.067328 -0.006780 0.000421 0.000000 0.000000 0.000000
# 2 -0.006780 0.010279 -0.009495 0.000000 0.000000 0.000000
# 3 0.000421 -0.009495 0.017192 0.000000 0.000000 0.000000
# 4 0.000000 0.000000 0.000000 0.023243 0.000000 0.000000
# 5 0.000000 0.000000 0.000000 0.000000 0.030814 0.000000
# 6 0.000000 0.000000 0.000000 0.000000 0.000000 -0.038575
#
#
# Mechanical properties :
#
#
# Convention : Reuss Voigt Hill
#
# Bulk Modulus (GPa) = 15.85022 76.58284 46.21653
# Shear Modulus (GPa) = 30.67117 24.06878 27.36997
#
# Velocity S-wave (km/s) = 3.99577 3.53967 3.77462
# Velocity P-wave (km/s) = 5.43501 7.52142 6.56167
#
# Compressibility (1/GPa) = 0.06309063
#
# Stress axis : x y z
#
# Youngs Moduli (GPa) = 14.85259 97.28879 58.16657
#
# Poissons Ratio (x) = 0.65967 -0.02451
# Poissons Ratio (y) = 0.10071 0.55229
# Poissons Ratio (z) = -0.00626 0.92376
#
# Static dielectric constant tensor:
#      x y z
#    x 1.670330 0.000000 0.000000 
#    y 0.000000 1.713830 0.000000 
#    z 0.000000 0.000000 1.392330 
# 
# From -- ./inp_files/6620.got.cif
#   From: 2010.05.17/outbox.cif.g08.bks.cpg/sg53_4_cif.got.tgz:6620.got - 2010.06.03 12:45:16.
