data_PCOD9419512
_publ_section_title
;
Structure prediction by ZEFSAII (Michael W. Deem and Ramdas Pophale) SiO2 
 PCOD9419512
Probable space group: P M N A
;
_chemical_formula_sum "Si O2"
_cell_formula_units_Z 32
_cell_length_a 30.583475
_cell_length_b 9.834485
_cell_length_c 5.060846
_cell_angle_alpha 90.000000
_cell_angle_beta 90.000000
_cell_angle_gamma 90.000000
_cell_volume 1522.164448
_symmetry_space_group_name_H-M "P M N A"
_symmetry_group_IT_number 53
_symmetry_cell_setting 'orthorhombic'
loop_
_space_group_symop_operation_xyz
x,y,z
1/2-x,-y,1/2+z
x,-y,-z
1/2-x,y,1/2-z
-x,-y,-z
1/2+x,y,1/2-z
-x,y,z
1/2+x,-y,1/2+z
loop_
_atom_site_type_symbol
_atom_site_label
_atom_site_fract_x
_atom_site_fract_y
_atom_site_fract_z
Si Si1 0.632909 0.165010 0.990333
Si Si2 0.075883 0.239595 0.004113
Si Si3 0.000000 0.876009 0.306135
Si Si4 0.218519 0.655792 0.500922
Si Si5 0.500000 0.622515 0.791319
O O1 0.602077 0.198719 0.237273
O O2 0.680000 0.235270 0.015613
O O3 0.611012 0.238843 0.734186
O O4 0.636195 0.000000 0.000000
O O5 0.041503 0.134114 0.881480
O O6 0.042851 0.359283 0.104247
O O7 0.000000 0.749431 0.507250
O O8 0.000000 0.000000 0.500000
O O9 0.200705 0.500000 0.500000
O O10 0.250000 0.668342 0.750000
O O11 0.250000 0.673728 0.250000
O O12 0.500000 0.500000 0.000000
#
# Coordination Sequence:
#
# PCOD9419512 Si02
#       5
#     8   8   4   8   4
#     4  12  25  42  69 103 135 170 224 282 337 404
#     4  11  25  43  65  98 136 176 227 281 337 397
#     4  11  24  44  70  91 134 191 227 277 334 398
#     4  10  23  46  70  97 133 174 216 265 338 416
#     4  11  26  46  65  96 134 185 237 287 332 394
#
# _framework density 21.022693
#
# number of rings (size 3 to 8) (size 9 to 14) (size 15 to 20)
#    0.000    1.000    2.500    3.000    3.500    5.000 
#    4.500    1.875    0.000    0.000    0.000    0.000 
#    0.000    0.000    0.000    0.000    0.000    0.000 
#
# Total GULP energy -178673.435181 kJ/mol
# GULP energy per Si atom -5583.544849 kJ/mol
# Density = 2.097484 g / cm^3
# Si number density = 21.022693 Si / 1000 Ang^3
#
#
#
# Elastic Constant Matrix: (Units=GPa)
#
#
# Indices 1 2 3 4 5 6 
#
# 1 133.4510 76.5702 58.3809 0.0000 0.0000 0.0000
# 2 76.5702 133.7765 95.6482 0.0000 0.0000 0.0000
# 3 58.3809 95.6482 171.9668 0.0000 0.0000 0.0000
# 4 0.0000 0.0000 0.0000 38.8953 0.0000 0.0000
# 5 0.0000 0.0000 0.0000 0.0000 4.5835 0.0000
# 6 0.0000 0.0000 0.0000 0.0000 0.0000-1776.2770
#
#
#
# Elastic Compliance Matrix: (Units=1/GPa)
#
#
# Indices 1 2 3 4 5 6 
#
# 1 0.011174 -0.006115 -0.000392 0.000000 0.000000 0.000000
# 2 -0.006115 0.015757 -0.006688 0.000000 0.000000 0.000000
# 3 -0.000392 -0.006688 0.009668 0.000000 0.000000 0.000000
# 4 0.000000 0.000000 0.000000 0.025710 0.000000 0.000000
# 5 0.000000 0.000000 0.000000 0.000000 0.218175 0.000000
# 6 0.000000 0.000000 0.000000 0.000000 0.000000 -0.000563
#
#
# Mechanical properties :
#
#
# Convention : Reuss Voigt Hill
#
# Bulk Modulus (GPa) = 97.96033 100.04366 99.00199
# Shear Modulus (GPa) = 16.14392 -332.65331 -158.25470
#
# Velocity S-wave (km/s) = 2.77416 -12.59281 -8.68570
# Velocity P-wave (km/s) = 7.54718 12.79636 7.30708
#
# Compressibility (1/GPa) = 0.01020821
#
# Stress axis : x y z
#
# Youngs Moduli (GPa) = 89.49666 63.46277 103.43247
#
# Poissons Ratio (x) = 0.38809 0.04055
# Poissons Ratio (y) = 0.54729 0.69177
# Poissons Ratio (z) = 0.03509 0.42445
#
# Static dielectric constant tensor:
#      x y z
#    x 1.804210 0.000000 0.000000 
#    y 0.000000 1.798670 0.000000 
#    z 0.000000 0.000000 1.718450 
# 
# From -- ./inp_files/5040.got.cif
#   From: 2010.05.17/outbox.cif.g08.bks.cpg/sg53_3_cif.got.tgz:5040.got - 2010.06.03 12:45:16.
