data_PCOD9419480
_publ_section_title
;
Structure prediction by ZEFSAII (Michael W. Deem and Ramdas Pophale) SiO2 
 PCOD9419480
Probable space group: P M N A
;
_chemical_formula_sum "Si O2"
_cell_formula_units_Z 32
_cell_length_a 32.515775
_cell_length_b 9.441184
_cell_length_c 4.969517
_cell_angle_alpha 90.000000
_cell_angle_beta 90.000000
_cell_angle_gamma 90.000000
_cell_volume 1525.579176
_symmetry_space_group_name_H-M "P M N A"
_symmetry_group_IT_number 53
_symmetry_cell_setting 'orthorhombic'
loop_
_space_group_symop_operation_xyz
x,y,z
1/2-x,-y,1/2+z
x,-y,-z
1/2-x,y,1/2-z
-x,-y,-z
1/2+x,y,1/2-z
-x,y,z
1/2+x,-y,1/2+z
loop_
_atom_site_type_symbol
_atom_site_label
_atom_site_fract_x
_atom_site_fract_y
_atom_site_fract_z
Si Si1 0.773065 0.500000 0.500000
Si Si2 0.280627 0.000000 0.000000
Si Si3 0.664399 0.725627 0.907863
Si Si4 0.952642 0.099215 0.738771
Si Si5 0.890662 0.661779 0.084753
O O1 0.750000 0.425746 0.750000
O O2 0.800639 0.387879 0.339966
O O3 0.250000 0.019747 0.750000
O O4 0.311215 0.868751 0.959318
O O5 0.631020 0.733519 0.672303
O O6 0.642084 0.666558 0.173646
O O7 0.927812 0.240866 0.808856
O O8 0.000000 0.134526 0.666710
O O9 0.935115 0.000000 0.500000
O O10 0.952769 0.000000 0.000000
O O11 0.901011 0.500000 0.000000
#
# Coordination Sequence:
#
# PCOD9419480 Si02
#       5
#     4   4   8   8   8
#     4  12  22  40  64  88 125 174 215 268 332 390
#     4  12  26  46  64  92 129 170 225 282 336 394
#     4  12  25  42  65  98 128 170 221 276 327 398
#     4  10  23  43  69 101 134 174 219 263 323 396
#     4  12  24  43  66 100 136 172 218 270 330 397
#
# _framework density 20.975639000000001
#
# number of rings (size 3 to 8) (size 9 to 14) (size 15 to 20)
#    0.000    0.500    2.500    6.000    5.250    0.500 
#    0.000    0.000    0.000    7.500    0.000    0.000 
#    0.000    0.000    0.000    0.000    0.000    0.000 
#
# Total GULP energy -178907.002896 kJ/mol
# GULP energy per Si atom -5590.843841 kJ/mol
# Density = 2.092790 g / cm^3
# Si number density = 20.975639 Si / 1000 Ang^3
#
#
#
# Elastic Constant Matrix: (Units=GPa)
#
#
# Indices 1 2 3 4 5 6 
#
# 1 90.3262 74.5413 36.2186 0.0000 0.0000 0.0000
# 2 74.5413 145.9664 37.8349 0.0000 0.0000 0.0000
# 3 36.2186 37.8349 134.7471 0.0000 0.0000 0.0000
# 4 0.0000 0.0000 0.0000 29.4577 0.0000 0.0000
# 5 0.0000 0.0000 0.0000 0.0000 21.2079 0.0000
# 6 0.0000 0.0000 0.0000 0.0000 0.0000 74.2922
#
#
#
# Elastic Compliance Matrix: (Units=1/GPa)
#
#
# Indices 1 2 3 4 5 6 
#
# 1 0.020010 -0.009517 -0.002706 0.000000 0.000000 0.000000
# 2 -0.009517 0.011915 -0.000787 0.000000 0.000000 0.000000
# 3 -0.002706 -0.000787 0.008370 0.000000 0.000000 0.000000
# 4 0.000000 0.000000 0.000000 0.033947 0.000000 0.000000
# 5 0.000000 0.000000 0.000000 0.000000 0.047152 0.000000
# 6 0.000000 0.000000 0.000000 0.000000 0.000000 0.013460
#
#
# Mechanical properties :
#
#
# Convention : Reuss Voigt Hill
#
# Bulk Modulus (GPa) = 70.06071 74.24772 72.15421
# Shear Modulus (GPa) = 30.18696 39.82120 35.00408
#
# Velocity S-wave (km/s) = 3.79772 4.36185 4.08952
# Velocity P-wave (km/s) = 7.25973 7.80010 7.53476
#
# Compressibility (1/GPa) = 0.01427334
#
# Stress axis : x y z
#
# Youngs Moduli (GPa) = 49.97466 83.92638 119.47674
#
# Poissons Ratio (x) = 0.79874 0.32333
# Poissons Ratio (y) = 0.47562 0.09409
# Poissons Ratio (z) = 0.13524 0.06609
#
# Static dielectric constant tensor:
#      x y z
#    x 1.776710 0.000000 0.000000 
#    y 0.000000 1.807970 0.000000 
#    z 0.000000 0.000000 1.718060 
# 
# From -- ./inp_files/5044.got.cif
#   From: 2010.05.17/outbox.cif.g08.bks.cpg/sg53_3_cif.got.tgz:5044.got - 2010.06.03 12:45:16.
