data_PCOD9419464
_publ_section_title
;
Structure prediction by ZEFSAII (Michael W. Deem and Ramdas Pophale) SiO2 
 PCOD9419464
Probable space group: P M N A
;
_chemical_formula_sum "Si O2"
_cell_formula_units_Z 20
_cell_length_a 29.834220
_cell_length_b 5.129462
_cell_length_c 4.852452
_cell_angle_alpha 90.000000
_cell_angle_beta 90.000000
_cell_angle_gamma 90.000000
_cell_volume 742.587702
_symmetry_space_group_name_H-M "P M N A"
_symmetry_group_IT_number 53
_symmetry_cell_setting 'orthorhombic'
loop_
_space_group_symop_operation_xyz
x,y,z
1/2-x,-y,1/2+z
x,-y,-z
1/2-x,y,1/2-z
-x,-y,-z
1/2+x,y,1/2-z
-x,y,z
1/2+x,-y,1/2+z
loop_
_atom_site_type_symbol
_atom_site_label
_atom_site_fract_x
_atom_site_fract_y
_atom_site_fract_z
Si Si1 0.750000 0.703719 0.750000
Si Si2 0.000000 0.250189 0.193904
Si Si3 0.098215 0.253698 0.201873
Si Si4 0.671261 0.000000 0.000000
O O1 0.746938 0.500000 0.500000
O O2 0.792421 0.894752 0.720707
O O3 0.000000 0.500000 0.000000
O O4 0.048376 0.251914 0.334622
O O5 0.000000 0.000000 0.000000
O O6 0.134639 0.225749 0.442132
O O7 0.103415 0.500000 0.000000
O O8 0.103246 0.000000 0.000000
#
# Coordination Sequence:
#
# PCOD9419464 Si02
#       4
#     4   4   8   4
#     4  12  30  52  78 108 156 204 272 344 416 476
#     4   8  16  37  64 103 150 194 239 309 378 462
#     4  10  23  42  72 108 151 197 254 312 388 471
#     4  12  28  45  74 106 144 207 264 330 402 474
#
# _framework density 26.932845
#
# number of rings (size 3 to 8) (size 9 to 14) (size 15 to 20)
#    0.000    1.600    0.000    2.400   14.000    0.800 
#    0.000    0.000    0.000   14.400    0.000    0.000 
#    0.000    0.000    0.000    0.000    0.000    0.000 
#
# Total GULP energy -111557.229641 kJ/mol
# GULP energy per Si atom -5577.861482 kJ/mol
# Density = 2.687154 g / cm^3
# Si number density = 26.932845 Si / 1000 Ang^3
#
#
#
# Elastic Constant Matrix: (Units=GPa)
#
#
# Indices 1 2 3 4 5 6 
#
# 1 292.4776 45.3601 52.1114 0.0000 0.0000 0.0000
# 2 45.3601 237.6986 84.6918 0.0000 0.0000 0.0000
# 3 52.1114 84.6918 142.7624 0.0000 0.0000 0.0000
# 4 0.0000 0.0000 0.0000 71.7538 0.0000 0.0000
# 5 0.0000 0.0000 0.0000 0.0000 -90.3842 0.0000
# 6 0.0000 0.0000 0.0000 0.0000 0.0000 198.3852
#
#
#
# Elastic Compliance Matrix: (Units=1/GPa)
#
#
# Indices 1 2 3 4 5 6 
#
# 1 0.003672 -0.000283 -0.001172 0.000000 0.000000 0.000000
# 2 -0.000283 0.005356 -0.003074 0.000000 0.000000 0.000000
# 3 -0.001172 -0.003074 0.009256 0.000000 0.000000 0.000000
# 4 0.000000 0.000000 0.000000 0.013937 0.000000 0.000000
# 5 0.000000 0.000000 0.000000 0.000000 -0.011064 0.000000
# 6 0.000000 0.000000 0.000000 0.000000 0.000000 0.005041
#
#
# Mechanical properties :
#
#
# Convention : Reuss Voigt Hill
#
# Bulk Modulus (GPa) = 108.39867 115.25169 111.82518
# Shear Modulus (GPa) = 130.43765 68.66931 99.55348
#
# Velocity S-wave (km/s) = 6.96677 5.05488 6.08637
# Velocity P-wave (km/s) = 10.24937 8.77236 9.53949
#
# Compressibility (1/GPa) = 0.00922521
#
# Stress axis : x y z
#
# Youngs Moduli (GPa) = 272.34258 186.69331 108.03328
#
# Poissons Ratio (x) = 0.05283 0.12666
# Poissons Ratio (y) = 0.07706 0.33213
# Poissons Ratio (z) = 0.31931 0.57395
#
# Static dielectric constant tensor:
#      x y z
#    x 2.107330 0.000000 0.000000 
#    y 0.000000 2.082220 0.000000 
#    z 0.000000 0.000000 2.312240 
# 
# From -- ./inp_files/4828.got.cif
#   From: 2010.05.17/outbox.cif.g08.bks.cpg/sg53_3_cif.got.tgz:4828.got - 2010.06.03 12:45:16.
