data_PCOD9419073
_publ_section_title
;
Structure prediction by ZEFSAII (Michael W. Deem and Ramdas Pophale) SiO2 
 PCOD9419073
Probable space group: P M N A
;
_chemical_formula_sum "Si O2"
_cell_formula_units_Z 48
_cell_length_a 14.930751
_cell_length_b 9.919604
_cell_length_c 16.775041
_cell_angle_alpha 90.000000
_cell_angle_beta 90.000000
_cell_angle_gamma 90.000000
_cell_volume 2484.503301
_symmetry_space_group_name_H-M "P M N A"
_symmetry_group_IT_number 53
_symmetry_cell_setting 'orthorhombic'
loop_
_space_group_symop_operation_xyz
x,y,z
1/2-x,-y,1/2+z
x,-y,-z
1/2-x,y,1/2-z
-x,-y,-z
1/2+x,y,1/2-z
-x,y,z
1/2+x,-y,1/2+z
loop_
_atom_site_type_symbol
_atom_site_label
_atom_site_fract_x
_atom_site_fract_y
_atom_site_fract_z
Si Si1 0.647103 0.731213 0.279617
Si Si2 0.209088 0.379459 0.942610
Si Si3 0.236407 0.871302 0.947450
Si Si4 0.848991 0.038377 0.210203
Si Si5 0.599260 0.448744 0.866102
Si Si6 0.901593 0.763932 0.654291
O O1 0.750000 0.740753 0.250000
O O2 0.653330 0.648619 0.362155
O O3 0.599590 0.648364 0.210373
O O4 0.614248 0.885552 0.288086
O O5 0.313478 0.409198 0.918033
O O6 0.178978 0.500000 0.000000
O O7 0.204438 0.244476 0.993904
O O8 0.165334 0.912628 0.879832
O O9 0.323825 0.818157 0.901936
O O10 0.259657 0.000000 0.000000
O O11 0.750000 0.030821 0.250000
O O12 0.896833 0.150773 0.264013
O O13 0.500000 0.438689 0.904819
O O14 0.611472 0.603318 0.837082
O O15 0.000000 0.784805 0.618626
#
# Coordination Sequence:
#
# PCOD9419073 Si02
#       6
#     8   8   8   8   8   8
#     4   9  19  35  54  78 105 140 185 222 261 318
#     4  11  21  34  57  85 108 141 179 222 275 320
#     4  11  21  36  56  82 112 140 176 229 273 314
#     4   9  19  35  55  76 105 143 184 223 259 315
#     4  10  22  37  54  79 113 147 180 219 264 323
#     4  10  22  37  54  79 111 148 182 216 266 325
#
# _framework density 19.319758
#
# number of rings (size 3 to 8) (size 9 to 14) (size 15 to 20)
#    0.000    2.000    3.333    0.000    4.667    4.000 
#    0.000    0.000    0.000    2.000    0.000    0.000 
#    0.000    0.000    0.000    0.000    0.000    0.000 
#
# Total GULP energy -267712.916616 kJ/mol
# GULP energy per Si atom -5577.352429 kJ/mol
# Density = 1.927579 g / cm^3
# Si number density = 19.319758 Si / 1000 Ang^3
#
#
#
# Elastic Constant Matrix: (Units=GPa)
#
#
# Indices 1 2 3 4 5 6 
#
# 1 9.8915 -6.2225 -9.1305 0.0000 0.0000 0.0000
# 2 -6.2225 119.4626 28.0943 0.0000 0.0000 0.0000
# 3 -9.1305 28.0943 80.7386 0.0000 0.0000 0.0000
# 4 0.0000 0.0000 0.0000 42.7429 0.0000 0.0000
# 5 0.0000 0.0000 0.0000 0.0000 7.8820 0.0000
# 6 0.0000 0.0000 0.0000 0.0000 0.0000 29.1636
#
#
#
# Elastic Compliance Matrix: (Units=1/GPa)
#
#
# Indices 1 2 3 4 5 6 
#
# 1 0.113968 0.003164 0.011787 0.000000 0.000000 0.000000
# 2 0.003164 0.009205 -0.002845 0.000000 0.000000 0.000000
# 3 0.011787 -0.002845 0.014709 0.000000 0.000000 0.000000
# 4 0.000000 0.000000 0.000000 0.023396 0.000000 0.000000
# 5 0.000000 0.000000 0.000000 0.000000 0.126871 0.000000
# 6 0.000000 0.000000 0.000000 0.000000 0.000000 0.034289
#
#
# Mechanical properties :
#
#
# Convention : Reuss Voigt Hill
#
# Bulk Modulus (GPa) = 6.16923 26.17503 16.17213
# Shear Modulus (GPa) = 14.19421 29.11447 21.65434
#
# Velocity S-wave (km/s) = 2.71347 3.88619 3.35153
# Velocity P-wave (km/s) = 3.60796 5.80641 4.83383
#
# Compressibility (1/GPa) = 0.16209484
#
# Stress axis : x y z
#
# Youngs Moduli (GPa) = 8.77435 108.63983 67.98722
#
# Poissons Ratio (x) = -0.34376 -0.80139
# Poissons Ratio (y) = -0.02776 0.19343
# Poissons Ratio (z) = -0.10343 0.30909
#
# Static dielectric constant tensor:
#      x y z
#    x 1.771260 0.000000 0.000000 
#    y 0.000000 1.656350 0.000000 
#    z 0.000000 0.000000 1.669100 
# 
# From -- ./inp_files/23632.got.cif
#   From: 2010.05.17/outbox.cif.g08.bks.cpg/sg53_12_cif.got.tgz:23632.got - 2010.06.03 12:45:16.
