data_PCOD9419477
_publ_section_title
;
Structure prediction by ZEFSAII (Michael W. Deem and Ramdas Pophale) SiO2 
 PCOD9419477
Probable space group: P M N A
;
_chemical_formula_sum "Si O2"
_cell_formula_units_Z 48
_cell_length_a 27.061998
_cell_length_b 5.549150
_cell_length_c 14.402092
_cell_angle_alpha 90.000000
_cell_angle_beta 90.000000
_cell_angle_gamma 90.000000
_cell_volume 2162.777799
_symmetry_space_group_name_H-M "P M N A"
_symmetry_group_IT_number 53
_symmetry_cell_setting 'orthorhombic'
loop_
_space_group_symop_operation_xyz
x,y,z
1/2-x,-y,1/2+z
x,-y,-z
1/2-x,y,1/2-z
-x,-y,-z
1/2+x,y,1/2-z
-x,y,z
1/2+x,-y,1/2+z
loop_
_atom_site_type_symbol
_atom_site_label
_atom_site_fract_x
_atom_site_fract_y
_atom_site_fract_z
Si Si1 0.882900 0.355249 0.741417
Si Si2 0.247991 0.027220 0.638581
Si Si3 0.056082 0.044190 0.607290
Si Si4 0.053538 0.263742 0.217192
Si Si5 0.807988 0.535566 0.601734
Si Si6 0.140219 0.998643 0.106124
O O1 0.900315 0.187562 0.657140
O O2 0.934457 0.456704 0.780109
O O3 0.844442 0.526436 0.689903
O O4 0.858402 0.242868 0.831939
O O5 0.250000 0.027339 0.750000
O O6 0.214109 0.805074 0.605199
O O7 0.302055 0.940756 0.604866
O O8 0.228726 0.298533 0.611614
O O9 0.000000 0.151784 0.611639
O O10 0.066480 0.000000 0.500000
O O11 0.053930 0.813261 0.674798
O O12 0.099836 0.151545 0.163224
O O13 0.000000 0.200021 0.178375
O O14 0.831728 0.500000 0.500000
O O15 0.123261 0.000000 0.000000
#
# Coordination Sequence:
#
# PCOD9419477 Si02
#       6
#     8   8   8   8   8   8
#     4  11  24  41  65 100 134 181 226 289 344 425
#     4  12  25  49  70 104 144 186 235 292 353 423
#     4   9  20  38  63  94 134 181 228 281 346 418
#     4  10  23  43  66  98 136 176 230 294 354 420
#     4  12  27  43  71 105 145 186 235 291 356 424
#     4  11  25  46  71  95 133 182 235 291 355 419
#
# _framework density 22.193681000000002
#
# number of rings (size 3 to 8) (size 9 to 14) (size 15 to 20)
#    0.000    1.167    1.667    3.500    7.000    1.667 
#    0.000    3.333    0.000    0.000    0.000    0.000 
#    0.000    0.000    0.000    0.000    0.000    0.000 
#
# Total GULP energy -267407.642055 kJ/mol
# GULP energy per Si atom -5570.992543 kJ/mol
# Density = 2.214317 g / cm^3
# Si number density = 22.193681 Si / 1000 Ang^3
#
#
#
# Elastic Constant Matrix: (Units=GPa)
#
#
# Indices 1 2 3 4 5 6 
#
# 1 79.8832 19.5788 19.5739 0.0000 0.0000 0.0000
# 2 19.5788 49.3452 -2.3406 0.0000 0.0000 0.0000
# 3 19.5739 -2.3406 157.4664 0.0000 0.0000 0.0000
# 4 0.0000 0.0000 0.0000 8.3032 0.0000 0.0000
# 5 0.0000 0.0000 0.0000 0.0000 25.4670 0.0000
# 6 0.0000 0.0000 0.0000 0.0000 0.0000 16.1195
#
#
#
# Elastic Compliance Matrix: (Units=1/GPa)
#
#
# Indices 1 2 3 4 5 6 
#
# 1 0.014400 -0.005803 -0.001876 0.000000 0.000000 0.000000
# 2 -0.005803 0.022618 0.001057 0.000000 0.000000 0.000000
# 3 -0.001876 0.001057 0.006600 0.000000 0.000000 0.000000
# 4 0.000000 0.000000 0.000000 0.120435 0.000000 0.000000
# 5 0.000000 0.000000 0.000000 0.000000 0.039267 0.000000
# 6 0.000000 0.000000 0.000000 0.000000 0.000000 0.062037
#
#
# Mechanical properties :
#
#
# Convention : Reuss Voigt Hill
#
# Bulk Modulus (GPa) = 32.92201 40.03544 36.47873
# Shear Modulus (GPa) = 17.31758 26.63678 21.97718
#
# Velocity S-wave (km/s) = 2.79640 3.46814 3.15023
# Velocity P-wave (km/s) = 5.02918 5.84086 5.45015
#
# Compressibility (1/GPa) = 0.03037481
#
# Stress axis : x y z
#
# Youngs Moduli (GPa) = 69.44351 44.21288 151.52642
#
# Poissons Ratio (x) = 0.25655 0.28430
# Poissons Ratio (y) = 0.40295 -0.16024
# Poissons Ratio (z) = 0.13029 -0.04675
#
# Static dielectric constant tensor:
#      x y z
#    x 1.863000 0.000000 0.000000 
#    y 0.000000 1.936260 0.000000 
#    z 0.000000 0.000000 2.049850 
# 
# From -- ./inp_files/24925.got.cif
#   From: 2010.05.17/outbox.cif.g08.bks.cpg/sg53_13_cif.got.tgz:24925.got - 2010.06.03 12:45:16.
