data_PCOD9419035
_publ_section_title
;
Structure prediction by ZEFSAII (Michael W. Deem and Ramdas Pophale) SiO2 
 PCOD9419035
Probable space group: P M N A
;
_chemical_formula_sum "Si O2"
_cell_formula_units_Z 20
_cell_length_a 10.570852
_cell_length_b 5.312384
_cell_length_c 15.135262
_cell_angle_alpha 90.000000
_cell_angle_beta 90.000000
_cell_angle_gamma 90.000000
_cell_volume 849.942206
_symmetry_space_group_name_H-M "P M N A"
_symmetry_group_IT_number 53
_symmetry_cell_setting 'orthorhombic'
loop_
_space_group_symop_operation_xyz
x,y,z
1/2-x,-y,1/2+z
x,-y,-z
1/2-x,y,1/2-z
-x,-y,-z
1/2+x,y,1/2-z
-x,y,z
1/2+x,-y,1/2+z
loop_
_atom_site_type_symbol
_atom_site_label
_atom_site_fract_x
_atom_site_fract_y
_atom_site_fract_z
Si Si1 0.000000 0.767659 0.304038
Si Si2 0.724917 0.500000 0.000000
Si Si3 0.356445 0.460328 0.313082
Si Si4 0.000000 0.253778 0.421970
O O1 0.883790 0.721749 0.238400
O O2 0.000000 0.512642 0.364275
O O3 0.000000 0.016536 0.359335
O O4 0.806150 0.488911 0.911032
O O5 0.626223 0.725621 0.980382
O O6 0.250000 0.332403 0.250000
O O7 0.500000 0.345137 0.317634
#
# Coordination Sequence:
#
# PCOD9419035 Si02
#       4
#     4   4   8   4
#     4  10  24  48  70 105 144 201 226 300 358 441
#     4  11  21  42  76 114 140 192 244 306 350 434
#     4  10  21  44  70 109 146 193 238 302 360 428
#     4  11  24  46  76 104 146 192 244 286 370 432
#
# _framework density 23.531013999999999
#
# number of rings (size 3 to 8) (size 9 to 14) (size 15 to 20)
#    1.200    0.400    4.000    0.600    2.800    3.200 
#    7.200    0.000    0.000    7.200    0.000    0.000 
#    0.000    0.000    0.000    0.000    0.000    0.000 
#
# Total GULP energy -111422.769293 kJ/mol
# GULP energy per Si atom -5571.138465 kJ/mol
# Density = 2.347746 g / cm^3
# Si number density = 23.531014 Si / 1000 Ang^3
#
#
#
# Elastic Constant Matrix: (Units=GPa)
#
#
# Indices 1 2 3 4 5 6 
#
# 1 203.4379 26.3596 93.6221 0.0000 0.0000 0.0000
# 2 26.3596 119.8261 57.5447 0.0000 0.0000 0.0000
# 3 93.6221 57.5447 227.9521 0.0000 0.0000 0.0000
# 4 0.0000 0.0000 0.0000 43.2527 0.0000 0.0000
# 5 0.0000 0.0000 0.0000 0.0000 16.0091 0.0000
# 6 0.0000 0.0000 0.0000 0.0000 0.0000 8.7785
#
#
#
# Elastic Compliance Matrix: (Units=1/GPa)
#
#
# Indices 1 2 3 4 5 6 
#
# 1 0.006064 -0.000157 -0.002451 0.000000 0.000000 0.000000
# 2 -0.000157 0.009501 -0.002334 0.000000 0.000000 0.000000
# 3 -0.002451 -0.002334 0.005983 0.000000 0.000000 0.000000
# 4 0.000000 0.000000 0.000000 0.023120 0.000000 0.000000
# 5 0.000000 0.000000 0.000000 0.000000 0.062465 0.000000
# 6 0.000000 0.000000 0.000000 0.000000 0.000000 0.113915
#
#
# Mechanical properties :
#
#
# Convention : Reuss Voigt Hill
#
# Bulk Modulus (GPa) = 85.73567 100.69654 93.21610
# Shear Modulus (GPa) = 21.29307 38.52069 29.90688
#
# Velocity S-wave (km/s) = 3.01141 4.05040 3.56891
# Velocity P-wave (km/s) = 6.97178 8.04738 7.52881
#
# Compressibility (1/GPa) = 0.01166376
#
# Stress axis : x y z
#
# Youngs Moduli (GPa) = 164.91587 105.25441 167.15035
#
# Poissons Ratio (x) = 0.01652 0.40965
# Poissons Ratio (y) = 0.02588 0.39012
# Poissons Ratio (z) = 0.40418 0.24566
#
# Static dielectric constant tensor:
#      x y z
#    x 2.022010 0.000000 0.000000 
#    y 0.000000 1.906040 0.000000 
#    z 0.000000 0.000000 1.967390 
# 
# From -- ./inp_files/27117.got.cif
#   From: 2010.05.17/outbox.cif.g08.bks.cpg/sg53_14_cif.got.tgz:27117.got - 2010.06.03 12:45:16.
