data_PCOD9419149
_publ_section_title
;
Structure prediction by ZEFSAII (Michael W. Deem and Ramdas Pophale) SiO2 
 PCOD9419149
Probable space group: P M N A
;
_chemical_formula_sum "Si O2"
_cell_formula_units_Z 48
_cell_length_a 9.237909
_cell_length_b 16.744194
_cell_length_c 16.031744
_cell_angle_alpha 90.000000
_cell_angle_beta 90.000000
_cell_angle_gamma 90.000000
_cell_volume 2479.811652
_symmetry_space_group_name_H-M "P M N A"
_symmetry_group_IT_number 53
_symmetry_cell_setting 'orthorhombic'
loop_
_space_group_symop_operation_xyz
x,y,z
1/2-x,-y,1/2+z
x,-y,-z
1/2-x,y,1/2-z
-x,-y,-z
1/2+x,y,1/2-z
-x,y,z
1/2+x,-y,1/2+z
loop_
_atom_site_type_symbol
_atom_site_label
_atom_site_fract_x
_atom_site_fract_y
_atom_site_fract_z
Si Si1 0.828391 0.009021 0.837617
Si Si2 0.328634 0.150174 0.925299
Si Si3 0.827171 0.686171 0.336059
Si Si4 0.330540 0.662370 0.666133
Si Si5 0.667746 0.832080 0.592719
Si Si6 0.330440 0.595411 0.995397
O O1 0.750000 0.022355 0.750000
O O2 0.805287 0.917844 0.866050
O O3 0.000000 0.022727 0.830624
O O4 0.758784 0.070939 0.902041
O O5 0.500000 0.135001 0.925608
O O6 0.298030 0.221463 0.860256
O O7 0.274630 0.178801 0.015369
O O8 0.750000 0.664723 0.250000
O O9 0.782413 0.634227 0.416762
O O10 0.000000 0.676783 0.326436
O O11 0.250000 0.636295 0.750000
O O12 0.500000 0.642747 0.670754
O O13 0.316377 0.758208 0.655119
O O14 0.260410 0.625786 0.583081
O O15 0.500000 0.831333 0.562876
O O16 0.500000 0.618004 0.983736
O O17 0.321484 0.500000 0.000000
#
# Coordination Sequence:
#
# PCOD9419149 Si02
#       6
#     8   8   8   8   8   8
#     4  11  23  38  55  81 118 157 204 253 303 357
#     4  11  22  37  59  86 117 157 205 252 304 360
#     4  10  22  39  61  90 121 159 201 248 302 362
#     4  11  23  40  65  94 126 165 208 254 308 366
#     4  10  22  39  59  85 118 160 204 253 305 358
#     4  10  22  43  67  92 125 161 201 254 311 369
#
# _framework density 19.356307999999999
#
# number of rings (size 3 to 8) (size 9 to 14) (size 15 to 20)
#    0.000    1.500    1.667    3.000    0.000    8.333 
#    0.000    1.667    0.000    0.000    0.000    0.000 
#    0.000    0.000    0.000    0.000    0.000    0.000 
#
# Total GULP energy -268295.358180 kJ/mol
# GULP energy per Si atom -5589.486629 kJ/mol
# Density = 1.931225 g / cm^3
# Si number density = 19.356308 Si / 1000 Ang^3
#
#
#
# Elastic Constant Matrix: (Units=GPa)
#
#
# Indices 1 2 3 4 5 6 
#
# 1 83.1452 40.2375 71.8967 0.0000 0.0000 0.0000
# 2 40.2375 58.5800 21.3814 0.0000 0.0000 0.0000
# 3 71.8967 21.3814 122.7296 0.0000 0.0000 0.0000
# 4 0.0000 0.0000 0.0000 8.0234 0.0000 0.0000
# 5 0.0000 0.0000 0.0000 0.0000 40.3708 0.0000
# 6 0.0000 0.0000 0.0000 0.0000 0.0000 21.5238
#
#
#
# Elastic Compliance Matrix: (Units=1/GPa)
#
#
# Indices 1 2 3 4 5 6 
#
# 1 0.036999 -0.018692 -0.018418 0.000000 0.000000 0.000000
# 2 -0.018692 0.027673 0.006129 0.000000 0.000000 0.000000
# 3 -0.018418 0.006129 0.017870 0.000000 0.000000 0.000000
# 4 0.000000 0.000000 0.000000 0.124636 0.000000 0.000000
# 5 0.000000 0.000000 0.000000 0.000000 0.024770 0.000000
# 6 0.000000 0.000000 0.000000 0.000000 0.000000 0.046460
#
#
# Mechanical properties :
#
#
# Convention : Reuss Voigt Hill
#
# Bulk Modulus (GPa) = 48.59172 59.05400 53.82286
# Shear Modulus (GPa) = 14.39964 22.71287 18.55625
#
# Velocity S-wave (km/s) = 2.73046 3.42922 3.09959
# Velocity P-wave (km/s) = 5.92443 6.80107 6.37783
#
# Compressibility (1/GPa) = 0.02057964
#
# Stress axis : x y z
#
# Youngs Moduli (GPa) = 27.02747 36.13688 55.95965
#
# Poissons Ratio (x) = 0.67545 1.03069
# Poissons Ratio (y) = 0.50519 -0.34296
# Poissons Ratio (z) = 0.49780 -0.22148
#
# Static dielectric constant tensor:
#      x y z
#    x 1.649020 0.000000 0.000000 
#    y 0.000000 1.678180 0.000000 
#    z 0.000000 0.000000 1.653930 
# 
# From -- ./inp_files/20133.got.cif
#   From: 2010.05.17/outbox.cif.g08.bks.cpg/sg53_11_cif.got.tgz:20133.got - 2010.06.03 12:45:16.
