data_PCOD9419822
_publ_section_title
;
Structure prediction by ZEFSAII (Michael W. Deem and Ramdas Pophale) SiO2 
 PCOD9419822
Probable space group: P M N A
;
_chemical_formula_sum "Si O2"
_cell_formula_units_Z 64
_cell_length_a 9.044233
_cell_length_b 17.807999
_cell_length_c 20.340601
_cell_angle_alpha 90.000000
_cell_angle_beta 90.000000
_cell_angle_gamma 90.000000
_cell_volume 3276.050937
_symmetry_space_group_name_H-M "P M N A"
_symmetry_group_IT_number 53
_symmetry_cell_setting 'orthorhombic'
loop_
_space_group_symop_operation_xyz
x,y,z
1/2-x,-y,1/2+z
x,-y,-z
1/2-x,y,1/2-z
-x,-y,-z
1/2+x,y,1/2-z
-x,y,z
1/2+x,-y,1/2+z
loop_
_atom_site_type_symbol
_atom_site_label
_atom_site_fract_x
_atom_site_fract_y
_atom_site_fract_z
Si Si1 0.831599 0.452957 0.314001
Si Si2 0.180077 0.922288 0.963946
Si Si3 0.831783 0.715097 0.650193
Si Si4 0.832718 0.653139 0.973687
Si Si5 0.677371 0.130949 0.318563
Si Si6 0.679471 0.299060 0.678748
Si Si7 0.333021 0.201121 0.564948
Si Si8 0.822896 0.444511 0.909044
O O1 0.750000 0.483544 0.250000
O O2 0.830472 0.362730 0.310113
O O3 0.750101 0.481958 0.378904
O O4 0.000000 0.478579 0.315408
O O5 0.225201 0.908992 0.887652
O O6 0.000000 0.917095 0.961539
O O7 0.235682 0.857352 0.013669
O O8 0.218398 0.000000 0.000000
O O9 0.776938 0.685199 0.579996
O O10 0.725946 0.781832 0.673217
O O11 0.000000 0.743761 0.649075
O O12 0.000000 0.639633 0.947131
O O13 0.846930 0.721204 0.025442
O O14 0.782155 0.583442 0.018166
O O15 0.750000 0.103596 0.250000
O O16 0.500000 0.126110 0.313393
O O17 0.750000 0.298008 0.750000
O O18 0.500000 0.295721 0.681826
O O19 0.732728 0.228386 0.634063
O O20 0.716723 0.376504 0.640888
O O21 0.500000 0.172624 0.578955
O O22 0.000000 0.452313 0.909192
#
# Coordination Sequence:
#
# PCOD9419822 Si02
#       8
#     8   8   8   8   8   8   8   8
#     4  11  24  38  51  70 101 140 184 235 289 344
#     4   9  17  32  59  90 113 143 187 225 265 325
#     4  11  23  37  55  81 111 145 187 235 287 339
#     4   9  17  33  56  80 105 140 184 228 278 334
#     4  11  22  38  62  89 118 151 190 236 280 333
#     4   9  17  29  48  73 103 137 178 227 273 322
#     4   8  14  29  51  76 106 139 179 223 263 315
#     4   9  19  34  53  75 102 140 185 232 284 340
#
# _framework density 19.535717000000002
#
# number of rings (size 3 to 8) (size 9 to 14) (size 15 to 20)
#    0.000    2.375    1.250    3.375    0.000    5.500 
#    0.000    5.000    0.000    1.500    0.000    0.000 
#    0.000    0.000    0.000    0.000    0.000    0.000 
#
# Total GULP energy -356713.408316 kJ/mol
# GULP energy per Si atom -5573.647005 kJ/mol
# Density = 1.949125 g / cm^3
# Si number density = 19.535717 Si / 1000 Ang^3
#
#
#
# Elastic Constant Matrix: (Units=GPa)
#
#
# Indices 1 2 3 4 5 6 
#
# 1 37.0645 5.4465 35.9554 0.0000 0.0000 0.0000
# 2 5.4465 76.0468 33.9667 0.0000 0.0000 0.0000
# 3 35.9554 33.9667 125.7804 0.0000 0.0000 0.0000
# 4 0.0000 0.0000 0.0000 14.5038 0.0000 0.0000
# 5 0.0000 0.0000 0.0000 0.0000 25.3080 0.0000
# 6 0.0000 0.0000 0.0000 0.0000 0.0000 15.2059
#
#
#
# Elastic Compliance Matrix: (Units=1/GPa)
#
#
# Indices 1 2 3 4 5 6 
#
# 1 0.037715 0.002404 -0.011430 0.000000 0.000000 0.000000
# 2 0.002404 0.015107 -0.004767 0.000000 0.000000 0.000000
# 3 -0.011430 -0.004767 0.012505 0.000000 0.000000 0.000000
# 4 0.000000 0.000000 0.000000 0.068947 0.000000 0.000000
# 5 0.000000 0.000000 0.000000 0.000000 0.039513 0.000000
# 6 0.000000 0.000000 0.000000 0.000000 0.000000 0.065764
#
#
# Mechanical properties :
#
#
# Convention : Reuss Voigt Hill
#
# Bulk Modulus (GPa) = 26.49634 43.29209 34.89421
# Shear Modulus (GPa) = 17.87515 21.90509 19.89012
#
# Velocity S-wave (km/s) = 3.02818 3.35219 3.19429
# Velocity P-wave (km/s) = 5.08123 6.09848 5.61295
#
# Compressibility (1/GPa) = 0.03774107
#
# Stress axis : x y z
#
# Youngs Moduli (GPa) = 26.51453 66.19563 79.96715
#
# Poissons Ratio (x) = -0.15916 0.91406
# Poissons Ratio (y) = -0.06375 0.38119
# Poissons Ratio (z) = 0.30307 0.31554
#
# Static dielectric constant tensor:
#      x y z
#    x 1.676950 0.000000 0.000000 
#    y 0.000000 1.719380 0.000000 
#    z 0.000000 0.000000 1.725310 
# 
# From -- ./inp_files/31159.got.cif
#   From: 2010.05.17/outbox.cif.g08.bks.cpg/sg53_16_cif.got.tgz:31159.got - 2010.06.03 12:45:16.
