data_PCOD9419720
_publ_section_title
;
Structure prediction by ZEFSAII (Michael W. Deem and Ramdas Pophale) SiO2 
 PCOD9419720
Probable space group: P M N A
;
_chemical_formula_sum "Si O2"
_cell_formula_units_Z 32
_cell_length_a 17.755467
_cell_length_b 8.538649
_cell_length_c 10.826300
_cell_angle_alpha 90.000000
_cell_angle_beta 90.000000
_cell_angle_gamma 90.000000
_cell_volume 1641.350448
_symmetry_space_group_name_H-M "P M N A"
_symmetry_group_IT_number 53
_symmetry_cell_setting 'orthorhombic'
loop_
_space_group_symop_operation_xyz
x,y,z
1/2-x,-y,1/2+z
x,-y,-z
1/2-x,y,1/2-z
-x,-y,-z
1/2+x,y,1/2-z
-x,y,z
1/2+x,-y,1/2+z
loop_
_atom_site_type_symbol
_atom_site_label
_atom_site_fract_x
_atom_site_fract_y
_atom_site_fract_z
Si Si1 0.913565 0.564916 0.799065
Si Si2 0.297530 0.443317 0.868527
Si Si3 0.758898 0.904547 0.117370
Si Si4 0.911358 0.751153 0.034862
O O1 0.875287 0.524360 0.669143
O O2 0.908821 0.404642 0.879734
O O3 0.000000 0.601308 0.777044
O O4 0.887600 0.699170 0.895747
O O5 0.250000 0.496032 0.750000
O O6 0.289213 0.256197 0.871386
O O7 0.269086 0.500000 0.000000
O O8 0.750000 0.986085 0.250000
O O9 0.846542 0.861029 0.090479
O O10 0.731528 0.000000 0.000000
O O11 0.000000 0.802300 0.034512
#
# Coordination Sequence:
#
# PCOD9419720 Si02
#       4
#     8   8   8   8
#     4   9  17  32  59  88 109 133 178 235 280 324
#     4  11  21  35  57  82 112 146 183 225 279 332
#     4  11  23  37  53  79 114 148 186 225 276 325
#     4   9  17  34  60  84 106 138 187 236 274 322
#
# _framework density 19.496141000000001
#
# number of rings (size 3 to 8) (size 9 to 14) (size 15 to 20)
#    0.000    2.000    5.000    3.000    0.000    4.000 
#    0.000    0.000    0.000    3.000    0.000    0.000 
#    0.000    0.000    0.000    0.000    0.000    0.000 
#
# Total GULP energy -178200.410518 kJ/mol
# GULP energy per Si atom -5568.762829 kJ/mol
# Density = 1.945177 g / cm^3
# Si number density = 19.496141 Si / 1000 Ang^3
#
#
#
# Elastic Constant Matrix: (Units=GPa)
#
#
# Indices 1 2 3 4 5 6 
#
# 1 72.6339 14.1368 37.6282 0.0000 0.0000 0.0000
# 2 14.1368 16.1328 35.0088 0.0000 0.0000 0.0000
# 3 37.6282 35.0088 155.3481 0.0000 0.0000 0.0000
# 4 0.0000 0.0000 0.0000 34.0985 0.0000 0.0000
# 5 0.0000 0.0000 0.0000 0.0000 30.6528 0.0000
# 6 0.0000 0.0000 0.0000 0.0000 0.0000 2.6615
#
#
#
# Elastic Compliance Matrix: (Units=1/GPa)
#
#
# Indices 1 2 3 4 5 6 
#
# 1 0.016768 -0.011507 -0.001468 0.000000 0.000000 0.000000
# 2 -0.011507 0.129207 -0.026330 0.000000 0.000000 0.000000
# 3 -0.001468 -0.026330 0.012727 0.000000 0.000000 0.000000
# 4 0.000000 0.000000 0.000000 0.029327 0.000000 0.000000
# 5 0.000000 0.000000 0.000000 0.000000 0.032623 0.000000
# 6 0.000000 0.000000 0.000000 0.000000 0.000000 0.375721
#
#
# Mechanical properties :
#
#
# Convention : Reuss Voigt Hill
#
# Bulk Modulus (GPa) = 12.48602 46.40694 29.44648
# Shear Modulus (GPa) = 7.12575 23.97199 15.54887
#
# Velocity S-wave (km/s) = 1.91387 3.51034 2.82713
# Velocity P-wave (km/s) = 3.36186 6.34703 5.07872
#
# Compressibility (1/GPa) = 0.08008960
#
# Stress axis : x y z
#
# Youngs Moduli (GPa) = 59.63754 7.73954 78.57587
#
# Poissons Ratio (x) = 0.08906 0.11537
# Poissons Ratio (y) = 0.68625 2.06893
# Poissons Ratio (z) = 0.08757 0.20379
#
# Static dielectric constant tensor:
#      x y z
#    x 1.832320 0.000000 0.000000 
#    y 0.000000 1.714790 0.000000 
#    z 0.000000 0.000000 1.734880 
# 
# From -- ./inp_files/10454.got.cif
#   From: 2010.05.17/outbox.cif.g08.bks.cpg/sg53_6_cif.got.tgz:10454.got - 2010.06.03 12:45:16.
