data_PCOD9419152
_publ_section_title
;
Structure prediction by ZEFSAII (Michael W. Deem and Ramdas Pophale) SiO2 
 PCOD9419152
Probable space group: P M N A
;
_chemical_formula_sum "Si O2"
_cell_formula_units_Z 48
_cell_length_a 14.093676
_cell_length_b 11.254677
_cell_length_c 11.623922
_cell_angle_alpha 90.000000
_cell_angle_beta 90.000000
_cell_angle_gamma 90.000000
_cell_volume 1843.783847
_symmetry_space_group_name_H-M "P M N A"
_symmetry_group_IT_number 53
_symmetry_cell_setting 'orthorhombic'
loop_
_space_group_symop_operation_xyz
x,y,z
1/2-x,-y,1/2+z
x,-y,-z
1/2-x,y,1/2-z
-x,-y,-z
1/2+x,y,1/2-z
-x,y,z
1/2+x,-y,1/2+z
loop_
_atom_site_type_symbol
_atom_site_label
_atom_site_fract_x
_atom_site_fract_y
_atom_site_fract_z
Si Si1 0.614388 0.895182 0.587569
Si Si2 0.615022 0.727890 0.191781
Si Si3 0.356196 0.663591 0.713116
Si Si4 0.384341 0.003977 0.164126
Si Si5 0.106593 0.427482 0.894781
Si Si6 0.391799 0.770782 0.956522
O O1 0.500000 0.889386 0.575665
O O2 0.642768 0.755576 0.604064
O O3 0.641239 0.943870 0.712211
O O4 0.644548 0.000000 0.500000
O O5 0.500000 0.713551 0.206905
O O6 0.651485 0.673062 0.312225
O O7 0.640509 0.866261 0.175050
O O8 0.643413 0.687755 0.061469
O O9 0.250000 0.639747 0.750000
O O10 0.403181 0.538818 0.690245
O O11 0.397281 0.717414 0.829923
O O12 0.500000 0.007561 0.155727
O O13 0.346692 0.099590 0.070707
O O14 0.000000 0.389339 0.934221
O O15 0.155010 0.500000 0.000000
O O16 0.500000 0.796216 0.992093
#
# Coordination Sequence:
#
# PCOD9419152 Si02
#       6
#     8   8   8   8   8   8
#     4   9  18  33  60  89 113 148 196 248 298 357
#     4   9  17  30  54  88 116 144 184 238 298 351
#     4  11  23  40  56  81 119 160 195 248 309 374
#     4   8  14  26  49  85 118 138 172 234 298 348
#     4  10  22  39  60  85 116 156 208 261 304 359
#     4   9  17  33  58  85 112 146 192 243 297 360
#
# _framework density 26.033421000000001
#
# number of rings (size 3 to 8) (size 9 to 14) (size 15 to 20)
#    0.000    2.667    0.000    3.000    2.333    2.667 
#    3.000    5.833    0.000    4.000    0.000    0.000 
#    0.000    0.000    0.000    0.000    0.000    0.000 
#
# Total GULP energy -267350.998750 kJ/mol
# GULP energy per Si atom -5569.812474 kJ/mol
# Density = 2.597417 g / cm^3
# Si number density = 26.033421 Si / 1000 Ang^3
#
#
#
# Elastic Constant Matrix: (Units=GPa)
#
#
# Indices 1 2 3 4 5 6 
#
# 1 82.0179 -0.1016 6.7296 0.0000 0.0000 0.0000
# 2 -0.1016 82.1028 34.8861 0.0000 0.0000 0.0000
# 3 6.7296 34.8861 148.7019 0.0000 0.0000 0.0000
# 4 0.0000 0.0000 0.0000 69.8691 0.0000 0.0000
# 5 0.0000 0.0000 0.0000 0.0000 19.9259 0.0000
# 6 0.0000 0.0000 0.0000 0.0000 0.0000 23.0485
#
#
#
# Elastic Compliance Matrix: (Units=1/GPa)
#
#
# Indices 1 2 3 4 5 6 
#
# 1 0.012244 0.000278 -0.000619 0.000000 0.000000 0.000000
# 2 0.000278 0.013535 -0.003188 0.000000 0.000000 0.000000
# 3 -0.000619 -0.003188 0.007501 0.000000 0.000000 0.000000
# 4 0.000000 0.000000 0.000000 0.014312 0.000000 0.000000
# 5 0.000000 0.000000 0.000000 0.000000 0.050186 0.000000
# 6 0.000000 0.000000 0.000000 0.000000 0.000000 0.043387
#
#
# Mechanical properties :
#
#
# Convention : Reuss Voigt Hill
#
# Bulk Modulus (GPa) = 38.13701 43.98343 41.06022
# Shear Modulus (GPa) = 31.85470 40.65593 36.25532
#
# Velocity S-wave (km/s) = 3.50181 3.95610 3.73586
# Velocity P-wave (km/s) = 5.57057 6.14811 5.86645
#
# Compressibility (1/GPa) = 0.02622124
#
# Stress axis : x y z
#
# Youngs Moduli (GPa) = 81.67513 73.88379 133.31923
#
# Poissons Ratio (x) = -0.02056 0.08258
# Poissons Ratio (y) = -0.02273 0.42501
# Poissons Ratio (z) = 0.05059 0.23554
#
# Static dielectric constant tensor:
#      x y z
#    x 1.796380 0.000000 0.000000 
#    y 0.000000 2.114120 0.000000 
#    z 0.000000 0.000000 2.174080 
# 
# From -- ./inp_files/16935.got.cif
#   From: 2010.05.17/outbox.cif.g08.bks.cpg/sg53_9_cif.got.tgz:16935.got - 2010.06.03 12:45:16.
