data_PCOD9419665
_publ_section_title
;
Structure prediction by ZEFSAII (Michael W. Deem and Ramdas Pophale) SiO2 
 PCOD9419665
Probable space group: P M N A
;
_chemical_formula_sum "Si O2"
_cell_formula_units_Z 40
_cell_length_a 16.313675
_cell_length_b 9.452848
_cell_length_c 10.674749
_cell_angle_alpha 90.000000
_cell_angle_beta 90.000000
_cell_angle_gamma 90.000000
_cell_volume 1646.160410
_symmetry_space_group_name_H-M "P M N A"
_symmetry_group_IT_number 53
_symmetry_cell_setting 'orthorhombic'
loop_
_space_group_symop_operation_xyz
x,y,z
1/2-x,-y,1/2+z
x,-y,-z
1/2-x,y,1/2-z
-x,-y,-z
1/2+x,y,1/2-z
-x,y,z
1/2+x,-y,1/2+z
loop_
_atom_site_type_symbol
_atom_site_label
_atom_site_fract_x
_atom_site_fract_y
_atom_site_fract_z
Si Si1 0.588693 0.993599 0.148818
Si Si2 0.258992 0.196191 0.119389
Si Si3 0.592153 0.472251 0.702139
Si Si4 0.680192 0.719562 0.150116
Si Si5 0.907373 0.743443 0.970520
O O1 0.500000 0.041052 0.203554
O O2 0.673941 0.079381 0.163847
O O3 0.607707 0.831178 0.178427
O O4 0.579697 0.000000 0.000000
O O5 0.250000 0.279808 0.250000
O O6 0.168225 0.155696 0.066108
O O7 0.295753 0.267112 0.994688
O O8 0.500000 0.452754 0.747583
O O9 0.652334 0.436719 0.813889
O O10 0.607911 0.354304 0.593314
O O11 0.594724 0.624403 0.638309
O O12 0.750000 0.759175 0.250000
O O13 0.000000 0.801771 0.979820
#
# Coordination Sequence:
#
# PCOD9419665 Si02
#       5
#     8   8   8   8   8
#     4   9  20  38  61  88 124 169 216 274 328 373
#     4  11  23  39  58  90 131 173 208 261 330 382
#     4   9  18  36  63  92 122 160 210 267 325 380
#     4  11  20  36  63  91 122 161 225 265 310 384
#     4   9  19  38  61  91 130 164 202 260 330 389
#
# _framework density 24.298969
#
# number of rings (size 3 to 8) (size 9 to 14) (size 15 to 20)
#    0.000    2.200    2.000    2.400    0.000    2.400 
#    0.000    0.000    0.000    9.000    0.000    0.000 
#    0.000    0.000    0.000    0.000    0.000    0.000 
#
# Total GULP energy -222904.499316 kJ/mol
# GULP energy per Si atom -5572.612483 kJ/mol
# Density = 2.424366 g / cm^3
# Si number density = 24.298969 Si / 1000 Ang^3
#
#
#
# Elastic Constant Matrix: (Units=GPa)
#
#
# Indices 1 2 3 4 5 6 
#
# 1 172.7410 37.9972 14.9449 0.0000 0.0000 0.0000
# 2 37.9972 57.1265 25.6142 0.0000 0.0000 0.0000
# 3 14.9449 25.6142 92.9636 0.0000 0.0000 0.0000
# 4 0.0000 0.0000 0.0000 27.2817 0.0000 0.0000
# 5 0.0000 0.0000 0.0000 0.0000 -6.9466 0.0000
# 6 0.0000 0.0000 0.0000 0.0000 0.0000 32.9189
#
#
#
# Elastic Compliance Matrix: (Units=1/GPa)
#
#
# Indices 1 2 3 4 5 6 
#
# 1 0.006784 -0.004590 0.000174 0.000000 0.000000 0.000000
# 2 -0.004590 0.023078 -0.005621 0.000000 0.000000 0.000000
# 3 0.000174 -0.005621 0.012278 0.000000 0.000000 0.000000
# 4 0.000000 0.000000 0.000000 0.036655 0.000000 0.000000
# 5 0.000000 0.000000 0.000000 0.000000 -0.143956 0.000000
# 6 0.000000 0.000000 0.000000 0.000000 0.000000 0.030378
#
#
# Mechanical properties :
#
#
# Convention : Reuss Voigt Hill
#
# Bulk Modulus (GPa) = 45.31871 53.32707 49.32289
# Shear Modulus (GPa) = -679.83979 26.93578 -326.45200
#
# Velocity S-wave (km/s) = -16.74481 3.33305 -11.60344
# Velocity P-wave (km/s) = 18.84571 6.06681 12.61655
#
# Compressibility (1/GPa) = 0.02206594
#
# Stress axis : x y z
#
# Youngs Moduli (GPa) = 147.41375 43.33063 81.44918
#
# Poissons Ratio (x) = 0.19890 -0.01419
# Poissons Ratio (y) = 0.67665 0.45781
# Poissons Ratio (z) = -0.02568 0.24355
#
# Static dielectric constant tensor:
#      x y z
#    x 2.067860 0.000000 0.000000 
#    y 0.000000 1.963640 0.000000 
#    z 0.000000 0.000000 1.924320 
# 
# From -- ./inp_files/15769.got.cif
#   From: 2010.05.17/outbox.cif.g08.bks.cpg/sg53_8_cif.got.tgz:15769.got - 2010.06.03 12:45:16.
