data_PCOD9419728
_publ_section_title
;
Structure prediction by ZEFSAII (Michael W. Deem and Ramdas Pophale) SiO2 
 PCOD9419728
Probable space group: P M N A
;
_chemical_formula_sum "Si O2"
_cell_formula_units_Z 40
_cell_length_a 15.867177
_cell_length_b 7.895609
_cell_length_c 14.500177
_cell_angle_alpha 90.000000
_cell_angle_beta 90.000000
_cell_angle_gamma 90.000000
_cell_volume 1816.597045
_symmetry_space_group_name_H-M "P M N A"
_symmetry_group_IT_number 53
_symmetry_cell_setting 'orthorhombic'
loop_
_space_group_symop_operation_xyz
x,y,z
1/2-x,-y,1/2+z
x,-y,-z
1/2-x,y,1/2-z
-x,-y,-z
1/2+x,y,1/2-z
-x,y,z
1/2+x,-y,1/2+z
loop_
_atom_site_type_symbol
_atom_site_label
_atom_site_fract_x
_atom_site_fract_y
_atom_site_fract_z
Si Si1 0.093876 0.332845 0.937161
Si Si2 0.771128 0.850447 0.946532
Si Si3 0.849165 0.733305 0.263059
Si Si4 0.594941 0.092973 0.283292
Si Si5 0.826650 0.392358 0.324833
O O1 0.115053 0.355211 0.830177
O O2 0.000000 0.262350 0.944326
O O3 0.097180 0.500000 0.000000
O O4 0.162570 0.210467 0.978124
O O5 0.713020 0.698149 0.913092
O O6 0.829999 0.901816 0.859139
O O7 0.723424 0.000000 0.000000
O O8 0.750000 0.769907 0.250000
O O9 0.893240 0.915294 0.270609
O O10 0.858206 0.583962 0.337668
O O11 0.500000 0.099510 0.322560
O O12 0.609577 0.257132 0.219754
O O13 0.750000 0.406858 0.250000
#
# Coordination Sequence:
#
# PCOD9419728 Si02
#       5
#     8   8   8   8   8
#     4  11  22  34  55  91 126 154 187 242 311 364
#     4  11  21  37  60  87 125 155 197 250 310 364
#     4  11  21  36  56  79 118 161 202 234 285 365
#     4  11  22  36  59  88 119 158 197 242 297 357
#     4   9  21  39  56  82 119 162 203 238 287 357
#
# _framework density 22.019193999999999
#
# number of rings (size 3 to 8) (size 9 to 14) (size 15 to 20)
#    0.000    1.400    2.000    6.600    0.000    4.000 
#    0.000    0.000    0.000    0.600    0.000    1.400 
#    0.000    0.000    0.000    0.000    0.000    0.000 
#
# Total GULP energy -223407.615871 kJ/mol
# GULP energy per Si atom -5585.190397 kJ/mol
# Density = 2.196908 g / cm^3
# Si number density = 22.019194 Si / 1000 Ang^3
#
#
#
# Elastic Constant Matrix: (Units=GPa)
#
#
# Indices 1 2 3 4 5 6 
#
# 1 31.6563 21.7293 10.2006 0.0000 0.0000 0.0000
# 2 21.7293 109.2091 6.2659 0.0000 0.0000 0.0000
# 3 10.2006 6.2659 22.6849 0.0000 0.0000 0.0000
# 4 0.0000 0.0000 0.0000 29.5299 0.0000 0.0000
# 5 0.0000 0.0000 0.0000 0.0000 18.9044 0.0000
# 6 0.0000 0.0000 0.0000 0.0000 0.0000 -8.6363
#
#
#
# Elastic Compliance Matrix: (Units=1/GPa)
#
#
# Indices 1 2 3 4 5 6 
#
# 1 0.042120 -0.007411 -0.016893 0.000000 0.000000 0.000000
# 2 -0.007411 0.010608 0.000402 0.000000 0.000000 0.000000
# 3 -0.016893 0.000402 0.051567 0.000000 0.000000 0.000000
# 4 0.000000 0.000000 0.000000 0.033864 0.000000 0.000000
# 5 0.000000 0.000000 0.000000 0.000000 0.052898 0.000000
# 6 0.000000 0.000000 0.000000 0.000000 0.000000 -0.115790
#
#
# Mechanical properties :
#
#
# Convention : Reuss Voigt Hill
#
# Bulk Modulus (GPa) = 17.70162 26.66023 22.18093
# Shear Modulus (GPa) = 35.23584 16.31654 25.77619
#
# Velocity S-wave (km/s) = 4.00463 2.72511 3.42515
# Velocity P-wave (km/s) = 5.42581 4.69421 5.07322
#
# Compressibility (1/GPa) = 0.05649199
#
# Stress axis : x y z
#
# Youngs Moduli (GPa) = 23.74179 94.26594 19.39225
#
# Poissons Ratio (x) = 0.69864 0.32759
# Poissons Ratio (y) = 0.17596 -0.00780
# Poissons Ratio (z) = 0.40106 -0.03794
#
# Static dielectric constant tensor:
#      x y z
#    x 1.804470 0.000000 0.000000 
#    y 0.000000 2.021760 0.000000 
#    z 0.000000 0.000000 1.832120 
# 
# From -- ./inp_files/22384.got.cif
#   From: 2010.05.17/outbox.cif.g08.bks.cpg/sg53_12_cif.got.tgz:22384.got - 2010.06.03 12:45:16.
