data_PCOD9419258
_publ_section_title
;
Structure prediction by ZEFSAII (Michael W. Deem and Ramdas Pophale) SiO2 
 PCOD9419258
Probable space group: P M N A
;
_chemical_formula_sum "Si O2"
_cell_formula_units_Z 40
_cell_length_a 15.218550
_cell_length_b 13.965783
_cell_length_c 9.473940
_cell_angle_alpha 90.000000
_cell_angle_beta 90.000000
_cell_angle_gamma 90.000000
_cell_volume 2013.581420
_symmetry_space_group_name_H-M "P M N A"
_symmetry_group_IT_number 53
_symmetry_cell_setting 'orthorhombic'
loop_
_space_group_symop_operation_xyz
x,y,z
1/2-x,-y,1/2+z
x,-y,-z
1/2-x,y,1/2-z
-x,-y,-z
1/2+x,y,1/2-z
-x,y,z
1/2+x,-y,1/2+z
loop_
_atom_site_type_symbol
_atom_site_label
_atom_site_fract_x
_atom_site_fract_y
_atom_site_fract_z
Si Si1 0.683046 0.434461 0.135647
Si Si2 0.765950 0.221116 0.408873
Si Si3 0.395669 0.900446 0.068151
Si Si4 0.000000 0.426513 0.206410
Si Si5 0.662311 0.217531 0.675324
Si Si6 0.000000 0.647128 0.108872
O O1 0.750000 0.479864 0.250000
O O2 0.730236 0.335950 0.090580
O O3 0.589657 0.409772 0.207147
O O4 0.669973 0.500000 0.000000
O O5 0.750000 0.188971 0.250000
O O6 0.857194 0.181947 0.468428
O O7 0.692172 0.187735 0.519047
O O8 0.500000 0.901190 0.068536
O O9 0.364235 0.871329 0.224784
O O10 0.363721 0.000000 0.000000
O O11 0.000000 0.539473 0.167796
O O12 0.000000 0.365830 0.061207
O O13 0.750000 0.259153 0.750000
O O14 0.584597 0.293892 0.661999
#
# Coordination Sequence:
#
# PCOD9419258 Si02
#       6
#     8   8   8   4   8   4
#     4  11  26  41  63  92 132 175 225 279 328 390
#     4  10  23  41  62  94 128 172 214 270 335 387
#     4  10  22  41  67  97 125 161 214 271 327 397
#     4  11  27  38  62  95 130 181 231 276 338 367
#     4  10  22  40  68  95 127 175 221 264 340 391
#     4  11  22  40  63  95 133 175 232 283 315 405
#
# _framework density 19.865100999999999
#
# number of rings (size 3 to 8) (size 9 to 14) (size 15 to 20)
#    0.000    1.600    1.000    2.700   12.600    2.400 
#    1.800    0.000    0.000    2.400    0.000    0.000 
#    0.000    0.000    0.000    0.000    0.000    0.000 
#
# Total GULP energy -223363.761233 kJ/mol
# GULP energy per Si atom -5584.094031 kJ/mol
# Density = 1.981989 g / cm^3
# Si number density = 19.865101 Si / 1000 Ang^3
#
#
#
# Elastic Constant Matrix: (Units=GPa)
#
#
# Indices 1 2 3 4 5 6 
#
# 1 111.8299 18.8805 44.1753 0.0000 0.0000 0.0000
# 2 18.8805 66.5862 47.3797 0.0000 0.0000 0.0000
# 3 44.1753 47.3797 152.6682 0.0000 0.0000 0.0000
# 4 0.0000 0.0000 0.0000 35.6205 0.0000 0.0000
# 5 0.0000 0.0000 0.0000 0.0000 24.2552 0.0000
# 6 0.0000 0.0000 0.0000 0.0000 0.0000 55.1588
#
#
#
# Elastic Compliance Matrix: (Units=1/GPa)
#
#
# Indices 1 2 3 4 5 6 
#
# 1 0.010149 -0.001012 -0.002623 0.000000 0.000000 0.000000
# 2 -0.001012 0.019375 -0.005720 0.000000 0.000000 0.000000
# 3 -0.002623 -0.005720 0.009084 0.000000 0.000000 0.000000
# 4 0.000000 0.000000 0.000000 0.028074 0.000000 0.000000
# 5 0.000000 0.000000 0.000000 0.000000 0.041228 0.000000
# 6 0.000000 0.000000 0.000000 0.000000 0.000000 0.018129
#
#
# Mechanical properties :
#
#
# Convention : Reuss Voigt Hill
#
# Bulk Modulus (GPa) = 50.25274 61.32835 55.79054
# Shear Modulus (GPa) = 33.02896 37.71682 35.37289
#
# Velocity S-wave (km/s) = 4.08200 4.36207 4.22436
# Velocity P-wave (km/s) = 6.89702 7.50398 7.20689
#
# Compressibility (1/GPa) = 0.01989941
#
# Stress axis : x y z
#
# Youngs Moduli (GPa) = 98.53223 51.61226 110.07980
#
# Poissons Ratio (x) = 0.05221 0.28871
# Poissons Ratio (y) = 0.09967 0.62969
# Poissons Ratio (z) = 0.25842 0.29524
#
# Static dielectric constant tensor:
#      x y z
#    x 1.695560 0.000000 0.000000 
#    y 0.000000 1.705040 0.000000 
#    z 0.000000 0.000000 1.732970 
# 
# From -- ./inp_files/8457.got.cif
#   From: 2010.05.17/outbox.cif.g08.bks.cpg/sg53_5_cif.got.tgz:8457.got - 2010.06.03 12:45:16.
