data_PCOD9419397
_publ_section_title
;
Structure prediction by ZEFSAII (Michael W. Deem and Ramdas Pophale) SiO2 
 PCOD9419397
Probable space group: P M N A
;
_chemical_formula_sum "Si O2"
_cell_formula_units_Z 34
_cell_length_a 24.332057
_cell_length_b 5.709333
_cell_length_c 11.325203
_cell_angle_alpha 90.000000
_cell_angle_beta 90.000000
_cell_angle_gamma 90.000000
_cell_volume 1573.295117
_symmetry_space_group_name_H-M "P M N A"
_symmetry_group_IT_number 53
_symmetry_cell_setting 'orthorhombic'
loop_
_space_group_symop_operation_xyz
x,y,z
1/2-x,-y,1/2+z
x,-y,-z
1/2-x,y,1/2-z
-x,-y,-z
1/2+x,y,1/2-z
-x,y,z
1/2+x,-y,1/2+z
loop_
_atom_site_type_symbol
_atom_site_label
_atom_site_fract_x
_atom_site_fract_y
_atom_site_fract_z
Si Si1 0.604111 0.466244 0.637893
Si Si2 0.000000 0.000000 0.500000
Si Si3 0.654509 0.500000 0.000000
Si Si4 0.905660 0.162356 0.322997
Si Si5 0.310317 0.792701 0.207580
Si Si6 0.500000 0.755621 0.428621
O O1 0.615701 0.500000 0.500000
O O2 0.580501 0.697377 0.702911
O O3 0.659316 0.386150 0.703105
O O4 0.556184 0.269689 0.645206
O O5 0.047690 0.029020 0.395837
O O6 0.614340 0.363208 0.087138
O O7 0.690492 0.672376 0.079350
O O8 0.852358 0.006175 0.299990
O O9 0.250000 0.856063 0.250000
O O10 0.500000 0.500000 0.500000
O O11 0.500000 0.000000 0.500000
#
# Coordination Sequence:
#
# PCOD9419397 Si02
#       6
#     8   2   4   8   8   4
#     4  10  25  45  69 105 145 192 241 307 385 459
#     4  12  22  44  78 106 146 188 240 318 380 468
#     4  10  22  49  62 102 142 179 250 304 386 462
#     4  11  24  45  70 107 142 189 250 308 389 458
#     4  11  25  44  73 100 140 193 247 316 374 462
#     4  10  23  43  70 102 149 190 241 303 370 469
#
# _framework density 21.610693999999999
#
# number of rings (size 3 to 8) (size 9 to 14) (size 15 to 20)
#    0.000    1.412    2.353    0.706    8.235    5.176 
#    4.235    0.000    0.000    0.000    0.000    0.000 
#    0.000    0.000    0.000    0.000    0.000    0.000 
#
# Total GULP energy -189361.530537 kJ/mol
# GULP energy per Si atom -5569.456781 kJ/mol
# Density = 2.156151 g / cm^3
# Si number density = 21.610694 Si / 1000 Ang^3
#
#
#
# Elastic Constant Matrix: (Units=GPa)
#
#
# Indices 1 2 3 4 5 6 
#
# 1 146.4959 28.3621 35.5241 0.0000 0.0000 0.0000
# 2 28.3621 83.2459 42.1511 0.0000 0.0000 0.0000
# 3 35.5241 42.1511 148.9666 0.0000 0.0000 0.0000
# 4 0.0000 0.0000 0.0000 41.0946 0.0000 0.0000
# 5 0.0000 0.0000 0.0000 0.0000 -888.1018 0.0000
# 6 0.0000 0.0000 0.0000 0.0000 0.0000 -26.1920
#
#
#
# Elastic Compliance Matrix: (Units=1/GPa)
#
#
# Indices 1 2 3 4 5 6 
#
# 1 0.007501 -0.001926 -0.001244 0.000000 0.000000 0.000000
# 2 -0.001926 0.014516 -0.003648 0.000000 0.000000 0.000000
# 3 -0.001244 -0.003648 0.008042 0.000000 0.000000 0.000000
# 4 0.000000 0.000000 0.000000 0.024334 0.000000 0.000000
# 5 0.000000 0.000000 0.000000 0.000000 -0.001126 0.000000
# 6 0.000000 0.000000 0.000000 0.000000 0.000000 -0.038180
#
#
# Mechanical properties :
#
#
# Convention : Reuss Voigt Hill
#
# Bulk Modulus (GPa) = 60.89010 65.64255 63.26632
# Shear Modulus (GPa) = 146.21489 -156.46175 -5.12343
#
# Velocity S-wave (km/s) = 8.23441 -8.51806 -1.54141
# Velocity P-wave (km/s) = 10.89240 8.14261 5.11577
#
# Compressibility (1/GPa) = 0.01642303
#
# Stress axis : x y z
#
# Youngs Moduli (GPa) = 133.32345 68.88991 124.35040
#
# Poissons Ratio (x) = 0.13266 0.15466
# Poissons Ratio (y) = 0.25674 0.45365
# Poissons Ratio (z) = 0.16582 0.25132
#
# Static dielectric constant tensor:
#      x y z
#    x 1.761470 0.000000 0.000000 
#    y 0.000000 1.874850 0.000000 
#    z 0.000000 0.000000 1.870720 
# 
# From -- ./inp_files/18137.got.cif
#   From: 2010.05.17/outbox.cif.g08.bks.cpg/sg53_10_cif.got.tgz:18137.got - 2010.06.03 12:45:16.
