data_PCOD9419821
_publ_section_title
;
Structure prediction by ZEFSAII (Michael W. Deem and Ramdas Pophale) SiO2 
 PCOD9419821
Probable space group: P M N A
;
_chemical_formula_sum "Si O2"
_cell_formula_units_Z 40
_cell_length_a 8.525958
_cell_length_b 12.768610
_cell_length_c 18.596423
_cell_angle_alpha 90.000000
_cell_angle_beta 90.000000
_cell_angle_gamma 90.000000
_cell_volume 2024.492757
_symmetry_space_group_name_H-M "P M N A"
_symmetry_group_IT_number 53
_symmetry_cell_setting 'orthorhombic'
loop_
_space_group_symop_operation_xyz
x,y,z
1/2-x,-y,1/2+z
x,-y,-z
1/2-x,y,1/2-z
-x,-y,-z
1/2+x,y,1/2-z
-x,y,z
1/2+x,-y,1/2+z
loop_
_atom_site_type_symbol
_atom_site_label
_atom_site_fract_x
_atom_site_fract_y
_atom_site_fract_z
Si Si1 0.688784 0.346241 0.830378
Si Si2 0.312363 0.782697 0.913218
Si Si3 0.690805 0.456231 0.077698
Si Si4 0.811792 0.160596 0.930995
Si Si5 0.812763 0.972189 0.828442
O O1 0.750000 0.331488 0.750000
O O2 0.500000 0.338018 0.832043
O O3 0.734872 0.459990 0.861711
O O4 0.759546 0.259048 0.883005
O O5 0.500000 0.782738 0.908477
O O6 0.255688 0.662292 0.909286
O O7 0.244806 0.858202 0.852426
O O8 0.261667 0.827846 0.990526
O O9 0.500000 0.453456 0.075375
O O10 0.743061 0.500000 0.000000
O O11 0.000000 0.158448 0.938146
O O12 0.760703 0.056623 0.888173
O O13 0.750000 0.000970 0.750000
O O14 0.000000 0.973909 0.826593
#
# Coordination Sequence:
#
# PCOD9419821 Si02
#       5
#     8   8   8   8   8
#     4  11  22  38  61  89 123 158 200 250 306 363
#     4  11  22  39  66  93 121 160 203 248 302 363
#     4   9  18  37  61  87 119 157 198 244 294 352
#     4  11  23  40  62  90 123 159 203 253 302 356
#     4  11  25  43  61  86 123 161 202 253 305 360
#
# _framework density 19.758036000000001
#
# number of rings (size 3 to 8) (size 9 to 14) (size 15 to 20)
#    0.000    1.400    2.000    3.600    0.000    8.000 
#    0.000    7.000    0.000    0.000    0.000    0.000 
#    0.000    0.000    0.000    0.000    0.000    0.000 
#
# Total GULP energy -223657.914099 kJ/mol
# GULP energy per Si atom -5591.447852 kJ/mol
# Density = 1.971307 g / cm^3
# Si number density = 19.758036 Si / 1000 Ang^3
#
#
#
# Elastic Constant Matrix: (Units=GPa)
#
#
# Indices 1 2 3 4 5 6 
#
# 1 21.0358 7.0438 -8.1454 0.0000 0.0000 0.0000
# 2 7.0438 98.6928 -15.2778 0.0000 0.0000 0.0000
# 3 -8.1454 -15.2778 29.2941 0.0000 0.0000 0.0000
# 4 0.0000 0.0000 0.0000 22.9640 0.0000 0.0000
# 5 0.0000 0.0000 0.0000 0.0000 23.0350 0.0000
# 6 0.0000 0.0000 0.0000 0.0000 0.0000 21.0499
#
#
#
# Elastic Compliance Matrix: (Units=1/GPa)
#
#
# Indices 1 2 3 4 5 6 
#
# 1 0.053520 -0.001649 0.014021 0.000000 0.000000 0.000000
# 2 -0.001649 0.011073 0.005316 0.000000 0.000000 0.000000
# 3 0.014021 0.005316 0.040808 0.000000 0.000000 0.000000
# 4 0.000000 0.000000 0.000000 0.043546 0.000000 0.000000
# 5 0.000000 0.000000 0.000000 0.000000 0.043412 0.000000
# 6 0.000000 0.000000 0.000000 0.000000 0.000000 0.047506
#
#
# Mechanical properties :
#
#
# Convention : Reuss Voigt Hill
#
# Bulk Modulus (GPa) = 7.10338 12.91819 10.01079
# Shear Modulus (GPa) = 19.88750 24.43660 22.16205
#
# Velocity S-wave (km/s) = 3.17606 3.52062 3.35277
# Velocity P-wave (km/s) = 4.12951 4.80404 4.47949
#
# Compressibility (1/GPa) = 0.14077814
#
# Stress axis : x y z
#
# Youngs Moduli (GPa) = 18.68475 90.30856 24.50495
#
# Poissons Ratio (x) = 0.14894 -0.34359
# Poissons Ratio (y) = 0.03081 -0.13028
# Poissons Ratio (z) = -0.26199 -0.48012
#
# Static dielectric constant tensor:
#      x y z
#    x 1.671550 0.000000 0.000000 
#    y 0.000000 1.700770 0.000000 
#    z 0.000000 0.000000 1.663270 
# 
# From -- ./inp_files/25813.got.cif
#   From: 2010.05.17/outbox.cif.g08.bks.cpg/sg53_13_cif.got.tgz:25813.got - 2010.06.03 12:45:16.
