data_PCOD9419538
_publ_section_title
;
Structure prediction by ZEFSAII (Michael W. Deem and Ramdas Pophale) SiO2 
 PCOD9419538
Probable space group: P M N A
;
_chemical_formula_sum "Si O2"
_cell_formula_units_Z 30
_cell_length_a 15.800771
_cell_length_b 5.014626
_cell_length_c 15.405420
_cell_angle_alpha 90.000000
_cell_angle_beta 90.000000
_cell_angle_gamma 90.000000
_cell_volume 1220.647792
_symmetry_space_group_name_H-M "P M N A"
_symmetry_group_IT_number 53
_symmetry_cell_setting 'orthorhombic'
loop_
_space_group_symop_operation_xyz
x,y,z
1/2-x,-y,1/2+z
x,-y,-z
1/2-x,y,1/2-z
-x,-y,-z
1/2+x,y,1/2-z
-x,y,z
1/2+x,-y,1/2+z
loop_
_atom_site_type_symbol
_atom_site_label
_atom_site_fract_x
_atom_site_fract_y
_atom_site_fract_z
Si Si1 0.398191 0.744461 0.558028
Si Si2 0.500000 0.000000 0.000000
Si Si3 0.366257 0.500000 0.000000
Si Si4 0.403138 0.804942 0.752912
Si Si5 0.176948 0.315104 0.679714
O O1 0.368743 0.500000 0.500000
O O2 0.500000 0.706029 0.570207
O O3 0.366826 0.796305 0.655253
O O4 0.383803 0.000000 0.500000
O O5 0.426342 0.761677 0.989061
O O6 0.309797 0.421158 0.916713
O O7 0.500000 0.899089 0.752750
O O8 0.398823 0.505765 0.787652
O O9 0.350864 0.009678 0.811392
O O10 0.250000 0.360131 0.750000
#
# Coordination Sequence:
#
# PCOD9419538 Si02
#       5
#     8   2   4   8   8
#     4   9  17  33  57  90 131 169 217 276 336 406
#     4  10  24  42  80 118 136 184 256 330 368 446
#     4  11  26  46  76 108 149 192 250 312 391 440
#     4  11  24  42  71 106 139 187 247 308 372 446
#     4  12  27  47  69 106 149 194 243 307 387 463
#
# _framework density 24.577112
#
# number of rings (size 3 to 8) (size 9 to 14) (size 15 to 20)
#    0.000    1.333    0.000    4.800   11.200    4.267 
#    7.200    0.000    0.000    0.000    0.000    0.000 
#    0.000    0.000    0.000    0.000    0.000    0.000 
#
# Total GULP energy -167295.391857 kJ/mol
# GULP energy per Si atom -5576.513062 kJ/mol
# Density = 2.452117 g / cm^3
# Si number density = 24.577112 Si / 1000 Ang^3
#
#
#
# Elastic Constant Matrix: (Units=GPa)
#
#
# Indices 1 2 3 4 5 6 
#
# 1 102.1160 15.7686 46.6140 0.0000 0.0000 0.0000
# 2 15.7686 188.1760 11.1325 0.0000 0.0000 0.0000
# 3 46.6140 11.1325 135.6443 0.0000 0.0000 0.0000
# 4 0.0000 0.0000 0.0000 41.2490 0.0000 0.0000
# 5 0.0000 0.0000 0.0000 0.0000 13.6480 0.0000
# 6 0.0000 0.0000 0.0000 0.0000 0.0000 13.0351
#
#
#
# Elastic Compliance Matrix: (Units=1/GPa)
#
#
# Indices 1 2 3 4 5 6 
#
# 1 0.011718 -0.000747 -0.003966 0.000000 0.000000 0.000000
# 2 -0.000747 0.005388 -0.000185 0.000000 0.000000 0.000000
# 3 -0.003966 -0.000185 0.008750 0.000000 0.000000 0.000000
# 4 0.000000 0.000000 0.000000 0.024243 0.000000 0.000000
# 5 0.000000 0.000000 0.000000 0.000000 0.073271 0.000000
# 6 0.000000 0.000000 0.000000 0.000000 0.000000 0.076716
#
#
# Mechanical properties :
#
#
# Convention : Reuss Voigt Hill
#
# Bulk Modulus (GPa) = 62.26789 63.66295 62.96542
# Shear Modulus (GPa) = 23.23031 37.08116 30.15574
#
# Velocity S-wave (km/s) = 3.07775 3.88850 3.50663
# Velocity P-wave (km/s) = 6.16610 6.79118 6.48617
#
# Compressibility (1/GPa) = 0.01605964
#
# Stress axis : x y z
#
# Youngs Moduli (GPa) = 85.33548 185.60565 114.28249
#
# Poissons Ratio (x) = 0.13872 0.45321
# Poissons Ratio (y) = 0.06378 0.02118
# Poissons Ratio (z) = 0.33841 0.03440
#
# Static dielectric constant tensor:
#      x y z
#    x 2.011090 0.000000 0.000000 
#    y 0.000000 1.848830 0.000000 
#    z 0.000000 0.000000 2.013470 
# 
# From -- ./inp_files/23191.got.cif
#   From: 2010.05.17/outbox.cif.g08.bks.cpg/sg53_12_cif.got.tgz:23191.got - 2010.06.03 12:45:16.
