data_PCOD9419716
_publ_section_title
;
Structure prediction by ZEFSAII (Michael W. Deem and Ramdas Pophale) SiO2 
 PCOD9419716
Probable space group: P M N A
;
_chemical_formula_sum "Si O2"
_cell_formula_units_Z 40
_cell_length_a 8.519110
_cell_length_b 19.013776
_cell_length_c 13.883098
_cell_angle_alpha 90.000000
_cell_angle_beta 90.000000
_cell_angle_gamma 90.000000
_cell_volume 2248.790451
_symmetry_space_group_name_H-M "P M N A"
_symmetry_group_IT_number 53
_symmetry_cell_setting 'orthorhombic'
loop_
_space_group_symop_operation_xyz
x,y,z
1/2-x,-y,1/2+z
x,-y,-z
1/2-x,y,1/2-z
-x,-y,-z
1/2+x,y,1/2-z
-x,y,z
1/2+x,-y,1/2+z
loop_
_atom_site_type_symbol
_atom_site_label
_atom_site_fract_x
_atom_site_fract_y
_atom_site_fract_z
Si Si1 0.687362 0.534828 0.356107
Si Si2 0.187316 0.395217 0.454734
Si Si3 0.691028 0.894004 0.553671
Si Si4 0.310814 0.040628 0.645520
Si Si5 0.310872 0.745396 0.641181
O O1 0.750000 0.550649 0.250000
O O2 0.500000 0.538164 0.358588
O O3 0.757119 0.586056 0.437539
O O4 0.741469 0.456614 0.387402
O O5 0.247060 0.320160 0.419261
O O6 0.000000 0.399189 0.449265
O O7 0.500000 0.894077 0.554295
O O8 0.739713 0.910339 0.443824
O O9 0.742654 0.819670 0.595676
O O10 0.740465 0.961091 0.617740
O O11 0.250000 0.060989 0.750000
O O12 0.500000 0.040933 0.647165
O O13 0.250000 0.740087 0.750000
O O14 0.500000 0.743541 0.641154
#
# Coordination Sequence:
#
# PCOD9419716 Si02
#       5
#     8   8   8   8   8
#     4  11  21  37  59  83 108 139 175 216 261 310
#     4  11  22  37  55  80 109 140 177 218 258 309
#     4   8  17  32  51  72 102 137 171 207 257 315
#     4   9  16  31  52  75  99 132 171 212 257 307
#     4  11  21  35  53  76 104 138 173 215 265 315
#
# _framework density 17.787341000000001
#
# number of rings (size 3 to 8) (size 9 to 14) (size 15 to 20)
#    0.000    2.000    0.000    7.800    0.000    0.000 
#    0.000    6.000    0.000    2.400    0.000    0.000 
#    0.000    0.000    0.000    0.000    0.000    0.000 
#
# Total GULP energy -223354.062136 kJ/mol
# GULP energy per Si atom -5583.851553 kJ/mol
# Density = 1.774686 g / cm^3
# Si number density = 17.787341 Si / 1000 Ang^3
#
#
#
# Elastic Constant Matrix: (Units=GPa)
#
#
# Indices 1 2 3 4 5 6 
#
# 1 57.0975 17.8902 10.1116 0.0000 0.0000 0.0000
# 2 17.8902 110.8046 49.4656 0.0000 0.0000 0.0000
# 3 10.1116 49.4656 117.5483 0.0000 0.0000 0.0000
# 4 0.0000 0.0000 0.0000 11.4799 0.0000 0.0000
# 5 0.0000 0.0000 0.0000 0.0000 33.9354 0.0000
# 6 0.0000 0.0000 0.0000 0.0000 0.0000 20.0939
#
#
#
# Elastic Compliance Matrix: (Units=1/GPa)
#
#
# Indices 1 2 3 4 5 6 
#
# 1 0.018463 -0.002798 -0.000411 0.000000 0.000000 0.000000
# 2 -0.002798 0.011536 -0.004614 0.000000 0.000000 0.000000
# 3 -0.000411 -0.004614 0.010484 0.000000 0.000000 0.000000
# 4 0.000000 0.000000 0.000000 0.087108 0.000000 0.000000
# 5 0.000000 0.000000 0.000000 0.000000 0.029468 0.000000
# 6 0.000000 0.000000 0.000000 0.000000 0.000000 0.049766
#
#
# Mechanical properties :
#
#
# Convention : Reuss Voigt Hill
#
# Bulk Modulus (GPa) = 40.25980 48.93169 44.59574
# Shear Modulus (GPa) = 21.66839 26.96738 24.31789
#
# Velocity S-wave (km/s) = 3.49405 3.89794 3.70150
# Velocity P-wave (km/s) = 6.24187 6.91575 6.58743
#
# Compressibility (1/GPa) = 0.02483868
#
# Stress axis : x y z
#
# Youngs Moduli (GPa) = 54.16169 86.68248 95.38255
#
# Poissons Ratio (x) = 0.24250 0.03920
# Poissons Ratio (y) = 0.15152 0.44009
# Poissons Ratio (z) = 0.02226 0.39995
#
# Static dielectric constant tensor:
#      x y z
#    x 1.606030 0.000000 0.000000 
#    y 0.000000 1.590950 0.000000 
#    z 0.000000 0.000000 1.590960 
# 
# From -- ./inp_files/13994.got.cif
#   From: 2010.05.17/outbox.cif.g08.bks.cpg/sg53_7_cif.got.tgz:13994.got - 2010.06.03 12:45:16.
