data_PCOD9419130
_publ_section_title
;
Structure prediction by ZEFSAII (Michael W. Deem and Ramdas Pophale) SiO2 
 PCOD9419130
Probable space group: P M N A
;
_chemical_formula_sum "Si O2"
_cell_formula_units_Z 36
_cell_length_a 15.242854
_cell_length_b 14.989707
_cell_length_c 7.734402
_cell_angle_alpha 90.000000
_cell_angle_beta 90.000000
_cell_angle_gamma 90.000000
_cell_volume 1767.201920
_symmetry_space_group_name_H-M "P M N A"
_symmetry_group_IT_number 53
_symmetry_cell_setting 'orthorhombic'
loop_
_space_group_symop_operation_xyz
x,y,z
1/2-x,-y,1/2+z
x,-y,-z
1/2-x,y,1/2-z
-x,-y,-z
1/2+x,y,1/2-z
-x,y,z
1/2+x,-y,1/2+z
loop_
_atom_site_type_symbol
_atom_site_label
_atom_site_fract_x
_atom_site_fract_y
_atom_site_fract_z
Si Si1 0.000000 0.238795 0.181660
Si Si2 0.309350 0.401229 0.923316
Si Si3 0.500000 0.147155 0.676556
Si Si4 0.697231 0.752214 0.591041
Si Si5 0.328798 0.924685 0.363129
Si Si6 0.500000 0.307669 0.926811
O O1 0.097112 0.275940 0.134872
O O2 0.000000 0.248963 0.392974
O O3 0.000000 0.156482 0.036303
O O4 0.250000 0.403047 0.750000
O O5 0.312140 0.500000 0.000000
O O6 0.255215 0.332025 0.040061
O O7 0.409577 0.364436 0.913711
O O8 0.415573 0.095895 0.741838
O O9 0.500000 0.244036 0.760011
O O10 0.750000 0.794902 0.750000
O O11 0.694722 0.828580 0.445749
O O12 0.250000 0.957962 0.250000
O O13 0.350085 0.000000 0.500000
#
# Coordination Sequence:
#
# PCOD9419130 Si02
#       6
#     4   8   4   8   8   4
#     4  10  22  38  71  97 129 174 229 272 345 407
#     4  12  26  44  66 100 138 178 228 286 342 412
#     4  10  23  43  68 101 134 177 224 293 339 400
#     4  11  21  41  66  94 133 175 224 284 339 401
#     4  11  23  41  65  97 135 177 223 278 339 406
#     4  12  23  45  72 101 127 187 233 283 341 420
#
# _framework density 20.371186000000002
#
# number of rings (size 3 to 8) (size 9 to 14) (size 15 to 20)
#    0.000    0.889    2.222    6.667    0.000    0.000 
#    0.000    1.667    0.000    0.000    0.000    0.000 
#    0.000    0.000    0.000    0.000    0.000    0.000 
#
# Total GULP energy -200567.841064 kJ/mol
# GULP energy per Si atom -5571.328918 kJ/mol
# Density = 2.032482 g / cm^3
# Si number density = 20.371186 Si / 1000 Ang^3
#
#
#
# Elastic Constant Matrix: (Units=GPa)
#
#
# Indices 1 2 3 4 5 6 
#
# 1 181.9008 33.4167 14.1018 0.0000 0.0000 0.0000
# 2 33.4167 80.1242 -1.6891 0.0000 0.0000 0.0000
# 3 14.1018 -1.6891 52.7367 0.0000 0.0000 0.0000
# 4 0.0000 0.0000 0.0000 47.8679 0.0000 0.0000
# 5 0.0000 0.0000 0.0000 0.0000 23.9604 0.0000
# 6 0.0000 0.0000 0.0000 0.0000 0.0000 27.8886
#
#
#
# Elastic Compliance Matrix: (Units=1/GPa)
#
#
# Indices 1 2 3 4 5 6 
#
# 1 0.006105 -0.002582 -0.001715 0.000000 0.000000 0.000000
# 2 -0.002582 0.013581 0.001126 0.000000 0.000000 0.000000
# 3 -0.001715 0.001126 0.019457 0.000000 0.000000 0.000000
# 4 0.000000 0.000000 0.000000 0.020891 0.000000 0.000000
# 5 0.000000 0.000000 0.000000 0.000000 0.041736 0.000000
# 6 0.000000 0.000000 0.000000 0.000000 0.000000 0.035857
#
#
# Mechanical properties :
#
#
# Convention : Reuss Voigt Hill
#
# Bulk Modulus (GPa) = 30.48859 45.15785 37.82322
# Shear Modulus (GPa) = 32.27822 37.87219 35.07521
#
# Velocity S-wave (km/s) = 3.98490 4.31641 4.15397
# Velocity P-wave (km/s) = 6.01428 6.85985 6.45094
#
# Compressibility (1/GPa) = 0.03279915
#
# Stress axis : x y z
#
# Youngs Moduli (GPa) = 163.80417 73.63062 51.39589
#
# Poissons Ratio (x) = 0.19013 0.08815
# Poissons Ratio (y) = 0.42298 -0.05785
# Poissons Ratio (z) = 0.28095 -0.08287
#
# Static dielectric constant tensor:
#      x y z
#    x 1.751450 0.000000 0.000000 
#    y 0.000000 1.671070 0.000000 
#    z 0.000000 0.000000 1.814060 
# 
# From -- ./inp_files/8292.got.cif
#   From: 2010.05.17/outbox.cif.g08.bks.cpg/sg53_5_cif.got.tgz:8292.got - 2010.06.03 12:45:16.
