data_PCOD9419067
_publ_section_title
;
Structure prediction by ZEFSAII (Michael W. Deem and Ramdas Pophale) SiO2 
 PCOD9419067
Probable space group: P M N A
;
_chemical_formula_sum "Si O2"
_cell_formula_units_Z 30
_cell_length_a 21.162234
_cell_length_b 6.579284
_cell_length_c 9.511386
_cell_angle_alpha 90.000000
_cell_angle_beta 90.000000
_cell_angle_gamma 90.000000
_cell_volume 1324.292601
_symmetry_space_group_name_H-M "P M N A"
_symmetry_group_IT_number 53
_symmetry_cell_setting 'orthorhombic'
loop_
_space_group_symop_operation_xyz
x,y,z
1/2-x,-y,1/2+z
x,-y,-z
1/2-x,y,1/2-z
-x,-y,-z
1/2+x,y,1/2-z
-x,y,z
1/2+x,-y,1/2+z
loop_
_atom_site_type_symbol
_atom_site_label
_atom_site_fract_x
_atom_site_fract_y
_atom_site_fract_z
Si Si1 0.569657 0.060487 0.163668
Si Si2 0.204891 0.150930 0.367636
Si Si3 0.500000 0.500000 0.500000
Si Si4 0.716160 0.500000 0.500000
Si Si5 0.389057 0.204268 0.587441
O O1 0.500000 0.145291 0.201355
O O2 0.584943 0.866635 0.261179
O O3 0.633085 0.192577 0.182338
O O4 0.566614 0.000000 0.000000
O O5 0.250000 0.053102 0.250000
O O6 0.239660 0.355503 0.409658
O O7 0.201531 0.000000 0.500000
O O8 0.444793 0.324447 0.511602
O O9 0.670965 0.648279 0.410188
O O10 0.373594 0.000000 0.500000
#
# Coordination Sequence:
#
# PCOD9419067 Si02
#       5
#     8   8   2   4   8
#     4  10  22  41  67  94 137 185 219 275 361 415
#     4  11  24  44  69  99 138 186 235 294 354 419
#     4  10  22  36  70 104 136 166 230 294 352 422
#     4  11  24  39  69 104 133 178 248 292 343 420
#     4  11  22  43  70 103 135 179 233 297 353 414
#
# _framework density 22.653606
#
# number of rings (size 3 to 8) (size 9 to 14) (size 15 to 20)
#    0.000    1.333    1.333    4.400    0.000    5.333 
#    0.000    0.667    0.000    0.000    0.000    0.000 
#    0.000    0.000    0.000    0.000    0.000    0.000 
#
# Total GULP energy -167236.129386 kJ/mol
# GULP energy per Si atom -5574.537646 kJ/mol
# Density = 2.260205 g / cm^3
# Si number density = 22.653606 Si / 1000 Ang^3
#
#
#
# Elastic Constant Matrix: (Units=GPa)
#
#
# Indices 1 2 3 4 5 6 
#
# 1 260.7696 66.1837 37.4970 0.0000 0.0000 0.0000
# 2 66.1837 113.1620 28.5583 0.0000 0.0000 0.0000
# 3 37.4970 28.5583 104.4740 0.0000 0.0000 0.0000
# 4 0.0000 0.0000 0.0000 18.5121 0.0000 0.0000
# 5 0.0000 0.0000 0.0000 0.0000 14.9027 0.0000
# 6 0.0000 0.0000 0.0000 0.0000 0.0000 13.5691
#
#
#
# Elastic Compliance Matrix: (Units=1/GPa)
#
#
# Indices 1 2 3 4 5 6 
#
# 1 0.004595 -0.002440 -0.000982 0.000000 0.000000 0.000000
# 2 -0.002440 0.010787 -0.002073 0.000000 0.000000 0.000000
# 3 -0.000982 -0.002073 0.010491 0.000000 0.000000 0.000000
# 4 0.000000 0.000000 0.000000 0.054019 0.000000 0.000000
# 5 0.000000 0.000000 0.000000 0.000000 0.067102 0.000000
# 6 0.000000 0.000000 0.000000 0.000000 0.000000 0.073697
#
#
# Mechanical properties :
#
#
# Convention : Reuss Voigt Hill
#
# Bulk Modulus (GPa) = 67.19059 82.54262 74.86660
# Shear Modulus (GPa) = 21.12899 32.47456 26.80178
#
# Velocity S-wave (km/s) = 3.05732 3.79030 3.44337
# Velocity P-wave (km/s) = 6.49518 7.46131 6.99495
#
# Compressibility (1/GPa) = 0.01488304
#
# Stress axis : x y z
#
# Youngs Moduli (GPa) = 217.61589 92.70511 95.31965
#
# Poissons Ratio (x) = 0.22617 0.09364
# Poissons Ratio (y) = 0.53091 0.19760
# Poissons Ratio (z) = 0.21379 0.19218
#
# Static dielectric constant tensor:
#      x y z
#    x 1.853370 0.000000 0.000000 
#    y 0.000000 1.811280 0.000000 
#    z 0.000000 0.000000 1.934210 
# 
# From -- ./inp_files/17416.got.cif
#   From: 2010.05.17/outbox.cif.g08.bks.cpg/sg53_9_cif.got.tgz:17416.got - 2010.06.03 12:45:16.
