data_PCOD9419801
_publ_section_title
;
Structure prediction by ZEFSAII (Michael W. Deem and Ramdas Pophale) SiO2 
 PCOD9419801
Probable space group: P M N A
;
_chemical_formula_sum "Si O2"
_cell_formula_units_Z 38
_cell_length_a 24.927202
_cell_length_b 11.141080
_cell_length_c 5.649826
_cell_angle_alpha 90.000000
_cell_angle_beta 90.000000
_cell_angle_gamma 90.000000
_cell_volume 1569.046804
_symmetry_space_group_name_H-M "P M N A"
_symmetry_group_IT_number 53
_symmetry_cell_setting 'orthorhombic'
loop_
_space_group_symop_operation_xyz
x,y,z
1/2-x,-y,1/2+z
x,-y,-z
1/2-x,y,1/2-z
-x,-y,-z
1/2+x,y,1/2-z
-x,y,z
1/2+x,-y,1/2+z
loop_
_atom_site_type_symbol
_atom_site_label
_atom_site_fract_x
_atom_site_fract_y
_atom_site_fract_z
Si Si1 0.404816 0.122881 0.894200
Si Si2 0.750000 0.442608 0.250000
Si Si3 0.000000 0.500000 0.500000
Si Si4 0.146769 0.300328 0.233382
Si Si5 0.202405 0.119078 0.886719
Si Si6 0.055969 0.340088 0.884890
O O1 0.348625 0.085511 0.772170
O O2 0.437867 0.202691 0.706960
O O3 0.388892 0.222199 0.088162
O O4 0.428785 0.000000 0.000000
O O5 0.731423 0.500000 0.500000
O O6 0.694786 0.378073 0.162634
O O7 0.954069 0.573402 0.339129
O O8 0.179878 0.203222 0.085377
O O9 0.106372 0.363664 0.050306
O O10 0.250000 0.183389 0.750000
O O11 0.226721 0.000000 0.000000
O O12 0.000000 0.351490 0.031389
#
# Coordination Sequence:
#
# PCOD9419801 Si02
#       6
#     8   4   2   8   8   8
#     4  11  22  40  67 107 148 193 251 316 394 480
#     4  12  32  52  76 114 158 212 270 334 406 472
#     4   8  20  52  72 106 136 202 268 340 382 464
#     4  11  25  46  73 103 153 203 251 322 400 483
#     4  11  22  36  64 101 143 193 243 307 382 482
#     4   9  23  45  76 105 145 193 264 321 393 464
#
# _framework density 24.218525
#
# number of rings (size 3 to 8) (size 9 to 14) (size 15 to 20)
#    0.632    0.842    2.105    1.895    8.842    2.947 
#    0.000    2.105    0.000    0.632    0.000    0.000 
#    0.000    0.000    0.000    0.000    0.000    0.000 
#
# Total GULP energy -211745.998094 kJ/mol
# GULP energy per Si atom -5572.263108 kJ/mol
# Density = 2.416340 g / cm^3
# Si number density = 24.218525 Si / 1000 Ang^3
#
#
#
# Elastic Constant Matrix: (Units=GPa)
#
#
# Indices 1 2 3 4 5 6 
#
# 1 109.0051 23.2883 6.7259 0.0000 0.0000 0.0000
# 2 23.2883 90.2681 18.8486 0.0000 0.0000 0.0000
# 3 6.7259 18.8486 47.3598 0.0000 0.0000 0.0000
# 4 0.0000 0.0000 0.0000 46.6350 0.0000 0.0000
# 5 0.0000 0.0000 0.0000 0.0000 24.3422 0.0000
# 6 0.0000 0.0000 0.0000 0.0000 0.0000 68.2095
#
#
#
# Elastic Compliance Matrix: (Units=1/GPa)
#
#
# Indices 1 2 3 4 5 6 
#
# 1 0.009717 -0.002420 -0.000417 0.000000 0.000000 0.000000
# 2 -0.002420 0.012685 -0.004705 0.000000 0.000000 0.000000
# 3 -0.000417 -0.004705 0.023047 0.000000 0.000000 0.000000
# 4 0.000000 0.000000 0.000000 0.021443 0.000000 0.000000
# 5 0.000000 0.000000 0.000000 0.000000 0.041081 0.000000
# 6 0.000000 0.000000 0.000000 0.000000 0.000000 0.014661
#
#
# Mechanical properties :
#
#
# Convention : Reuss Voigt Hill
#
# Bulk Modulus (GPa) = 32.93244 38.26204 35.59724
# Shear Modulus (GPa) = 33.82103 41.02201 37.42152
#
# Velocity S-wave (km/s) = 3.74102 4.12008 3.93512
# Velocity P-wave (km/s) = 5.68224 6.20213 5.94787
#
# Compressibility (1/GPa) = 0.03036520
#
# Stress axis : x y z
#
# Youngs Moduli (GPa) = 102.91699 78.83478 43.39041
#
# Poissons Ratio (x) = 0.19076 0.01809
# Poissons Ratio (y) = 0.24903 0.20414
# Poissons Ratio (z) = 0.04291 0.37090
#
# Static dielectric constant tensor:
#      x y z
#    x 1.902020 0.000000 0.000000 
#    y 0.000000 1.987880 0.000000 
#    z 0.000000 0.000000 2.043590 
# 
# From -- ./inp_files/4305.got.cif
#   From: 2010.05.17/outbox.cif.g08.bks.cpg/sg53_3_cif.got.tgz:4305.got - 2010.06.03 12:45:16.
