data_PCOD9419621
_publ_section_title
;
Structure prediction by ZEFSAII (Michael W. Deem and Ramdas Pophale) SiO2 
 PCOD9419621
Probable space group: P M N A
;
_chemical_formula_sum "Si O2"
_cell_formula_units_Z 48
_cell_length_a 20.958310
_cell_length_b 7.928353
_cell_length_c 17.325609
_cell_angle_alpha 90.000000
_cell_angle_beta 90.000000
_cell_angle_gamma 90.000000
_cell_volume 2878.907740
_symmetry_space_group_name_H-M "P M N A"
_symmetry_group_IT_number 53
_symmetry_cell_setting 'orthorhombic'
loop_
_space_group_symop_operation_xyz
x,y,z
1/2-x,-y,1/2+z
x,-y,-z
1/2-x,y,1/2-z
-x,-y,-z
1/2+x,y,1/2-z
-x,y,z
1/2+x,-y,1/2+z
loop_
_atom_site_type_symbol
_atom_site_label
_atom_site_fract_x
_atom_site_fract_y
_atom_site_fract_z
Si Si1 0.861455 0.405917 0.578393
Si Si2 0.778587 0.066801 0.586046
Si Si3 0.631330 0.906083 0.791923
Si Si4 0.500000 0.899107 0.883362
Si Si5 0.174344 0.442047 0.256628
Si Si6 0.815883 0.205130 0.800759
Si Si7 0.000000 0.272965 0.544449
O O1 0.841059 0.500000 0.500000
O O2 0.825556 0.227751 0.584862
O O3 0.844993 0.507156 0.655911
O O4 0.936428 0.367846 0.570438
O O5 0.812898 0.067729 0.356748
O O6 0.711286 0.130964 0.619921
O O7 0.773326 0.000000 0.500000
O O8 0.564247 0.885697 0.834241
O O9 0.643958 0.739353 0.742014
O O10 0.637225 0.073859 0.740305
O O11 0.500000 0.086577 0.919088
O O12 0.500000 0.763706 0.952719
O O13 0.250000 0.419328 0.250000
O O14 0.158429 0.604323 0.203467
O O15 0.750000 0.209307 0.750000
#
# Coordination Sequence:
#
# PCOD9419621 Si02
#       7
#     8   8   8   4   8   8   4
#     4  12  22  32  50  78 110 151 189 219 262 319
#     4  11  19  34  52  78 109 137 180 229 277 325
#     4  11  21  34  55  74 105 149 182 218 272 317
#     4  11  20  34  50  78 108 151 186 221 254 324
#     4  11  19  35  53  71 101 144 187 230 272 316
#     4   9  18  36  52  73 103 139 176 228 275 318
#     4  11  21  34  48  70 123 151 178 223 257 310
#
# _framework density 16.672989999999999
#
# number of rings (size 3 to 8) (size 9 to 14) (size 15 to 20)
#    0.000    1.167    6.667    4.750    0.000    0.667 
#    0.000    0.833    0.000    0.000    0.000    0.583 
#    0.000    1.333    0.000    0.000    0.000    0.000 
#
# Total GULP energy -267854.769555 kJ/mol
# GULP energy per Si atom -5580.307699 kJ/mol
# Density = 1.663504 g / cm^3
# Si number density = 16.672990 Si / 1000 Ang^3
#
#
#
# Elastic Constant Matrix: (Units=GPa)
#
#
# Indices 1 2 3 4 5 6 
#
# 1 77.1972 28.7600 31.5032 0.0000 0.0000 0.0000
# 2 28.7600 95.3556 15.0024 0.0000 0.0000 0.0000
# 3 31.5032 15.0024 40.7405 0.0000 0.0000 0.0000
# 4 0.0000 0.0000 0.0000 25.6519 0.0000 0.0000
# 5 0.0000 0.0000 0.0000 0.0000 29.2273 0.0000
# 6 0.0000 0.0000 0.0000 0.0000 0.0000 1.9270
#
#
#
# Elastic Compliance Matrix: (Units=1/GPa)
#
#
# Indices 1 2 3 4 5 6 
#
# 1 0.020178 -0.003854 -0.014184 0.000000 0.000000 0.000000
# 2 -0.003854 0.011868 -0.001390 0.000000 0.000000 0.000000
# 3 -0.014184 -0.001390 0.036025 0.000000 0.000000 0.000000
# 4 0.000000 0.000000 0.000000 0.038983 0.000000 0.000000
# 5 0.000000 0.000000 0.000000 0.000000 0.034215 0.000000
# 6 0.000000 0.000000 0.000000 0.000000 0.000000 0.518947
#
#
# Mechanical properties :
#
#
# Convention : Reuss Voigt Hill
#
# Bulk Modulus (GPa) = 34.22833 40.42493 37.32663
# Shear Modulus (GPa) = 7.05407 20.56307 13.80857
#
# Velocity S-wave (km/s) = 2.05913 3.51567 2.88097
# Velocity P-wave (km/s) = 5.12124 6.38579 5.78815
#
# Compressibility (1/GPa) = 0.02921557
#
# Stress axis : x y z
#
# Youngs Moduli (GPa) = 49.55919 84.25847 27.75840
#
# Poissons Ratio (x) = 0.32476 0.39371
# Poissons Ratio (y) = 0.19102 0.03858
# Poissons Ratio (z) = 0.70292 0.11712
#
# Static dielectric constant tensor:
#      x y z
#    x 1.540970 0.000000 0.000000 
#    y 0.000000 1.614930 0.000000 
#    z 0.000000 0.000000 1.574030 
# 
# From -- ./inp_files/23706.got.cif
#   From: 2010.05.17/outbox.cif.g08.bks.cpg/sg53_12_cif.got.tgz:23706.got - 2010.06.03 12:45:16.
