data_PCOD9419845
_publ_section_title
;
Structure prediction by ZEFSAII (Michael W. Deem and Ramdas Pophale) SiO2 
 PCOD9419845
Probable space group: P M N A
;
_chemical_formula_sum "Si O2"
_cell_formula_units_Z 40
_cell_length_a 14.310397
_cell_length_b 8.686490
_cell_length_c 14.246110
_cell_angle_alpha 90.000000
_cell_angle_beta 90.000000
_cell_angle_gamma 90.000000
_cell_volume 1770.892912
_symmetry_space_group_name_H-M "P M N A"
_symmetry_group_IT_number 53
_symmetry_cell_setting 'orthorhombic'
loop_
_space_group_symop_operation_xyz
x,y,z
1/2-x,-y,1/2+z
x,-y,-z
1/2-x,y,1/2-z
-x,-y,-z
1/2+x,y,1/2-z
-x,y,z
1/2+x,-y,1/2+z
loop_
_atom_site_type_symbol
_atom_site_label
_atom_site_fract_x
_atom_site_fract_y
_atom_site_fract_z
Si Si1 0.896537 0.705225 0.565401
Si Si2 0.341544 0.068244 0.222579
Si Si3 0.607071 0.188903 0.415347
Si Si4 0.275698 0.520674 0.642603
Si Si5 0.758037 0.184619 0.579163
O O1 0.817647 0.582702 0.591927
O O2 0.856129 0.784633 0.472990
O O3 0.000000 0.643511 0.555896
O O4 0.897003 0.833331 0.647382
O O5 0.250000 0.166123 0.250000
O O6 0.292400 0.928100 0.163763
O O7 0.390155 0.070817 0.325075
O O8 0.500000 0.191450 0.449586
O O9 0.640586 0.360417 0.381691
O O10 0.684721 0.147557 0.494028
O O11 0.250000 0.515257 0.750000
O O12 0.287883 0.342975 0.614997
#
# Coordination Sequence:
#
# PCOD9419845 Si02
#       5
#     8   8   8   8   8
#     4  11  22  41  68  95 131 178 230 284 343 418
#     4  12  22  43  69  95 138 184 229 282 347 428
#     4  11  23  45  76 104 141 193 242 291 359 433
#     4  11  22  44  68 100 138 186 231 293 359 419
#     4  11  26  41  69 106 141 180 236 299 360 417
#
# _framework density 22.587475999999999
#
# number of rings (size 3 to 8) (size 9 to 14) (size 15 to 20)
#    0.000    0.800    6.000    4.200    0.000    5.600 
#    0.000    3.000    0.000    7.200    0.000    0.000 
#    0.000    0.000    0.000    0.000    0.000    0.000 
#
# Total GULP energy -222782.257712 kJ/mol
# GULP energy per Si atom -5569.556443 kJ/mol
# Density = 2.253607 g / cm^3
# Si number density = 22.587476 Si / 1000 Ang^3
#
#
#
# Elastic Constant Matrix: (Units=GPa)
#
#
# Indices 1 2 3 4 5 6 
#
# 1 98.3849 2.6471 4.4499 0.0000 0.0000 0.0000
# 2 2.6471 127.9710 68.1359 0.0000 0.0000 0.0000
# 3 4.4499 68.1359 157.6951 0.0000 0.0000 0.0000
# 4 0.0000 0.0000 0.0000 40.5012 0.0000 0.0000
# 5 0.0000 0.0000 0.0000 0.0000 -207.0524 0.0000
# 6 0.0000 0.0000 0.0000 0.0000 0.0000 10.3907
#
#
#
# Elastic Compliance Matrix: (Units=1/GPa)
#
#
# Indices 1 2 3 4 5 6 
#
# 1 0.010178 -0.000075 -0.000255 0.000000 0.000000 0.000000
# 2 -0.000075 0.010150 -0.004383 0.000000 0.000000 0.000000
# 3 -0.000255 -0.004383 0.008242 0.000000 0.000000 0.000000
# 4 0.000000 0.000000 0.000000 0.024691 0.000000 0.000000
# 5 0.000000 0.000000 0.000000 0.000000 -0.004830 0.000000
# 6 0.000000 0.000000 0.000000 0.000000 0.000000 0.096240
#
#
# Mechanical properties :
#
#
# Convention : Reuss Voigt Hill
#
# Bulk Modulus (GPa) = 52.23614 59.39074 55.81344
# Shear Modulus (GPa) = 31.15701 -10.64421 10.25640
#
# Velocity S-wave (km/s) = 3.71805 -2.17317 2.13321
# Velocity P-wave (km/s) = 6.45044 4.47815 5.55257
#
# Compressibility (1/GPa) = 0.01914383
#
# Stress axis : x y z
#
# Youngs Moduli (GPa) = 98.25399 98.52600 121.32340
#
# Poissons Ratio (x) = 0.00737 0.03092
# Poissons Ratio (y) = 0.00735 0.53179
# Poissons Ratio (z) = 0.02504 0.43187
#
# Static dielectric constant tensor:
#      x y z
#    x 1.842230 0.000000 0.000000 
#    y 0.000000 1.973890 0.000000 
#    z 0.000000 0.000000 1.754670 
# 
# From -- ./inp_files/22397.got.cif
#   From: 2010.05.17/outbox.cif.g08.bks.cpg/sg53_12_cif.got.tgz:22397.got - 2010.06.03 12:45:16.
