data_PCOD9419401
_publ_section_title
;
Structure prediction by ZEFSAII (Michael W. Deem and Ramdas Pophale) SiO2 
 PCOD9419401
Probable space group: P M N A
;
_chemical_formula_sum "Si O2"
_cell_formula_units_Z 56
_cell_length_a 14.957710
_cell_length_b 12.940324
_cell_length_c 13.712141
_cell_angle_alpha 90.000000
_cell_angle_beta 90.000000
_cell_angle_gamma 90.000000
_cell_volume 2654.089291
_symmetry_space_group_name_H-M "P M N A"
_symmetry_group_IT_number 53
_symmetry_cell_setting 'orthorhombic'
loop_
_space_group_symop_operation_xyz
x,y,z
1/2-x,-y,1/2+z
x,-y,-z
1/2-x,y,1/2-z
-x,-y,-z
1/2+x,y,1/2-z
-x,y,z
1/2+x,-y,1/2+z
loop_
_atom_site_type_symbol
_atom_site_label
_atom_site_fract_x
_atom_site_fract_y
_atom_site_fract_z
Si Si1 0.900353 0.110177 0.185045
Si Si2 0.643197 0.664499 0.251733
Si Si3 0.157418 0.115922 0.802528
Si Si4 0.399243 0.617437 0.471561
Si Si5 0.106414 0.522112 0.606556
Si Si6 0.219039 0.804442 0.984272
Si Si7 0.393723 0.243050 0.119401
O O1 0.826675 0.134235 0.103877
O O2 0.881855 0.172831 0.284511
O O3 0.000000 0.141300 0.151359
O O4 0.899084 0.987495 0.200457
O O5 0.750000 0.673228 0.250000
O O6 0.613729 0.784408 0.249264
O O7 0.609537 0.624459 0.355326
O O8 0.621809 0.578195 0.172488
O O9 0.250000 0.090518 0.750000
O O10 0.185694 0.148985 0.912717
O O11 0.386621 0.500000 0.500000
O O12 0.500000 0.650030 0.499854
O O13 0.325416 0.691171 0.517413
O O14 0.146364 0.500000 0.500000
O O15 0.132316 0.637031 0.642122
O O16 0.000000 0.529811 0.597071
O O17 0.324895 0.795207 0.964121
O O18 0.500000 0.238766 0.092919
#
# Coordination Sequence:
#
# PCOD9419401 Si02
#       7
#     8   8   8   8   8   8   8
#     4  11  24  43  68  99 133 171 222 278 337 405
#     4  10  23  37  62  93 127 173 216 266 329 398
#     4  10  23  42  63  95 129 173 222 274 331 392
#     4  10  23  39  59  93 134 172 214 270 332 395
#     4  10  23  40  64  92 128 171 216 267 323 395
#     4  11  23  40  70  95 130 177 222 277 330 402
#     4  10  24  42  66 101 134 174 225 278 341 400
#
# _framework density 21.099516999999999
#
# number of rings (size 3 to 8) (size 9 to 14) (size 15 to 20)
#    0.000    1.714    0.000    2.571   10.000    4.000 
#    0.000    0.714    0.000    3.429    0.000    0.000 
#    0.000    0.000    0.000    0.000    0.000    0.000 
#
# Total GULP energy -312672.045041 kJ/mol
# GULP energy per Si atom -5583.429376 kJ/mol
# Density = 2.105149 g / cm^3
# Si number density = 21.099517 Si / 1000 Ang^3
#
#
#
# Elastic Constant Matrix: (Units=GPa)
#
#
# Indices 1 2 3 4 5 6 
#
# 1 89.6481 36.0078 22.2147 0.0000 0.0000 0.0000
# 2 36.0078 154.8361 73.4190 0.0000 0.0000 0.0000
# 3 22.2147 73.4190 44.7230 0.0000 0.0000 0.0000
# 4 0.0000 0.0000 0.0000 35.1610 0.0000 0.0000
# 5 0.0000 0.0000 0.0000 0.0000 42.5368 0.0000
# 6 0.0000 0.0000 0.0000 0.0000 0.0000 21.3048
#
#
#
# Elastic Compliance Matrix: (Units=1/GPa)
#
#
# Indices 1 2 3 4 5 6 
#
# 1 0.012721 0.000171 -0.006599 0.000000 0.000000 0.000000
# 2 0.000171 0.029149 -0.047938 0.000000 0.000000 0.000000
# 3 -0.006599 -0.047938 0.104334 0.000000 0.000000 0.000000
# 4 0.000000 0.000000 0.000000 0.028441 0.000000 0.000000
# 5 0.000000 0.000000 0.000000 0.000000 0.023509 0.000000
# 6 0.000000 0.000000 0.000000 0.000000 0.000000 0.046938
#
#
# Mechanical properties :
#
#
# Convention : Reuss Voigt Hill
#
# Bulk Modulus (GPa) = 26.68618 61.38779 44.03698
# Shear Modulus (GPa) = 13.64943 30.30492 21.97718
#
# Velocity S-wave (km/s) = 2.54620 3.79395 3.23088
# Velocity P-wave (km/s) = 4.61729 6.95339 5.90208
#
# Compressibility (1/GPa) = 0.03747258
#
# Stress axis : x y z
#
# Youngs Moduli (GPa) = 78.60749 34.30598 9.58459
#
# Poissons Ratio (x) = -0.00586 0.06325
# Poissons Ratio (y) = -0.01343 0.45946
# Poissons Ratio (z) = 0.51876 1.64455
#
# Static dielectric constant tensor:
#      x y z
#    x 1.750750 0.000000 0.000000 
#    y 0.000000 1.809460 0.000000 
#    z 0.000000 0.000000 1.761690 
# 
# From -- ./inp_files/22855.got.cif
#   From: 2010.05.17/outbox.cif.g08.bks.cpg/sg53_12_cif.got.tgz:22855.got - 2010.06.03 12:45:16.
