data_PCOD9419198
_publ_section_title
;
Structure prediction by ZEFSAII (Michael W. Deem and Ramdas Pophale) SiO2 
 PCOD9419198
Probable space group: P M N A
;
_chemical_formula_sum "Si O2"
_cell_formula_units_Z 32
_cell_length_a 15.784239
_cell_length_b 16.285894
_cell_length_c 4.969457
_cell_angle_alpha 90.000000
_cell_angle_beta 90.000000
_cell_angle_gamma 90.000000
_cell_volume 1277.450819
_symmetry_space_group_name_H-M "P M N A"
_symmetry_group_IT_number 53
_symmetry_cell_setting 'orthorhombic'
loop_
_space_group_symop_operation_xyz
x,y,z
1/2-x,-y,1/2+z
x,-y,-z
1/2-x,y,1/2-z
-x,-y,-z
1/2+x,y,1/2-z
-x,y,z
1/2+x,-y,1/2+z
loop_
_atom_site_type_symbol
_atom_site_label
_atom_site_fract_x
_atom_site_fract_y
_atom_site_fract_z
Si Si1 0.000000 0.559998 0.741310
Si Si2 0.329282 0.595910 0.581260
Si Si3 0.096491 0.252210 0.891357
Si Si4 0.900732 0.860793 0.603833
Si Si5 0.750000 0.952099 0.250000
O O1 0.000000 0.500000 0.500000
O O2 0.912059 0.604739 0.736464
O O3 0.000000 0.500000 0.000000
O O4 0.320812 0.500000 0.500000
O O5 0.250000 0.619103 0.750000
O O6 0.346845 0.666560 0.369119
O O7 0.123838 0.181724 0.109338
O O8 0.000000 0.274988 0.966553
O O9 0.091893 0.213699 0.600971
O O10 0.825479 0.910812 0.440931
O O11 0.000000 0.895383 0.627467
O O12 0.703839 0.000000 0.500000
#
# Coordination Sequence:
#
# PCOD9419198 Si02
#       5
#     4   8   8   8   4
#     4  10  22  40  58  80 120 160 208 276 326 376
#     4  11  24  40  61  93 128 174 229 282 335 385
#     4  10  22  43  67  94 129 181 221 272 329 383
#     4  10  24  44  68 100 137 170 218 262 323 392
#     4  12  26  44  74 108 136 172 212 256 326 400
#
# _framework density 25.049890000000001
#
# number of rings (size 3 to 8) (size 9 to 14) (size 15 to 20)
#    0.000    1.500    1.250    2.250    3.500    7.000 
#    0.000    0.000    0.000    0.000    0.000    0.000 
#    0.000    0.000    0.000    0.000    0.000    0.000 
#
# Total GULP energy -178228.097807 kJ/mol
# GULP energy per Si atom -5569.628056 kJ/mol
# Density = 2.499288 g / cm^3
# Si number density = 25.049890 Si / 1000 Ang^3
#
#
#
# Elastic Constant Matrix: (Units=GPa)
#
#
# Indices 1 2 3 4 5 6 
#
# 1 118.4356 10.5859 -4.1352 0.0000 0.0000 0.0000
# 2 10.5859 72.4933 3.6310 0.0000 0.0000 0.0000
# 3 -4.1352 3.6310 120.0526 0.0000 0.0000 0.0000
# 4 0.0000 0.0000 0.0000 39.0476 0.0000 0.0000
# 5 0.0000 0.0000 0.0000 0.0000 26.2455 0.0000
# 6 0.0000 0.0000 0.0000 0.0000 0.0000 8.2416
#
#
#
# Elastic Compliance Matrix: (Units=1/GPa)
#
#
# Indices 1 2 3 4 5 6 
#
# 1 0.008568 -0.001268 0.000333 0.000000 0.000000 0.000000
# 2 -0.001268 0.014003 -0.000467 0.000000 0.000000 0.000000
# 3 0.000333 -0.000467 0.008355 0.000000 0.000000 0.000000
# 4 0.000000 0.000000 0.000000 0.025610 0.000000 0.000000
# 5 0.000000 0.000000 0.000000 0.000000 0.038102 0.000000
# 6 0.000000 0.000000 0.000000 0.000000 0.000000 0.121336
#
#
# Mechanical properties :
#
#
# Convention : Reuss Voigt Hill
#
# Bulk Modulus (GPa) = 35.55762 36.79388 36.17575
# Shear Modulus (GPa) = 21.91526 34.76693 28.34110
#
# Velocity S-wave (km/s) = 2.96102 3.72950 3.36726
# Velocity P-wave (km/s) = 5.09075 5.76765 5.43974
#
# Compressibility (1/GPa) = 0.02812337
#
# Stress axis : x y z
#
# Youngs Moduli (GPa) = 116.70818 71.41369 119.68451
#
# Poissons Ratio (x) = 0.09055 -0.03991
# Poissons Ratio (y) = 0.14797 0.05592
# Poissons Ratio (z) = -0.03892 0.03336
#
# Static dielectric constant tensor:
#      x y z
#    x 2.044360 0.000000 0.000000 
#    y 0.000000 2.141430 0.000000 
#    z 0.000000 0.000000 2.150810 
# 
# From -- ./inp_files/1295.got.cif
#   From: 2010.05.17/outbox.cif.g08.bks.cpg/sg53_1_cif.got.tgz:1295.got - 2010.06.03 12:45:16.
