data_PCOD9419817
_publ_section_title
;
Structure prediction by ZEFSAII (Michael W. Deem and Ramdas Pophale) SiO2 
 PCOD9419817
Probable space group: P M N A
;
_chemical_formula_sum "Si O2"
_cell_formula_units_Z 56
_cell_length_a 8.694478
_cell_length_b 23.126093
_cell_length_c 14.480279
_cell_angle_alpha 90.000000
_cell_angle_beta 90.000000
_cell_angle_gamma 90.000000
_cell_volume 2911.539661
_symmetry_space_group_name_H-M "P M N A"
_symmetry_group_IT_number 53
_symmetry_cell_setting 'orthorhombic'
loop_
_space_group_symop_operation_xyz
x,y,z
1/2-x,-y,1/2+z
x,-y,-z
1/2-x,y,1/2-z
-x,-y,-z
1/2+x,y,1/2-z
-x,y,z
1/2+x,-y,1/2+z
loop_
_atom_site_type_symbol
_atom_site_label
_atom_site_fract_x
_atom_site_fract_y
_atom_site_fract_z
Si Si1 0.317427 0.641629 0.651685
Si Si2 0.823752 0.516169 0.608014
Si Si3 0.814155 0.912832 0.044484
Si Si4 0.315768 0.800928 0.146516
Si Si5 0.682725 0.308725 0.977700
Si Si6 0.680377 0.600672 0.344974
Si Si7 0.185259 0.967682 0.852848
O O1 0.250000 0.659081 0.750000
O O2 0.500000 0.634492 0.654722
O O3 0.240255 0.579847 0.626428
O O4 0.269679 0.687745 0.574337
O O5 0.825946 0.500000 0.500000
O O6 0.715419 0.467318 0.651037
O O7 0.000000 0.511572 0.642562
O O8 0.742385 0.856523 0.090309
O O9 0.000000 0.908579 0.045657
O O10 0.772989 0.968673 0.107364
O O11 0.767853 0.925220 0.937667
O O12 0.250000 0.800081 0.250000
O O13 0.500000 0.802072 0.152529
O O14 0.270758 0.743980 0.088381
O O15 0.500000 0.306786 0.992703
O O16 0.728382 0.367518 0.925579
O O17 0.750000 0.623949 0.250000
O O18 0.500000 0.611845 0.352570
O O19 0.250000 0.957656 0.750000
O O20 0.000000 0.965398 0.847088
#
# Coordination Sequence:
#
# PCOD9419817 Si02
#       7
#     8   8   8   8   8   8   8
#     4  12  25  42  65  89 116 151 193 239 292 353
#     4  11  22  38  61  86 118 152 185 232 289 348
#     4   9  19  36  57  84 122 161 202 245 293 348
#     4  11  24  40  62  89 119 154 195 241 291 347
#     4  11  24  43  62  85 116 149 193 243 289 344
#     4  12  24  38  59  86 116 149 188 232 287 348
#     4   9  18  33  55  86 122 162 201 246 295 346
#
# _framework density 19.233809999999998
#
# number of rings (size 3 to 8) (size 9 to 14) (size 15 to 20)
#    0.000    1.286    1.429    6.000    0.000    6.286 
#    0.000    2.143    0.000    1.714    0.000    0.000 
#    0.000    0.000    0.000    0.000    0.000    0.000 
#
# Total GULP energy -312960.658695 kJ/mol
# GULP energy per Si atom -5588.583191 kJ/mol
# Density = 1.919003 g / cm^3
# Si number density = 19.233810 Si / 1000 Ang^3
#
#
#
# Elastic Constant Matrix: (Units=GPa)
#
#
# Indices 1 2 3 4 5 6 
#
# 1 55.4749 17.9940 31.2549 0.0000 0.0000 0.0000
# 2 17.9940 92.4217 53.9177 0.0000 0.0000 0.0000
# 3 31.2549 53.9177 169.9823 0.0000 0.0000 0.0000
# 4 0.0000 0.0000 0.0000 23.8832 0.0000 0.0000
# 5 0.0000 0.0000 0.0000 0.0000 34.5813 0.0000
# 6 0.0000 0.0000 0.0000 0.0000 0.0000 43.5933
#
#
#
# Elastic Compliance Matrix: (Units=1/GPa)
#
#
# Indices 1 2 3 4 5 6 
#
# 1 0.020466 -0.002196 -0.003067 0.000000 0.000000 0.000000
# 2 -0.002196 0.013512 -0.003882 0.000000 0.000000 0.000000
# 3 -0.003067 -0.003882 0.007678 0.000000 0.000000 0.000000
# 4 0.000000 0.000000 0.000000 0.041870 0.000000 0.000000
# 5 0.000000 0.000000 0.000000 0.000000 0.028917 0.000000
# 6 0.000000 0.000000 0.000000 0.000000 0.000000 0.022939
#
#
# Mechanical properties :
#
#
# Convention : Reuss Voigt Hill
#
# Bulk Modulus (GPa) = 42.79441 58.24578 50.52009
# Shear Modulus (GPa) = 30.96696 34.72571 32.84634
#
# Velocity S-wave (km/s) = 4.01687 4.25367 4.13696
# Velocity P-wave (km/s) = 6.61903 7.38063 7.01018
#
# Compressibility (1/GPa) = 0.02336754
#
# Stress axis : x y z
#
# Youngs Moduli (GPa) = 48.86121 74.00638 130.23685
#
# Poissons Ratio (x) = 0.16248 0.39940
# Poissons Ratio (y) = 0.10728 0.50563
# Poissons Ratio (z) = 0.14984 0.28732
#
# Static dielectric constant tensor:
#      x y z
#    x 1.638710 0.000000 0.000000 
#    y 0.000000 1.657780 0.000000 
#    z 0.000000 0.000000 1.691650 
# 
# From -- ./inp_files/20637.got.cif
#   From: 2010.05.17/outbox.cif.g08.bks.cpg/sg53_11_cif.got.tgz:20637.got - 2010.06.03 12:45:16.
