data_PCOD9419465
_publ_section_title
;
Structure prediction by ZEFSAII (Michael W. Deem and Ramdas Pophale) SiO2 
 PCOD9419465
Probable space group: P M N A
;
_chemical_formula_sum "Si O2"
_cell_formula_units_Z 56
_cell_length_a 31.053868
_cell_length_b 5.339133
_cell_length_c 16.460469
_cell_angle_alpha 90.000000
_cell_angle_beta 90.000000
_cell_angle_gamma 90.000000
_cell_volume 2729.157800
_symmetry_space_group_name_H-M "P M N A"
_symmetry_group_IT_number 53
_symmetry_cell_setting 'orthorhombic'
loop_
_space_group_symop_operation_xyz
x,y,z
1/2-x,-y,1/2+z
x,-y,-z
1/2-x,y,1/2-z
-x,-y,-z
1/2+x,y,1/2-z
-x,y,z
1/2+x,-y,1/2+z
loop_
_atom_site_type_symbol
_atom_site_label
_atom_site_fract_x
_atom_site_fract_y
_atom_site_fract_z
Si Si1 0.047546 0.040949 0.694292
Si Si2 0.160200 0.439270 0.373656
Si Si3 0.562758 0.457763 0.090630
Si Si4 0.161207 0.259861 0.051418
Si Si5 0.290028 0.824486 0.219088
Si Si6 0.864944 0.098732 0.218945
Si Si7 0.257095 0.830948 0.919854
O O1 0.051454 0.302928 0.646127
O O2 0.000000 0.033884 0.733815
O O3 0.049498 0.803558 0.632549
O O4 0.089416 0.012177 0.751981
O O5 0.114425 0.448370 0.414367
O O6 0.178277 0.704894 0.346663
O O7 0.151487 0.283196 0.290508
O O8 0.198973 0.323327 0.423996
O O9 0.546190 0.500000 0.000000
O O10 0.133135 0.230163 0.132483
O O11 0.211074 0.304762 0.078798
O O12 0.147715 0.500000 0.000000
O O13 0.159347 0.000000 0.000000
O O14 0.250000 0.654954 0.250000
O O15 0.324769 0.905211 0.286209
O O16 0.263172 0.025835 0.166106
O O17 0.256166 0.000000 0.000000
#
# Coordination Sequence:
#
# PCOD9419465 Si02
#       7
#     8   8   8   8   8   8   8
#     4  11  24  44  68  93 120 164 211 258 319 373
#     4  10  24  34  59  85 123 173 212 256 298 367
#     4  11  24  40  62  94 133 167 206 259 309 365
#     4  11  26  41  62  90 123 164 205 260 319 374
#     4  11  21  36  59  86 120 167 211 260 301 365
#     4  10  23  43  59  90 124 158 214 258 313 377
#     4  10  24  35  52  84 123 169 214 256 301 362
#
# _framework density 20.519148999999999
#
# number of rings (size 3 to 8) (size 9 to 14) (size 15 to 20)
#    0.000    1.429    2.857    0.857   10.000    1.714 
#    0.000    0.000    0.000    0.857    0.000    0.000 
#    0.000    0.000    0.000    0.000    0.000    0.000 
#
# Total GULP energy -312534.481465 kJ/mol
# GULP energy per Si atom -5580.972883 kJ/mol
# Density = 2.047245 g / cm^3
# Si number density = 20.519149 Si / 1000 Ang^3
#
#
#
# Elastic Constant Matrix: (Units=GPa)
#
#
# Indices 1 2 3 4 5 6 
#
# 1 117.7394 -3.4503 21.3542 0.0000 0.0000 0.0000
# 2 -3.4503 62.2011 9.6370 0.0000 0.0000 0.0000
# 3 21.3542 9.6370 84.6538 0.0000 0.0000 0.0000
# 4 0.0000 0.0000 0.0000 13.6188 0.0000 0.0000
# 5 0.0000 0.0000 0.0000 0.0000 -1.9943 0.0000
# 6 0.0000 0.0000 0.0000 0.0000 0.0000 7.8036
#
#
#
# Elastic Compliance Matrix: (Units=1/GPa)
#
#
# Indices 1 2 3 4 5 6 
#
# 1 0.008946 0.000861 -0.002355 0.000000 0.000000 0.000000
# 2 0.000861 0.016448 -0.002090 0.000000 0.000000 0.000000
# 3 -0.002355 -0.002090 0.012645 0.000000 0.000000 0.000000
# 4 0.000000 0.000000 0.000000 0.073428 0.000000 0.000000
# 5 0.000000 0.000000 0.000000 0.000000 -0.501439 0.000000
# 6 0.000000 0.000000 0.000000 0.000000 0.000000 0.128146
#
#
# Mechanical properties :
#
#
# Convention : Reuss Voigt Hill
#
# Bulk Modulus (GPa) = 32.39163 35.51957 33.95560
# Shear Modulus (GPa) = -20.46084 19.68917 -0.38583
#
# Velocity S-wave (km/s) = -3.16121 3.10102 -0.43410
# Velocity P-wave (km/s) = 1.57988 5.49271 4.04140
#
# Compressibility (1/GPa) = 0.03087218
#
# Stress axis : x y z
#
# Youngs Moduli (GPa) = 111.78662 60.79613 79.08473
#
# Poissons Ratio (x) = -0.05235 0.18621
# Poissons Ratio (y) = -0.09625 0.16526
# Poissons Ratio (z) = 0.26321 0.12705
#
# Static dielectric constant tensor:
#      x y z
#    x 1.794320 0.000000 0.000000 
#    y 0.000000 1.883300 0.000000 
#    z 0.000000 0.000000 2.299260 
# 
# From -- ./inp_files/25149.got.cif
#   From: 2010.05.17/outbox.cif.g08.bks.cpg/sg53_13_cif.got.tgz:25149.got - 2010.06.03 12:45:16.
