data_PCOD9419797
_publ_section_title
;
Structure prediction by ZEFSAII (Michael W. Deem and Ramdas Pophale) SiO2 
 PCOD9419797
Probable space group: P M N A
;
_chemical_formula_sum "Si O2"
_cell_formula_units_Z 32
_cell_length_a 8.965858
_cell_length_b 7.339312
_cell_length_c 25.015203
_cell_angle_alpha 90.000000
_cell_angle_beta 90.000000
_cell_angle_gamma 90.000000
_cell_volume 1646.081137
_symmetry_space_group_name_H-M "P M N A"
_symmetry_group_IT_number 53
_symmetry_cell_setting 'orthorhombic'
loop_
_space_group_symop_operation_xyz
x,y,z
1/2-x,-y,1/2+z
x,-y,-z
1/2-x,y,1/2-z
-x,-y,-z
1/2+x,y,1/2-z
-x,y,z
1/2+x,-y,1/2+z
loop_
_atom_site_type_symbol
_atom_site_label
_atom_site_fract_x
_atom_site_fract_y
_atom_site_fract_z
Si Si1 0.322014 0.014463 0.692066
Si Si2 0.829254 0.278444 0.998667
Si Si3 0.821356 0.655102 0.117458
Si Si4 0.176983 0.739934 0.607849
O O1 0.250000 0.994548 0.750000
O O2 0.500000 0.990664 0.694904
O O3 0.254394 0.870299 0.650639
O O4 0.291857 0.214045 0.667122
O O5 0.729013 0.213761 0.047410
O O6 0.000000 0.219484 0.007773
O O7 0.827976 0.500000 0.000000
O O8 0.783688 0.238736 0.937828
O O9 0.733822 0.466137 0.118691
O O10 0.000000 0.617226 0.114489
O O11 0.000000 0.750173 0.612121
#
# Coordination Sequence:
#
# PCOD9419797 Si02
#       4
#     8   8   8   8
#     4  11  24  42  61  82 111 148 195 242 282 334
#     4   8  15  32  57  84 114 149 189 229 278 341
#     4   9  20  39  62  85 113 152 192 235 287 340
#     4  11  22  36  58  88 121 153 185 230 285 339
#
# _framework density 19.440113
#
# number of rings (size 3 to 8) (size 9 to 14) (size 15 to 20)
#    0.000    2.250    0.000    4.500    0.000    8.500 
#    0.000    7.500    0.000    0.000    0.000    0.000 
#    0.000    0.000    0.000    0.000    0.000    0.000 
#
# Total GULP energy -178753.335192 kJ/mol
# GULP energy per Si atom -5586.041725 kJ/mol
# Density = 1.939587 g / cm^3
# Si number density = 19.440113 Si / 1000 Ang^3
#
#
#
# Elastic Constant Matrix: (Units=GPa)
#
#
# Indices 1 2 3 4 5 6 
#
# 1 46.8779 1.8103 1.6550 0.0000 0.0000 0.0000
# 2 1.8103 26.9681 -17.3163 0.0000 0.0000 0.0000
# 3 1.6550 -17.3163 63.4169 0.0000 0.0000 0.0000
# 4 0.0000 0.0000 0.0000 25.0456 0.0000 0.0000
# 5 0.0000 0.0000 0.0000 0.0000 36.3152 0.0000
# 6 0.0000 0.0000 0.0000 0.0000 0.0000 -23.1191
#
#
#
# Elastic Compliance Matrix: (Units=1/GPa)
#
#
# Indices 1 2 3 4 5 6 
#
# 1 0.021457 -0.002183 -0.001156 0.000000 0.000000 0.000000
# 2 -0.002183 0.045186 0.012395 0.000000 0.000000 0.000000
# 3 -0.001156 0.012395 0.019183 0.000000 0.000000 0.000000
# 4 0.000000 0.000000 0.000000 0.039927 0.000000 0.000000
# 5 0.000000 0.000000 0.000000 0.000000 0.027537 0.000000
# 6 0.000000 0.000000 0.000000 0.000000 0.000000 -0.043254
#
#
# Mechanical properties :
#
#
# Convention : Reuss Voigt Hill
#
# Bulk Modulus (GPa) = 9.62090 12.17344 10.89717
# Shear Modulus (GPa) = 39.50394 17.72261 28.61327
#
# Velocity S-wave (km/s) = 4.51275 3.02263 3.84065
# Velocity P-wave (km/s) = 5.66683 4.29620 5.02844
#
# Compressibility (1/GPa) = 0.10394042
#
# Stress axis : x y z
#
# Youngs Moduli (GPa) = 46.60464 22.13057 52.12833
#
# Poissons Ratio (x) = 0.04830 0.06026
# Poissons Ratio (y) = 0.10172 -0.64615
# Poissons Ratio (z) = 0.05387 -0.27431
#
# Static dielectric constant tensor:
#      x y z
#    x 1.647720 0.000000 0.000000 
#    y 0.000000 1.692470 0.000000 
#    z 0.000000 0.000000 1.681130 
# 
# From -- ./inp_files/30010.got.cif
#   From: 2010.05.17/outbox.cif.g08.bks.cpg/sg53_16_cif.got.tgz:30010.got - 2010.06.03 12:45:16.
