data_PCOD9419846
_publ_section_title
;
Structure prediction by ZEFSAII (Michael W. Deem and Ramdas Pophale) SiO2 
 PCOD9419846
Probable space group: P M N A
;
_chemical_formula_sum "Si O2"
_cell_formula_units_Z 32
_cell_length_a 10.127043
_cell_length_b 12.695955
_cell_length_c 12.239884
_cell_angle_alpha 90.000000
_cell_angle_beta 90.000000
_cell_angle_gamma 90.000000
_cell_volume 1573.712268
_symmetry_space_group_name_H-M "P M N A"
_symmetry_group_IT_number 53
_symmetry_cell_setting 'orthorhombic'
loop_
_space_group_symop_operation_xyz
x,y,z
1/2-x,-y,1/2+z
x,-y,-z
1/2-x,y,1/2-z
-x,-y,-z
1/2+x,y,1/2-z
-x,y,z
1/2+x,-y,1/2+z
loop_
_atom_site_type_symbol
_atom_site_label
_atom_site_fract_x
_atom_site_fract_y
_atom_site_fract_z
Si Si1 0.750000 0.127128 0.250000
Si Si2 0.000000 0.725229 0.764358
Si Si3 0.500000 0.375286 0.494125
Si Si4 0.751992 0.289439 0.623434
Si Si5 0.154138 0.056739 0.604821
Si Si6 0.000000 0.373186 0.484914
O O1 0.632601 0.205980 0.284407
O O2 0.836740 0.040575 0.314257
O O3 0.000000 0.645764 0.864972
O O4 0.000000 0.672420 0.641283
O O5 0.500000 0.500000 0.500000
O O6 0.624322 0.325838 0.557412
O O7 0.750000 0.327435 0.750000
O O8 0.767678 0.162781 0.628976
O O9 0.873965 0.330495 0.551381
O O10 0.000000 0.085362 0.587244
O O11 0.213966 0.000000 0.500000
O O12 0.000000 0.500000 0.500000
#
# Coordination Sequence:
#
# PCOD9419846 Si02
#       6
#     4   4   4   8   8   4
#     4  12  24  42  68 108 142 190 228 292 362 426
#     4  12  26  46  72 104 148 186 254 294 356 444
#     4  12  29  49  71 107 146 192 238 319 364 407
#     4  12  26  46  75 109 146 184 244 297 364 434
#     4  11  22  41  69 101 141 188 232 280 348 427
#     4  12  27  49  77 101 134 204 246 301 364 429
#
# _framework density 20.334084000000001
#
# number of rings (size 3 to 8) (size 9 to 14) (size 15 to 20)
#    0.000    0.250    3.750    6.000    3.500    1.000 
#    0.000    2.500    0.000    0.000    0.000    0.000 
#    0.000    0.000    0.000    0.000    0.000    0.000 
#
# Total GULP energy -178293.328961 kJ/mol
# GULP energy per Si atom -5571.666530 kJ/mol
# Density = 2.028780 g / cm^3
# Si number density = 20.334084 Si / 1000 Ang^3
#
#
#
# Elastic Constant Matrix: (Units=GPa)
#
#
# Indices 1 2 3 4 5 6 
#
# 1 154.8059 52.8339 50.1316 0.0000 0.0000 0.0000
# 2 52.8339 166.5284 63.6543 0.0000 0.0000 0.0000
# 3 50.1316 63.6543 151.1321 0.0000 0.0000 0.0000
# 4 0.0000 0.0000 0.0000 34.0891 0.0000 0.0000
# 5 0.0000 0.0000 0.0000 0.0000 19.6965 0.0000
# 6 0.0000 0.0000 0.0000 0.0000 0.0000 -267.6280
#
#
#
# Elastic Compliance Matrix: (Units=1/GPa)
#
#
# Indices 1 2 3 4 5 6 
#
# 1 0.007635 -0.001733 -0.001803 0.000000 0.000000 0.000000
# 2 -0.001733 0.007551 -0.002605 0.000000 0.000000 0.000000
# 3 -0.001803 -0.002605 0.008312 0.000000 0.000000 0.000000
# 4 0.000000 0.000000 0.000000 0.029335 0.000000 0.000000
# 5 0.000000 0.000000 0.000000 0.000000 0.050770 0.000000
# 6 0.000000 0.000000 0.000000 0.000000 0.000000 -0.003737
#
#
# Mechanical properties :
#
#
# Convention : Reuss Voigt Hill
#
# Bulk Modulus (GPa) = 89.16317 89.52289 89.34303
# Shear Modulus (GPa) = 43.14536 -22.37872 10.38332
#
# Velocity S-wave (km/s) = 4.61132 -3.32106 2.26218
# Velocity P-wave (km/s) = 8.50275 5.42363 7.13135
#
# Compressibility (1/GPa) = 0.01121539
#
# Stress axis : x y z
#
# Youngs Moduli (GPa) = 130.97589 132.43691 120.30869
#
# Poissons Ratio (x) = 0.22956 0.21686
# Poissons Ratio (y) = 0.22702 0.31344
# Poissons Ratio (z) = 0.23609 0.34504
#
# Static dielectric constant tensor:
#      x y z
#    x 1.964250 0.000000 0.000000 
#    y 0.000000 1.642310 0.000000 
#    z 0.000000 0.000000 1.744990 
# 
# From -- ./inp_files/14639.got.cif
#   From: 2010.05.17/outbox.cif.g08.bks.cpg/sg53_8_cif.got.tgz:14639.got - 2010.06.03 12:45:16.
