data_PCOD9419570
_publ_section_title
;
Structure prediction by ZEFSAII (Michael W. Deem and Ramdas Pophale) SiO2 
 PCOD9419570
Probable space group: P M N A
;
_chemical_formula_sum "Si O2"
_cell_formula_units_Z 60
_cell_length_a 9.700905
_cell_length_b 11.081808
_cell_length_c 25.026897
_cell_angle_alpha 90.000000
_cell_angle_beta 90.000000
_cell_angle_gamma 90.000000
_cell_volume 2690.480689
_symmetry_space_group_name_H-M "P M N A"
_symmetry_group_IT_number 53
_symmetry_cell_setting 'orthorhombic'
loop_
_space_group_symop_operation_xyz
x,y,z
1/2-x,-y,1/2+z
x,-y,-z
1/2-x,y,1/2-z
-x,-y,-z
1/2+x,y,1/2-z
-x,y,z
1/2+x,-y,1/2+z
loop_
_atom_site_type_symbol
_atom_site_label
_atom_site_fract_x
_atom_site_fract_y
_atom_site_fract_z
Si Si1 0.750712 0.681433 0.167705
Si Si2 0.337986 0.537701 0.594283
Si Si3 0.500000 0.338809 0.751862
Si Si4 0.159051 0.154817 0.576123
Si Si5 0.334237 0.930721 0.579197
Si Si6 0.650667 0.938827 0.704768
Si Si7 0.161014 0.290891 0.469385
Si Si8 0.647537 0.348873 0.293587
O O1 0.795277 0.586289 0.121909
O O2 0.620593 0.640485 0.202174
O O3 0.704545 0.798365 0.134040
O O4 0.879220 0.693303 0.207018
O O5 0.500000 0.537824 0.579015
O O6 0.238935 0.588515 0.548818
O O7 0.320666 0.628637 0.645065
O O8 0.163016 0.260992 0.532193
O O9 0.000000 0.109815 0.577426
O O10 0.265555 0.052540 0.557299
O O11 0.500000 0.920053 0.570466
O O12 0.309922 0.942726 0.643053
O O13 0.249043 0.817283 0.557530
O O14 0.750000 0.989695 0.750000
O O15 0.500000 0.994381 0.711140
O O16 0.638768 0.794159 0.715154
O O17 0.000000 0.290748 0.452339
O O18 0.750000 0.398908 0.250000
O O19 0.500000 0.411110 0.283548
#
# Coordination Sequence:
#
# PCOD9419570 Si02
#       8
#     8   8   4   8   8   8   8   8
#     4  11  24  46  70 106 136 182 225 282 338 406
#     4  11  23  40  65  99 140 174 221 281 341 404
#     4  10  24  46  74  98 142 178 232 274 338 412
#     4  11  26  48  68  96 135 180 233 287 338 407
#     4  11  23  43  69  98 133 175 230 290 348 411
#     4   9  18  35  53  84 126 163 206 259 326 394
#     4  11  25  44  69  98 134 181 229 281 349 410
#     4   9  18  31  52  80 121 163 201 254 315 386
#
# _framework density 22.300847000000001
#
# number of rings (size 3 to 8) (size 9 to 14) (size 15 to 20)
#    0.000    1.600    2.667    1.200    3.733    4.800 
#    2.400    2.000    0.000    0.000    0.000    0.000 
#    0.000    0.000    0.000    0.000    0.000    0.000 
#
# Total GULP energy -334223.502318 kJ/mol
# GULP energy per Si atom -5570.391705 kJ/mol
# Density = 2.225009 g / cm^3
# Si number density = 22.300847 Si / 1000 Ang^3
#
#
#
# Elastic Constant Matrix: (Units=GPa)
#
#
# Indices 1 2 3 4 5 6 
#
# 1 157.4174 36.3143 56.9432 0.0000 0.0000 0.0000
# 2 36.3143 48.8786 20.0066 0.0000 0.0000 0.0000
# 3 56.9432 20.0066 60.0764 0.0000 0.0000 0.0000
# 4 0.0000 0.0000 0.0000 14.8384 0.0000 0.0000
# 5 0.0000 0.0000 0.0000 0.0000 30.0557 0.0000
# 6 0.0000 0.0000 0.0000 0.0000 0.0000 -3.6686
#
#
#
# Elastic Compliance Matrix: (Units=1/GPa)
#
#
# Indices 1 2 3 4 5 6 
#
# 1 0.010383 -0.004267 -0.008420 0.000000 0.000000 0.000000
# 2 -0.004267 0.025442 -0.004428 0.000000 0.000000 0.000000
# 3 -0.008420 -0.004428 0.026101 0.000000 0.000000 0.000000
# 4 0.000000 0.000000 0.000000 0.067393 0.000000 0.000000
# 5 0.000000 0.000000 0.000000 0.000000 0.033272 0.000000
# 6 0.000000 0.000000 0.000000 0.000000 0.000000 -0.272585
#
#
# Mechanical properties :
#
#
# Convention : Reuss Voigt Hill
#
# Bulk Modulus (GPa) = 36.10776 54.76676 45.43726
# Shear Modulus (GPa) = -75.15079 18.45233 -28.34923
#
# Velocity S-wave (km/s) = -5.81135 2.87962 -3.56928
# Velocity P-wave (km/s) = 5.36681 5.97225 1.85271
#
# Compressibility (1/GPa) = 0.02769488
#
# Stress axis : x y z
#
# Youngs Moduli (GPa) = 96.31247 39.30559 38.31256
#
# Poissons Ratio (x) = 0.16773 0.32260
# Poissons Ratio (y) = 0.41101 0.16964
# Poissons Ratio (z) = 0.81097 0.17403
#
# Static dielectric constant tensor:
#      x y z
#    x 1.806540 0.000000 0.000000 
#    y 0.000000 1.942200 0.000000 
#    z 0.000000 0.000000 1.846390 
# 
# From -- ./inp_files/36368.got.cif
#   From: 2010.05.17/outbox.cif.g08.bks.cpg/sg53_19_cif.got.tgz:36368.got - 2010.06.03 12:45:16.
