data_PCOD9419685
_publ_section_title
;
Structure prediction by ZEFSAII (Michael W. Deem and Ramdas Pophale) SiO2 
 PCOD9419685
Probable space group: P M N A
;
_chemical_formula_sum "Si O2"
_cell_formula_units_Z 56
_cell_length_a 8.458322
_cell_length_b 19.781573
_cell_length_c 19.065494
_cell_angle_alpha 90.000000
_cell_angle_beta 90.000000
_cell_angle_gamma 90.000000
_cell_volume 3190.017753
_symmetry_space_group_name_H-M "P M N A"
_symmetry_group_IT_number 53
_symmetry_cell_setting 'orthorhombic'
loop_
_space_group_symop_operation_xyz
x,y,z
1/2-x,-y,1/2+z
x,-y,-z
1/2-x,y,1/2-z
-x,-y,-z
1/2+x,y,1/2-z
-x,y,z
1/2+x,-y,1/2+z
loop_
_atom_site_type_symbol
_atom_site_label
_atom_site_fract_x
_atom_site_fract_y
_atom_site_fract_z
Si Si1 0.185703 0.402512 0.914742
Si Si2 0.818930 0.212544 0.470865
Si Si3 0.688940 0.469658 0.170846
Si Si4 0.191913 0.355100 0.434322
Si Si5 0.193859 0.073646 0.525400
Si Si6 0.181312 0.733731 0.368373
Si Si7 0.309279 0.123748 0.822447
O O1 0.258013 0.466488 0.875447
O O2 0.222039 0.335017 0.869674
O O3 0.000000 0.412002 0.922371
O O4 0.257641 0.388856 0.991901
O O5 0.747247 0.277447 0.431501
O O6 0.749461 0.137265 0.478138
O O7 0.825251 0.239097 0.551349
O O8 0.000000 0.204594 0.445688
O O9 0.750000 0.473696 0.250000
O O10 0.500000 0.468743 0.172670
O O11 0.743411 0.402315 0.129588
O O12 0.000000 0.351910 0.435298
O O13 0.240671 0.086978 0.606051
O O14 0.000000 0.076111 0.523646
O O15 0.243545 0.000000 0.500000
O O16 0.247455 0.798256 0.327550
O O17 0.000000 0.719484 0.346971
O O18 0.250000 0.093096 0.750000
O O19 0.500000 0.126038 0.822772
#
# Coordination Sequence:
#
# PCOD9419685 Si02
#       7
#     8   8   8   8   8   8   8
#     4  11  21  32  50  75  99 123 155 195 238 286
#     4   7  11  23  44  67  87 110 146 188 225 265
#     4  11  23  37  51  67  91 124 161 202 249 291
#     4   9  18  34  54  71  91 124 162 199 240 285
#     4   8  13  23  43  71  97 120 152 192 227 263
#     4   8  15  29  45  62  89 122 154 187 225 272
#     4   9  17  28  44  66  93 126 159 192 229 274
#
# _framework density 17.554760999999999
#
# number of rings (size 3 to 8) (size 9 to 14) (size 15 to 20)
#    0.000    3.000    0.000    4.714    0.000    4.000 
#    0.000    1.429    0.000    1.286    0.000    0.000 
#    0.000    0.000    0.000    0.000    0.000    0.000 
#
# Total GULP energy -311804.885301 kJ/mol
# GULP energy per Si atom -5567.944380 kJ/mol
# Density = 1.751481 g / cm^3
# Si number density = 17.554761 Si / 1000 Ang^3
#
#
#
# Elastic Constant Matrix: (Units=GPa)
#
#
# Indices 1 2 3 4 5 6 
#
# 1 14.2744 12.9669 5.8266 0.0000 0.0000 0.0000
# 2 12.9669 135.8162 38.5725 0.0000 0.0000 0.0000
# 3 5.8266 38.5725 46.2254 0.0000 0.0000 0.0000
# 4 0.0000 0.0000 0.0000 14.1438 0.0000 0.0000
# 5 0.0000 0.0000 0.0000 0.0000 18.4169 0.0000
# 6 0.0000 0.0000 0.0000 0.0000 0.0000 7.0461
#
#
#
# Elastic Compliance Matrix: (Units=1/GPa)
#
#
# Indices 1 2 3 4 5 6 
#
# 1 0.077483 -0.006060 -0.004710 0.000000 0.000000 0.000000
# 2 -0.006060 0.010124 -0.007684 0.000000 0.000000 0.000000
# 3 -0.004710 -0.007684 0.028639 0.000000 0.000000 0.000000
# 4 0.000000 0.000000 0.000000 0.070702 0.000000 0.000000
# 5 0.000000 0.000000 0.000000 0.000000 0.054298 0.000000
# 6 0.000000 0.000000 0.000000 0.000000 0.000000 0.141923
#
#
# Mechanical properties :
#
#
# Convention : Reuss Voigt Hill
#
# Bulk Modulus (GPa) = 12.60432 34.56089 23.58260
# Shear Modulus (GPa) = 11.19768 17.18469 14.19119
#
# Velocity S-wave (km/s) = 2.52835 3.13216 2.84631
# Velocity P-wave (km/s) = 3.96472 5.72807 4.92594
#
# Compressibility (1/GPa) = 0.07933787
#
# Stress axis : x y z
#
# Youngs Moduli (GPa) = 12.90607 98.77806 34.91801
#
# Poissons Ratio (x) = 0.59859 0.16446
# Poissons Ratio (y) = 0.07821 0.26830
# Poissons Ratio (z) = 0.06079 0.75899
#
# Static dielectric constant tensor:
#      x y z
#    x 1.604480 0.000000 0.000000 
#    y 0.000000 1.636560 0.000000 
#    z 0.000000 0.000000 1.597170 
# 
# From -- ./inp_files/26651.got.cif
#   From: 2010.05.17/outbox.cif.g08.bks.cpg/sg53_14_cif.got.tgz:26651.got - 2010.06.03 12:45:16.
