data_PCOD9419954
_publ_section_title
;
Structure prediction by ZEFSAII (Michael W. Deem and Ramdas Pophale) SiO2 
 PCOD9419954
Probable space group: P M N A
;
_chemical_formula_sum "Si O2"
_cell_formula_units_Z 20
_cell_length_a 31.930488
_cell_length_b 5.070244
_cell_length_c 5.154272
_cell_angle_alpha 90.000000
_cell_angle_beta 90.000000
_cell_angle_gamma 90.000000
_cell_volume 834.452748
_symmetry_space_group_name_H-M "P M N A"
_symmetry_group_IT_number 53
_symmetry_cell_setting 'orthorhombic'
loop_
_space_group_symop_operation_xyz
x,y,z
1/2-x,-y,1/2+z
x,-y,-z
1/2-x,y,1/2-z
-x,-y,-z
1/2+x,y,1/2-z
-x,y,z
1/2+x,-y,1/2+z
loop_
_atom_site_type_symbol
_atom_site_label
_atom_site_fract_x
_atom_site_fract_y
_atom_site_fract_z
Si Si1 0.573976 0.000000 0.000000
Si Si2 0.500000 0.753670 0.682047
Si Si3 0.873673 0.500000 0.500000
Si Si4 0.678156 0.500000 0.500000
Si Si5 0.750000 0.149591 0.750000
O O1 0.541853 0.806869 0.844914
O O2 0.602812 0.764001 0.110966
O O3 0.500000 0.500000 0.500000
O O4 0.500000 0.000000 0.500000
O O5 0.848991 0.600529 0.756075
O O6 0.710518 0.301419 0.634302
O O7 0.766961 0.000000 0.500000
#
# Coordination Sequence:
#
# PCOD9419954 Si02
#       5
#     4   4   4   4   4
#     4  11  28  48  72 120 154 206 266 320 402 472
#     4  11  24  47  82 107 151 212 261 324 383 485
#     4  12  29  47  80 114 167 206 257 338 400 469
#     4  12  29  50  74 119 151 210 267 325 404 466
#     4  12  26  50  82 108 152 208 268 330 388 488
#
# _framework density 23.967803
#
# number of rings (size 3 to 8) (size 9 to 14) (size 15 to 20)
#    0.000    0.400    0.000    7.200   16.800    3.200 
#    0.000    0.000    0.000    0.000    0.000    0.000 
#    0.000    0.000    0.000    0.000    0.000    0.000 
#
# Total GULP energy -111498.539752 kJ/mol
# GULP energy per Si atom -5574.926988 kJ/mol
# Density = 2.391325 g / cm^3
# Si number density = 23.967803 Si / 1000 Ang^3
#
#
#
# Elastic Constant Matrix: (Units=GPa)
#
#
# Indices 1 2 3 4 5 6 
#
# 1 90.4258 49.4402 53.1865 0.0000 0.0000 0.0000
# 2 49.4402 170.2446 59.7924 0.0000 0.0000 0.0000
# 3 53.1865 59.7924 167.7883 0.0000 0.0000 0.0000
# 4 0.0000 0.0000 0.0000 64.7703 0.0000 0.0000
# 5 0.0000 0.0000 0.0000 0.0000 123.3387 0.0000
# 6 0.0000 0.0000 0.0000 0.0000 0.0000 62.6271
#
#
#
# Elastic Compliance Matrix: (Units=1/GPa)
#
#
# Indices 1 2 3 4 5 6 
#
# 1 0.014853 -0.003040 -0.003625 0.000000 0.000000 0.000000
# 2 -0.003040 0.007337 -0.001651 0.000000 0.000000 0.000000
# 3 -0.003625 -0.001651 0.007697 0.000000 0.000000 0.000000
# 4 0.000000 0.000000 0.000000 0.015439 0.000000 0.000000
# 5 0.000000 0.000000 0.000000 0.000000 0.008108 0.000000
# 6 0.000000 0.000000 0.000000 0.000000 0.000000 0.015968
#
#
# Mechanical properties :
#
#
# Convention : Reuss Voigt Hill
#
# Bulk Modulus (GPa) = 75.44225 83.69968 79.57097
# Shear Modulus (GPa) = 55.27834 67.88320 61.58077
#
# Velocity S-wave (km/s) = 4.80767 5.32768 5.07434
# Velocity P-wave (km/s) = 7.89703 8.53481 8.22211
#
# Compressibility (1/GPa) = 0.01325517
#
# Stress axis : x y z
#
# Youngs Moduli (GPa) = 67.32591 136.30299 129.91870
#
# Poissons Ratio (x) = 0.41441 0.47093
# Poissons Ratio (y) = 0.20470 0.21445
# Poissons Ratio (z) = 0.24404 0.22499
#
# Static dielectric constant tensor:
#      x y z
#    x 1.692990 0.000000 0.000000 
#    y 0.000000 1.995190 0.000000 
#    z 0.000000 0.000000 1.879740 
# 
# From -- ./inp_files/3211.got.cif
#   From: 2010.05.17/outbox.cif.g08.bks.cpg/sg53_2_cif.got.tgz:3211.got - 2010.06.03 12:45:16.
