data_PCOD9419926
_publ_section_title
;
Structure prediction by ZEFSAII (Michael W. Deem and Ramdas Pophale) SiO2 
 PCOD9419926
Probable space group: P M N A
;
_chemical_formula_sum "Si O2"
_cell_formula_units_Z 32
_cell_length_a 15.845379
_cell_length_b 5.124441
_cell_length_c 16.559548
_cell_angle_alpha 90.000000
_cell_angle_beta 90.000000
_cell_angle_gamma 90.000000
_cell_volume 1344.613933
_symmetry_space_group_name_H-M "P M N A"
_symmetry_group_IT_number 53
_symmetry_cell_setting 'orthorhombic'
loop_
_space_group_symop_operation_xyz
x,y,z
1/2-x,-y,1/2+z
x,-y,-z
1/2-x,y,1/2-z
-x,-y,-z
1/2+x,y,1/2-z
-x,y,z
1/2+x,-y,1/2+z
loop_
_atom_site_type_symbol
_atom_site_label
_atom_site_fract_x
_atom_site_fract_y
_atom_site_fract_z
Si Si1 0.350514 0.165178 0.785344
Si Si2 0.253448 0.109671 0.408533
Si Si3 0.098625 0.331146 0.182747
Si Si4 0.589011 0.540616 0.905639
O O1 0.362026 0.421347 0.729242
O O2 0.403247 0.262478 0.862968
O O3 0.263018 0.090185 0.832890
O O4 0.390730 0.919179 0.740797
O O5 0.341391 0.257068 0.392536
O O6 0.175126 0.302647 0.393945
O O7 0.250054 0.000000 0.500000
O O8 0.000000 0.375778 0.164247
O O9 0.500000 0.661222 0.878207
O O10 0.585066 0.500000 0.000000
#
# Coordination Sequence:
#
# PCOD9419926 Si02
#       4
#     8   8   8   8
#     4  12  26  47  73 109 145 194 250 310 367 440
#     4  12  28  47  76 112 155 197 251 308 381 447
#     4  12  29  49  77 109 149 201 255 309 370 444
#     4  11  24  42  69 107 152 195 240 302 381 455
#
# _framework density 23.798651
#
# number of rings (size 3 to 8) (size 9 to 14) (size 15 to 20)
#    0.000    0.250    5.000    3.000    7.000    3.000 
#    0.000    0.000    0.000    3.750    0.000    0.000 
#    0.000    0.000    0.000    0.000    0.000    0.000 
#
# Total GULP energy -178807.174184 kJ/mol
# GULP energy per Si atom -5587.724193 kJ/mol
# Density = 2.374448 g / cm^3
# Si number density = 23.798651 Si / 1000 Ang^3
#
#
#
# Elastic Constant Matrix: (Units=GPa)
#
#
# Indices 1 2 3 4 5 6 
#
# 1 202.0945 52.6451 26.9773 0.0000 0.0000 0.0000
# 2 52.6451 136.5463 18.8850 0.0000 0.0000 0.0000
# 3 26.9773 18.8850 39.8792 0.0000 0.0000 0.0000
# 4 0.0000 0.0000 0.0000 32.6340 0.0000 0.0000
# 5 0.0000 0.0000 0.0000 0.0000 -43.8494 0.0000
# 6 0.0000 0.0000 0.0000 0.0000 0.0000 46.7998
#
#
#
# Elastic Compliance Matrix: (Units=1/GPa)
#
#
# Indices 1 2 3 4 5 6 
#
# 1 0.005835 -0.001823 -0.003084 0.000000 0.000000 0.000000
# 2 -0.001823 0.008406 -0.002748 0.000000 0.000000 0.000000
# 3 -0.003084 -0.002748 0.028463 0.000000 0.000000 0.000000
# 4 0.000000 0.000000 0.000000 0.030643 0.000000 0.000000
# 5 0.000000 0.000000 0.000000 0.000000 -0.022805 0.000000
# 6 0.000000 0.000000 0.000000 0.000000 0.000000 0.021368
#
#
# Mechanical properties :
#
#
# Convention : Reuss Voigt Hill
#
# Bulk Modulus (GPa) = 36.50274 63.94832 50.22553
# Shear Modulus (GPa) = 51.89421 25.78438 38.83930
#
# Velocity S-wave (km/s) = 4.67470 3.29513 4.04418
# Velocity P-wave (km/s) = 6.67148 6.43476 6.55419
#
# Compressibility (1/GPa) = 0.02739520
#
# Stress axis : x y z
#
# Youngs Moduli (GPa) = 171.38766 118.95676 35.13342
#
# Poissons Ratio (x) = 0.21687 0.10834
# Poissons Ratio (y) = 0.31245 0.09653
# Poissons Ratio (z) = 0.52851 0.32685
#
# Static dielectric constant tensor:
#      x y z
#    x 2.026210 0.000000 0.000000 
#    y 0.000000 1.924660 0.000000 
#    z 0.000000 0.000000 1.953010 
# 
# From -- ./inp_files/28698.got.cif
#   From: 2010.05.17/outbox.cif.g08.bks.cpg/sg53_15_cif.got.tgz:28698.got - 2010.06.03 12:45:16.
