data_PCOD9419188
_publ_section_title
;
Structure prediction by ZEFSAII (Michael W. Deem and Ramdas Pophale) SiO2 
 PCOD9419188
Probable space group: P M N A
;
_chemical_formula_sum "Si O2"
_cell_formula_units_Z 36
_cell_length_a 13.786979
_cell_length_b 8.135677
_cell_length_c 15.967280
_cell_angle_alpha 90.000000
_cell_angle_beta 90.000000
_cell_angle_gamma 90.000000
_cell_volume 1790.992442
_symmetry_space_group_name_H-M "P M N A"
_symmetry_group_IT_number 53
_symmetry_cell_setting 'orthorhombic'
loop_
_space_group_symop_operation_xyz
x,y,z
1/2-x,-y,1/2+z
x,-y,-z
1/2-x,y,1/2-z
-x,-y,-z
1/2+x,y,1/2-z
-x,y,z
1/2+x,-y,1/2+z
loop_
_atom_site_type_symbol
_atom_site_label
_atom_site_fract_x
_atom_site_fract_y
_atom_site_fract_z
Si Si1 0.500000 0.229629 0.087347
Si Si2 0.351783 0.807652 0.210464
Si Si3 0.000000 0.058405 0.227216
Si Si4 0.500000 0.634608 0.620157
Si Si5 0.329890 0.500000 0.500000
Si Si6 0.304566 0.826454 0.021941
Si Si7 0.500000 0.523683 0.198892
O O1 0.500000 0.143513 0.179585
O O2 0.401437 0.194303 0.035644
O O3 0.500000 0.419459 0.114862
O O4 0.250000 0.776345 0.250000
O O5 0.408530 0.639691 0.203434
O O6 0.407661 0.939189 0.267206
O O7 0.341467 0.861416 0.115283
O O8 0.000000 0.170959 0.144067
O O9 0.404753 0.565213 0.572115
O O10 0.500000 0.572133 0.714778
O O11 0.261683 0.339566 0.519470
O O12 0.252480 0.000000 0.000000
#
# Coordination Sequence:
#
# PCOD9419188 Si02
#       7
#     4   8   4   4   4   8   4
#     4  11  21  41  65  98 130 170 208 271 344 397
#     4  11  23  39  62  97 132 170 222 272 332 399
#     4  10  22  39  65  91 128 174 213 266 340 395
#     4  10  24  47  64  89 136 175 234 274 324 394
#     4  11  26  45  66 100 130 183 228 279 326 396
#     4  12  24  41  69 101 137 170 220 278 338 404
#     4  10  22  40  66  92 132 182 213 277 334 398
#
# _framework density 20.100587999999998
#
# number of rings (size 3 to 8) (size 9 to 14) (size 15 to 20)
#    0.000    1.111    2.222    4.333    3.111    1.333 
#    0.000    5.556    0.000    0.000    0.000    0.000 
#    0.000    0.000    0.000    0.000    0.000    0.000 
#
# Total GULP energy -200651.880394 kJ/mol
# GULP energy per Si atom -5573.663344 kJ/mol
# Density = 2.005484 g / cm^3
# Si number density = 20.100588 Si / 1000 Ang^3
#
#
#
# Elastic Constant Matrix: (Units=GPa)
#
#
# Indices 1 2 3 4 5 6 
#
# 1 112.1376 53.9054 23.6608 0.0000 0.0000 0.0000
# 2 53.9054 140.1610 29.1215 0.0000 0.0000 0.0000
# 3 23.6608 29.1215 78.4717 0.0000 0.0000 0.0000
# 4 0.0000 0.0000 0.0000 2245.2050 0.0000 0.0000
# 5 0.0000 0.0000 0.0000 0.0000 -81.9667 0.0000
# 6 0.0000 0.0000 0.0000 0.0000 0.0000 -11.7001
#
#
#
# Elastic Compliance Matrix: (Units=1/GPa)
#
#
# Indices 1 2 3 4 5 6 
#
# 1 0.011203 -0.003908 -0.001928 0.000000 0.000000 0.000000
# 2 -0.003908 0.009094 -0.002197 0.000000 0.000000 0.000000
# 3 -0.001928 -0.002197 0.014140 0.000000 0.000000 0.000000
# 4 0.000000 0.000000 0.000000 0.000445 0.000000 0.000000
# 5 0.000000 0.000000 0.000000 0.000000 -0.012200 0.000000
# 6 0.000000 0.000000 0.000000 0.000000 0.000000 -0.085469
#
#
# Mechanical properties :
#
#
# Convention : Reuss Voigt Hill
#
# Bulk Modulus (GPa) = 54.42944 60.46064 57.44504
# Shear Modulus (GPa) = -123.15657 445.24648 161.04495
#
# Velocity S-wave (km/s) = -7.83602 14.89933 8.96066
# Velocity P-wave (km/s) = 7.39821 18.05910 11.64898
#
# Compressibility (1/GPa) = 0.01837241
#
# Stress axis : x y z
#
# Youngs Moduli (GPa) = 89.26184 109.96172 70.72241
#
# Poissons Ratio (x) = 0.42974 0.13632
# Poissons Ratio (y) = 0.34885 0.15534
# Poissons Ratio (z) = 0.17206 0.24153
#
# Static dielectric constant tensor:
#      x y z
#    x 1.706610 0.000000 0.000000 
#    y 0.000000 1.964970 0.000000 
#    z 0.000000 0.000000 1.696400 
# 
# From -- ./inp_files/22364.got.cif
#   From: 2010.05.17/outbox.cif.g08.bks.cpg/sg53_12_cif.got.tgz:22364.got - 2010.06.03 12:45:16.
