data_PCOD9419834
_publ_section_title
;
Structure prediction by ZEFSAII (Michael W. Deem and Ramdas Pophale) SiO2 
 PCOD9419834
Probable space group: P M N A
;
_chemical_formula_sum "Si O2"
_cell_formula_units_Z 40
_cell_length_a 15.480089
_cell_length_b 9.873517
_cell_length_c 11.196462
_cell_angle_alpha 90.000000
_cell_angle_beta 90.000000
_cell_angle_gamma 90.000000
_cell_volume 1711.299967
_symmetry_space_group_name_H-M "P M N A"
_symmetry_group_IT_number 53
_symmetry_cell_setting 'orthorhombic'
loop_
_space_group_symop_operation_xyz
x,y,z
1/2-x,-y,1/2+z
x,-y,-z
1/2-x,y,1/2-z
-x,-y,-z
1/2+x,y,1/2-z
-x,y,z
1/2+x,-y,1/2+z
loop_
_atom_site_type_symbol
_atom_site_label
_atom_site_fract_x
_atom_site_fract_y
_atom_site_fract_z
Si Si1 0.597244 0.321018 0.278256
Si Si2 0.324222 0.847591 0.507807
Si Si3 0.135543 0.084734 0.394800
Si Si4 0.104949 0.829491 0.244538
Si Si5 0.105292 0.559043 0.374506
O O1 0.500000 0.350523 0.315651
O O2 0.640221 0.246061 0.387960
O O3 0.596156 0.216928 0.165979
O O4 0.637244 0.459405 0.229846
O O5 0.225590 0.870456 0.546789
O O6 0.347581 0.790310 0.378101
O O7 0.363870 0.000000 0.500000
O O8 0.089802 0.000000 0.500000
O O9 0.141556 0.972994 0.289906
O O10 0.123354 0.713732 0.342374
O O11 0.000000 0.839296 0.229066
O O12 0.137335 0.500000 0.500000
O O13 0.000000 0.547950 0.376570
#
# Coordination Sequence:
#
# PCOD9419834 Si02
#       5
#     8   8   8   8   8
#     4  11  22  39  68  98 132 177 227 283 342 404
#     4  11  24  40  65  94 144 180 223 284 346 404
#     4  11  24  39  66  92 135 178 224 279 343 403
#     4  11  23  42  71 103 135 182 237 284 343 408
#     4   9  20  40  66 101 139 173 222 291 343 396
#
# _framework density 23.374044999999999
#
# number of rings (size 3 to 8) (size 9 to 14) (size 15 to 20)
#    0.000    1.400    2.000    3.000    2.800    4.800 
#    0.000    3.000   35.200    0.000    0.000    0.000 
#    0.000    0.000    0.000    0.000    0.000    0.000 
#
# Total GULP energy -223624.324487 kJ/mol
# GULP energy per Si atom -5590.608112 kJ/mol
# Density = 2.332084 g / cm^3
# Si number density = 23.374045 Si / 1000 Ang^3
#
#
#
# Elastic Constant Matrix: (Units=GPa)
#
#
# Indices 1 2 3 4 5 6 
#
# 1 103.4372 20.5979 48.2062 0.0000 0.0000 0.0000
# 2 20.5979 102.6119 12.3055 0.0000 0.0000 0.0000
# 3 48.2062 12.3055 110.6523 0.0000 0.0000 0.0000
# 4 0.0000 0.0000 0.0000 45.1917 0.0000 0.0000
# 5 0.0000 0.0000 0.0000 0.0000 23.6583 0.0000
# 6 0.0000 0.0000 0.0000 0.0000 0.0000 -2.8425
#
#
#
# Elastic Compliance Matrix: (Units=1/GPa)
#
#
# Indices 1 2 3 4 5 6 
#
# 1 0.012478 -0.001878 -0.005227 0.000000 0.000000 0.000000
# 2 -0.001878 0.010160 -0.000312 0.000000 0.000000 0.000000
# 3 -0.005227 -0.000312 0.011349 0.000000 0.000000 0.000000
# 4 0.000000 0.000000 0.000000 0.022128 0.000000 0.000000
# 5 0.000000 0.000000 0.000000 0.000000 0.042268 0.000000
# 6 0.000000 0.000000 0.000000 0.000000 0.000000 -0.351803
#
#
# Mechanical properties :
#
#
# Convention : Reuss Voigt Hill
#
# Bulk Modulus (GPa) = 52.21059 53.21339 52.71199
# Shear Modulus (GPa) = -21.53301 28.90762 3.68731
#
# Velocity S-wave (km/s) = -3.03848 3.52055 1.25736
# Velocity P-wave (km/s) = 3.17422 6.27225 4.97075
#
# Compressibility (1/GPa) = 0.01915320
#
# Stress axis : x y z
#
# Youngs Moduli (GPa) = 80.14280 98.42709 88.11182
#
# Poissons Ratio (x) = 0.18483 0.46057
# Poissons Ratio (y) = 0.15050 0.02747
# Poissons Ratio (z) = 0.41892 0.03069
#
# Static dielectric constant tensor:
#      x y z
#    x 1.872490 0.000000 0.000000 
#    y 0.000000 1.877030 0.000000 
#    z 0.000000 0.000000 1.908830 
# 
# From -- ./inp_files/16683.got.cif
#   From: 2010.05.17/outbox.cif.g08.bks.cpg/sg53_9_cif.got.tgz:16683.got - 2010.06.03 12:45:16.
