data_PCOD9419888
_publ_section_title
;
Structure prediction by ZEFSAII (Michael W. Deem and Ramdas Pophale) SiO2 
 PCOD9419888
Probable space group: P M N A
;
_chemical_formula_sum "Si O2"
_cell_formula_units_Z 64
_cell_length_a 8.816251
_cell_length_b 22.101010
_cell_length_c 18.182831
_cell_angle_alpha 90.000000
_cell_angle_beta 90.000000
_cell_angle_gamma 90.000000
_cell_volume 3542.889191
_symmetry_space_group_name_H-M "P M N A"
_symmetry_group_IT_number 53
_symmetry_cell_setting 'orthorhombic'
loop_
_space_group_symop_operation_xyz
x,y,z
1/2-x,-y,1/2+z
x,-y,-z
1/2-x,y,1/2-z
-x,-y,-z
1/2+x,y,1/2-z
-x,y,z
1/2+x,-y,1/2+z
loop_
_atom_site_type_symbol
_atom_site_label
_atom_site_fract_x
_atom_site_fract_y
_atom_site_fract_z
Si Si1 0.319706 0.119644 0.088996
Si Si2 0.181413 0.310791 0.944230
Si Si3 0.182564 0.372848 0.172506
Si Si4 0.818982 0.112385 0.926213
Si Si5 0.315054 0.566733 0.521448
Si Si6 0.319580 0.994038 0.670965
Si Si7 0.680798 0.778125 0.168617
Si Si8 0.819219 0.247244 0.101321
O O1 0.500000 0.115342 0.086050
O O2 0.253212 0.067106 0.140012
O O3 0.269007 0.185883 0.115947
O O4 0.250947 0.112323 0.007303
O O5 0.268195 0.281129 0.876700
O O6 0.000000 0.309978 0.930331
O O7 0.228018 0.378916 0.966310
O O8 0.207117 0.270199 0.017532
O O9 0.250000 0.391445 0.250000
O O10 0.232204 0.413470 0.103324
O O11 0.224838 0.303619 0.152639
O O12 0.000000 0.374941 0.175268
O O13 0.747034 0.165369 0.877278
O O14 0.000000 0.122232 0.931672
O O15 0.791455 0.048679 0.885822
O O16 0.262563 0.500000 0.500000
O O17 0.500000 0.566516 0.521381
O O18 0.250000 0.009434 0.750000
O O19 0.500000 0.986435 0.677798
O O20 0.750000 0.778123 0.250000
O O21 0.500000 0.782364 0.172275
O O22 0.000000 0.236932 0.108517
#
# Coordination Sequence:
#
# PCOD9419888 Si02
#       8
#     8   8   8   8   8   8   8   8
#     4  12  24  37  59  88 115 148 189 232 281 341
#     4   9  17  33  57  81 109 146 186 233 279 330
#     4   9  18  32  53  82 112 149 187 231 282 331
#     4  11  23  41  63  85 112 147 189 236 287 342
#     4   8  15  31  57  85 112 150 196 232 274 335
#     4  11  25  43  61  81 110 148 188 236 290 342
#     4  12  24  37  57  85 115 148 187 235 290 344
#     4   9  18  34  55  77 108 146 187 229 279 334
#
# _framework density 18.064353000000001
#
# number of rings (size 3 to 8) (size 9 to 14) (size 15 to 20)
#    0.000    1.875    1.250    5.250    0.000    5.500 
#    0.000    3.750    0.000    3.000    0.000    0.000 
#    0.000    0.000    0.000    0.000    0.000    0.000 
#
# Total GULP energy -357514.931603 kJ/mol
# GULP energy per Si atom -5586.170806 kJ/mol
# Density = 1.802324 g / cm^3
# Si number density = 18.064353 Si / 1000 Ang^3
#
#
#
# Elastic Constant Matrix: (Units=GPa)
#
#
# Indices 1 2 3 4 5 6 
#
# 1 48.8953 39.0222 9.6266 0.0000 0.0000 0.0000
# 2 39.0222 107.8037 12.5875 0.0000 0.0000 0.0000
# 3 9.6266 12.5875 38.1522 0.0000 0.0000 0.0000
# 4 0.0000 0.0000 0.0000 15.8840 0.0000 0.0000
# 5 0.0000 0.0000 0.0000 0.0000 30.4521 0.0000
# 6 0.0000 0.0000 0.0000 0.0000 0.0000 16.9575
#
#
#
# Elastic Compliance Matrix: (Units=1/GPa)
#
#
# Indices 1 2 3 4 5 6 
#
# 1 0.029352 -0.010151 -0.004057 0.000000 0.000000 0.000000
# 2 -0.010151 0.013158 -0.001780 0.000000 0.000000 0.000000
# 3 -0.004057 -0.001780 0.027822 0.000000 0.000000 0.000000
# 4 0.000000 0.000000 0.000000 0.062957 0.000000 0.000000
# 5 0.000000 0.000000 0.000000 0.000000 0.032838 0.000000
# 6 0.000000 0.000000 0.000000 0.000000 0.000000 0.058971
#
#
# Mechanical properties :
#
#
# Convention : Reuss Voigt Hill
#
# Bulk Modulus (GPa) = 26.07149 35.25818 30.66484
# Shear Modulus (GPa) = 18.52820 21.56638 20.04729
#
# Velocity S-wave (km/s) = 3.20609 3.45898 3.33494
# Velocity P-wave (km/s) = 5.30747 5.95930 5.64281
#
# Compressibility (1/GPa) = 0.03835607
#
# Stress axis : x y z
#
# Youngs Moduli (GPa) = 34.06945 75.99744 35.94309
#
# Poissons Ratio (x) = 0.77144 0.14582
# Poissons Ratio (y) = 0.34584 0.06398
# Poissons Ratio (z) = 0.13822 0.13528
#
# Static dielectric constant tensor:
#      x y z
#    x 1.601310 0.000000 0.000000 
#    y 0.000000 1.615800 0.000000 
#    z 0.000000 0.000000 1.595610 
# 
# From -- ./inp_files/26984.got.cif
#   From: 2010.05.17/outbox.cif.g08.bks.cpg/sg53_14_cif.got.tgz:26984.got - 2010.06.03 12:45:16.
