data_PCOD9419363
_publ_section_title
;
Structure prediction by ZEFSAII (Michael W. Deem and Ramdas Pophale) SiO2 
 PCOD9419363
Probable space group: P M N A
;
_chemical_formula_sum "Si O2"
_cell_formula_units_Z 32
_cell_length_a 16.427928
_cell_length_b 16.472509
_cell_length_c 4.872396
_cell_angle_alpha 90.000000
_cell_angle_beta 90.000000
_cell_angle_gamma 90.000000
_cell_volume 1318.515144
_symmetry_space_group_name_H-M "P M N A"
_symmetry_group_IT_number 53
_symmetry_cell_setting 'orthorhombic'
loop_
_space_group_symop_operation_xyz
x,y,z
1/2-x,-y,1/2+z
x,-y,-z
1/2-x,y,1/2-z
-x,-y,-z
1/2+x,y,1/2-z
-x,y,z
1/2+x,-y,1/2+z
loop_
_atom_site_type_symbol
_atom_site_label
_atom_site_fract_x
_atom_site_fract_y
_atom_site_fract_z
Si Si1 0.000000 0.349883 0.832190
Si Si2 0.500000 0.241370 0.176500
Si Si3 0.688221 0.000000 0.500000
Si Si4 0.840291 0.827845 0.872836
Si Si5 0.250000 0.298555 0.750000
Si Si6 0.348083 0.554122 0.250725
O O1 0.922544 0.403353 0.900116
O O2 0.000000 0.318812 0.520275
O O3 0.000000 0.268793 0.007897
O O4 0.587936 0.197060 0.163085
O O5 0.637341 0.916830 0.515474
O O6 0.750000 0.987481 0.250000
O O7 0.750000 0.841371 0.750000
O O8 0.813898 0.757184 0.086832
O O9 0.196310 0.368048 0.601921
O O10 0.307390 0.500000 0.500000
O O11 0.376387 0.500000 0.000000
#
# Coordination Sequence:
#
# PCOD9419363 Si02
#       6
#     4   4   4   8   4   8
#     4  12  24  47  68  99 138 185 237 296 359 419
#     4  12  26  44  74 110 140 187 247 288 353 440
#     4  10  22  43  72 107 142 186 234 289 356 429
#     4  11  25  45  75 104 146 189 237 294 362 426
#     4  12  24  42  70  94 138 184 236 294 352 422
#     4  12  26  43  65  99 135 179 239 294 353 416
#
# _framework density 24.269725999999999
#
# number of rings (size 3 to 8) (size 9 to 14) (size 15 to 20)
#    0.000    0.500    3.750    4.500    3.500    0.500 
#    0.000    0.000    0.000    5.250    0.000    0.000 
#    0.000    0.000    0.000    0.000    0.000    0.000 
#
# Total GULP energy -178272.810182 kJ/mol
# GULP energy per Si atom -5571.025318 kJ/mol
# Density = 2.421449 g / cm^3
# Si number density = 24.269726 Si / 1000 Ang^3
#
#
#
# Elastic Constant Matrix: (Units=GPa)
#
#
# Indices 1 2 3 4 5 6 
#
# 1 94.5074 22.8393 -7.3177 0.0000 0.0000 0.0000
# 2 22.8393 169.5182 17.7679 0.0000 0.0000 0.0000
# 3 -7.3177 17.7679 63.7724 0.0000 0.0000 0.0000
# 4 0.0000 0.0000 0.0000 31.8168 0.0000 0.0000
# 5 0.0000 0.0000 0.0000 0.0000 13.5651 0.0000
# 6 0.0000 0.0000 0.0000 0.0000 0.0000 9.6891
#
#
#
# Elastic Compliance Matrix: (Units=1/GPa)
#
#
# Indices 1 2 3 4 5 6 
#
# 1 0.011123 -0.001681 0.001745 0.000000 0.000000 0.000000
# 2 -0.001681 0.006331 -0.001957 0.000000 0.000000 0.000000
# 3 0.001745 -0.001957 0.016426 0.000000 0.000000 0.000000
# 4 0.000000 0.000000 0.000000 0.031430 0.000000 0.000000
# 5 0.000000 0.000000 0.000000 0.000000 0.073718 0.000000
# 6 0.000000 0.000000 0.000000 0.000000 0.000000 0.103209
#
#
# Mechanical properties :
#
#
# Convention : Reuss Voigt Hill
#
# Bulk Modulus (GPa) = 33.23074 43.81966 38.52520
# Shear Modulus (GPa) = 19.52706 30.64808 25.08757
#
# Velocity S-wave (km/s) = 2.83960 3.55746 3.21861
# Velocity P-wave (km/s) = 4.94703 5.91342 5.45168
#
# Compressibility (1/GPa) = 0.03009262
#
# Stress axis : x y z
#
# Youngs Moduli (GPa) = 89.90677 157.96011 60.87852
#
# Poissons Ratio (x) = 0.26560 -0.10622
# Poissons Ratio (y) = 0.15117 0.11913
# Poissons Ratio (z) = -0.15687 0.30909
#
# Static dielectric constant tensor:
#      x y z
#    x 2.102000 0.000000 0.000000 
#    y 0.000000 1.953980 0.000000 
#    z 0.000000 0.000000 1.928830 
# 
# From -- ./inp_files/2008.got.cif
#   From: 2010.05.17/outbox.cif.g08.bks.cpg/sg53_2_cif.got.tgz:2008.got - 2010.06.03 12:45:16.
