data_PCOD9419933
_publ_section_title
;
Structure prediction by ZEFSAII (Michael W. Deem and Ramdas Pophale) SiO2 
 PCOD9419933
Probable space group: P M N A
;
_chemical_formula_sum "Si O2"
_cell_formula_units_Z 20
_cell_length_a 34.758295
_cell_length_b 4.951659
_cell_length_c 5.143741
_cell_angle_alpha 90.000000
_cell_angle_beta 90.000000
_cell_angle_gamma 90.000000
_cell_volume 885.295561
_symmetry_space_group_name_H-M "P M N A"
_symmetry_group_IT_number 53
_symmetry_cell_setting 'orthorhombic'
loop_
_space_group_symop_operation_xyz
x,y,z
1/2-x,-y,1/2+z
x,-y,-z
1/2-x,y,1/2-z
-x,-y,-z
1/2+x,y,1/2-z
-x,y,z
1/2+x,-y,1/2+z
loop_
_atom_site_type_symbol
_atom_site_label
_atom_site_fract_x
_atom_site_fract_y
_atom_site_fract_z
Si Si1 0.068702 0.500000 0.000000
Si Si2 0.829598 0.000000 0.500000
Si Si3 0.275725 0.500000 0.000000
Si Si4 0.379786 0.000000 0.500000
Si Si5 0.500000 0.746988 0.812533
O O1 0.096448 0.737310 0.103913
O O2 0.038697 0.304629 0.152396
O O3 0.802612 0.750493 0.424599
O O4 0.854891 0.915864 0.749729
O O5 0.250000 0.572699 0.750000
O O6 0.500000 0.500000 0.000000
O O7 0.500000 0.000000 0.000000
#
# Coordination Sequence:
#
# PCOD9419933 Si02
#       5
#     4   4   4   4   4
#     4  11  26  43  66 103 130 192 232 298 352 419
#     4  12  26  45  68 107 138 181 228 281 342 429
#     4  12  24  45  74 101 138 179 228 281 340 405
#     4  12  26  44  70  98 148 181 230 283 360 418
#     4  11  24  43  70  95 135 174 252 293 350 417
#
# _framework density 22.591328000000001
#
# number of rings (size 3 to 8) (size 9 to 14) (size 15 to 20)
#    0.000    0.400    0.000    8.400    8.400    3.200 
#    0.000    0.000    0.000    0.000    0.000    0.000 
#    0.000    0.000    0.000    0.000    0.000    0.000 
#
# Total GULP energy -111645.103366 kJ/mol
# GULP energy per Si atom -5582.255168 kJ/mol
# Density = 2.253991 g / cm^3
# Si number density = 22.591328 Si / 1000 Ang^3
#
#
#
# Elastic Constant Matrix: (Units=GPa)
#
#
# Indices 1 2 3 4 5 6 
#
# 1 90.1342 27.7189 29.5170 0.0000 0.0000 0.0000
# 2 27.7189 151.7000 -4.8693 0.0000 0.0000 0.0000
# 3 29.5170 -4.8693 94.9134 0.0000 0.0000 0.0000
# 4 0.0000 0.0000 0.0000 45.8717 0.0000 0.0000
# 5 0.0000 0.0000 0.0000 0.0000 21.0235 0.0000
# 6 0.0000 0.0000 0.0000 0.0000 0.0000 46.7508
#
#
#
# Elastic Compliance Matrix: (Units=1/GPa)
#
#
# Indices 1 2 3 4 5 6 
#
# 1 0.013278 -0.002563 -0.004261 0.000000 0.000000 0.000000
# 2 -0.002563 0.007098 0.001161 0.000000 0.000000 0.000000
# 3 -0.004261 0.001161 0.011921 0.000000 0.000000 0.000000
# 4 0.000000 0.000000 0.000000 0.021800 0.000000 0.000000
# 5 0.000000 0.000000 0.000000 0.000000 0.047566 0.000000
# 6 0.000000 0.000000 0.000000 0.000000 0.000000 0.021390
#
#
# Mechanical properties :
#
#
# Convention : Reuss Voigt Hill
#
# Bulk Modulus (GPa) = 47.68497 49.05341 48.36919
# Shear Modulus (GPa) = 35.36879 41.68791 38.52835
#
# Velocity S-wave (km/s) = 3.96105 4.30036 4.13419
# Velocity P-wave (km/s) = 6.48640 6.81308 6.65174
#
# Compressibility (1/GPa) = 0.02097097
#
# Stress axis : x y z
#
# Youngs Moduli (GPa) = 75.31211 140.89384 83.88865
#
# Poissons Ratio (x) = 0.36111 0.35743
# Poissons Ratio (y) = 0.19302 -0.09741
# Poissons Ratio (z) = 0.32089 -0.16360
#
# Static dielectric constant tensor:
#      x y z
#    x 1.687230 0.000000 0.000000 
#    y 0.000000 1.807570 0.000000 
#    z 0.000000 0.000000 1.861230 
# 
# From -- ./inp_files/3929.got.cif
#   From: 2010.05.17/outbox.cif.g08.bks.cpg/sg53_2_cif.got.tgz:3929.got - 2010.06.03 12:45:16.
