data_PCOD9419215
_publ_section_title
;
Structure prediction by ZEFSAII (Michael W. Deem and Ramdas Pophale) SiO2 
 PCOD9419215
Probable space group: P M N A
;
_chemical_formula_sum "Si O2"
_cell_formula_units_Z 44
_cell_length_a 16.791814
_cell_length_b 8.996906
_cell_length_c 11.986239
_cell_angle_alpha 90.000000
_cell_angle_beta 90.000000
_cell_angle_gamma 90.000000
_cell_volume 1810.813531
_symmetry_space_group_name_H-M "P M N A"
_symmetry_group_IT_number 53
_symmetry_cell_setting 'orthorhombic'
loop_
_space_group_symop_operation_xyz
x,y,z
1/2-x,-y,1/2+z
x,-y,-z
1/2-x,y,1/2-z
-x,-y,-z
1/2+x,y,1/2-z
-x,y,z
1/2+x,-y,1/2+z
loop_
_atom_site_type_symbol
_atom_site_label
_atom_site_fract_x
_atom_site_fract_y
_atom_site_fract_z
Si Si1 0.088230 0.996522 0.753142
Si Si2 0.803010 0.000000 0.500000
Si Si3 0.093545 0.289747 0.141687
Si Si4 0.334583 0.453564 0.767302
Si Si5 0.163452 0.196779 0.912841
Si Si6 0.404858 0.761185 0.060465
O O1 0.093432 0.091813 0.867209
O O2 0.106873 0.114480 0.657656
O O3 0.000000 0.948583 0.723316
O O4 0.129940 0.844452 0.785036
O O5 0.739091 0.912125 0.422716
O O6 0.858944 0.856948 0.534481
O O7 0.100832 0.438328 0.213584
O O8 0.000000 0.266482 0.114631
O O9 0.141463 0.280732 0.026069
O O10 0.250000 0.535107 0.750000
O O11 0.323245 0.317751 0.681766
O O12 0.363244 0.385358 0.886255
O O13 0.500000 0.739515 0.041452
#
# Coordination Sequence:
#
# PCOD9419215 Si02
#       6
#     8   4   8   8   8   8
#     4   9  19  36  59  85 117 153 197 248 296 353
#     4  12  21  36  63  88 116 154 208 258 293 348
#     4  11  22  37  60  90 124 160 196 239 305 371
#     4  11  23  39  57  86 125 161 198 247 304 363
#     4  11  21  37  59  90 119 155 200 251 299 355
#     4  10  22  40  62  85 114 156 205 253 302 354
#
# _framework density 24.298469000000001
#
# number of rings (size 3 to 8) (size 9 to 14) (size 15 to 20)
#    0.000    1.455    3.636    1.909    0.000    5.818 
#    0.000    0.000    0.000    0.000    0.000    6.364 
#    0.000    0.000    0.000    0.000    0.000    0.000 
#
# Total GULP energy -245065.295774 kJ/mol
# GULP energy per Si atom -5569.665813 kJ/mol
# Density = 2.424316 g / cm^3
# Si number density = 24.298469 Si / 1000 Ang^3
#
#
#
# Elastic Constant Matrix: (Units=GPa)
#
#
# Indices 1 2 3 4 5 6 
#
# 1 106.5965 -2.5606 -2.7964 0.0000 0.0000 0.0000
# 2 -2.5606 62.9807 10.3454 0.0000 0.0000 0.0000
# 3 -2.7964 10.3454 54.0820 0.0000 0.0000 0.0000
# 4 0.0000 0.0000 0.0000 12.4854 0.0000 0.0000
# 5 0.0000 0.0000 0.0000 0.0000 19.7202 0.0000
# 6 0.0000 0.0000 0.0000 0.0000 0.0000 23.5651
#
#
#
# Elastic Compliance Matrix: (Units=1/GPa)
#
#
# Indices 1 2 3 4 5 6 
#
# 1 0.009400 0.000312 0.000426 0.000000 0.000000 0.000000
# 2 0.000312 0.016403 -0.003122 0.000000 0.000000 0.000000
# 3 0.000426 -0.003122 0.019110 0.000000 0.000000 0.000000
# 4 0.000000 0.000000 0.000000 0.080094 0.000000 0.000000
# 5 0.000000 0.000000 0.000000 0.000000 0.050709 0.000000
# 6 0.000000 0.000000 0.000000 0.000000 0.000000 0.042436
#
#
# Mechanical properties :
#
#
# Convention : Reuss Voigt Hill
#
# Bulk Modulus (GPa) = 24.90880 25.95954 25.43417
# Shear Modulus (GPa) = 21.15953 25.73220 23.44586
#
# Velocity S-wave (km/s) = 2.95416 3.25777 3.10967
# Velocity P-wave (km/s) = 4.68076 4.98573 4.83565
#
# Compressibility (1/GPa) = 0.04014645
#
# Stress axis : x y z
#
# Youngs Moduli (GPa) = 106.38466 60.96323 52.32961
#
# Poissons Ratio (x) = -0.01903 -0.02231
# Poissons Ratio (y) = -0.03321 0.16336
# Poissons Ratio (z) = -0.04536 0.19031
#
# Static dielectric constant tensor:
#      x y z
#    x 2.021050 0.000000 0.000000 
#    y 0.000000 1.955600 0.000000 
#    z 0.000000 0.000000 2.201090 
# 
# From -- ./inp_files/23507.got.cif
#   From: 2010.05.17/outbox.cif.g08.bks.cpg/sg53_12_cif.got.tgz:23507.got - 2010.06.03 12:45:16.
