data_PCOD9419893
_publ_section_title
;
Structure prediction by ZEFSAII (Michael W. Deem and Ramdas Pophale) SiO2 
 PCOD9419893
Probable space group: P M N A
;
_chemical_formula_sum "Si O2"
_cell_formula_units_Z 40
_cell_length_a 17.679167
_cell_length_b 8.639938
_cell_length_c 12.042431
_cell_angle_alpha 90.000000
_cell_angle_beta 90.000000
_cell_angle_gamma 90.000000
_cell_volume 1839.444085
_symmetry_space_group_name_H-M "P M N A"
_symmetry_group_IT_number 53
_symmetry_cell_setting 'orthorhombic'
loop_
_space_group_symop_operation_xyz
x,y,z
1/2-x,-y,1/2+z
x,-y,-z
1/2-x,y,1/2-z
-x,-y,-z
1/2+x,y,1/2-z
-x,y,z
1/2+x,-y,1/2+z
loop_
_atom_site_type_symbol
_atom_site_label
_atom_site_fract_x
_atom_site_fract_y
_atom_site_fract_z
Si Si1 0.085327 0.855037 0.933449
Si Si2 0.411054 0.773885 0.213144
Si Si3 0.335664 0.888399 0.779205
Si Si4 0.336301 0.646917 0.419211
Si Si5 0.673332 0.313042 0.996314
O O1 0.131229 0.799027 0.827369
O O2 0.000000 0.893088 0.901789
O O3 0.091038 0.727608 0.026726
O O4 0.119990 0.000000 0.000000
O O5 0.500000 0.759173 0.237422
O O6 0.358516 0.660906 0.289994
O O7 0.392876 0.734751 0.086371
O O8 0.383555 0.952524 0.223472
O O9 0.250000 0.929524 0.750000
O O10 0.335960 0.781367 0.888593
O O11 0.328482 0.500000 0.500000
O O12 0.255299 0.729611 0.441867
O O13 0.670629 0.500000 0.000000
#
# Coordination Sequence:
#
# PCOD9419893 Si02
#       5
#     8   8   8   8   8
#     4  11  23  41  68 102 136 172 224 289 347 412
#     4  12  27  45  68 103 143 183 233 289 354 424
#     4  12  24  43  72 100 135 184 234 287 351 413
#     4  11  24  45  72 101 138 180 232 288 348 417
#     4  11  27  46  70 100 138 186 238 289 345 422
#
# _framework density 21.745699999999999
#
# number of rings (size 3 to 8) (size 9 to 14) (size 15 to 20)
#    0.000    0.600    4.000    3.600    2.800    4.400 
#    0.000    0.000    0.000    0.000    0.000    0.000 
#    0.000    0.000    0.000    0.000    0.000    0.000 
#
# Total GULP energy -222940.860017 kJ/mol
# GULP energy per Si atom -5573.521500 kJ/mol
# Density = 2.169621 g / cm^3
# Si number density = 21.745700 Si / 1000 Ang^3
#
#
#
# Elastic Constant Matrix: (Units=GPa)
#
#
# Indices 1 2 3 4 5 6 
#
# 1 104.1535 5.1978 43.2964 0.0000 0.0000 0.0000
# 2 5.1978 41.1823 8.8333 0.0000 0.0000 0.0000
# 3 43.2964 8.8333 132.1558 0.0000 0.0000 0.0000
# 4 0.0000 0.0000 0.0000 37.8499 0.0000 0.0000
# 5 0.0000 0.0000 0.0000 0.0000 44.6319 0.0000
# 6 0.0000 0.0000 0.0000 0.0000 0.0000 19.4778
#
#
#
# Elastic Compliance Matrix: (Units=1/GPa)
#
#
# Indices 1 2 3 4 5 6 
#
# 1 0.011131 -0.000632 -0.003605 0.000000 0.000000 0.000000
# 2 -0.000632 0.024671 -0.001442 0.000000 0.000000 0.000000
# 3 -0.003605 -0.001442 0.008844 0.000000 0.000000 0.000000
# 4 0.000000 0.000000 0.000000 0.026420 0.000000 0.000000
# 5 0.000000 0.000000 0.000000 0.000000 0.022405 0.000000
# 6 0.000000 0.000000 0.000000 0.000000 0.000000 0.051341
#
#
# Mechanical properties :
#
#
# Convention : Reuss Voigt Hill
#
# Bulk Modulus (GPa) = 30.03917 43.57185 36.80551
# Shear Modulus (GPa) = 29.89251 35.06954 32.48102
#
# Velocity S-wave (km/s) = 3.71164 4.02021 3.86900
# Velocity P-wave (km/s) = 5.67557 6.45213 6.07627
#
# Compressibility (1/GPa) = 0.03328987
#
# Stress axis : x y z
#
# Youngs Moduli (GPa) = 89.83815 40.53292 113.06963
#
# Poissons Ratio (x) = 0.02561 0.40756
# Poissons Ratio (y) = 0.05676 0.16305
# Poissons Ratio (z) = 0.32382 0.05845
#
# Static dielectric constant tensor:
#      x y z
#    x 1.784730 0.000000 0.000000 
#    y 0.000000 0.816270 0.000000 
#    z 0.000000 0.000000 1.546090 
# 
# From -- ./inp_files/16699.got.cif
#   From: 2010.05.17/outbox.cif.g08.bks.cpg/sg53_9_cif.got.tgz:16699.got - 2010.06.03 12:45:16.
