data_PCOD9419006
_publ_section_title
;
Structure prediction by ZEFSAII (Michael W. Deem and Ramdas Pophale) SiO2 
 PCOD9419006
Probable space group: P M N A
;
_chemical_formula_sum "Si O2"
_cell_formula_units_Z 34
_cell_length_a 19.333703
_cell_length_b 7.334067
_cell_length_c 9.270207
_cell_angle_alpha 90.000000
_cell_angle_beta 90.000000
_cell_angle_gamma 90.000000
_cell_volume 1314.465972
_symmetry_space_group_name_H-M "P M N A"
_symmetry_group_IT_number 53
_symmetry_cell_setting 'orthorhombic'
loop_
_space_group_symop_operation_xyz
x,y,z
1/2-x,-y,1/2+z
x,-y,-z
1/2-x,y,1/2-z
-x,-y,-z
1/2+x,y,1/2-z
-x,y,z
1/2+x,-y,1/2+z
loop_
_atom_site_type_symbol
_atom_site_label
_atom_site_fract_x
_atom_site_fract_y
_atom_site_fract_z
Si Si1 0.071557 0.220901 0.710564
Si Si2 0.500000 0.500000 0.000000
Si Si3 0.860100 0.294781 0.990506
Si Si4 0.782795 0.831238 0.602389
Si Si5 0.923516 0.197671 0.283186
O O1 0.059771 0.367818 0.585726
O O2 0.000000 0.241395 0.801103
O O3 0.071810 0.010436 0.663888
O O4 0.131914 0.241088 0.824634
O O5 0.779930 0.280391 0.033699
O O6 0.906264 0.192436 0.111969
O O7 0.885021 0.500000 0.000000
O O8 0.750000 0.905692 0.750000
O O9 0.852593 0.728577 0.648805
O O10 0.798011 0.000000 0.500000
O O11 0.000000 0.289343 0.315345
#
# Coordination Sequence:
#
# PCOD9419006 Si02
#       5
#     8   2   8   8   8
#     4   9  19  40  68 101 151 193 248 313 395 484
#     4   8  20  40  64 110 154 192 244 312 410 472
#     4  11  22  39  68 102 145 197 255 322 383 472
#     4  10  22  44  68  99 138 191 261 316 387 479
#     4  10  21  41  70 108 140 193 254 319 393 471
#
# _framework density 25.866019000000001
#
# number of rings (size 3 to 8) (size 9 to 14) (size 15 to 20)
#    0.706    1.412    0.000    4.235    0.000    4.235 
#    8.471   10.588    0.000    0.706    0.000    0.000 
#    0.000    0.000    0.000    1.059    0.000    0.000 
#
# Total GULP energy -189452.609995 kJ/mol
# GULP energy per Si atom -5572.135588 kJ/mol
# Density = 2.580715 g / cm^3
# Si number density = 25.866019 Si / 1000 Ang^3
#
#
#
# Elastic Constant Matrix: (Units=GPa)
#
#
# Indices 1 2 3 4 5 6 
#
# 1 182.0659 6.9438 81.0002 0.0000 0.0000 0.0000
# 2 6.9438 92.6603 15.4784 0.0000 0.0000 0.0000
# 3 81.0002 15.4784 140.2043 0.0000 0.0000 0.0000
# 4 0.0000 0.0000 0.0000 40.2944 0.0000 0.0000
# 5 0.0000 0.0000 0.0000 0.0000 -32.7896 0.0000
# 6 0.0000 0.0000 0.0000 0.0000 0.0000 -12.0253
#
#
#
# Elastic Compliance Matrix: (Units=1/GPa)
#
#
# Indices 1 2 3 4 5 6 
#
# 1 0.007395 0.000162 -0.004290 0.000000 0.000000 0.000000
# 2 0.000162 0.010998 -0.001308 0.000000 0.000000 0.000000
# 3 -0.004290 -0.001308 0.009755 0.000000 0.000000 0.000000
# 4 0.000000 0.000000 0.000000 0.024817 0.000000 0.000000
# 5 0.000000 0.000000 0.000000 0.000000 -0.030497 0.000000
# 6 0.000000 0.000000 0.000000 0.000000 0.000000 -0.083158
#
#
# Mechanical properties :
#
#
# Convention : Reuss Voigt Hill
#
# Bulk Modulus (GPa) = 57.87973 69.08617 63.48295
# Shear Modulus (GPa) = -113.48630 19.86309 -46.81160
#
# Velocity S-wave (km/s) = -6.63098 2.77415 -4.25876
# Velocity P-wave (km/s) = 6.01675 6.08510 0.64311
#
# Compressibility (1/GPa) = 0.01727721
#
# Stress axis : x y z
#
# Youngs Moduli (GPa) = 135.22573 90.92201 102.50647
#
# Poissons Ratio (x) = -0.01477 0.43978
# Poissons Ratio (y) = -0.02197 0.13409
# Poissons Ratio (z) = 0.58016 0.11893
#
# Static dielectric constant tensor:
#      x y z
#    x 2.134480 0.000000 0.000000 
#    y 0.000000 1.921630 0.000000 
#    z 0.000000 0.000000 1.875540 
# 
# From -- ./inp_files/10568.got.cif
#   From: 2010.05.17/outbox.cif.g08.bks.cpg/sg53_6_cif.got.tgz:10568.got - 2010.06.03 12:45:16.
