data_PCOD9419007
_publ_section_title
;
Structure prediction by ZEFSAII (Michael W. Deem and Ramdas Pophale) SiO2 
 PCOD9419007
Probable space group: P M N A
;
_chemical_formula_sum "Si O2"
_cell_formula_units_Z 48
_cell_length_a 29.674409
_cell_length_b 9.868974
_cell_length_c 8.456200
_cell_angle_alpha 90.000000
_cell_angle_beta 90.000000
_cell_angle_gamma 90.000000
_cell_volume 2476.448661
_symmetry_space_group_name_H-M "P M N A"
_symmetry_group_IT_number 53
_symmetry_cell_setting 'orthorhombic'
loop_
_space_group_symop_operation_xyz
x,y,z
1/2-x,-y,1/2+z
x,-y,-z
1/2-x,y,1/2-z
-x,-y,-z
1/2+x,y,1/2-z
-x,y,z
1/2+x,-y,1/2+z
loop_
_atom_site_type_symbol
_atom_site_label
_atom_site_fract_x
_atom_site_fract_y
_atom_site_fract_z
Si Si1 0.568199 0.500000 0.000000
Si Si2 0.800585 0.037111 0.680795
Si Si3 0.578357 0.000000 0.500000
Si Si4 0.200138 0.306918 0.811514
Si Si5 0.500000 0.248419 0.005935
Si Si6 0.154999 0.812736 0.898335
Si Si7 0.500000 0.004509 0.755756
Si Si8 0.876843 0.525269 0.820983
O O1 0.540674 0.642382 0.990389
O O2 0.594466 0.509327 0.166689
O O3 0.750000 0.040267 0.750000
O O4 0.828021 0.929992 0.783737
O O5 0.799650 0.000000 0.500000
O O6 0.818774 0.189303 0.698343
O O7 0.612323 0.872723 0.506851
O O8 0.544956 0.995978 0.351076
O O9 0.250000 0.340311 0.750000
O O10 0.168072 0.434701 0.816898
O O11 0.194934 0.235291 0.983581
O O12 0.500000 0.143342 0.858196
O O13 0.500000 0.137066 0.146790
O O14 0.137530 0.681008 0.809995
O O15 0.896568 0.500000 0.000000
#
# Coordination Sequence:
#
# PCOD9419007 Si02
#       8
#     4   8   4   8   4   8   4   8
#     4  11  24  46  68  98 140 174 216 276 332 405
#     4  11  22  37  61  91 127 177 223 273 330 380
#     4  11  22  42  72  98 130 166 216 276 336 405
#     4  10  21  42  62  89 133 174 221 279 322 382
#     4  10  24  46  68 100 136 164 212 274 328 419
#     4  11  22  42  64  96 131 170 226 276 320 402
#     4  10  24  44  72  98 130 166 210 270 345 400
#     4  10  25  42  65  96 132 178 228 268 328 396
#
# _framework density 19.382594000000001
#
# number of rings (size 3 to 8) (size 9 to 14) (size 15 to 20)
#    0.000    1.500    1.667    3.000    7.000    0.667 
#    7.500    0.833    0.000    0.000    0.000    0.000 
#    0.000    0.000    0.000    0.000    0.000    0.000 
#
# Total GULP energy -267673.720452 kJ/mol
# GULP energy per Si atom -5576.535843 kJ/mol
# Density = 1.933848 g / cm^3
# Si number density = 19.382594 Si / 1000 Ang^3
#
#
#
# Elastic Constant Matrix: (Units=GPa)
#
#
# Indices 1 2 3 4 5 6 
#
# 1 93.7146 48.8429 71.0032 0.0000 0.0000 0.0000
# 2 48.8429 149.1391 42.1325 0.0000 0.0000 0.0000
# 3 71.0032 42.1325 129.2764 0.0000 0.0000 0.0000
# 4 0.0000 0.0000 0.0000 -11.9142 0.0000 0.0000
# 5 0.0000 0.0000 0.0000 0.0000 22.9282 0.0000
# 6 0.0000 0.0000 0.0000 0.0000 0.0000 16.5418
#
#
#
# Elastic Compliance Matrix: (Units=1/GPa)
#
#
# Indices 1 2 3 4 5 6 
#
# 1 0.020065 -0.003809 -0.009779 0.000000 0.000000 0.000000
# 2 -0.003809 0.008108 -0.000551 0.000000 0.000000 0.000000
# 3 -0.009779 -0.000551 0.013286 0.000000 0.000000 0.000000
# 4 0.000000 0.000000 0.000000 -0.083934 0.000000 0.000000
# 5 0.000000 0.000000 0.000000 0.000000 0.043614 0.000000
# 6 0.000000 0.000000 0.000000 0.000000 0.000000 0.060453
#
#
# Mechanical properties :
#
#
# Convention : Reuss Voigt Hill
#
# Bulk Modulus (GPa) = 75.86073 77.34304 76.60188
# Shear Modulus (GPa) = 53.04307 19.52126 36.28216
#
# Velocity S-wave (km/s) = 5.23696 3.17701 4.33123
# Velocity P-wave (km/s) = 8.70582 7.31080 8.03863
#
# Compressibility (1/GPa) = 0.01318205
#
# Stress axis : x y z
#
# Youngs Moduli (GPa) = 49.83846 123.33458 75.26810
#
# Poissons Ratio (x) = 0.46973 0.73605
# Poissons Ratio (y) = 0.18981 0.04145
# Poissons Ratio (z) = 0.48737 0.06792
#
# Static dielectric constant tensor:
#      x y z
#    x 1.684920 0.000000 0.000000 
#    y 0.000000 1.679560 0.000000 
#    z 0.000000 0.000000 1.713350 
# 
# From -- ./inp_files/13124.got.cif
#   From: 2010.05.17/outbox.cif.g08.bks.cpg/sg53_7_cif.got.tgz:13124.got - 2010.06.03 12:45:16.
