data_PCOD9419780
_publ_section_title
;
Structure prediction by ZEFSAII (Michael W. Deem and Ramdas Pophale) SiO2 
 PCOD9419780
Probable space group: P M N A
;
_chemical_formula_sum "Si O2"
_cell_formula_units_Z 40
_cell_length_a 17.211325
_cell_length_b 9.364913
_cell_length_c 12.067578
_cell_angle_alpha 90.000000
_cell_angle_beta 90.000000
_cell_angle_gamma 90.000000
_cell_volume 1945.083130
_symmetry_space_group_name_H-M "P M N A"
_symmetry_group_IT_number 53
_symmetry_cell_setting 'orthorhombic'
loop_
_space_group_symop_operation_xyz
x,y,z
1/2-x,-y,1/2+z
x,-y,-z
1/2-x,y,1/2-z
-x,-y,-z
1/2+x,y,1/2-z
-x,y,z
1/2+x,-y,1/2+z
loop_
_atom_site_type_symbol
_atom_site_label
_atom_site_fract_x
_atom_site_fract_y
_atom_site_fract_z
Si Si1 0.164425 0.666160 0.110409
Si Si2 0.907998 0.633041 0.868613
Si Si3 0.666078 0.159472 0.193346
Si Si4 0.090322 0.856776 0.292214
Si Si5 0.339255 0.660933 0.030827
O O1 0.132940 0.517244 0.160442
O O2 0.136747 0.794608 0.187044
O O3 0.256530 0.657163 0.094398
O O4 0.125929 0.675890 0.988651
O O5 0.886428 0.750636 0.778606
O O6 0.000000 0.611869 0.876518
O O7 0.750000 0.142352 0.250000
O O8 0.627858 0.006273 0.172616
O O9 0.672989 0.248937 0.080847
O O10 0.101194 0.742867 0.390522
O O11 0.000000 0.874126 0.264744
O O12 0.361972 0.500000 0.000000
#
# Coordination Sequence:
#
# PCOD9419780 Si02
#       5
#     8   8   8   8   8
#     4  11  21  44  67 100 133 168 224 266 329 395
#     4  11  22  40  71 102 135 170 212 275 331 386
#     4  12  24  44  66  97 137 177 223 268 328 397
#     4  12  28  44  65  97 136 177 220 274 332 387
#     4  12  24  44  73  98 128 176 224 273 325 395
#
# _framework density 20.564672999999999
#
# number of rings (size 3 to 8) (size 9 to 14) (size 15 to 20)
#    0.000    0.400    4.000    6.600    0.000    3.600 
#    0.000    2.000    0.000    0.000    0.000    0.000 
#    0.000    0.000    0.000    0.000    0.000    0.000 
#
# Total GULP energy -224043.534134 kJ/mol
# GULP energy per Si atom -5601.088353 kJ/mol
# Density = 2.051787 g / cm^3
# Si number density = 20.564673 Si / 1000 Ang^3
#
#
#
# Elastic Constant Matrix: (Units=GPa)
#
#
# Indices 1 2 3 4 5 6 
#
# 1 37.5713 26.0012 0.2819 0.0000 0.0000 0.0000
# 2 26.0012 132.8287 32.9095 0.0000 0.0000 0.0000
# 3 0.2819 32.9095 43.2750 0.0000 0.0000 0.0000
# 4 0.0000 0.0000 0.0000 26.6465 0.0000 0.0000
# 5 0.0000 0.0000 0.0000 0.0000 22.4000 0.0000
# 6 0.0000 0.0000 0.0000 0.0000 0.0000 33.7489
#
#
#
# Elastic Compliance Matrix: (Units=1/GPa)
#
#
# Indices 1 2 3 4 5 6 
#
# 1 0.031846 -0.007618 0.005586 0.000000 0.000000 0.000000
# 2 -0.007618 0.011098 -0.008390 0.000000 0.000000 0.000000
# 3 0.005586 -0.008390 0.029452 0.000000 0.000000 0.000000
# 4 0.000000 0.000000 0.000000 0.037528 0.000000 0.000000
# 5 0.000000 0.000000 0.000000 0.000000 0.044643 0.000000
# 6 0.000000 0.000000 0.000000 0.000000 0.000000 0.029631
#
#
# Mechanical properties :
#
#
# Convention : Reuss Voigt Hill
#
# Bulk Modulus (GPa) = 19.39802 36.89559 28.14681
# Shear Modulus (GPa) = 22.49944 26.85791 24.67868
#
# Velocity S-wave (km/s) = 3.31128 3.61781 3.46793
# Velocity P-wave (km/s) = 4.90638 5.95245 5.45455
#
# Compressibility (1/GPa) = 0.05155165
#
# Stress axis : x y z
#
# Youngs Moduli (GPa) = 31.40114 90.10235 33.95311
#
# Poissons Ratio (x) = 0.68638 -0.18965
# Poissons Ratio (y) = 0.23921 0.28488
# Poissons Ratio (z) = -0.17540 0.75600
#
# Static dielectric constant tensor:
#      x y z
#    x 1.692960 0.000000 0.000000 
#    y 0.000000 1.720350 0.000000 
#    z 0.000000 0.000000 1.725910 
# 
# From -- ./inp_files/16664.got.cif
#   From: 2010.05.17/outbox.cif.g08.bks.cpg/sg53_9_cif.got.tgz:16664.got - 2010.06.03 12:45:16.
