data_PCOD9419377
_publ_section_title
;
Structure prediction by ZEFSAII (Michael W. Deem and Ramdas Pophale) SiO2 
 PCOD9419377
Probable space group: P M N A
;
_chemical_formula_sum "Si O2"
_cell_formula_units_Z 40
_cell_length_a 7.823045
_cell_length_b 10.079358
_cell_length_c 26.460949
_cell_angle_alpha 90.000000
_cell_angle_beta 90.000000
_cell_angle_gamma 90.000000
_cell_volume 2086.479466
_symmetry_space_group_name_H-M "P M N A"
_symmetry_group_IT_number 53
_symmetry_cell_setting 'orthorhombic'
loop_
_space_group_symop_operation_xyz
x,y,z
1/2-x,-y,1/2+z
x,-y,-z
1/2-x,y,1/2-z
-x,-y,-z
1/2+x,y,1/2-z
-x,y,z
1/2+x,-y,1/2+z
loop_
_atom_site_type_symbol
_atom_site_label
_atom_site_fract_x
_atom_site_fract_y
_atom_site_fract_z
Si Si1 0.193390 0.724282 0.191829
Si Si2 0.500000 0.592930 0.951099
Si Si3 0.000000 0.083542 0.448121
Si Si4 0.705523 0.735462 0.807448
Si Si5 0.196230 0.493217 0.121511
Si Si6 0.193571 0.990806 0.353714
O O1 0.250000 0.739568 0.250000
O O2 0.273740 0.613220 0.155359
O O3 0.204104 0.860931 0.160775
O O4 0.000000 0.677221 0.196351
O O5 0.500000 0.755889 0.955956
O O6 0.329186 0.548895 0.921399
O O7 0.500000 0.500000 0.000000
O O8 0.000000 0.000000 0.500000
O O9 0.159156 0.037375 0.411732
O O10 0.750000 0.710146 0.750000
O O11 0.500000 0.724943 0.816420
O O12 0.802819 0.631582 0.841452
O O13 0.758350 0.882961 0.823305
O O14 0.000000 0.521575 0.104419
O O15 0.000000 0.960561 0.334979
#
# Coordination Sequence:
#
# PCOD9419377 Si02
#       6
#     8   4   4   8   8   8
#     4  11  24  37  58  95 132 178 221 259 322 388
#     4  12  26  46  76  98 126 178 218 282 349 382
#     4  10  22  44  70 102 120 168 228 270 339 398
#     4  11  20  36  59  92 128 173 217 257 328 393
#     4  11  24  43  64  96 134 169 219 276 322 401
#     4   9  20  38  60  88 129 161 211 271 311 395
#
# _framework density 19.171049
#
# number of rings (size 3 to 8) (size 9 to 14) (size 15 to 20)
#    0.600    0.800    3.000    2.400    5.600    5.200 
#    0.000    0.000    0.000    1.200    0.000    0.000 
#    0.000    0.000    0.000    0.000    0.000    0.000 
#
# Total GULP energy -222818.037687 kJ/mol
# GULP energy per Si atom -5570.450942 kJ/mol
# Density = 1.912741 g / cm^3
# Si number density = 19.171049 Si / 1000 Ang^3
#
#
#
# Elastic Constant Matrix: (Units=GPa)
#
#
# Indices 1 2 3 4 5 6 
#
# 1 52.4672 34.6360 42.2683 0.0000 0.0000 0.0000
# 2 34.6360 106.1086 42.7766 0.0000 0.0000 0.0000
# 3 42.2683 42.7766 129.5854 0.0000 0.0000 0.0000
# 4 0.0000 0.0000 0.0000 37.8721 0.0000 0.0000
# 5 0.0000 0.0000 0.0000 0.0000 27.1548 0.0000
# 6 0.0000 0.0000 0.0000 0.0000 0.0000 42.9638
#
#
#
# Elastic Compliance Matrix: (Units=1/GPa)
#
#
# Indices 1 2 3 4 5 6 
#
# 1 0.029386 -0.006607 -0.007404 0.000000 0.000000 0.000000
# 2 -0.006607 0.012357 -0.001924 0.000000 0.000000 0.000000
# 3 -0.007404 -0.001924 0.010767 0.000000 0.000000 0.000000
# 4 0.000000 0.000000 0.000000 0.026405 0.000000 0.000000
# 5 0.000000 0.000000 0.000000 0.000000 0.036826 0.000000
# 6 0.000000 0.000000 0.000000 0.000000 0.000000 0.023275
#
#
# Mechanical properties :
#
#
# Convention : Reuss Voigt Hill
#
# Bulk Modulus (GPa) = 48.45105 58.61366 53.53235
# Shear Modulus (GPa) = 28.12685 32.83016 30.47851
#
# Velocity S-wave (km/s) = 3.83450 4.14271 3.99158
# Velocity P-wave (km/s) = 6.70316 7.31595 7.01625
#
# Compressibility (1/GPa) = 0.02063939
#
# Stress axis : x y z
#
# Youngs Moduli (GPa) = 34.02961 80.92822 92.87608
#
# Poissons Ratio (x) = 0.53472 0.68766
# Poissons Ratio (y) = 0.22485 0.17867
# Poissons Ratio (z) = 0.25196 0.15569
#
# Static dielectric constant tensor:
#      x y z
#    x 1.683880 0.000000 0.000000 
#    y 0.000000 1.687750 0.000000 
#    z 0.000000 0.000000 1.671810 
# 
# From -- ./inp_files/36086.got.cif
#   From: 2010.05.17/outbox.cif.g08.bks.cpg/sg53_19_cif.got.tgz:36086.got - 2010.06.03 12:45:16.
