data_PCOD9419788
_publ_section_title
;
Structure prediction by ZEFSAII (Michael W. Deem and Ramdas Pophale) SiO2 
 PCOD9419788
Probable space group: P M N A
;
_chemical_formula_sum "Si O2"
_cell_formula_units_Z 48
_cell_length_a 7.976265
_cell_length_b 21.654110
_cell_length_c 14.387048
_cell_angle_alpha 90.000000
_cell_angle_beta 90.000000
_cell_angle_gamma 90.000000
_cell_volume 2484.915388
_symmetry_space_group_name_H-M "P M N A"
_symmetry_group_IT_number 53
_symmetry_cell_setting 'orthorhombic'
loop_
_space_group_symop_operation_xyz
x,y,z
1/2-x,-y,1/2+z
x,-y,-z
1/2-x,y,1/2-z
-x,-y,-z
1/2+x,y,1/2-z
-x,y,z
1/2+x,-y,1/2+z
loop_
_atom_site_type_symbol
_atom_site_label
_atom_site_fract_x
_atom_site_fract_y
_atom_site_fract_z
Si Si1 0.294426 0.341155 0.039314
Si Si2 0.201817 0.464482 0.357026
Si Si3 0.297989 0.907098 0.543662
Si Si4 0.798327 0.602777 0.355812
Si Si5 0.300769 0.218936 0.142558
Si Si6 0.701755 0.968327 0.355890
O O1 0.500000 0.340156 0.042372
O O2 0.238383 0.404976 0.087215
O O3 0.232722 0.281001 0.093477
O O4 0.242584 0.347706 0.931933
O O5 0.250000 0.455866 0.250000
O O6 0.262123 0.533427 0.382625
O O7 0.000000 0.465474 0.366635
O O8 0.500000 0.909507 0.542819
O O9 0.247706 0.841894 0.585559
O O10 0.240759 0.921984 0.438096
O O11 0.240167 0.963640 0.609921
O O12 0.750000 0.615364 0.250000
O O13 0.000000 0.600579 0.359228
O O14 0.250000 0.214498 0.250000
O O15 0.500000 0.223398 0.140905
O O16 0.750000 0.954926 0.250000
O O17 0.500000 0.968712 0.358564
#
# Coordination Sequence:
#
# PCOD9419788 Si02
#       6
#     8   8   8   8   8   8
#     4   9  18  32  49  69  95 128 164 198 237 291
#     4   9  16  28  48  71  94 122 156 198 246 291
#     4   9  19  36  54  76 106 137 168 203 245 291
#     4   9  17  31  50  70  92 121 160 203 246 291
#     4  11  22  35  52  74 101 133 166 201 243 294
#     4   9  18  33  55  80 106 134 166 207 249 288
#
# _framework density 19.316552000000001
#
# number of rings (size 3 to 8) (size 9 to 14) (size 15 to 20)
#    0.000    2.667    0.000    3.000    0.000    4.667 
#    0.000    5.833    0.000    8.000    0.000    0.000 
#    0.000    0.000    0.000    0.000    0.000    0.000 
#
# Total GULP energy -267656.941916 kJ/mol
# GULP energy per Si atom -5576.186290 kJ/mol
# Density = 1.927259 g / cm^3
# Si number density = 19.316552 Si / 1000 Ang^3
#
#
#
# Elastic Constant Matrix: (Units=GPa)
#
#
# Indices 1 2 3 4 5 6 
#
# 1 15.6315 12.5241 11.7969 0.0000 0.0000 0.0000
# 2 12.5241 110.5202 111.9273 0.0000 0.0000 0.0000
# 3 11.7969 111.9273 177.4396 0.0000 0.0000 0.0000
# 4 0.0000 0.0000 0.0000 0.4851 0.0000 0.0000
# 5 0.0000 0.0000 0.0000 0.0000 25.4957 0.0000
# 6 0.0000 0.0000 0.0000 0.0000 0.0000 19.4184
#
#
#
# Elastic Compliance Matrix: (Units=1/GPa)
#
#
# Indices 1 2 3 4 5 6 
#
# 1 0.070422 -0.008967 0.000974 0.000000 0.000000 0.000000
# 2 -0.008967 0.026193 -0.015926 0.000000 0.000000 0.000000
# 3 0.000974 -0.015926 0.015617 0.000000 0.000000 0.000000
# 4 0.000000 0.000000 0.000000 2.061506 0.000000 0.000000
# 5 0.000000 0.000000 0.000000 0.000000 0.039222 0.000000
# 6 0.000000 0.000000 0.000000 0.000000 0.000000 0.051498
#
#
# Mechanical properties :
#
#
# Convention : Reuss Voigt Hill
#
# Bulk Modulus (GPa) = 15.52921 64.00976 39.76949
# Shear Modulus (GPa) = 2.14246 20.23604 11.18925
#
# Velocity S-wave (km/s) = 1.05430 3.24018 2.40939
# Velocity P-wave (km/s) = 3.08850 6.87077 5.32665
#
# Compressibility (1/GPa) = 0.06439478
#
# Stress axis : x y z
#
# Youngs Moduli (GPa) = 14.20005 38.17746 64.03198
#
# Poissons Ratio (x) = 0.34234 -0.06239
# Poissons Ratio (y) = 0.12733 1.01980
# Poissons Ratio (z) = -0.01384 0.60803
#
# Static dielectric constant tensor:
#      x y z
#    x 1.704470 0.000000 0.000000 
#    y 0.000000 1.676020 0.000000 
#    z 0.000000 0.000000 1.781340 
# 
# From -- ./inp_files/20326.got.cif
#   From: 2010.05.17/outbox.cif.g08.bks.cpg/sg53_11_cif.got.tgz:20326.got - 2010.06.03 12:45:16.
