data_PCOD9419975
_publ_section_title
;
Structure prediction by ZEFSAII (Michael W. Deem and Ramdas Pophale) SiO2 
 PCOD9419975
Probable space group: P M N A
;
_chemical_formula_sum "Si O2"
_cell_formula_units_Z 28
_cell_length_a 14.061201
_cell_length_b 10.088584
_cell_length_c 6.941900
_cell_angle_alpha 90.000000
_cell_angle_beta 90.000000
_cell_angle_gamma 90.000000
_cell_volume 984.761325
_symmetry_space_group_name_H-M "P M N A"
_symmetry_group_IT_number 53
_symmetry_cell_setting 'orthorhombic'
loop_
_space_group_symop_operation_xyz
x,y,z
1/2-x,-y,1/2+z
x,-y,-z
1/2-x,y,1/2-z
-x,-y,-z
1/2+x,y,1/2-z
-x,y,z
1/2+x,-y,1/2+z
loop_
_atom_site_type_symbol
_atom_site_label
_atom_site_fract_x
_atom_site_fract_y
_atom_site_fract_z
Si Si1 0.891226 0.184637 0.366004
Si Si2 0.384576 0.469266 0.219112
Si Si3 0.250000 0.957680 0.250000
Si Si4 0.109901 0.751192 0.175283
O O1 0.859903 0.316029 0.248407
O O2 0.000000 0.153385 0.316259
O O3 0.829207 0.057991 0.325369
O O4 0.892060 0.776412 0.407985
O O5 0.500000 0.471261 0.221146
O O6 0.358636 0.597876 0.343836
O O7 0.353984 0.500000 0.000000
O O8 0.188505 0.857800 0.113338
O O9 0.000000 0.767614 0.110210
#
# Coordination Sequence:
#
# PCOD9419975 Si02
#       4
#     8   8   4   8
#     4   9  18  33  50  68  92 121 154 191 228 268
#     4   7  12  27  50  68  84 114 154 192 226 260
#     4  12  20  24  44  74 100 124 148 178 228 280
#     4   9  18  33  50  68  92 121 154 191 228 268
#
# _framework density 28.433285000000001
#
# number of rings (size 3 to 8) (size 9 to 14) (size 15 to 20)
#    0.000    3.143    0.000    5.143    0.000    3.429 
#    0.000    0.000    0.000   13.714    0.000    0.000 
#    0.000   54.857    0.000    0.000    0.000    0.000 
#
# Total GULP energy -156852.236908 kJ/mol
# GULP energy per Si atom -5601.865604 kJ/mol
# Density = 2.836857 g / cm^3
# Si number density = 28.433285 Si / 1000 Ang^3
#
#
#
# Elastic Constant Matrix: (Units=GPa)
#
#
# Indices 1 2 3 4 5 6 
#
# 1 207.7035 112.8023 18.5469 0.0000 0.0000 0.0000
# 2 112.8023 310.7463 43.3887 0.0000 0.0000 0.0000
# 3 18.5469 43.3887 99.7765 0.0000 0.0000 0.0000
# 4 0.0000 0.0000 0.0000 48.0426 0.0000 0.0000
# 5 0.0000 0.0000 0.0000 0.0000 20.7267 0.0000
# 6 0.0000 0.0000 0.0000 0.0000 0.0000 66.2496
#
#
#
# Elastic Compliance Matrix: (Units=1/GPa)
#
#
# Indices 1 2 3 4 5 6 
#
# 1 0.006000 -0.002153 -0.000179 0.000000 0.000000 0.000000
# 2 -0.002153 0.004199 -0.001426 0.000000 0.000000 0.000000
# 3 -0.000179 -0.001426 0.010676 0.000000 0.000000 0.000000
# 4 0.000000 0.000000 0.000000 0.020815 0.000000 0.000000
# 5 0.000000 0.000000 0.000000 0.000000 0.048247 0.000000
# 6 0.000000 0.000000 0.000000 0.000000 0.000000 0.015094
#
#
# Mechanical properties :
#
#
# Convention : Reuss Voigt Hill
#
# Bulk Modulus (GPa) = 74.85678 107.52246 91.18962
# Shear Modulus (GPa) = 42.73557 56.56968 49.65262
#
# Velocity S-wave (km/s) = 3.88108 4.46529 4.18339
# Velocity P-wave (km/s) = 6.81674 8.03012 7.44818
#
# Compressibility (1/GPa) = 0.01335884
#
# Stress axis : x y z
#
# Youngs Moduli (GPa) = 166.67228 238.17196 93.67138
#
# Poissons Ratio (x) = 0.51277 0.01677
# Poissons Ratio (y) = 0.35884 0.13354
# Poissons Ratio (z) = 0.02984 0.33954
#
# Static dielectric constant tensor:
#      x y z
#    x 2.132240 0.000000 0.000000 
#    y 0.000000 2.156530 0.000000 
#    z 0.000000 0.000000 2.484900 
# 
# From -- ./inp_files/17483.got.cif
#   From: 2010.05.17/outbox.cif.g08.bks.cpg/sg53_9_cif.got.tgz:17483.got - 2010.06.03 12:45:16.
