data_PCOD9419115
_publ_section_title
;
Structure prediction by ZEFSAII (Michael W. Deem and Ramdas Pophale) SiO2 
 PCOD9419115
Probable space group: P M N A
;
_chemical_formula_sum "Si O2"
_cell_formula_units_Z 40
_cell_length_a 19.830304
_cell_length_b 18.523613
_cell_length_c 5.337696
_cell_angle_alpha 90.000000
_cell_angle_beta 90.000000
_cell_angle_gamma 90.000000
_cell_volume 1960.689877
_symmetry_space_group_name_H-M "P M N A"
_symmetry_group_IT_number 53
_symmetry_cell_setting 'orthorhombic'
loop_
_space_group_symop_operation_xyz
x,y,z
1/2-x,-y,1/2+z
x,-y,-z
1/2-x,y,1/2-z
-x,-y,-z
1/2+x,y,1/2-z
-x,y,z
1/2+x,-y,1/2+z
loop_
_atom_site_type_symbol
_atom_site_label
_atom_site_fract_x
_atom_site_fract_y
_atom_site_fract_z
Si Si1 0.145137 0.655908 0.597247
Si Si2 0.331535 0.041283 0.248845
Si Si3 0.500000 0.760004 0.386913
Si Si4 0.750000 0.546908 0.750000
Si Si5 0.750000 0.268208 0.750000
Si Si6 0.000000 0.667510 0.605269
Si Si7 0.139411 0.801616 0.910528
O O1 0.185860 0.599683 0.764006
O O2 0.194406 0.678835 0.372228
O O3 0.070201 0.627414 0.549065
O O4 0.134815 0.732556 0.731582
O O5 0.250000 0.040758 0.250000
O O6 0.353798 0.124023 0.264073
O O7 0.354031 0.000000 0.500000
O O8 0.354432 0.000000 0.000000
O O9 0.500000 0.697709 0.607409
O O10 0.429764 0.801640 0.430991
O O11 0.500000 0.730167 0.105584
O O12 0.755864 0.500000 0.500000
O O13 0.706833 0.216029 0.569353
#
# Coordination Sequence:
#
# PCOD9419115 Si02
#       7
#     8   8   4   4   4   4   8
#     4  11  23  41  66  99 127 174 217 273 329 390
#     4  10  23  38  56  88 131 165 209 270 328 374
#     4  10  22  38  60  96 134 164 211 281 328 371
#     4  12  27  44  66  99 138 168 216 278 331 396
#     4  12  19  34  72  95 128 156 234 272 327 378
#     4  10  22  40  64  96 134 164 215 271 330 387
#     4  11  23  38  65  96 127 170 225 271 325 395
#
# _framework density 20.400984000000001
#
# number of rings (size 3 to 8) (size 9 to 14) (size 15 to 20)
#    0.000    1.200    4.000    1.800    7.000    0.000 
#    0.000    2.000    0.000    0.000    0.000    0.000 
#    0.000    0.000    0.000    0.000    0.000    0.000 
#
# Total GULP energy -223286.741162 kJ/mol
# GULP energy per Si atom -5582.168529 kJ/mol
# Density = 2.035455 g / cm^3
# Si number density = 20.400984 Si / 1000 Ang^3
#
#
#
# Elastic Constant Matrix: (Units=GPa)
#
#
# Indices 1 2 3 4 5 6 
#
# 1 141.2911 12.6053 14.8475 0.0000 0.0000 0.0000
# 2 12.6053 73.7647 20.6552 0.0000 0.0000 0.0000
# 3 14.8475 20.6552 77.2683 0.0000 0.0000 0.0000
# 4 0.0000 0.0000 0.0000 -0.2323 0.0000 0.0000
# 5 0.0000 0.0000 0.0000 0.0000 27.8367 0.0000
# 6 0.0000 0.0000 0.0000 0.0000 0.0000 -43.0553
#
#
#
# Elastic Compliance Matrix: (Units=1/GPa)
#
#
# Indices 1 2 3 4 5 6 
#
# 1 0.007281 -0.000921 -0.001153 0.000000 0.000000 0.000000
# 2 -0.000921 0.014770 -0.003771 0.000000 0.000000 0.000000
# 3 -0.001153 -0.003771 0.014172 0.000000 0.000000 0.000000
# 4 0.000000 0.000000 0.000000 -4.305158 0.000000 0.000000
# 5 0.000000 0.000000 0.000000 0.000000 0.035924 0.000000
# 6 0.000000 0.000000 0.000000 0.000000 0.000000 -0.023226
#
#
# Mechanical properties :
#
#
# Convention : Reuss Voigt Hill
#
# Bulk Modulus (GPa) = 40.76356 43.17112 41.96734
# Shear Modulus (GPa) = -1.18026 13.19091 6.00533
#
# Velocity S-wave (km/s) = -0.76144 2.54556 1.71757
# Velocity P-wave (km/s) = 4.38765 5.46324 4.95472
#
# Compressibility (1/GPa) = 0.02453172
#
# Stress axis : x y z
#
# Youngs Moduli (GPa) = 137.34516 67.70446 70.56394
#
# Poissons Ratio (x) = 0.06238 0.08134
# Poissons Ratio (y) = 0.12655 0.26611
# Poissons Ratio (z) = 0.15833 0.25533
#
# Static dielectric constant tensor:
#      x y z
#    x 1.848540 0.000000 0.000000 
#    y 0.000000 1.708100 0.000000 
#    z 0.000000 0.000000 1.778420 
# 
# From -- ./inp_files/2918.got.cif
#   From: 2010.05.17/outbox.cif.g08.bks.cpg/sg53_2_cif.got.tgz:2918.got - 2010.06.03 12:45:16.
