data_PCOD9419052
_publ_section_title
;
Structure prediction by ZEFSAII (Michael W. Deem and Ramdas Pophale) SiO2 
 PCOD9419052
Probable space group: P M N A
;
_chemical_formula_sum "Si O2"
_cell_formula_units_Z 64
_cell_length_a 18.440718
_cell_length_b 20.782631
_cell_length_c 8.729196
_cell_angle_alpha 90.000000
_cell_angle_beta 90.000000
_cell_angle_gamma 90.000000
_cell_volume 3345.435016
_symmetry_space_group_name_H-M "P M N A"
_symmetry_group_IT_number 53
_symmetry_cell_setting 'orthorhombic'
loop_
_space_group_symop_operation_xyz
x,y,z
1/2-x,-y,1/2+z
x,-y,-z
1/2-x,y,1/2-z
-x,-y,-z
1/2+x,y,1/2-z
-x,y,z
1/2+x,-y,1/2+z
loop_
_atom_site_type_symbol
_atom_site_label
_atom_site_fract_x
_atom_site_fract_y
_atom_site_fract_z
Si Si1 0.329286 0.762465 0.815314
Si Si2 0.724344 0.929638 0.572959
Si Si3 0.308606 0.824485 0.118957
Si Si4 0.415311 0.841974 0.598440
Si Si5 0.670586 0.619622 0.817363
Si Si6 0.417121 0.504295 0.186700
Si Si7 0.084397 0.240474 0.801952
Si Si8 0.331362 0.632215 0.187995
O O1 0.250000 0.779422 0.750000
O O2 0.389539 0.812170 0.759690
O O3 0.350099 0.691212 0.764339
O O4 0.315198 0.768491 0.994523
O O5 0.750000 0.932067 0.750000
O O6 0.780545 0.886309 0.473608
O O7 0.645069 0.896039 0.563045
O O8 0.721838 0.000000 0.500000
O O9 0.250000 0.810791 0.250000
O O10 0.385173 0.820218 0.203949
O O11 0.500000 0.861299 0.595778
O O12 0.405209 0.784152 0.475542
O O13 0.750000 0.606472 0.750000
O O14 0.618578 0.562769 0.764214
O O15 0.670583 0.625616 0.002467
O O16 0.500000 0.510031 0.236078
O O17 0.372060 0.566549 0.237647
O O18 0.416429 0.500000 0.000000
O O19 0.126813 0.305140 0.754085
O O20 0.000000 0.250794 0.773045
O O21 0.250000 0.633705 0.250000
#
# Coordination Sequence:
#
# PCOD9419052 Si02
#       8
#     8   8   8   8   8   8   8   8
#     4  11  20  37  61  92 125 162 213 261 310 376
#     4  12  25  44  70  98 126 169 218 256 305 375
#     4  12  20  39  68  94 128 163 211 261 311 367
#     4  11  24  43  65  92 134 170 204 259 320 376
#     4  10  22  34  58  87 116 158 209 262 313 370
#     4   9  19  38  56  79 119 162 207 259 315 379
#     4  11  24  38  60  95 128 165 209 263 324 378
#     4  11  22  36  62  87 118 162 211 263 316 372
#
# _framework density 19.130545999999999
#
# number of rings (size 3 to 8) (size 9 to 14) (size 15 to 20)
#    0.000    1.125    5.000    1.500    3.500    1.750 
#    0.000    0.000    0.000    1.500    0.000    0.000 
#    0.000    0.000    0.000    0.000    0.000    0.000 
#
# Total GULP energy -356982.187773 kJ/mol
# GULP energy per Si atom -5577.846684 kJ/mol
# Density = 1.908700 g / cm^3
# Si number density = 19.130546 Si / 1000 Ang^3
#
#
#
# Elastic Constant Matrix: (Units=GPa)
#
#
# Indices 1 2 3 4 5 6 
#
# 1 136.2843 92.3658 40.8154 0.0000 0.0000 0.0000
# 2 92.3658 141.7801 27.0530 0.0000 0.0000 0.0000
# 3 40.8154 27.0530 76.1180 0.0000 0.0000 0.0000
# 4 0.0000 0.0000 0.0000 19.6945 0.0000 0.0000
# 5 0.0000 0.0000 0.0000 0.0000 21.8280 0.0000
# 6 0.0000 0.0000 0.0000 0.0000 0.0000 17.4647
#
#
#
# Elastic Compliance Matrix: (Units=1/GPa)
#
#
# Indices 1 2 3 4 5 6 
#
# 1 0.014592 -0.008596 -0.004769 0.000000 0.000000 0.000000
# 2 -0.008596 0.012630 0.000120 0.000000 0.000000 0.000000
# 3 -0.004769 0.000120 0.015652 0.000000 0.000000 0.000000
# 4 0.000000 0.000000 0.000000 0.050776 0.000000 0.000000
# 5 0.000000 0.000000 0.000000 0.000000 0.045813 0.000000
# 6 0.000000 0.000000 0.000000 0.000000 0.000000 0.057258
#
#
# Mechanical properties :
#
#
# Convention : Reuss Voigt Hill
#
# Bulk Modulus (GPa) = 61.03379 74.96119 67.99749
# Shear Modulus (GPa) = 21.86533 24.72732 23.29633
#
# Velocity S-wave (km/s) = 3.38443 3.59912 3.49342
# Velocity P-wave (km/s) = 6.87354 7.51935 7.20369
#
# Compressibility (1/GPa) = 0.01638437
#
# Stress axis : x y z
#
# Youngs Moduli (GPa) = 68.53076 79.17392 63.88963
#
# Poissons Ratio (x) = 0.68060 0.30470
# Poissons Ratio (y) = 0.58911 -0.00770
# Poissons Ratio (z) = 0.32684 -0.00954
#
# Static dielectric constant tensor:
#      x y z
#    x 1.648500 0.000000 0.000000 
#    y 0.000000 1.667580 0.000000 
#    z 0.000000 0.000000 1.753750 
# 
# From -- ./inp_files/10228.got.cif
#   From: 2010.05.17/outbox.cif.g08.bks.cpg/sg53_6_cif.got.tgz:10228.got - 2010.06.03 12:45:16.
