data_PCOD9419948
_publ_section_title
;
Structure prediction by ZEFSAII (Michael W. Deem and Ramdas Pophale) SiO2 
 PCOD9419948
Probable space group: P M N A
;
_chemical_formula_sum "Si O2"
_cell_formula_units_Z 56
_cell_length_a 14.664907
_cell_length_b 12.789810
_cell_length_c 13.936802
_cell_angle_alpha 90.000000
_cell_angle_beta 90.000000
_cell_angle_gamma 90.000000
_cell_volume 2614.005735
_symmetry_space_group_name_H-M "P M N A"
_symmetry_group_IT_number 53
_symmetry_cell_setting 'orthorhombic'
loop_
_space_group_symop_operation_xyz
x,y,z
1/2-x,-y,1/2+z
x,-y,-z
1/2-x,y,1/2-z
-x,-y,-z
1/2+x,y,1/2-z
-x,y,z
1/2+x,-y,1/2+z
loop_
_atom_site_type_symbol
_atom_site_label
_atom_site_fract_x
_atom_site_fract_y
_atom_site_fract_z
Si Si1 0.649162 0.811439 0.789705
Si Si2 0.102438 0.589801 0.759010
Si Si3 0.390660 0.123837 0.995913
Si Si4 0.893282 0.040367 0.137774
Si Si5 0.265728 0.739145 0.141298
Si Si6 0.109387 0.828306 0.040064
Si Si7 0.733414 0.500918 0.113836
O O1 0.750000 0.794373 0.750000
O O2 0.596810 0.715591 0.740387
O O3 0.634833 0.822223 0.902514
O O4 0.621000 0.922626 0.744562
O O5 0.173583 0.541691 0.836052
O O6 0.151620 0.568384 0.657063
O O7 0.000000 0.547183 0.767538
O O8 0.500000 0.130647 0.982088
O O9 0.336307 0.186502 0.914080
O O10 0.366172 0.000000 0.000000
O O11 0.000000 0.036062 0.116666
O O12 0.862326 0.926072 0.108375
O O13 0.859970 0.129474 0.064082
O O14 0.250000 0.775069 0.250000
O O15 0.171584 0.737168 0.079907
O O16 0.293249 0.618093 0.145356
O O17 0.000000 0.809558 0.042960
O O18 0.740482 0.500000 0.000000
#
# Coordination Sequence:
#
# PCOD9419948 Si02
#       7
#     8   8   8   8   8   8   8
#     4  12  23  40  71 100 133 178 225 285 338 405
#     4  11  24  46  71 101 136 176 228 283 347 407
#     4  11  28  47  67 104 146 184 234 284 338 413
#     4   9  19  36  60  94 130 167 217 268 324 403
#     4  12  26  44  67  97 133 181 228 278 345 412
#     4   9  21  38  60  95 134 173 219 269 330 407
#     4  11  25  48  70 101 136 173 230 291 339 409
#
# _framework density 21.42306
#
# number of rings (size 3 to 8) (size 9 to 14) (size 15 to 20)
#    0.000    1.286    2.857    3.857    8.000    2.286 
#    0.000    0.000    0.000    0.000    0.000    0.000 
#    0.000    0.000    0.000    0.000    0.000    0.000 
#
# Total GULP energy -312644.416016 kJ/mol
# GULP energy per Si atom -5582.936000 kJ/mol
# Density = 2.137430 g / cm^3
# Si number density = 21.423060 Si / 1000 Ang^3
#
#
#
# Elastic Constant Matrix: (Units=GPa)
#
#
# Indices 1 2 3 4 5 6 
#
# 1 116.5853 23.6124 21.9213 0.0000 0.0000 0.0000
# 2 23.6124 71.4604 22.9719 0.0000 0.0000 0.0000
# 3 21.9213 22.9719 131.1636 0.0000 0.0000 0.0000
# 4 0.0000 0.0000 0.0000 32.5252 0.0000 0.0000
# 5 0.0000 0.0000 0.0000 0.0000 70.8775 0.0000
# 6 0.0000 0.0000 0.0000 0.0000 0.0000 14.3304
#
#
#
# Elastic Compliance Matrix: (Units=1/GPa)
#
#
# Indices 1 2 3 4 5 6 
#
# 1 0.009335 -0.002737 -0.001081 0.000000 0.000000 0.000000
# 2 -0.002737 0.015631 -0.002280 0.000000 0.000000 0.000000
# 3 -0.001081 -0.002280 0.008204 0.000000 0.000000 0.000000
# 4 0.000000 0.000000 0.000000 0.030745 0.000000 0.000000
# 5 0.000000 0.000000 0.000000 0.000000 0.014109 0.000000
# 6 0.000000 0.000000 0.000000 0.000000 0.000000 0.069782
#
#
# Mechanical properties :
#
#
# Convention : Reuss Voigt Hill
#
# Bulk Modulus (GPa) = 47.67789 50.69118 49.18454
# Shear Modulus (GPa) = 29.94127 40.26021 35.10074
#
# Velocity S-wave (km/s) = 3.74253 4.33978 4.05218
# Velocity P-wave (km/s) = 6.40149 6.98749 6.70090
#
# Compressibility (1/GPa) = 0.02097408
#
# Stress axis : x y z
#
# Youngs Moduli (GPa) = 107.12402 63.97480 121.89104
#
# Poissons Ratio (x) = 0.17510 0.13174
# Poissons Ratio (y) = 0.29321 0.27793
# Poissons Ratio (z) = 0.11578 0.14587
#
# Static dielectric constant tensor:
#      x y z
#    x 1.810680 0.000000 0.000000 
#    y 0.000000 1.948000 0.000000 
#    z 0.000000 0.000000 1.836180 
# 
# From -- ./inp_files/22863.got.cif
#   From: 2010.05.17/outbox.cif.g08.bks.cpg/sg53_12_cif.got.tgz:22863.got - 2010.06.03 12:45:16.
