data_PCOD9419105
_publ_section_title
;
Structure prediction by ZEFSAII (Michael W. Deem and Ramdas Pophale) SiO2 
 PCOD9419105
Probable space group: P M N A
;
_chemical_formula_sum "Si O2"
_cell_formula_units_Z 64
_cell_length_a 14.086741
_cell_length_b 9.565008
_cell_length_c 24.495386
_cell_angle_alpha 90.000000
_cell_angle_beta 90.000000
_cell_angle_gamma 90.000000
_cell_volume 3300.503174
_symmetry_space_group_name_H-M "P M N A"
_symmetry_group_IT_number 53
_symmetry_cell_setting 'orthorhombic'
loop_
_space_group_symop_operation_xyz
x,y,z
1/2-x,-y,1/2+z
x,-y,-z
1/2-x,y,1/2-z
-x,-y,-z
1/2+x,y,1/2-z
-x,y,z
1/2+x,-y,1/2+z
loop_
_atom_site_type_symbol
_atom_site_label
_atom_site_fract_x
_atom_site_fract_y
_atom_site_fract_z
Si Si1 0.604295 0.061269 0.658647
Si Si2 0.639502 0.428299 0.234965
Si Si3 0.311971 0.553582 0.120638
Si Si4 0.386726 0.305246 0.059525
Si Si5 0.639290 0.891383 0.765222
Si Si6 0.802767 0.944145 0.618258
Si Si7 0.604622 0.395934 0.658755
Si Si8 0.387621 0.807694 0.061482
O O1 0.500000 0.039190 0.632451
O O2 0.600029 0.989903 0.718148
O O3 0.694111 0.989688 0.628769
O O4 0.618775 0.228340 0.664049
O O5 0.750000 0.417892 0.250000
O O6 0.636807 0.498295 0.175481
O O7 0.602975 0.268579 0.234715
O O8 0.601206 0.528487 0.282381
O O9 0.354726 0.462376 0.071490
O O10 0.198101 0.544620 0.128528
O O11 0.338371 0.711826 0.107016
O O12 0.500000 0.288589 0.070445
O O13 0.321534 0.214253 0.100282
O O14 0.368328 0.253071 0.998406
O O15 0.750000 0.880462 0.750000
O O16 0.638703 0.958626 0.825195
O O17 0.847737 0.038607 0.571256
O O18 0.500000 0.418507 0.632933
O O19 0.500000 0.806800 0.069227
#
# Coordination Sequence:
#
# PCOD9419105 Si02
#       8
#     8   8   8   8   8   8   8   8
#     4  10  22  38  59  89 124 160 197 238 285 348
#     4   9  19  35  56  85 119 154 194 237 281 340
#     4  11  21  40  63  86 120 159 193 243 297 351
#     4  11  24  42  62  87 119 149 196 254 304 353
#     4   9  19  35  56  85 119 154 194 237 281 340
#     4  11  21  40  63  86 120 159 193 243 297 351
#     4  10  22  38  59  89 124 160 197 238 285 348
#     4  11  24  40  62  89 113 151 200 248 304 357
#
# _framework density 19.390981
#
# number of rings (size 3 to 8) (size 9 to 14) (size 15 to 20)
#    0.000    1.750    2.500    1.500    3.500    6.000 
#    0.000    0.000    0.000    4.500    0.000    0.000 
#    0.000    0.000    0.000    0.000    0.000    0.000 
#
# Total GULP energy -356965.678495 kJ/mol
# GULP energy per Si atom -5577.588726 kJ/mol
# Density = 1.934685 g / cm^3
# Si number density = 19.390981 Si / 1000 Ang^3
#
#
#
# Elastic Constant Matrix: (Units=GPa)
#
#
# Indices 1 2 3 4 5 6 
#
# 1 113.0311 12.9604 27.3688 0.0000 0.0000 0.0000
# 2 12.9604 59.5932 3.4422 0.0000 0.0000 0.0000
# 3 27.3688 3.4422 56.6047 0.0000 0.0000 0.0000
# 4 0.0000 0.0000 0.0000 33.0263 0.0000 0.0000
# 5 0.0000 0.0000 0.0000 0.0000 11.9055 0.0000
# 6 0.0000 0.0000 0.0000 0.0000 0.0000 47.7838
#
#
#
# Elastic Compliance Matrix: (Units=1/GPa)
#
#
# Indices 1 2 3 4 5 6 
#
# 1 0.010241 -0.001948 -0.004833 0.000000 0.000000 0.000000
# 2 -0.001948 0.017210 -0.000105 0.000000 0.000000 0.000000
# 3 -0.004833 -0.000105 0.020010 0.000000 0.000000 0.000000
# 4 0.000000 0.000000 0.000000 0.030279 0.000000 0.000000
# 5 0.000000 0.000000 0.000000 0.000000 0.083995 0.000000
# 6 0.000000 0.000000 0.000000 0.000000 0.000000 0.020928
#
#
# Mechanical properties :
#
#
# Convention : Reuss Voigt Hill
#
# Bulk Modulus (GPa) = 29.68331 35.19689 32.44010
# Shear Modulus (GPa) = 24.07750 30.90695 27.49222
#
# Velocity S-wave (km/s) = 3.52758 3.99668 3.76943
# Velocity P-wave (km/s) = 5.65091 6.28399 5.97584
#
# Compressibility (1/GPa) = 0.03368897
#
# Stress axis : x y z
#
# Youngs Moduli (GPa) = 97.64926 58.10528 49.97613
#
# Poissons Ratio (x) = 0.11319 0.24154
# Poissons Ratio (y) = 0.19022 0.00523
# Poissons Ratio (z) = 0.47194 0.00608
#
# Static dielectric constant tensor:
#      x y z
#    x 1.698990 0.000000 0.000000 
#    y 0.000000 1.657110 0.000000 
#    z 0.000000 0.000000 1.668830 
# 
# From -- ./inp_files/35379.got.cif
#   From: 2010.05.17/outbox.cif.g08.bks.cpg/sg53_18_cif.got.tgz:35379.got - 2010.06.03 12:45:16.
