data_PCOD9419079
_publ_section_title
;
Structure prediction by ZEFSAII (Michael W. Deem and Ramdas Pophale) SiO2 
 PCOD9419079
Probable space group: P M N A
;
_chemical_formula_sum "Si O2"
_cell_formula_units_Z 64
_cell_length_a 18.275294
_cell_length_b 12.538125
_cell_length_c 14.437128
_cell_angle_alpha 90.000000
_cell_angle_beta 90.000000
_cell_angle_gamma 90.000000
_cell_volume 3308.093489
_symmetry_space_group_name_H-M "P M N A"
_symmetry_group_IT_number 53
_symmetry_cell_setting 'orthorhombic'
loop_
_space_group_symop_operation_xyz
x,y,z
1/2-x,-y,1/2+z
x,-y,-z
1/2-x,y,1/2-z
-x,-y,-z
1/2+x,y,1/2-z
-x,y,z
1/2+x,-y,1/2+z
loop_
_atom_site_type_symbol
_atom_site_label
_atom_site_fract_x
_atom_site_fract_y
_atom_site_fract_z
Si Si1 0.132794 0.673683 0.532153
Si Si2 0.412621 0.143403 0.627135
Si Si3 0.413164 0.529121 0.143173
Si Si4 0.088998 0.924505 0.784607
Si Si5 0.830133 0.669061 0.210916
Si Si6 0.790978 0.619856 0.002244
Si Si7 0.087001 0.747597 0.928596
Si Si8 0.587353 0.086664 0.074242
O O1 0.113867 0.588762 0.613252
O O2 0.102941 0.611965 0.441122
O O3 0.220026 0.688514 0.521861
O O4 0.099836 0.790653 0.545316
O O5 0.500000 0.277075 0.428099
O O6 0.378861 0.225389 0.700874
O O7 0.397702 0.181567 0.521674
O O8 0.387069 0.025387 0.653893
O O9 0.500000 0.525193 0.159470
O O10 0.369586 0.578767 0.229023
O O11 0.106796 0.816527 0.838950
O O12 0.115988 0.929370 0.679128
O O13 0.000000 0.927576 0.782598
O O14 0.750000 0.692569 0.250000
O O15 0.818243 0.634126 0.106014
O O16 0.763162 0.500000 0.000000
O O17 0.859788 0.646877 0.937848
O O18 0.000000 0.146462 0.864169
O O19 0.500000 0.070021 0.079179
O O20 0.616224 0.000000 0.000000
#
# Coordination Sequence:
#
# PCOD9419079 Si02
#       8
#     8   8   8   8   8   8   8   8
#     4  11  21  41  60  86 122 158 203 247 302 367
#     4   9  18  33  58  85 113 151 202 253 297 360
#     4  11  22  38  66  91 113 156 207 254 295 354
#     4   9  18  35  57  84 115 156 202 249 306 359
#     4  11  21  36  55  86 121 152 194 250 310 363
#     4  11  22  40  60  84 120 159 193 247 317 363
#     4   9  19  36  59  85 114 153 202 250 299 367
#     4  10  22  37  57  86 122 160 200 253 312 368
#
# _framework density 19.346491
#
# number of rings (size 3 to 8) (size 9 to 14) (size 15 to 20)
#    0.000    1.875    2.500    2.250    1.750    3.250 
#    0.000    6.875    0.000    0.000    0.000    0.000 
#    0.000    0.000    0.000    0.000    0.000    0.000 
#
# Total GULP energy -356956.198373 kJ/mol
# GULP energy per Si atom -5577.440600 kJ/mol
# Density = 1.930246 g / cm^3
# Si number density = 19.346491 Si / 1000 Ang^3
#
#
#
# Elastic Constant Matrix: (Units=GPa)
#
#
# Indices 1 2 3 4 5 6 
#
# 1 49.6139 -3.9376 26.2832 0.0000 0.0000 0.0000
# 2 -3.9376 39.6341 12.2680 0.0000 0.0000 0.0000
# 3 26.2832 12.2680 70.3244 0.0000 0.0000 0.0000
# 4 0.0000 0.0000 0.0000 126.7324 0.0000 0.0000
# 5 0.0000 0.0000 0.0000 0.0000 24.3969 0.0000
# 6 0.0000 0.0000 0.0000 0.0000 0.0000 17.2924
#
#
#
# Elastic Compliance Matrix: (Units=1/GPa)
#
#
# Indices 1 2 3 4 5 6 
#
# 1 0.026418 0.006005 -0.010921 0.000000 0.000000 0.000000
# 2 0.006005 0.028036 -0.007135 0.000000 0.000000 0.000000
# 3 -0.010921 -0.007135 0.019546 0.000000 0.000000 0.000000
# 4 0.000000 0.000000 0.000000 0.007891 0.000000 0.000000
# 5 0.000000 0.000000 0.000000 0.000000 0.040989 0.000000
# 6 0.000000 0.000000 0.000000 0.000000 0.000000 0.057829
#
#
# Mechanical properties :
#
#
# Convention : Reuss Voigt Hill
#
# Bulk Modulus (GPa) = 20.04112 25.42217 22.73164
# Shear Modulus (GPa) = 22.57920 42.01493 32.29707
#
# Velocity S-wave (km/s) = 3.41998 4.66521 4.09026
# Velocity P-wave (km/s) = 5.09672 6.49523 5.83800
#
# Compressibility (1/GPa) = 0.04989742
#
# Stress axis : x y z
#
# Youngs Moduli (GPa) = 37.85356 35.66857 51.16111
#
# Poissons Ratio (x) = -0.21419 0.55872
# Poissons Ratio (y) = -0.22731 0.36504
# Poissons Ratio (z) = 0.41339 0.25450
#
# Static dielectric constant tensor:
#      x y z
#    x 1.653860 0.000000 0.000000 
#    y 0.000000 1.695050 0.000000 
#    z 0.000000 0.000000 1.675590 
# 
# From -- ./inp_files/23912.got.cif
#   From: 2010.05.17/outbox.cif.g08.bks.cpg/sg53_12_cif.got.tgz:23912.got - 2010.06.03 12:45:16.
