data_PCOD9419449
_publ_section_title
;
Structure prediction by ZEFSAII (Michael W. Deem and Ramdas Pophale) SiO2 
 PCOD9419449
Probable space group: P M N A
;
_chemical_formula_sum "Si O2"
_cell_formula_units_Z 40
_cell_length_a 8.946110
_cell_length_b 12.931617
_cell_length_c 17.203347
_cell_angle_alpha 90.000000
_cell_angle_beta 90.000000
_cell_angle_gamma 90.000000
_cell_volume 1990.215099
_symmetry_space_group_name_H-M "P M N A"
_symmetry_group_IT_number 53
_symmetry_cell_setting 'orthorhombic'
loop_
_space_group_symop_operation_xyz
x,y,z
1/2-x,-y,1/2+z
x,-y,-z
1/2-x,y,1/2-z
-x,-y,-z
1/2+x,y,1/2-z
-x,y,z
1/2+x,-y,1/2+z
loop_
_atom_site_type_symbol
_atom_site_label
_atom_site_fract_x
_atom_site_fract_y
_atom_site_fract_z
Si Si1 0.321268 0.260809 0.337378
Si Si2 0.826346 0.144922 0.666357
Si Si3 0.826336 0.536684 0.589593
Si Si4 0.668129 0.034784 0.410207
Si Si5 0.323297 0.657885 0.334775
O O1 0.250000 0.253930 0.250000
O O2 0.500000 0.280263 0.329830
O O3 0.243350 0.353193 0.386066
O O4 0.304254 0.153361 0.385530
O O5 0.750000 0.135228 0.750000
O O6 0.745759 0.241045 0.623604
O O7 0.000000 0.167751 0.673400
O O8 0.793671 0.037147 0.626273
O O9 0.824458 0.500000 0.500000
O O10 0.727882 0.449200 0.629975
O O11 0.000000 0.534021 0.615519
O O12 0.500000 0.009407 0.379221
O O13 0.665714 0.000000 0.500000
O O14 0.250000 0.659432 0.250000
O O15 0.500000 0.667121 0.331412
#
# Coordination Sequence:
#
# PCOD9419449 Si02
#       5
#     8   8   8   8   8
#     4  11  24  43  68  96 130 175 223 269 323 389
#     4  11  22  38  62  92 125 164 209 257 315 375
#     4  11  25  43  64  93 130 166 209 265 323 384
#     4  10  23  42  64  94 130 169 213 265 323 382
#     4  11  22  39  64  91 124 163 208 257 313 377
#
# _framework density 20.098330000000001
#
# number of rings (size 3 to 8) (size 9 to 14) (size 15 to 20)
#    0.000    1.200    0.000    7.200    2.800    5.200 
#    0.000    0.000    0.000    0.000    0.000    0.000 
#    0.000    0.000    0.000    0.000    0.000    0.000 
#
# Total GULP energy -223267.455327 kJ/mol
# GULP energy per Si atom -5581.686383 kJ/mol
# Density = 2.005259 g / cm^3
# Si number density = 20.098330 Si / 1000 Ang^3
#
#
#
# Elastic Constant Matrix: (Units=GPa)
#
#
# Indices 1 2 3 4 5 6 
#
# 1 194.2931 79.7945 37.5903 0.0000 0.0000 0.0000
# 2 79.7945 147.1863 37.4596 0.0000 0.0000 0.0000
# 3 37.5903 37.4596 59.0972 0.0000 0.0000 0.0000
# 4 0.0000 0.0000 0.0000 24.2881 0.0000 0.0000
# 5 0.0000 0.0000 0.0000 0.0000 19.6843 0.0000
# 6 0.0000 0.0000 0.0000 0.0000 0.0000 45.4392
#
#
#
# Elastic Compliance Matrix: (Units=1/GPa)
#
#
# Indices 1 2 3 4 5 6 
#
# 1 0.006896 -0.003127 -0.002405 0.000000 0.000000 0.000000
# 2 -0.003127 0.009519 -0.004045 0.000000 0.000000 0.000000
# 3 -0.002405 -0.004045 0.021015 0.000000 0.000000 0.000000
# 4 0.000000 0.000000 0.000000 0.041172 0.000000 0.000000
# 5 0.000000 0.000000 0.000000 0.000000 0.050802 0.000000
# 6 0.000000 0.000000 0.000000 0.000000 0.000000 0.022007
#
#
# Mechanical properties :
#
#
# Convention : Reuss Voigt Hill
#
# Bulk Modulus (GPa) = 54.71239 78.91836 66.81538
# Shear Modulus (GPa) = 28.30365 34.26444 31.28405
#
# Velocity S-wave (km/s) = 3.75675 4.13345 3.94959
# Velocity P-wave (km/s) = 6.78962 7.88238 7.35632
#
# Compressibility (1/GPa) = 0.01827739
#
# Stress axis : x y z
#
# Youngs Moduli (GPa) = 145.00776 105.05782 47.58605
#
# Poissons Ratio (x) = 0.32848 0.11443
# Poissons Ratio (y) = 0.45339 0.19247
# Poissons Ratio (z) = 0.34869 0.42493
#
# Static dielectric constant tensor:
#      x y z
#    x 1.700370 0.000000 0.000000 
#    y 0.000000 1.796090 0.000000 
#    z 0.000000 0.000000 1.712920 
# 
# From -- ./inp_files/25834.got.cif
#   From: 2010.05.17/outbox.cif.g08.bks.cpg/sg53_13_cif.got.tgz:25834.got - 2010.06.03 12:45:16.
