data_PCOD9419213
_publ_section_title
;
Structure prediction by ZEFSAII (Michael W. Deem and Ramdas Pophale) SiO2 
 PCOD9419213
Probable space group: P M N A
;
_chemical_formula_sum "Si O2"
_cell_formula_units_Z 48
_cell_length_a 27.208715
_cell_length_b 8.689025
_cell_length_c 9.582050
_cell_angle_alpha 90.000000
_cell_angle_beta 90.000000
_cell_angle_gamma 90.000000
_cell_volume 2265.361478
_symmetry_space_group_name_H-M "P M N A"
_symmetry_group_IT_number 53
_symmetry_cell_setting 'orthorhombic'
loop_
_space_group_symop_operation_xyz
x,y,z
1/2-x,-y,1/2+z
x,-y,-z
1/2-x,y,1/2-z
-x,-y,-z
1/2+x,y,1/2-z
-x,y,z
1/2+x,-y,1/2+z
loop_
_atom_site_type_symbol
_atom_site_label
_atom_site_fract_x
_atom_site_fract_y
_atom_site_fract_z
Si Si1 0.695452 0.620816 0.754023
Si Si2 0.556973 0.868998 0.704762
Si Si3 0.877492 0.669596 0.995315
Si Si4 0.114146 0.841899 0.278251
Si Si5 0.292060 0.031359 0.158917
Si Si6 0.601438 0.350637 0.059917
O O1 0.750000 0.541198 0.750000
O O2 0.671229 0.642273 0.600359
O O3 0.649361 0.579265 0.856444
O O4 0.706781 0.788378 0.815760
O O5 0.500000 0.851457 0.671084
O O6 0.590717 0.800767 0.581166
O O7 0.572141 0.757638 0.833425
O O8 0.568338 0.047488 0.741062
O O9 0.901880 0.500000 0.000000
O O10 0.871619 0.727380 0.152985
O O11 0.156690 0.966523 0.293181
O O12 0.112276 0.755130 0.425640
O O13 0.250000 0.955775 0.250000
O O14 0.282454 0.000000 0.000000
O O15 0.573928 0.500000 0.000000
#
# Coordination Sequence:
#
# PCOD9419213 Si02
#       6
#     8   8   8   8   8   8
#     4  10  22  40  61  91 133 171 214 262 305 368
#     4  11  25  45  68  94 123 160 213 269 323 386
#     4  11  25  43  64  94 130 171 209 258 325 382
#     4  12  22  40  68  93 125 166 216 265 312 377
#     4  11  22  36  62  97 129 168 218 268 313 366
#     4  11  23  43  66  93 131 169 207 260 322 382
#
# _framework density 21.188672
#
# number of rings (size 3 to 8) (size 9 to 14) (size 15 to 20)
#    0.000    1.000    5.000    3.000    4.667    4.000 
#    0.000    3.333    0.000    0.000    0.000    0.000 
#    0.000    0.000    0.000    0.000    0.000    0.000 
#
# Total GULP energy -267767.302176 kJ/mol
# GULP energy per Si atom -5578.485462 kJ/mol
# Density = 2.114045 g / cm^3
# Si number density = 21.188672 Si / 1000 Ang^3
#
#
#
# Elastic Constant Matrix: (Units=GPa)
#
#
# Indices 1 2 3 4 5 6 
#
# 1 79.9539 -16.8976 14.5271 0.0000 0.0000 0.0000
# 2 -16.8976 49.4999 -2.5224 0.0000 0.0000 0.0000
# 3 14.5271 -2.5224 115.8468 0.0000 0.0000 0.0000
# 4 0.0000 0.0000 0.0000 81.4814 0.0000 0.0000
# 5 0.0000 0.0000 0.0000 0.0000 5.9434 0.0000
# 6 0.0000 0.0000 0.0000 0.0000 0.0000 15.6631
#
#
#
# Elastic Compliance Matrix: (Units=1/GPa)
#
#
# Indices 1 2 3 4 5 6 
#
# 1 0.013779 0.004621 -0.001627 0.000000 0.000000 0.000000
# 2 0.004621 0.021774 -0.000105 0.000000 0.000000 0.000000
# 3 -0.001627 -0.000105 0.008834 0.000000 0.000000 0.000000
# 4 0.000000 0.000000 0.000000 0.012273 0.000000 0.000000
# 5 0.000000 0.000000 0.000000 0.000000 0.168254 0.000000
# 6 0.000000 0.000000 0.000000 0.000000 0.000000 0.063844
#
#
# Mechanical properties :
#
#
# Convention : Reuss Voigt Hill
#
# Bulk Modulus (GPa) = 19.93465 26.16832 23.05149
# Shear Modulus (GPa) = 16.68316 37.29716 26.99016
#
# Velocity S-wave (km/s) = 2.80904 4.20007 3.57291
# Velocity P-wave (km/s) = 4.46649 5.99148 5.28428
#
# Compressibility (1/GPa) = 0.05016391
#
# Stress axis : x y z
#
# Youngs Moduli (GPa) = 72.57176 45.92607 113.20076
#
# Poissons Ratio (x) = -0.21222 0.18421
# Poissons Ratio (y) = -0.33535 0.01193
# Poissons Ratio (z) = 0.11810 0.00484
#
# Static dielectric constant tensor:
#      x y z
#    x 1.821210 0.000000 0.000000 
#    y 0.000000 1.767480 0.000000 
#    z 0.000000 0.000000 1.781790 
# 
# From -- ./inp_files/12992.got.cif
#   From: 2010.05.17/outbox.cif.g08.bks.cpg/sg53_7_cif.got.tgz:12992.got - 2010.06.03 12:45:16.
