data_PCOD9419912
_publ_section_title
;
Structure prediction by ZEFSAII (Michael W. Deem and Ramdas Pophale) SiO2 
 PCOD9419912
Probable space group: P M N A
;
_chemical_formula_sum "Si O2"
_cell_formula_units_Z 64
_cell_length_a 14.084702
_cell_length_b 8.109985
_cell_length_c 24.089647
_cell_angle_alpha 90.000000
_cell_angle_beta 90.000000
_cell_angle_gamma 90.000000
_cell_volume 2751.681410
_symmetry_space_group_name_H-M "P M N A"
_symmetry_group_IT_number 53
_symmetry_cell_setting 'orthorhombic'
loop_
_space_group_symop_operation_xyz
x,y,z
1/2-x,-y,1/2+z
x,-y,-z
1/2-x,y,1/2-z
-x,-y,-z
1/2+x,y,1/2-z
-x,y,z
1/2+x,-y,1/2+z
loop_
_atom_site_type_symbol
_atom_site_label
_atom_site_fract_x
_atom_site_fract_y
_atom_site_fract_z
Si Si1 0.609164 0.058940 0.159123
Si Si2 0.890833 0.435931 0.384910
Si Si3 0.779211 0.561550 0.055827
Si Si4 0.615226 0.812326 0.727512
Si Si5 0.720018 0.061846 0.944827
Si Si6 0.609190 0.323668 0.656968
Si Si7 0.114456 0.446103 0.730306
Si Si8 0.108980 0.949162 0.887965
O O1 0.500000 0.001011 0.161306
O O2 0.608676 0.249372 0.138197
O O3 0.646790 0.068543 0.222257
O O4 0.664720 0.958544 0.112902
O O5 0.815419 0.455767 0.433294
O O6 0.856014 0.553262 0.333840
O O7 0.000000 0.476406 0.399714
O O8 0.747865 0.749728 0.048155
O O9 0.841225 0.561554 0.111598
O O10 0.828952 0.500000 0.000000
O O11 0.500000 0.828309 0.726546
O O12 0.637366 0.627222 0.745611
O O13 0.645773 0.847095 0.665021
O O14 0.814891 0.949902 0.936894
O O15 0.667520 0.000000 0.000000
O O16 0.500000 0.379064 0.660567
O O17 0.647638 0.329052 0.719960
O O18 0.609199 0.137743 0.634329
O O19 0.000000 0.431840 0.725683
O O20 0.000000 0.905157 0.902190
#
# Coordination Sequence:
#
# PCOD9419912 Si02
#       8
#     8   8   8   8   8   8   8   8
#     4   9  19  37  59  82 110 142 175 215 263 315
#     4   9  19  37  59  82 110 142 175 215 263 315
#     4  11  24  39  55  77 105 140 184 227 266 313
#     4   8  15  30  54  83 110 137 172 212 259 317
#     4  11  24  39  55  77 105 140 184 227 266 313
#     4   9  19  36  56  79 109 142 175 216 266 317
#     4   8  15  30  54  83 110 137 172 212 259 317
#     4   9  19  36  56  79 109 142 175 216 266 317
#
# _framework density 23.258507000000002
#
# number of rings (size 3 to 8) (size 9 to 14) (size 15 to 20)
#    0.000    2.750    0.000    2.250    0.000    5.500 
#    0.000    7.500    0.000    0.000    0.000    0.000 
#    0.000    0.000    0.000    0.000    0.000    0.000 
#
# Total GULP energy -357494.438393 kJ/mol
# GULP energy per Si atom -5585.850600 kJ/mol
# Density = 2.320557 g / cm^3
# Si number density = 23.258507 Si / 1000 Ang^3
#
#
#
# Elastic Constant Matrix: (Units=GPa)
#
#
# Indices 1 2 3 4 5 6 
#
# 1 57.7193 -0.2579 10.1069 0.0000 0.0000 0.0000
# 2 -0.2579 26.5175 15.0615 0.0000 0.0000 0.0000
# 3 10.1069 15.0615 70.8398 0.0000 0.0000 0.0000
# 4 0.0000 0.0000 0.0000 35.0980 0.0000 0.0000
# 5 0.0000 0.0000 0.0000 0.0000 26.4021 0.0000
# 6 0.0000 0.0000 0.0000 0.0000 0.0000 12.6237
#
#
#
# Elastic Compliance Matrix: (Units=1/GPa)
#
#
# Indices 1 2 3 4 5 6 
#
# 1 0.017848 0.001842 -0.002938 0.000000 0.000000 0.000000
# 2 0.001842 0.043081 -0.009422 0.000000 0.000000 0.000000
# 3 -0.002938 -0.009422 0.016539 0.000000 0.000000 0.000000
# 4 0.000000 0.000000 0.000000 0.028492 0.000000 0.000000
# 5 0.000000 0.000000 0.000000 0.000000 0.037876 0.000000
# 6 0.000000 0.000000 0.000000 0.000000 0.000000 0.079216
#
#
# Mechanical properties :
#
#
# Convention : Reuss Voigt Hill
#
# Bulk Modulus (GPa) = 17.72067 22.76638 20.24353
# Shear Modulus (GPa) = 19.01881 23.50250 21.26065
#
# Velocity S-wave (km/s) = 2.86267 3.18227 3.02669
# Velocity P-wave (km/s) = 4.30837 4.82826 4.57571
#
# Compressibility (1/GPa) = 0.05643128
#
# Stress axis : x y z
#
# Youngs Moduli (GPa) = 56.02884 23.21226 60.46360
#
# Poissons Ratio (x) = -0.04277 0.17765
# Poissons Ratio (y) = -0.10323 0.56971
# Poissons Ratio (z) = 0.16462 0.21872
#
# Static dielectric constant tensor:
#      x y z
#    x 1.901680 0.000000 0.000000 
#    y 0.000000 1.869060 0.000000 
#    z 0.000000 0.000000 1.864170 
# 
# From -- ./inp_files/35320.got.cif
#   From: 2010.05.17/outbox.cif.g08.bks.cpg/sg53_18_cif.got.tgz:35320.got - 2010.06.03 12:45:16.
