data_PCOD9419393
_publ_section_title
;
Structure prediction by ZEFSAII (Michael W. Deem and Ramdas Pophale) SiO2 
 PCOD9419393
Probable space group: P M N A
;
_chemical_formula_sum "Si O2"
_cell_formula_units_Z 48
_cell_length_a 15.207995
_cell_length_b 15.662988
_cell_length_c 8.818100
_cell_angle_alpha 90.000000
_cell_angle_beta 90.000000
_cell_angle_gamma 90.000000
_cell_volume 2100.494728
_symmetry_space_group_name_H-M "P M N A"
_symmetry_group_IT_number 53
_symmetry_cell_setting 'orthorhombic'
loop_
_space_group_symop_operation_xyz
x,y,z
1/2-x,-y,1/2+z
x,-y,-z
1/2-x,y,1/2-z
-x,-y,-z
1/2+x,y,1/2-z
-x,y,z
1/2+x,-y,1/2+z
loop_
_atom_site_type_symbol
_atom_site_label
_atom_site_fract_x
_atom_site_fract_y
_atom_site_fract_z
Si Si1 0.400571 0.914205 0.899863
Si Si2 0.353635 0.342515 0.200132
Si Si3 0.100883 0.683711 0.350244
Si Si4 0.152958 0.518811 0.177714
Si Si5 0.761829 0.826067 0.395602
Si Si6 0.901999 0.177882 0.109576
O O1 0.500000 0.880190 0.921717
O O2 0.387415 0.904984 0.718393
O O3 0.324997 0.858673 0.972987
O O4 0.397768 0.000000 0.000000
O O5 0.250000 0.339313 0.250000
O O6 0.389667 0.432938 0.257104
O O7 0.395578 0.260498 0.280504
O O8 0.370792 0.343473 0.020719
O O9 0.107580 0.605677 0.231843
O O10 0.175236 0.753958 0.319127
O O11 0.000000 0.714287 0.351161
O O12 0.250000 0.525586 0.250000
O O13 0.160074 0.500000 0.000000
O O14 0.750000 0.887737 0.250000
O O15 0.671562 0.810412 0.483063
O O16 0.000000 0.173070 0.044340
#
# Coordination Sequence:
#
# PCOD9419393 Si02
#       6
#     8   8   8   8   8   8
#     4  10  22  45  76 107 139 180 229 280 343 421
#     4  11  20  40  69  95 134 182 233 290 352 421
#     4  12  25  43  66  95 135 184 240 293 354 419
#     4  11  25  42  65  95 135 188 241 299 354 415
#     4  12  26  42  67 101 146 185 231 286 350 417
#     4  11  23  43  73 105 140 186 236 288 352 423
#
# _framework density 22.851759999999999
#
# number of rings (size 3 to 8) (size 9 to 14) (size 15 to 20)
#    0.000    0.833    3.333    4.500    2.333    5.000 
#    0.000    0.000    0.000    3.500    0.000    0.000 
#    0.000    0.000    0.000    0.000    0.000    0.000 
#
# Total GULP energy -267926.303861 kJ/mol
# GULP energy per Si atom -5581.797997 kJ/mol
# Density = 2.279975 g / cm^3
# Si number density = 22.851760 Si / 1000 Ang^3
#
#
#
# Elastic Constant Matrix: (Units=GPa)
#
#
# Indices 1 2 3 4 5 6 
#
# 1 175.0533 41.5923 74.0431 0.0000 0.0000 0.0000
# 2 41.5923 58.0489 18.0925 0.0000 0.0000 0.0000
# 3 74.0431 18.0925 148.0638 0.0000 0.0000 0.0000
# 4 0.0000 0.0000 0.0000 7.8310 0.0000 0.0000
# 5 0.0000 0.0000 0.0000 0.0000 5.5847 0.0000
# 6 0.0000 0.0000 0.0000 0.0000 0.0000 11.2256
#
#
#
# Elastic Compliance Matrix: (Units=1/GPa)
#
#
# Indices 1 2 3 4 5 6 
#
# 1 0.008399 -0.004895 -0.003602 0.000000 0.000000 0.000000
# 2 -0.004895 0.020762 -0.000089 0.000000 0.000000 0.000000
# 3 -0.003602 -0.000089 0.008566 0.000000 0.000000 0.000000
# 4 0.000000 0.000000 0.000000 0.127697 0.000000 0.000000
# 5 0.000000 0.000000 0.000000 0.000000 0.179061 0.000000
# 6 0.000000 0.000000 0.000000 0.000000 0.000000 0.089082
#
#
# Mechanical properties :
#
#
# Convention : Reuss Voigt Hill
#
# Bulk Modulus (GPa) = 48.65090 72.06908 60.35999
# Shear Modulus (GPa) = 10.92676 21.42414 16.17545
#
# Velocity S-wave (km/s) = 2.18906 3.06523 2.66342
# Velocity P-wave (km/s) = 5.26548 6.64331 5.99412
#
# Compressibility (1/GPa) = 0.02055461
#
# Stress axis : x y z
#
# Youngs Moduli (GPa) = 119.05771 48.16447 116.74022
#
# Poissons Ratio (x) = 0.23579 0.42051
# Poissons Ratio (y) = 0.58284 0.01038
# Poissons Ratio (z) = 0.42886 0.00428
#
# Static dielectric constant tensor:
#      x y z
#    x 1.962600 0.000000 0.000000 
#    y 0.000000 1.938050 0.000000 
#    z 0.000000 0.000000 1.150660 
# 
# From -- ./inp_files/8688.got.cif
#   From: 2010.05.17/outbox.cif.g08.bks.cpg/sg53_5_cif.got.tgz:8688.got - 2010.06.03 12:45:16.
