data_PCOD9419610
_publ_section_title
;
Structure prediction by ZEFSAII (Michael W. Deem and Ramdas Pophale) SiO2 
 PCOD9419610
Probable space group: P M N A
;
_chemical_formula_sum "Si O2"
_cell_formula_units_Z 64
_cell_length_a 14.586738
_cell_length_b 14.145111
_cell_length_c 19.866121
_cell_angle_alpha 90.000000
_cell_angle_beta 90.000000
_cell_angle_gamma 90.000000
_cell_volume 4098.997171
_symmetry_space_group_name_H-M "P M N A"
_symmetry_group_IT_number 53
_symmetry_cell_setting 'orthorhombic'
loop_
_space_group_symop_operation_xyz
x,y,z
1/2-x,-y,1/2+z
x,-y,-z
1/2-x,y,1/2-z
-x,-y,-z
1/2+x,y,1/2-z
-x,y,z
1/2+x,-y,1/2+z
loop_
_atom_site_type_symbol
_atom_site_label
_atom_site_fract_x
_atom_site_fract_y
_atom_site_fract_z
Si Si1 0.249998 0.911803 0.092775
Si Si2 0.750001 0.558057 0.569638
Si Si3 0.393743 0.756367 0.390035
Si Si4 0.893743 0.720706 0.551171
Si Si5 0.606257 0.756371 0.109966
Si Si6 0.893743 0.720703 0.948828
Si Si7 0.250001 0.613456 0.171005
Si Si8 0.749999 0.123834 0.431396
O O1 0.161308 0.854589 0.118628
O O2 0.338689 0.854591 0.118629
O O3 0.249998 0.023386 0.105494
O O4 0.249998 0.898085 0.011631
O O5 0.750001 0.500000 0.500000
O O6 0.837946 0.627011 0.570532
O O7 0.662055 0.627009 0.570533
O O8 0.750003 0.483101 0.629332
O O9 0.500000 0.762553 0.371194
O O10 0.388392 0.730874 0.469727
O O11 0.337720 0.676154 0.350927
O O12 0.888392 0.730877 0.469726
O O13 0.838719 0.810571 0.580537
O O14 0.000000 0.718350 0.570281
O O15 0.500000 0.762559 0.128806
O O16 0.662278 0.676157 0.149074
O O17 0.838721 0.810569 0.919463
O O18 0.000000 0.718345 0.929718
O O19 0.250000 0.597163 0.250000
#
# Coordination Sequence:
#
# PCOD9419610 Si02
#       8
#     8   8   8   8   8   8   8   8
#     4   8  14  25  42  65  95 129 151 182 224 277
#     4  11  18  32  49  67  90 122 164 205 240 290
#     4   9  17  30  46  67  94 126 159 189 230 283
#     4   9  17  28  46  70  95 124 158 195 236 282
#     4   9  17  30  46  67  94 126 159 189 230 283
#     4   9  17  28  46  70  95 124 158 195 236 282
#     4  11  22  34  47  67  95 125 158 200 244 283
#     4   8  14  25  40  66 102 123 147 185 232 275
#
# _framework density 15.613576
#
# number of rings (size 3 to 8) (size 9 to 14) (size 15 to 20)
#    0.000    2.750    2.500    1.500    0.000    3.000 
#    0.000    5.000    0.000    0.000    0.000   14.000 
#    0.000    0.000    0.000    0.000    0.000    0.000 
#
# Total GULP energy -356494.087458 kJ/mol
# GULP energy per Si atom -5570.220117 kJ/mol
# Density = 1.557804 g / cm^3
# Si number density = 15.613576 Si / 1000 Ang^3
#
#
#
# Elastic Constant Matrix: (Units=GPa)
#
#
# Indices 1 2 3 4 5 6 
#
# 1 175.8324 95.5619 38.1023 0.0000 0.0000 0.0000
# 2 95.5619 167.8023 43.7689 0.0000 0.0000 0.0000
# 3 38.1023 43.7689 41.2367 0.0000 0.0000 0.0000
# 4 0.0000 0.0000 0.0000 8.1469 0.0000 0.0000
# 5 0.0000 0.0000 0.0000 0.0000 5.7107 0.0000
# 6 0.0000 0.0000 0.0000 0.0000 0.0000 6.4564
#
#
#
# Elastic Compliance Matrix: (Units=1/GPa)
#
#
# Indices 1 2 3 4 5 6 
#
# 1 0.008651 -0.003930 -0.003823 0.000000 0.000000 0.000000
# 2 -0.003930 0.010026 -0.007011 0.000000 0.000000 0.000000
# 3 -0.003823 -0.007011 0.035223 0.000000 0.000000 0.000000
# 4 0.000000 0.000000 0.000000 0.122746 0.000000 0.000000
# 5 0.000000 0.000000 0.000000 0.000000 0.175111 0.000000
# 6 0.000000 0.000000 0.000000 0.000000 0.000000 0.154885
#
#
# Mechanical properties :
#
#
# Convention : Reuss Voigt Hill
#
# Bulk Modulus (GPa) = 41.02611 82.19308 61.60959
# Shear Modulus (GPa) = 9.18620 17.89201 13.53911
#
# Velocity S-wave (km/s) = 2.42822 3.38883 2.94791
# Velocity P-wave (km/s) = 5.84762 8.25037 7.15063
#
# Compressibility (1/GPa) = 0.02437472
#
# Stress axis : x y z
#
# Youngs Moduli (GPa) = 115.58872 99.74096 28.39018
#
# Poissons Ratio (x) = 0.39196 0.10853
# Poissons Ratio (y) = 0.45424 0.19903
# Poissons Ratio (z) = 0.44186 0.69924
#
# Static dielectric constant tensor:
#      x y z
#    x 1.520930 0.000000 0.000000 
#    y 0.000000 1.516650 0.000000 
#    z 0.000000 0.000000 1.510860 
# 
# From -- ./inp_files/28645.got.cif
#   From: 2010.05.17/outbox.cif.g08.bks.cpg/sg53_15_cif.got.tgz:28645.got - 2010.06.03 12:45:16.
