data_PCOD9419382
_publ_section_title
;
Structure prediction by ZEFSAII (Michael W. Deem and Ramdas Pophale) SiO2 
 PCOD9419382
Probable space group: P M N A
;
_chemical_formula_sum "Si O2"
_cell_formula_units_Z 34
_cell_length_a 10.219964
_cell_length_b 8.306662
_cell_length_c 18.966775
_cell_angle_alpha 90.000000
_cell_angle_beta 90.000000
_cell_angle_gamma 90.000000
_cell_volume 1610.161349
_symmetry_space_group_name_H-M "P M N A"
_symmetry_group_IT_number 53
_symmetry_cell_setting 'orthorhombic'
loop_
_space_group_symop_operation_xyz
x,y,z
1/2-x,-y,1/2+z
x,-y,-z
1/2-x,y,1/2-z
-x,-y,-z
1/2+x,y,1/2-z
-x,y,z
1/2+x,-y,1/2+z
loop_
_atom_site_type_symbol
_atom_site_label
_atom_site_fract_x
_atom_site_fract_y
_atom_site_fract_z
Si Si1 0.000000 0.974503 0.136882
Si Si2 0.282115 0.080255 0.110319
Si Si3 0.500000 0.400917 0.668511
Si Si4 0.500000 0.000000 0.000000
Si Si5 0.752658 0.461014 0.083472
Si Si6 0.000000 0.503826 0.330760
Si Si7 0.500000 0.129240 0.214671
O O1 0.860912 0.006655 0.101272
O O2 0.000000 0.097057 0.202980
O O3 0.000000 0.789001 0.157241
O O4 0.386080 0.000552 0.059619
O O5 0.266786 0.269375 0.092005
O O6 0.361109 0.064452 0.184370
O O7 0.624271 0.480473 0.629345
O O8 0.500000 0.421295 0.753058
O O9 0.625598 0.539229 0.120795
O O10 0.763079 0.500000 0.000000
O O11 0.000000 0.313826 0.310984
#
# Coordination Sequence:
#
# PCOD9419382 Si02
#       7
#     4   8   4   2   8   4   4
#     4  12  25  41  65 102 135 180 217 281 343 397
#     4  10  23  43  69  94 131 178 221 271 335 404
#     4  12  27  42  63 104 142 172 227 288 339 396
#     4  10  24  44  66  96 122 164 224 270 322 390
#     4  11  24  45  69 100 134 182 227 280 338 409
#     4  10  22  44  72  98 130 180 231 277 334 409
#     4   9  20  42  68  96 129 170 228 268 331 408
#
# _framework density 21.115897
#
# number of rings (size 3 to 8) (size 9 to 14) (size 15 to 20)
#    0.000    1.412    0.000    4.941    3.294    8.000 
#    4.235    0.000    0.000    0.000    0.000    0.000 
#    0.000    0.000    0.000    0.000    0.000    0.000 
#
# Total GULP energy -189278.690465 kJ/mol
# GULP energy per Si atom -5567.020308 kJ/mol
# Density = 2.106784 g / cm^3
# Si number density = 21.115897 Si / 1000 Ang^3
#
#
#
# Elastic Constant Matrix: (Units=GPa)
#
#
# Indices 1 2 3 4 5 6 
#
# 1 219.7430 14.5664 50.9831 0.0000 0.0000 0.0000
# 2 14.5664 21.8950 -10.4422 0.0000 0.0000 0.0000
# 3 50.9831 -10.4422 104.1574 0.0000 0.0000 0.0000
# 4 0.0000 0.0000 0.0000 299.4818 0.0000 0.0000
# 5 0.0000 0.0000 0.0000 0.0000 58.4502 0.0000
# 6 0.0000 0.0000 0.0000 0.0000 0.0000 23.3343
#
#
#
# Elastic Compliance Matrix: (Units=1/GPa)
#
#
# Indices 1 2 3 4 5 6 
#
# 1 0.005675 -0.005356 -0.003315 0.000000 0.000000 0.000000
# 2 -0.005356 0.053022 0.007937 0.000000 0.000000 0.000000
# 3 -0.003315 0.007937 0.012019 0.000000 0.000000 0.000000
# 4 0.000000 0.000000 0.000000 0.003339 0.000000 0.000000
# 5 0.000000 0.000000 0.000000 0.000000 0.017109 0.000000
# 6 0.000000 0.000000 0.000000 0.000000 0.000000 0.042855
#
#
# Mechanical properties :
#
#
# Convention : Reuss Voigt Hill
#
# Bulk Modulus (GPa) = 14.44079 50.66777 32.55428
# Shear Modulus (GPa) = 31.53209 95.63245 63.58227
#
# Velocity S-wave (km/s) = 3.86850 6.73703 5.49331
# Velocity P-wave (km/s) = 5.17758 9.19587 7.46229
#
# Compressibility (1/GPa) = 0.06924830
#
# Stress axis : x y z
#
# Youngs Moduli (GPa) = 176.21483 18.86026 83.20084
#
# Poissons Ratio (x) = 0.10102 0.27579
# Poissons Ratio (y) = 0.94386 -0.66040
# Poissons Ratio (z) = 0.58411 -0.14970
#
# Static dielectric constant tensor:
#      x y z
#    x 1.759340 0.000000 0.000000 
#    y 0.000000 1.762190 0.000000 
#    z 0.000000 0.000000 1.746050 
# 
# From -- ./inp_files/30207.got.cif
#   From: 2010.05.17/outbox.cif.g08.bks.cpg/sg53_16_cif.got.tgz:30207.got - 2010.06.03 12:45:16.
