data_PCOD9419558
_publ_section_title
;
Structure prediction by ZEFSAII (Michael W. Deem and Ramdas Pophale) SiO2 
 PCOD9419558
Probable space group: P M N A
;
_chemical_formula_sum "Si O2"
_cell_formula_units_Z 44
_cell_length_a 9.001090
_cell_length_b 12.710175
_cell_length_c 18.381336
_cell_angle_alpha 90.000000
_cell_angle_beta 90.000000
_cell_angle_gamma 90.000000
_cell_volume 2102.924632
_symmetry_space_group_name_H-M "P M N A"
_symmetry_group_IT_number 53
_symmetry_cell_setting 'orthorhombic'
loop_
_space_group_symop_operation_xyz
x,y,z
1/2-x,-y,1/2+z
x,-y,-z
1/2-x,y,1/2-z
-x,-y,-z
1/2+x,y,1/2-z
-x,y,z
1/2+x,-y,1/2+z
loop_
_atom_site_type_symbol
_atom_site_label
_atom_site_fract_x
_atom_site_fract_y
_atom_site_fract_z
Si Si1 0.673304 0.412987 0.436335
Si Si2 0.677712 0.568814 0.171011
Si Si3 0.750000 0.089480 0.750000
Si Si4 0.821504 0.807624 0.526187
Si Si5 0.663900 0.882794 0.819151
Si Si6 0.330832 0.775226 0.384882
O O1 0.676552 0.500000 0.500000
O O2 0.500000 0.386643 0.422334
O O3 0.751432 0.468146 0.368121
O O4 0.766418 0.311311 0.459406
O O5 0.750000 0.578818 0.250000
O O6 0.500000 0.563422 0.174072
O O7 0.729620 0.672901 0.127729
O O8 0.669996 0.161098 0.690691
O O9 0.657831 0.005922 0.797953
O O10 0.774306 0.868109 0.599987
O O11 0.739038 0.839618 0.451935
O O12 0.000000 0.815463 0.517184
O O13 0.750000 0.834859 0.750000
O O14 0.500000 0.836344 0.820623
O O15 0.500000 0.743454 0.402436
#
# Coordination Sequence:
#
# PCOD9419558 Si02
#       6
#     8   8   4   8   8   8
#     4  11  23  41  65  94 131 171 213 260 317 381
#     4  12  25  41  65  96 133 172 217 265 322 387
#     4  10  24  44  70  92 128 170 214 278 328 394
#     4  11  24  42  67  98 134 173 219 270 328 392
#     4   9  22  44  67  93 126 168 213 266 326 388
#     4  12  24  40  66  98 132 171 218 271 330 388
#
# _framework density 20.923241000000001
#
# number of rings (size 3 to 8) (size 9 to 14) (size 15 to 20)
#    0.545    0.545    2.727    3.818    0.000    5.818 
#    0.000    4.545    0.000    0.000    0.000    0.000 
#    0.000    0.000    0.000    0.000    0.000    0.000 
#
# Total GULP energy -245565.914871 kJ/mol
# GULP energy per Si atom -5581.043520 kJ/mol
# Density = 2.087562 g / cm^3
# Si number density = 20.923241 Si / 1000 Ang^3
#
#
#
# Elastic Constant Matrix: (Units=GPa)
#
#
# Indices 1 2 3 4 5 6 
#
# 1 109.0755 -1.7411 44.5865 0.0000 0.0000 0.0000
# 2 -1.7411 42.4262 25.0381 0.0000 0.0000 0.0000
# 3 44.5865 25.0381 156.8884 0.0000 0.0000 0.0000
# 4 0.0000 0.0000 0.0000 44.0084 0.0000 0.0000
# 5 0.0000 0.0000 0.0000 0.0000 5.9649 0.0000
# 6 0.0000 0.0000 0.0000 0.0000 0.0000 -3.3711
#
#
#
# Elastic Compliance Matrix: (Units=1/GPa)
#
#
# Indices 1 2 3 4 5 6 
#
# 1 0.010597 0.002442 -0.003401 0.000000 0.000000 0.000000
# 2 0.002442 0.026584 -0.004937 0.000000 0.000000 0.000000
# 3 -0.003401 -0.004937 0.008128 0.000000 0.000000 0.000000
# 4 0.000000 0.000000 0.000000 0.022723 0.000000 0.000000
# 5 0.000000 0.000000 0.000000 0.000000 0.167648 0.000000
# 6 0.000000 0.000000 0.000000 0.000000 0.000000 -0.296639
#
#
# Mechanical properties :
#
#
# Convention : Reuss Voigt Hill
#
# Bulk Modulus (GPa) = 29.83460 49.35079 39.59270
# Shear Modulus (GPa) = -131.59980 25.35420 -53.12280
#
# Velocity S-wave (km/s) = -7.93933 3.48483 -5.04425
# Velocity P-wave (km/s) = 8.35189 6.31109 3.86808
#
# Compressibility (1/GPa) = 0.03351813
#
# Stress axis : x y z
#
# Youngs Moduli (GPa) = 94.36322 37.61663 123.02421
#
# Poissons Ratio (x) = -0.09187 0.41846
# Poissons Ratio (y) = -0.23046 0.60733
# Poissons Ratio (z) = 0.32097 0.18570
#
# Static dielectric constant tensor:
#      x y z
#    x 1.733240 0.000000 0.000000 
#    y 0.000000 1.751460 0.000000 
#    z 0.000000 0.000000 1.805110 
# 
# From -- ./inp_files/26070.got.cif
#   From: 2010.05.17/outbox.cif.g08.bks.cpg/sg53_14_cif.got.tgz:26070.got - 2010.06.03 12:45:16.
