data_PCOD9419551
_publ_section_title
;
Structure prediction by ZEFSAII (Michael W. Deem and Ramdas Pophale) SiO2 
 PCOD9419551
Probable space group: P M N A
;
_chemical_formula_sum "Si O2"
_cell_formula_units_Z 40
_cell_length_a 17.961129
_cell_length_b 17.739116
_cell_length_c 6.110601
_cell_angle_alpha 90.000000
_cell_angle_beta 90.000000
_cell_angle_gamma 90.000000
_cell_volume 1946.926393
_symmetry_space_group_name_H-M "P M N A"
_symmetry_group_IT_number 53
_symmetry_cell_setting 'orthorhombic'
loop_
_space_group_symop_operation_xyz
x,y,z
1/2-x,-y,1/2+z
x,-y,-z
1/2-x,y,1/2-z
-x,-y,-z
1/2+x,y,1/2-z
-x,y,z
1/2+x,-y,1/2+z
loop_
_atom_site_type_symbol
_atom_site_label
_atom_site_fract_x
_atom_site_fract_y
_atom_site_fract_z
Si Si1 0.087241 0.161320 0.023266
Si Si2 0.339640 0.302858 0.230966
Si Si3 0.827327 0.944192 0.673067
Si Si4 0.589778 0.467001 0.250866
Si Si5 0.325335 0.803952 0.124661
O O1 0.126211 0.237837 0.113872
O O2 0.120530 0.087142 0.137885
O O3 0.000000 0.166095 0.059197
O O4 0.111602 0.159933 0.773256
O O5 0.250000 0.306062 0.250000
O O6 0.376387 0.383316 0.260273
O O7 0.355560 0.270227 0.990222
O O8 0.750000 0.981646 0.750000
O O9 0.803629 0.867357 0.550480
O O10 0.864031 0.000000 0.500000
O O11 0.610056 0.500000 0.500000
O O12 0.500000 0.466882 0.247693
O O13 0.611264 0.500000 0.000000
O O14 0.250000 0.785909 0.250000
#
# Coordination Sequence:
#
# PCOD9419551 Si02
#       5
#     8   8   8   8   8
#     4  11  24  41  63  96 131 166 213 273 333 395
#     4  11  23  40  68  96 128 170 221 274 327 399
#     4  11  23  39  66  93 124 172 218 266 329 402
#     4  10  24  44  65  97 140 182 223 275 345 414
#     4  11  20  40  64  93 126 168 223 271 331 395
#
# _framework density 20.545203999999998
#
# number of rings (size 3 to 8) (size 9 to 14) (size 15 to 20)
#    0.000    1.200    4.000    2.400    2.800    5.200 
#    0.000    1.000    0.000    0.000    0.000    0.000 
#    0.000    0.000    0.000    0.000    0.000    0.000 
#
# Total GULP energy -222965.594186 kJ/mol
# GULP energy per Si atom -5574.139855 kJ/mol
# Density = 2.049844 g / cm^3
# Si number density = 20.545204 Si / 1000 Ang^3
#
#
#
# Elastic Constant Matrix: (Units=GPa)
#
#
# Indices 1 2 3 4 5 6 
#
# 1 66.2331 20.6915 26.3207 0.0000 0.0000 0.0000
# 2 20.6915 104.1763 50.1954 0.0000 0.0000 0.0000
# 3 26.3207 50.1954 113.5500 0.0000 0.0000 0.0000
# 4 0.0000 0.0000 0.0000 35.8663 0.0000 0.0000
# 5 0.0000 0.0000 0.0000 0.0000 13.2120 0.0000
# 6 0.0000 0.0000 0.0000 0.0000 0.0000 4.9442
#
#
#
# Elastic Compliance Matrix: (Units=1/GPa)
#
#
# Indices 1 2 3 4 5 6 
#
# 1 0.016911 -0.001868 -0.003094 0.000000 0.000000 0.000000
# 2 -0.001868 0.012403 -0.005050 0.000000 0.000000 0.000000
# 3 -0.003094 -0.005050 0.011756 0.000000 0.000000 0.000000
# 4 0.000000 0.000000 0.000000 0.027881 0.000000 0.000000
# 5 0.000000 0.000000 0.000000 0.000000 0.075689 0.000000
# 6 0.000000 0.000000 0.000000 0.000000 0.000000 0.202257
#
#
# Mechanical properties :
#
#
# Convention : Reuss Voigt Hill
#
# Bulk Modulus (GPa) = 47.51372 53.15274 50.33323
# Shear Modulus (GPa) = 13.37121 23.25462 18.31291
#
# Velocity S-wave (km/s) = 2.55388 3.36799 2.98878
# Velocity P-wave (km/s) = 5.64562 6.40716 6.03841
#
# Compressibility (1/GPa) = 0.02104655
#
# Stress axis : x y z
#
# Youngs Moduli (GPa) = 59.13167 80.62324 85.06077
#
# Poissons Ratio (x) = 0.15061 0.26320
# Poissons Ratio (y) = 0.11046 0.42955
# Poissons Ratio (z) = 0.18297 0.40714
#
# Static dielectric constant tensor:
#      x y z
#    x 1.703040 0.000000 0.000000 
#    y 0.000000 1.707480 0.000000 
#    z 0.000000 0.000000 1.944630 
# 
# From -- ./inp_files/2093.got.cif
#   From: 2010.05.17/outbox.cif.g08.bks.cpg/sg53_2_cif.got.tgz:2093.got - 2010.06.03 12:45:16.
