data_PCOD9419841
_publ_section_title
;
Structure prediction by ZEFSAII (Michael W. Deem and Ramdas Pophale) SiO2 
 PCOD9419841
Probable space group: P M N A
;
_chemical_formula_sum "Si O2"
_cell_formula_units_Z 32
_cell_length_a 33.296471
_cell_length_b 8.939578
_cell_length_c 5.140739
_cell_angle_alpha 90.000000
_cell_angle_beta 90.000000
_cell_angle_gamma 90.000000
_cell_volume 1530.173862
_symmetry_space_group_name_H-M "P M N A"
_symmetry_group_IT_number 53
_symmetry_cell_setting 'orthorhombic'
loop_
_space_group_symop_operation_xyz
x,y,z
1/2-x,-y,1/2+z
x,-y,-z
1/2-x,y,1/2-z
-x,-y,-z
1/2+x,y,1/2-z
-x,y,z
1/2+x,-y,1/2+z
loop_
_atom_site_type_symbol
_atom_site_label
_atom_site_fract_x
_atom_site_fract_y
_atom_site_fract_z
Si Si1 0.043663 0.672457 0.912314
Si Si2 0.416272 0.898106 0.250608
Si Si3 0.123827 0.674631 0.577348
Si Si4 0.793606 0.392141 0.248569
O O1 0.048972 0.785700 0.153064
O O2 0.000000 0.698564 0.787417
O O3 0.044952 0.500000 0.000000
O O4 0.083000 0.696626 0.738996
O O5 0.406670 0.000000 0.500000
O O6 0.380553 0.787227 0.163045
O O7 0.426144 0.000000 0.000000
O O8 0.123411 0.500000 0.500000
O O9 0.165599 0.701484 0.725052
O O10 0.792172 0.500000 0.500000
O O11 0.750000 0.313485 0.250000
O O12 0.797346 0.500000 0.000000
#
# Coordination Sequence:
#
# PCOD9419841 Si02
#       4
#     8   8   8   8
#     4  11  24  42  67  98 129 171 225 275 322 384
#     4  12  26  44  63  96 133 173 216 270 327 386
#     4  11  22  40  70  95 133 173 219 267 329 383
#     4   9  19  34  60 100 133 159 206 272 327 375
#
# _framework density 20.912658
#
# number of rings (size 3 to 8) (size 9 to 14) (size 15 to 20)
#    0.000    1.250    5.000    0.750    3.500    2.500 
#    0.000    0.000    0.000    0.000    6.500    0.000 
#    0.000    0.000    0.000    0.000    0.000    0.000 
#
# Total GULP energy -178510.449110 kJ/mol
# GULP energy per Si atom -5578.451535 kJ/mol
# Density = 2.086506 g / cm^3
# Si number density = 20.912658 Si / 1000 Ang^3
#
#
#
# Elastic Constant Matrix: (Units=GPa)
#
#
# Indices 1 2 3 4 5 6 
#
# 1 212.1379 33.9155 49.8317 0.0000 0.0000 0.0000
# 2 33.9155 123.2401 47.6519 0.0000 0.0000 0.0000
# 3 49.8317 47.6519 126.1058 0.0000 0.0000 0.0000
# 4 0.0000 0.0000 0.0000 30.9008 0.0000 0.0000
# 5 0.0000 0.0000 0.0000 0.0000 32.5844 0.0000
# 6 0.0000 0.0000 0.0000 0.0000 0.0000 -36.6151
#
#
#
# Elastic Compliance Matrix: (Units=1/GPa)
#
#
# Indices 1 2 3 4 5 6 
#
# 1 0.005255 -0.000753 -0.001792 0.000000 0.000000 0.000000
# 2 -0.000753 0.009611 -0.003334 0.000000 0.000000 0.000000
# 3 -0.001792 -0.003334 0.009898 0.000000 0.000000 0.000000
# 4 0.000000 0.000000 0.000000 0.032362 0.000000 0.000000
# 5 0.000000 0.000000 0.000000 0.000000 0.030690 0.000000
# 6 0.000000 0.000000 0.000000 0.000000 0.000000 -0.027311
#
#
# Mechanical properties :
#
#
# Convention : Reuss Voigt Hill
#
# Bulk Modulus (GPa) = 76.89240 80.47579 78.68409
# Shear Modulus (GPa) = 65.27645 27.37967 46.32806
#
# Velocity S-wave (km/s) = 5.59300 3.62227 4.71182
# Velocity P-wave (km/s) = 8.86324 7.48731 8.20417
#
# Compressibility (1/GPa) = 0.01300519
#
# Stress axis : x y z
#
# Youngs Moduli (GPa) = 190.28397 104.05125 101.03296
#
# Poissons Ratio (x) = 0.07839 0.18105
# Poissons Ratio (y) = 0.14335 0.33683
# Poissons Ratio (z) = 0.34099 0.34690
#
# Static dielectric constant tensor:
#      x y z
#    x 1.809000 0.000000 0.000000 
#    y 0.000000 1.767160 0.000000 
#    z 0.000000 0.000000 1.835770 
# 
# From -- ./inp_files/5025.got.cif
#   From: 2010.05.17/outbox.cif.g08.bks.cpg/sg53_3_cif.got.tgz:5025.got - 2010.06.03 12:45:16.
