data_PCOD9419806
_publ_section_title
;
Structure prediction by ZEFSAII (Michael W. Deem and Ramdas Pophale) SiO2 
 PCOD9419806
Probable space group: P M N A
;
_chemical_formula_sum "Si O2"
_cell_formula_units_Z 32
_cell_length_a 8.265423
_cell_length_b 12.824442
_cell_length_c 12.886612
_cell_angle_alpha 90.000000
_cell_angle_beta 90.000000
_cell_angle_gamma 90.000000
_cell_volume 1365.973628
_symmetry_space_group_name_H-M "P M N A"
_symmetry_group_IT_number 53
_symmetry_cell_setting 'orthorhombic'
loop_
_space_group_symop_operation_xyz
x,y,z
1/2-x,-y,1/2+z
x,-y,-z
1/2-x,y,1/2-z
-x,-y,-z
1/2+x,y,1/2-z
-x,y,z
1/2+x,-y,1/2+z
loop_
_atom_site_type_symbol
_atom_site_label
_atom_site_fract_x
_atom_site_fract_y
_atom_site_fract_z
Si Si1 0.695735 0.348825 0.416650
Si Si2 0.185764 0.911137 0.137937
Si Si3 0.685301 0.872166 0.912844
Si Si4 0.193539 0.578600 0.142064
O O1 0.500000 0.341526 0.410223
O O2 0.772430 0.243285 0.375366
O O3 0.749402 0.457971 0.366365
O O4 0.742821 0.362602 0.537871
O O5 0.250000 0.877880 0.250000
O O6 0.201577 0.037191 0.132136
O O7 0.000000 0.878782 0.124219
O O8 0.285253 0.874487 0.037426
O O9 0.500000 0.899204 0.890033
O O10 0.250000 0.624886 0.250000
O O11 0.000000 0.575743 0.140259
#
# Coordination Sequence:
#
# PCOD9419806 Si02
#       4
#     8   8   8   8
#     4   9  19  37  55  76 108 147 181 219 272 326
#     4  11  22  39  60  82 110 145 182 227 274 324
#     4  11  22  37  57  84 113 145 183 225 272 328
#     4   9  19  35  56  78 106 141 181 225 271 320
#
# _framework density 23.426511999999999
#
# number of rings (size 3 to 8) (size 9 to 14) (size 15 to 20)
#    0.000    2.000    0.000    7.500    0.000    4.000 
#    0.000    7.500    0.000    0.000    0.000    0.000 
#    0.000    0.000    0.000    0.000    0.000    0.000 
#
# Total GULP energy -179031.235156 kJ/mol
# GULP energy per Si atom -5594.726099 kJ/mol
# Density = 2.337319 g / cm^3
# Si number density = 23.426512 Si / 1000 Ang^3
#
#
#
# Elastic Constant Matrix: (Units=GPa)
#
#
# Indices 1 2 3 4 5 6 
#
# 1 51.6047 -4.7489 -4.5709 0.0000 0.0000 0.0000
# 2 -4.7489 108.5283 -12.1134 0.0000 0.0000 0.0000
# 3 -4.5709 -12.1134 111.0498 0.0000 0.0000 0.0000
# 4 0.0000 0.0000 0.0000 -15.7800 0.0000 0.0000
# 5 0.0000 0.0000 0.0000 0.0000 22.6310 0.0000
# 6 0.0000 0.0000 0.0000 0.0000 0.0000 35.3335
#
#
#
# Elastic Compliance Matrix: (Units=1/GPa)
#
#
# Indices 1 2 3 4 5 6 
#
# 1 0.019547 0.000957 0.000909 0.000000 0.000000 0.000000
# 2 0.000957 0.009375 0.001062 0.000000 0.000000 0.000000
# 3 0.000909 0.001062 0.009158 0.000000 0.000000 0.000000
# 4 0.000000 0.000000 0.000000 -0.063371 0.000000 0.000000
# 5 0.000000 0.000000 0.000000 0.000000 0.044187 0.000000
# 6 0.000000 0.000000 0.000000 0.000000 0.000000 0.028302
#
#
# Mechanical properties :
#
#
# Convention : Reuss Voigt Hill
#
# Bulk Modulus (GPa) = 22.76103 25.36848 24.06476
# Shear Modulus (GPa) = 89.30712 27.94464 58.62588
#
# Velocity S-wave (km/s) = 6.18102 3.45753 5.00797
# Velocity P-wave (km/s) = 7.78955 5.17608 6.61320
#
# Compressibility (1/GPa) = 0.04393473
#
# Stress axis : x y z
#
# Youngs Moduli (GPa) = 51.15971 106.67139 109.19153
#
# Poissons Ratio (x) = -0.10206 -0.09925
# Poissons Ratio (y) = -0.04895 -0.11596
# Poissons Ratio (z) = -0.04650 -0.11328
#
# Static dielectric constant tensor:
#      x y z
#    x 1.801040 0.000000 0.000000 
#    y 0.000000 1.900410 0.000000 
#    z 0.000000 0.000000 1.928250 
# 
# From -- ./inp_files/19626.got.cif
#   From: 2010.05.17/outbox.cif.g08.bks.cpg/sg53_10_cif.got.tgz:19626.got - 2010.06.03 12:45:16.
