data_PCOD9419607
_publ_section_title
;
Structure prediction by ZEFSAII (Michael W. Deem and Ramdas Pophale) SiO2 
 PCOD9419607
Probable space group: P M N A
;
_chemical_formula_sum "Si O2"
_cell_formula_units_Z 48
_cell_length_a 21.748750
_cell_length_b 7.873987
_cell_length_c 17.751275
_cell_angle_alpha 90.000000
_cell_angle_beta 90.000000
_cell_angle_gamma 90.000000
_cell_volume 3039.894745
_symmetry_space_group_name_H-M "P M N A"
_symmetry_group_IT_number 53
_symmetry_cell_setting 'orthorhombic'
loop_
_space_group_symop_operation_xyz
x,y,z
1/2-x,-y,1/2+z
x,-y,-z
1/2-x,y,1/2-z
-x,-y,-z
1/2+x,y,1/2-z
-x,y,z
1/2+x,-y,1/2+z
loop_
_atom_site_type_symbol
_atom_site_label
_atom_site_fract_x
_atom_site_fract_y
_atom_site_fract_z
Si Si1 0.322243 0.334419 0.222707
Si Si2 0.569952 0.693369 0.470753
Si Si3 0.150825 0.631098 0.172519
Si Si4 0.759638 0.539603 0.585364
Si Si5 0.823267 0.127769 0.061729
Si Si6 0.821202 0.022399 0.772193
O O1 0.250000 0.331343 0.250000
O O2 0.356836 0.456641 0.281225
O O3 0.315547 0.417988 0.140996
O O4 0.345243 0.140692 0.225645
O O5 0.570935 0.500000 0.500000
O O6 0.500000 0.755226 0.469629
O O7 0.599575 0.678149 0.388242
O O8 0.613672 0.804535 0.524502
O O9 0.214323 0.600471 0.124288
O O10 0.154549 0.786427 0.230956
O O11 0.777354 0.500000 0.500000
O O12 0.718305 0.709175 0.577970
O O13 0.829986 0.032297 0.140698
O O14 0.795419 0.000000 0.000000
O O15 0.750000 0.035320 0.750000
#
# Coordination Sequence:
#
# PCOD9419607 Si02
#       6
#     8   8   8   8   8   8
#     4   9  18  29  45  65  89 118 155 195 236 290
#     4  11  21  33  47  64  93 133 173 206 235 272
#     4  11  18  31  47  63  88 125 161 197 241 277
#     4  11  17  31  46  67  95 124 157 194 242 294
#     4  12  19  30  45  67  93 127 163 207 232 279
#     4  11  18  29  46  65  88 118 162 199 241 288
#
# _framework density 15.790018999999999
#
# number of rings (size 3 to 8) (size 9 to 14) (size 15 to 20)
#    0.000    1.167   10.000    1.500    0.000    0.333 
#    0.000    0.000    0.000    0.000    0.000    0.000 
#    0.000    0.667    0.000    1.500    0.000    0.333 
#
# Total GULP energy -267374.107824 kJ/mol
# GULP energy per Si atom -5570.293913 kJ/mol
# Density = 1.575408 g / cm^3
# Si number density = 15.790019 Si / 1000 Ang^3
#
#
#
# Elastic Constant Matrix: (Units=GPa)
#
#
# Indices 1 2 3 4 5 6 
#
# 1 37.8848 11.5743 17.8569 0.0000 0.0000 0.0000
# 2 11.5743 74.0743 10.8307 0.0000 0.0000 0.0000
# 3 17.8569 10.8307 71.1258 0.0000 0.0000 0.0000
# 4 0.0000 0.0000 0.0000 26.4856 0.0000 0.0000
# 5 0.0000 0.0000 0.0000 0.0000 9.8803 0.0000
# 6 0.0000 0.0000 0.0000 0.0000 0.0000 2.1354
#
#
#
# Elastic Compliance Matrix: (Units=1/GPa)
#
#
# Indices 1 2 3 4 5 6 
#
# 1 0.030942 -0.003783 -0.007192 0.000000 0.000000 0.000000
# 2 -0.003783 0.014270 -0.001223 0.000000 0.000000 0.000000
# 3 -0.007192 -0.001223 0.016052 0.000000 0.000000 0.000000
# 4 0.000000 0.000000 0.000000 0.037756 0.000000 0.000000
# 5 0.000000 0.000000 0.000000 0.000000 0.101212 0.000000
# 6 0.000000 0.000000 0.000000 0.000000 0.000000 0.468302
#
#
# Mechanical properties :
#
#
# Convention : Reuss Voigt Hill
#
# Bulk Modulus (GPa) = 27.12514 29.28988 28.20751
# Shear Modulus (GPa) = 7.08999 17.22177 12.15588
#
# Velocity S-wave (km/s) = 2.12130 3.30612 2.77762
# Velocity P-wave (km/s) = 4.81828 5.75880 5.30941
#
# Compressibility (1/GPa) = 0.03686616
#
# Stress axis : x y z
#
# Youngs Moduli (GPa) = 32.31893 70.07743 62.29933
#
# Poissons Ratio (x) = 0.26511 0.44807
# Poissons Ratio (y) = 0.12227 0.07620
# Poissons Ratio (z) = 0.23244 0.08572
#
# Static dielectric constant tensor:
#      x y z
#    x 1.509780 0.000000 0.000000 
#    y 0.000000 1.595810 0.000000 
#    z 0.000000 0.000000 1.561990 
# 
# From -- ./inp_files/29274.got.cif
#   From: 2010.05.17/outbox.cif.g08.bks.cpg/sg53_15_cif.got.tgz:29274.got - 2010.06.03 12:45:16.
