data_PCOD9419434
_publ_section_title
;
Structure prediction by ZEFSAII (Michael W. Deem and Ramdas Pophale) SiO2 
 PCOD9419434
Probable space group: P M N A
;
_chemical_formula_sum "Si O2"
_cell_formula_units_Z 44
_cell_length_a 14.545646
_cell_length_b 18.173211
_cell_length_c 9.097927
_cell_angle_alpha 90.000000
_cell_angle_beta 90.000000
_cell_angle_gamma 90.000000
_cell_volume 2404.955975
_symmetry_space_group_name_H-M "P M N A"
_symmetry_group_IT_number 53
_symmetry_cell_setting 'orthorhombic'
loop_
_space_group_symop_operation_xyz
x,y,z
1/2-x,-y,1/2+z
x,-y,-z
1/2-x,y,1/2-z
-x,-y,-z
1/2+x,y,1/2-z
-x,y,z
1/2+x,-y,1/2+z
loop_
_atom_site_type_symbol
_atom_site_label
_atom_site_fract_x
_atom_site_fract_y
_atom_site_fract_z
Si Si1 0.500000 0.410147 0.828911
Si Si2 0.500000 0.585852 0.822799
Si Si3 0.859316 0.854160 0.266058
Si Si4 0.500000 0.910953 0.001310
Si Si5 0.350930 0.312176 0.321508
Si Si6 0.150563 0.688219 0.177197
Si Si7 0.000000 0.187967 0.219412
Si Si8 0.000000 0.081977 0.946839
O O1 0.500000 0.497945 0.813397
O O2 0.414057 0.373281 0.747274
O O3 0.500000 0.392961 0.003853
O O4 0.410892 0.620384 0.743025
O O5 0.750000 0.861243 0.250000
O O6 0.882749 0.769332 0.227975
O O7 0.909299 0.879430 0.415389
O O8 0.909671 0.904863 0.148710
O O9 0.500000 0.873562 0.843614
O O10 0.500000 0.000000 0.000000
O O11 0.250000 0.310590 0.250000
O O12 0.346658 0.315068 0.499609
O O13 0.410945 0.240773 0.276067
O O14 0.250000 0.679345 0.250000
O O15 0.000000 0.144112 0.068921
O O16 0.000000 0.000000 0.000000
#
# Coordination Sequence:
#
# PCOD9419434 Si02
#       8
#     4   4   8   4   8   8   4   4
#     4  11  22  43  64  94 129 168 203 248 314 370
#     4  10  25  40  65  95 130 164 203 257 309 364
#     4  10  23  41  63  90 122 164 211 254 303 378
#     4  11  25  41  61  92 126 163 208 257 318 378
#     4  11  24  41  63  95 125 161 213 261 308 363
#     4  11  23  39  67  93 120 168 212 253 310 372
#     4  11  23  37  63  91 121 163 202 259 312 363
#     4  11  21  41  63  88 124 161 203 259 311 367
#
# _framework density 18.295553000000002
#
# number of rings (size 3 to 8) (size 9 to 14) (size 15 to 20)
#    0.000    1.273    1.818    4.364   10.182    2.909 
#    0.000    1.818    0.000    0.000    0.000    0.000 
#    0.000    0.000    0.000    0.000    0.000    0.000 
#
# Total GULP energy -245687.705588 kJ/mol
# GULP energy per Si atom -5583.811491 kJ/mol
# Density = 1.825391 g / cm^3
# Si number density = 18.295553 Si / 1000 Ang^3
#
#
#
# Elastic Constant Matrix: (Units=GPa)
#
#
# Indices 1 2 3 4 5 6 
#
# 1 126.3415 37.4754 36.7543 0.0000 0.0000 0.0000
# 2 37.4754 94.1118 32.1579 0.0000 0.0000 0.0000
# 3 36.7543 32.1579 110.8779 0.0000 0.0000 0.0000
# 4 0.0000 0.0000 0.0000 35.0871 0.0000 0.0000
# 5 0.0000 0.0000 0.0000 0.0000 55.6498 0.0000
# 6 0.0000 0.0000 0.0000 0.0000 0.0000 15.9462
#
#
#
# Elastic Compliance Matrix: (Units=1/GPa)
#
#
# Indices 1 2 3 4 5 6 
#
# 1 0.009463 -0.002993 -0.002269 0.000000 0.000000 0.000000
# 2 -0.002993 0.012741 -0.002703 0.000000 0.000000 0.000000
# 3 -0.002269 -0.002703 0.010555 0.000000 0.000000 0.000000
# 4 0.000000 0.000000 0.000000 0.028501 0.000000 0.000000
# 5 0.000000 0.000000 0.000000 0.000000 0.017970 0.000000
# 6 0.000000 0.000000 0.000000 0.000000 0.000000 0.062711
#
#
# Mechanical properties :
#
#
# Convention : Reuss Voigt Hill
#
# Bulk Modulus (GPa) = 59.42037 60.45627 59.93832
# Shear Modulus (GPa) = 30.58490 36.33284 33.45887
#
# Velocity S-wave (km/s) = 4.09309 4.46116 4.28108
# Velocity P-wave (km/s) = 7.40854 7.72347 7.56764
#
# Compressibility (1/GPa) = 0.01682924
#
# Stress axis : x y z
#
# Youngs Moduli (GPa) = 105.67688 78.48617 94.74185
#
# Poissons Ratio (x) = 0.23490 0.21495
# Poissons Ratio (y) = 0.31628 0.25611
# Poissons Ratio (z) = 0.23975 0.21216
#
# Static dielectric constant tensor:
#      x y z
#    x 1.557280 0.000000 0.000000 
#    y 0.000000 1.607910 0.000000 
#    z 0.000000 0.000000 1.643620 
# 
# From -- ./inp_files/8604.got.cif
#   From: 2010.05.17/outbox.cif.g08.bks.cpg/sg53_5_cif.got.tgz:8604.got - 2010.06.03 12:45:16.
