data_PCOD9419144
_publ_section_title
;
Structure prediction by ZEFSAII (Michael W. Deem and Ramdas Pophale) SiO2 
 PCOD9419144
Probable space group: P M N A
;
_chemical_formula_sum "Si O2"
_cell_formula_units_Z 64
_cell_length_a 16.788000
_cell_length_b 14.588487
_cell_length_c 12.672598
_cell_angle_alpha 90.000000
_cell_angle_beta 90.000000
_cell_angle_gamma 90.000000
_cell_volume 3103.665235
_symmetry_space_group_name_H-M "P M N A"
_symmetry_group_IT_number 53
_symmetry_cell_setting 'orthorhombic'
loop_
_space_group_symop_operation_xyz
x,y,z
1/2-x,-y,1/2+z
x,-y,-z
1/2-x,y,1/2-z
-x,-y,-z
1/2+x,y,1/2-z
-x,y,z
1/2+x,-y,1/2+z
loop_
_atom_site_type_symbol
_atom_site_label
_atom_site_fract_x
_atom_site_fract_y
_atom_site_fract_z
Si Si1 0.336010 0.103827 0.198092
Si Si2 0.345540 0.101335 0.775832
Si Si3 0.156551 0.382132 0.764635
Si Si4 0.865087 0.780170 0.083168
Si Si5 0.406027 0.395569 0.969309
Si Si6 0.403919 0.454625 0.385810
Si Si7 0.179590 0.788562 0.482842
Si Si8 0.411090 0.248679 0.356464
O O1 0.250000 0.091250 0.250000
O O2 0.374003 0.180126 0.273254
O O3 0.372540 0.001991 0.200816
O O4 0.329824 0.142065 0.080003
O O5 0.250000 0.103491 0.750000
O O6 0.382029 0.142087 0.669228
O O7 0.358757 0.167101 0.876886
O O8 0.250000 0.358292 0.750000
O O9 0.120874 0.313959 0.852606
O O10 0.110873 0.379661 0.654468
O O11 0.145135 0.484118 0.805660
O O12 0.772443 0.778976 0.047164
O O13 0.910711 0.791695 0.974376
O O14 0.500000 0.387603 0.993535
O O15 0.357152 0.309658 0.016399
O O16 0.381217 0.500000 0.000000
O O17 0.390472 0.500000 0.500000
O O18 0.500000 0.460542 0.366946
O O19 0.375810 0.350128 0.374030
O O20 0.500000 0.264917 0.318921
#
# Coordination Sequence:
#
# PCOD9419144 Si02
#       8
#     8   8   8   8   8   8   8   8
#     4  11  23  40  65  94 126 168 210 261 325 383
#     4   9  20  39  67  96 122 160 212 267 322 381
#     4  12  22  38  65  95 125 160 207 271 314 366
#     4  11  20  41  67  95 128 159 214 270 313 373
#     4  11  26  43  61  92 130 172 213 258 322 381
#     4  10  22  39  59  84 119 165 208 244 301 379
#     4  11  21  42  67  93 126 166 216 263 311 382
#     4  11  25  42  62  93 132 170 209 263 323 384
#
# _framework density 20.620781000000001
#
# number of rings (size 3 to 8) (size 9 to 14) (size 15 to 20)
#    0.000    1.250    5.000    1.125    1.750    3.500 
#    0.000    1.875    0.000    1.500    0.000    0.000 
#    0.000    0.000    0.000    0.000    0.000    0.000 
#
# Total GULP energy -357201.596513 kJ/mol
# GULP energy per Si atom -5581.274946 kJ/mol
# Density = 2.057385 g / cm^3
# Si number density = 20.620781 Si / 1000 Ang^3
#
#
#
# Elastic Constant Matrix: (Units=GPa)
#
#
# Indices 1 2 3 4 5 6 
#
# 1 17.5705 19.2608 -2.4236 0.0000 0.0000 0.0000
# 2 19.2608 160.8088 47.8029 0.0000 0.0000 0.0000
# 3 -2.4236 47.8029 90.4993 0.0000 0.0000 0.0000
# 4 0.0000 0.0000 0.0000 42.3758 0.0000 0.0000
# 5 0.0000 0.0000 0.0000 0.0000 10.9757 0.0000
# 6 0.0000 0.0000 0.0000 0.0000 0.0000 30.3092
#
#
#
# Elastic Compliance Matrix: (Units=1/GPa)
#
#
# Indices 1 2 3 4 5 6 
#
# 1 0.069478 -0.010528 0.007422 0.000000 0.000000 0.000000
# 2 -0.010528 0.008972 -0.005021 0.000000 0.000000 0.000000
# 3 0.007422 -0.005021 0.013901 0.000000 0.000000 0.000000
# 4 0.000000 0.000000 0.000000 0.023598 0.000000 0.000000
# 5 0.000000 0.000000 0.000000 0.000000 0.091111 0.000000
# 6 0.000000 0.000000 0.000000 0.000000 0.000000 0.032993
#
#
# Mechanical properties :
#
#
# Convention : Reuss Voigt Hill
#
# Bulk Modulus (GPa) = 13.14132 44.23986 28.69059
# Shear Modulus (GPa) = 17.75107 30.34803 24.04955
#
# Velocity S-wave (km/s) = 2.93718 3.84046 3.41879
# Velocity P-wave (km/s) = 4.22959 6.41608 5.43395
#
# Compressibility (1/GPa) = 0.07609587
#
# Stress axis : x y z
#
# Youngs Moduli (GPa) = 14.39309 111.45612 71.93837
#
# Poissons Ratio (x) = 1.17339 -0.53389
# Poissons Ratio (y) = 0.15153 0.36121
# Poissons Ratio (z) = -0.10682 0.55964
#
# Static dielectric constant tensor:
#      x y z
#    x 1.740130 0.000000 0.000000 
#    y 0.000000 1.785230 0.000000 
#    z 0.000000 0.000000 1.679730 
# 
# From -- ./inp_files/17076.got.cif
#   From: 2010.05.17/outbox.cif.g08.bks.cpg/sg53_9_cif.got.tgz:17076.got - 2010.06.03 12:45:16.
