data_PCOD9419436
_publ_section_title
;
Structure prediction by ZEFSAII (Michael W. Deem and Ramdas Pophale) SiO2 
 PCOD9419436
Probable space group: P M N A
;
_chemical_formula_sum "Si O2"
_cell_formula_units_Z 44
_cell_length_a 26.346465
_cell_length_b 9.089528
_cell_length_c 8.878128
_cell_angle_alpha 90.000000
_cell_angle_beta 90.000000
_cell_angle_gamma 90.000000
_cell_volume 2126.106849
_symmetry_space_group_name_H-M "P M N A"
_symmetry_group_IT_number 53
_symmetry_cell_setting 'orthorhombic'
loop_
_space_group_symop_operation_xyz
x,y,z
1/2-x,-y,1/2+z
x,-y,-z
1/2-x,y,1/2-z
-x,-y,-z
1/2+x,y,1/2-z
-x,y,z
1/2+x,-y,1/2+z
loop_
_atom_site_type_symbol
_atom_site_label
_atom_site_fract_x
_atom_site_fract_y
_atom_site_fract_z
Si Si1 0.059832 0.069430 0.755216
Si Si2 0.298887 0.288023 0.655770
Si Si3 0.349701 0.152667 0.927551
Si Si4 0.874971 0.500000 0.000000
Si Si5 0.730359 0.340594 0.080960
Si Si6 0.060182 0.225461 0.081728
O O1 0.076022 0.901984 0.799784
O O2 0.000000 0.066915 0.722174
O O3 0.091256 0.141485 0.619041
O O4 0.066281 0.158848 0.912466
O O5 0.250000 0.336885 0.750000
O O6 0.324807 0.170905 0.762752
O O7 0.338984 0.414874 0.617887
O O8 0.273155 0.239582 0.501228
O O9 0.324777 0.275946 0.035636
O O10 0.335020 0.000000 0.000000
O O11 0.908496 0.623955 0.917783
O O12 0.750000 0.345777 0.250000
O O13 0.733371 0.500000 0.000000
O O14 0.000000 0.251625 0.103093
#
# Coordination Sequence:
#
# PCOD9419436 Si02
#       6
#     8   8   8   4   8   8
#     4   9  19  41  63  92 136 179 219 278 347 417
#     4  10  23  41  63  93 137 179 226 273 345 403
#     4  11  24  44  63  97 131 180 232 276 331 403
#     4  12  19  34  68  96 132 170 229 284 332 406
#     4  11  24  44  70  97 136 179 219 278 348 411
#     4   9  19  35  64 102 136 172 225 282 347 413
#
# _framework density 20.695101000000001
#
# number of rings (size 3 to 8) (size 9 to 14) (size 15 to 20)
#    0.000    1.818    2.727    3.000    0.000    4.000 
#    0.000    5.455    0.000    0.545    0.000    0.000 
#    0.000    0.000    0.000    0.000    0.000    0.000 
#
# Total GULP energy -245186.610471 kJ/mol
# GULP energy per Si atom -5572.422965 kJ/mol
# Density = 2.064800 g / cm^3
# Si number density = 20.695101 Si / 1000 Ang^3
#
#
#
# Elastic Constant Matrix: (Units=GPa)
#
#
# Indices 1 2 3 4 5 6 
#
# 1 110.6795 53.6887 44.2885 0.0000 0.0000 0.0000
# 2 53.6887 62.5439 33.0320 0.0000 0.0000 0.0000
# 3 44.2885 33.0320 112.9735 0.0000 0.0000 0.0000
# 4 0.0000 0.0000 0.0000 38.7771 0.0000 0.0000
# 5 0.0000 0.0000 0.0000 0.0000 32.2256 0.0000
# 6 0.0000 0.0000 0.0000 0.0000 0.0000 1.7555
#
#
#
# Elastic Compliance Matrix: (Units=1/GPa)
#
#
# Indices 1 2 3 4 5 6 
#
# 1 0.016146 -0.012438 -0.002693 0.000000 0.000000 0.000000
# 2 -0.012438 0.028490 -0.003454 0.000000 0.000000 0.000000
# 3 -0.002693 -0.003454 0.010917 0.000000 0.000000 0.000000
# 4 0.000000 0.000000 0.000000 0.025788 0.000000 0.000000
# 5 0.000000 0.000000 0.000000 0.000000 0.031031 0.000000
# 6 0.000000 0.000000 0.000000 0.000000 0.000000 0.569638
#
#
# Mechanical properties :
#
#
# Convention : Reuss Voigt Hill
#
# Bulk Modulus (GPa) = 54.39702 60.91279 57.65490
# Shear Modulus (GPa) = 6.89362 24.89749 15.89556
#
# Velocity S-wave (km/s) = 1.82709 3.47228 2.77444
# Velocity P-wave (km/s) = 5.54915 6.75078 6.17924
#
# Compressibility (1/GPa) = 0.01838336
#
# Stress axis : x y z
#
# Youngs Moduli (GPa) = 61.93478 35.10030 91.59760
#
# Poissons Ratio (x) = 0.43657 0.24667
# Poissons Ratio (y) = 0.77033 0.31639
# Poissons Ratio (z) = 0.16679 0.12124
#
# Static dielectric constant tensor:
#      x y z
#    x 1.783920 0.000000 0.000000 
#    y 0.000000 1.774230 0.000000 
#    z 0.000000 0.000000 1.867080 
# 
# From -- ./inp_files/12922.got.cif
#   From: 2010.05.17/outbox.cif.g08.bks.cpg/sg53_7_cif.got.tgz:12922.got - 2010.06.03 12:45:16.
