data_PCOD9419021
_publ_section_title
;
Structure prediction by ZEFSAII (Michael W. Deem and Ramdas Pophale) SiO2 
 PCOD9419021
Probable space group: P M N A
;
_chemical_formula_sum "Si O2"
_cell_formula_units_Z 48
_cell_length_a 13.500473
_cell_length_b 12.078844
_cell_length_c 12.477921
_cell_angle_alpha 90.000000
_cell_angle_beta 90.000000
_cell_angle_gamma 90.000000
_cell_volume 2034.775916
_symmetry_space_group_name_H-M "P M N A"
_symmetry_group_IT_number 53
_symmetry_cell_setting 'orthorhombic'
loop_
_space_group_symop_operation_xyz
x,y,z
1/2-x,-y,1/2+z
x,-y,-z
1/2-x,y,1/2-z
-x,-y,-z
1/2+x,y,1/2-z
-x,y,z
1/2+x,-y,1/2+z
loop_
_atom_site_type_symbol
_atom_site_label
_atom_site_fract_x
_atom_site_fract_y
_atom_site_fract_z
Si Si1 0.881206 0.297819 0.174004
Si Si2 0.813976 0.985278 0.115078
Si Si3 0.383617 0.448907 0.685851
Si Si4 0.614915 0.391946 0.936365
Si Si5 0.614275 0.898012 0.823097
Si Si6 0.788083 0.746351 0.049025
O O1 0.847018 0.425017 0.176823
O O2 0.860333 0.225685 0.280160
O O3 0.000000 0.299258 0.167052
O O4 0.840324 0.243841 0.065633
O O5 0.798547 0.853910 0.121969
O O6 0.877273 0.031587 0.212458
O O7 0.706839 0.048789 0.113134
O O8 0.863258 0.000000 0.000000
O O9 0.500000 0.448476 0.657930
O O10 0.374849 0.412776 0.809507
O O11 0.331461 0.361136 0.609317
O O12 0.500000 0.379249 0.962976
O O13 0.673934 0.283337 0.968396
O O14 0.651598 0.500000 0.000000
O O15 0.500000 0.902808 0.863201
#
# Coordination Sequence:
#
# PCOD9419021 Si02
#       6
#     8   8   8   8   8   8
#     4  10  21  42  70  98 126 164 217 274 336 399
#     4  11  25  45  65  97 134 172 225 277 322 397
#     4  10  22  39  64  98 130 161 210 273 331 395
#     4  10  23  41  58  87 130 175 215 254 316 396
#     4  10  24  45  69  93 126 174 220 270 331 391
#     4  12  23  39  64  97 130 168 210 272 338 382
#
# _framework density 23.58982
#
# number of rings (size 3 to 8) (size 9 to 14) (size 15 to 20)
#    0.000    1.500    1.667    2.500    4.667    5.333 
#    6.000    1.667    0.000    0.000    0.000    0.000 
#    0.000    0.000    0.000    0.000    0.000    0.000 
#
# Total GULP energy -268660.744100 kJ/mol
# GULP energy per Si atom -5597.098835 kJ/mol
# Density = 2.353613 g / cm^3
# Si number density = 23.589820 Si / 1000 Ang^3
#
#
#
# Elastic Constant Matrix: (Units=GPa)
#
#
# Indices 1 2 3 4 5 6 
#
# 1 81.9989 20.6100 7.3220 0.0000 0.0000 0.0000
# 2 20.6100 138.8396 21.6156 0.0000 0.0000 0.0000
# 3 7.3220 21.6156 49.5169 0.0000 0.0000 0.0000
# 4 0.0000 0.0000 0.0000 27.8480 0.0000 0.0000
# 5 0.0000 0.0000 0.0000 0.0000 27.4558 0.0000
# 6 0.0000 0.0000 0.0000 0.0000 0.0000 24.9884
#
#
#
# Elastic Compliance Matrix: (Units=1/GPa)
#
#
# Indices 1 2 3 4 5 6 
#
# 1 0.012727 -0.001713 -0.001134 0.000000 0.000000 0.000000
# 2 -0.001713 0.007958 -0.003221 0.000000 0.000000 0.000000
# 3 -0.001134 -0.003221 0.021769 0.000000 0.000000 0.000000
# 4 0.000000 0.000000 0.000000 0.035909 0.000000 0.000000
# 5 0.000000 0.000000 0.000000 0.000000 0.036422 0.000000
# 6 0.000000 0.000000 0.000000 0.000000 0.000000 0.040019
#
#
# Mechanical properties :
#
#
# Convention : Reuss Voigt Hill
#
# Bulk Modulus (GPa) = 32.98302 41.05007 37.01654
# Shear Modulus (GPa) = 28.24128 30.77894 29.51011
#
# Velocity S-wave (km/s) = 3.46378 3.61606 3.54074
# Velocity P-wave (km/s) = 5.47807 5.90541 5.69575
#
# Compressibility (1/GPa) = 0.03031863
#
# Stress axis : x y z
#
# Youngs Moduli (GPa) = 78.57283 125.65614 45.93725
#
# Poissons Ratio (x) = 0.21521 0.05211
# Poissons Ratio (y) = 0.13457 0.14795
# Poissons Ratio (z) = 0.08913 0.40471
#
# Static dielectric constant tensor:
#      x y z
#    x 1.919910 0.000000 0.000000 
#    y 0.000000 1.907790 0.000000 
#    z 0.000000 0.000000 1.860520 
# 
# From -- ./inp_files/22639.got.cif
#   From: 2010.05.17/outbox.cif.g08.bks.cpg/sg53_12_cif.got.tgz:22639.got - 2010.06.03 12:45:16.
