data_PCOD9419784
_publ_section_title
;
Structure prediction by ZEFSAII (Michael W. Deem and Ramdas Pophale) SiO2 
 PCOD9419784
Probable space group: P M N A
;
_chemical_formula_sum "Si O2"
_cell_formula_units_Z 64
_cell_length_a 26.671301
_cell_length_b 32.182645
_cell_length_c 5.296807
_cell_angle_alpha 90.000000
_cell_angle_beta 90.000000
_cell_angle_gamma 90.000000
_cell_volume 4546.530241
_symmetry_space_group_name_H-M "P M N A"
_symmetry_group_IT_number 53
_symmetry_cell_setting 'orthorhombic'
loop_
_space_group_symop_operation_xyz
x,y,z
1/2-x,-y,1/2+z
x,-y,-z
1/2-x,y,1/2-z
-x,-y,-z
1/2+x,y,1/2-z
-x,y,z
1/2+x,-y,1/2+z
loop_
_atom_site_type_symbol
_atom_site_label
_atom_site_fract_x
_atom_site_fract_y
_atom_site_fract_z
Si Si1 0.779187 0.449413 0.999699
Si Si2 0.061053 0.734691 0.883582
Si Si3 0.559686 0.589768 0.037546
Si Si4 0.439061 0.685051 0.117150
Si Si5 0.938990 0.120022 0.675121
Si Si6 0.439010 0.975012 0.250742
Si Si7 0.104477 0.450240 0.031296
Si Si8 0.061001 0.830069 0.823837
O O1 0.750000 0.435557 0.750000
O O2 0.837344 0.437411 0.001169
O O3 0.778413 0.500000 0.000000
O O4 0.750000 0.435648 0.250000
O O5 0.077998 0.709088 0.130505
O O6 0.000000 0.735624 0.896357
O O7 0.075130 0.710686 0.630192
O O8 0.077701 0.782413 0.855145
O O9 0.500000 0.589606 0.992703
O O10 0.576773 0.637500 0.075367
O O11 0.585137 0.566464 0.800935
O O12 0.572486 0.567919 0.301172
O O13 0.500000 0.684096 0.130549
O O14 0.922167 0.072527 0.714184
O O15 0.922146 0.144576 0.424201
O O16 0.000000 0.118768 0.661361
O O17 0.925260 0.145445 0.923960
O O18 0.500000 0.973748 0.265364
O O19 0.422070 0.000000 0.500000
O O20 0.425487 0.000000 0.000000
O O21 0.101971 0.500000 0.000000
O O22 0.000000 0.828965 0.810226
#
# Coordination Sequence:
#
# PCOD9419784 Si02
#       8
#     8   8   8   8   8   8   8   8
#     4   9  17  31  50  69  87 105 128 163 203 237
#     4   9  15  24  37  50  62  79 107 139 172 209
#     4  11  22  34  46  62  87 116 142 166 190 221
#     4   9  17  28  40  52  68  93 122 148 172 203
#     4   9  15  21  27  37  52  66  83 112 152 193
#     4   9  15  21  27  33  43  63  88 109 133 177
#     4  11  22  34  49  68  87 110 139 166 196 233
#     4   9  15  21  30  43  56  68  85 119 164 201
#
# _framework density 14.076669000000001
#
# number of rings (size 3 to 8) (size 9 to 14) (size 15 to 20)
#    0.000    2.500    0.000    3.750    0.000   11.500 
#    0.000    0.000    0.000    0.000    0.000    0.000 
#    0.000    0.000    0.000    0.000    0.000    0.000 
#
# Total GULP energy -356396.078517 kJ/mol
# GULP energy per Si atom -5568.688727 kJ/mol
# Density = 1.404463 g / cm^3
# Si number density = 14.076669 Si / 1000 Ang^3
#
#
#
# Elastic Constant Matrix: (Units=GPa)
#
#
# Indices 1 2 3 4 5 6 
#
# 1 20.1798 2.9230 3.3015 0.0000 0.0000 0.0000
# 2 2.9230 113.4237 53.3074 0.0000 0.0000 0.0000
# 3 3.3015 53.3074 122.2934 0.0000 0.0000 0.0000
# 4 0.0000 0.0000 0.0000 23.2550 0.0000 0.0000
# 5 0.0000 0.0000 0.0000 0.0000 10.2729 0.0000
# 6 0.0000 0.0000 0.0000 0.0000 0.0000 -1.2127
#
#
#
# Elastic Compliance Matrix: (Units=1/GPa)
#
#
# Indices 1 2 3 4 5 6 
#
# 1 0.049835 -0.000820 -0.000988 0.000000 0.000000 0.000000
# 2 -0.000820 0.011102 -0.004817 0.000000 0.000000 0.000000
# 3 -0.000988 -0.004817 0.010303 0.000000 0.000000 0.000000
# 4 0.000000 0.000000 0.000000 0.043001 0.000000 0.000000
# 5 0.000000 0.000000 0.000000 0.000000 0.097344 0.000000
# 6 0.000000 0.000000 0.000000 0.000000 0.000000 -0.824626
#
#
# Mechanical properties :
#
#
# Convention : Reuss Voigt Hill
#
# Bulk Modulus (GPa) = 17.24437 41.66233 29.45335
# Shear Modulus (GPa) = -8.61385 19.55405 5.47010
#
# Velocity S-wave (km/s) = -2.47639 3.73112 1.97342
# Velocity P-wave (km/s) = 2.02490 6.94425 5.11483
#
# Compressibility (1/GPa) = 0.05798994
#
# Stress axis : x y z
#
# Youngs Moduli (GPa) = 20.06630 90.07754 97.05492
#
# Poissons Ratio (x) = 0.07386 0.09589
# Poissons Ratio (y) = 0.01645 0.46751
# Poissons Ratio (z) = 0.01982 0.43390
#
# Static dielectric constant tensor:
#      x y z
#    x 1.421420 0.000000 0.000000 
#    y 0.000000 1.489910 0.000000 
#    z 0.000000 0.000000 1.463400 
# 
# From -- ./inp_files/3880.got.cif
#   From: 2010.05.17/outbox.cif.g08.bks.cpg/sg53_2_cif.got.tgz:3880.got - 2010.06.03 12:45:16.
