data_PCOD9419991
_publ_section_title
;
Structure prediction by ZEFSAII (Michael W. Deem and Ramdas Pophale) SiO2 
 PCOD9419991
Probable space group: P M N A
;
_chemical_formula_sum "Si O2"
_cell_formula_units_Z 28
_cell_length_a 18.786447
_cell_length_b 8.154618
_cell_length_c 9.324125
_cell_angle_alpha 90.000000
_cell_angle_beta 90.000000
_cell_angle_gamma 90.000000
_cell_volume 1428.421440
_symmetry_space_group_name_H-M "P M N A"
_symmetry_group_IT_number 53
_symmetry_cell_setting 'orthorhombic'
loop_
_space_group_symop_operation_xyz
x,y,z
1/2-x,-y,1/2+z
x,-y,-z
1/2-x,y,1/2-z
-x,-y,-z
1/2+x,y,1/2-z
-x,y,z
1/2+x,-y,1/2+z
loop_
_atom_site_type_symbol
_atom_site_label
_atom_site_fract_x
_atom_site_fract_y
_atom_site_fract_z
Si Si1 0.307849 0.500000 0.500000
Si Si2 0.579689 0.449971 0.754164
Si Si3 0.265757 0.157383 0.083034
Si Si4 0.920941 0.241086 0.470853
O O1 0.359000 0.531450 0.363026
O O2 0.261521 0.665104 0.525457
O O3 0.500000 0.441863 0.689114
O O4 0.580773 0.603526 0.862880
O O5 0.587481 0.298991 0.864216
O O6 0.250000 0.148865 0.250000
O O7 0.350653 0.147178 0.070018
O O8 0.234090 0.000000 0.000000
O O9 0.000000 0.169941 0.452887
#
# Coordination Sequence:
#
# PCOD9419991 Si02
#       4
#     4   8   8   8
#     4  12  23  40  69  94 132 174 206 270 335 366
#     4   9  18  35  65  98 125 166 218 261 315 386
#     4  12  28  43  65  98 132 169 218 266 319 385
#     4   9  19  39  64  90 125 170 217 259 313 382
#
# _framework density 19.602056999999999
#
# number of rings (size 3 to 8) (size 9 to 14) (size 15 to 20)
#    0.000    1.714    2.857    3.857    4.000    0.571 
#    0.000    0.000    0.000    4.286    0.000    0.000 
#    0.000    0.000    0.000    0.000    0.000    0.000 
#
# Total GULP energy -156154.951408 kJ/mol
# GULP energy per Si atom -5576.962550 kJ/mol
# Density = 1.955744 g / cm^3
# Si number density = 19.602057 Si / 1000 Ang^3
#
#
#
# Elastic Constant Matrix: (Units=GPa)
#
#
# Indices 1 2 3 4 5 6 
#
# 1 148.6742 46.4383 63.0832 0.0000 0.0000 0.0000
# 2 46.4383 109.0109 52.4997 0.0000 0.0000 0.0000
# 3 63.0832 52.4997 113.1749 0.0000 0.0000 0.0000
# 4 0.0000 0.0000 0.0000 3.5698 0.0000 0.0000
# 5 0.0000 0.0000 0.0000 0.0000 16.1813 0.0000
# 6 0.0000 0.0000 0.0000 0.0000 0.0000 43.5509
#
#
#
# Elastic Compliance Matrix: (Units=1/GPa)
#
#
# Indices 1 2 3 4 5 6 
#
# 1 0.009089 -0.001844 -0.004211 0.000000 0.000000 0.000000
# 2 -0.001844 0.012186 -0.004625 0.000000 0.000000 0.000000
# 3 -0.004211 -0.004625 0.013328 0.000000 0.000000 0.000000
# 4 0.000000 0.000000 0.000000 0.280128 0.000000 0.000000
# 5 0.000000 0.000000 0.000000 0.000000 0.061800 0.000000
# 6 0.000000 0.000000 0.000000 0.000000 0.000000 0.022962
#
#
# Mechanical properties :
#
#
# Convention : Reuss Voigt Hill
#
# Bulk Modulus (GPa) = 75.50632 77.21138 76.35885
# Shear Modulus (GPa) = 11.75733 26.58298 19.17016
#
# Velocity S-wave (km/s) = 2.45174 3.68657 3.13064
# Velocity P-wave (km/s) = 6.82773 7.58920 7.21851
#
# Compressibility (1/GPa) = 0.01324392
#
# Stress axis : x y z
#
# Youngs Moduli (GPa) = 110.02739 82.05857 75.02752
#
# Poissons Ratio (x) = 0.15131 0.31591
# Poissons Ratio (y) = 0.20288 0.34702
# Poissons Ratio (z) = 0.46328 0.37954
#
# Static dielectric constant tensor:
#      x y z
#    x 1.702920 0.000000 0.000000 
#    y 0.000000 1.731020 0.000000 
#    z 0.000000 0.000000 1.631560 
# 
# From -- ./inp_files/9372.got.cif
#   From: 2010.05.17/outbox.cif.g08.bks.cpg/sg53_5_cif.got.tgz:9372.got - 2010.06.03 12:45:16.
