data_PCOD9419400
_publ_section_title
;
Structure prediction by ZEFSAII (Michael W. Deem and Ramdas Pophale) SiO2 
 PCOD9419400
Probable space group: P M N A
;
_chemical_formula_sum "Si O2"
_cell_formula_units_Z 40
_cell_length_a 28.387541
_cell_length_b 14.454999
_cell_length_c 5.274258
_cell_angle_alpha 90.000000
_cell_angle_beta 90.000000
_cell_angle_gamma 90.000000
_cell_volume 2164.248926
_symmetry_space_group_name_H-M "P M N A"
_symmetry_group_IT_number 53
_symmetry_cell_setting 'orthorhombic'
loop_
_space_group_symop_operation_xyz
x,y,z
1/2-x,-y,1/2+z
x,-y,-z
1/2-x,y,1/2-z
-x,-y,-z
1/2+x,y,1/2-z
-x,y,z
1/2+x,-y,1/2+z
loop_
_atom_site_type_symbol
_atom_site_label
_atom_site_fract_x
_atom_site_fract_y
_atom_site_fract_z
Si Si1 0.193813 0.440556 0.749575
Si Si2 0.446008 0.828197 0.489532
Si Si3 0.855937 0.246286 0.811128
Si Si4 0.402032 0.101233 0.999619
Si Si5 0.781913 0.105800 0.001483
O O1 0.182728 0.500000 0.500000
O O2 0.250000 0.422067 0.750000
O O3 0.167069 0.343550 0.755234
O O4 0.182942 0.500000 0.000000
O O5 0.500000 0.799525 0.503065
O O6 0.407589 0.747607 0.438859
O O7 0.436862 0.892638 0.243531
O O8 0.429859 0.878566 0.744752
O O9 0.865273 0.182714 0.562834
O O10 0.822726 0.181549 0.983131
O O11 0.379545 0.000000 0.000000
O O12 0.750000 0.117589 0.250000
O O13 0.750000 0.116419 0.750000
O O14 0.800672 0.000000 0.000000
#
# Coordination Sequence:
#
# PCOD9419400 Si02
#       5
#     8   8   8   8   8
#     4  10  23  42  65  91 117 149 200 255 306 365
#     4  10  23  39  59  89 124 164 207 251 297 354
#     4  10  25  38  65  86 123 161 197 251 304 356
#     4  10  23  36  58  90 123 165 205 245 293 354
#     4  10  23  37  55  85 124 163 199 236 287 364
#
# _framework density 18.482164000000001
#
# number of rings (size 3 to 8) (size 9 to 14) (size 15 to 20)
#    1.200    0.800    0.000    1.800    8.400    5.600 
#    0.000    0.000    0.000    1.200    0.000    0.000 
#    0.000    0.000    0.000    0.000    0.000    0.000 
#
# Total GULP energy -223117.614042 kJ/mol
# GULP energy per Si atom -5577.940351 kJ/mol
# Density = 1.844010 g / cm^3
# Si number density = 18.482164 Si / 1000 Ang^3
#
#
#
# Elastic Constant Matrix: (Units=GPa)
#
#
# Indices 1 2 3 4 5 6 
#
# 1 90.6381 87.0784 42.0636 0.0000 0.0000 0.0000
# 2 87.0784 157.2455 54.2350 0.0000 0.0000 0.0000
# 3 42.0636 54.2350 150.0502 0.0000 0.0000 0.0000
# 4 0.0000 0.0000 0.0000 12.5982 0.0000 0.0000
# 5 0.0000 0.0000 0.0000 0.0000 15.9699 0.0000
# 6 0.0000 0.0000 0.0000 0.0000 0.0000 17.8464
#
#
#
# Elastic Compliance Matrix: (Units=1/GPa)
#
#
# Indices 1 2 3 4 5 6 
#
# 1 0.024205 -0.012639 -0.002217 0.000000 0.000000 0.000000
# 2 -0.012639 0.013865 -0.001468 0.000000 0.000000 0.000000
# 3 -0.002217 -0.001468 0.007817 0.000000 0.000000 0.000000
# 4 0.000000 0.000000 0.000000 0.079377 0.000000 0.000000
# 5 0.000000 0.000000 0.000000 0.000000 0.062618 0.000000
# 6 0.000000 0.000000 0.000000 0.000000 0.000000 0.056034
#
#
# Mechanical properties :
#
#
# Convention : Reuss Voigt Hill
#
# Bulk Modulus (GPa) = 75.54321 84.96531 80.25426
# Shear Modulus (GPa) = 17.79512 23.58668 20.69090
#
# Velocity S-wave (km/s) = 3.10631 3.57625 3.34953
# Velocity P-wave (km/s) = 7.33675 7.94507 7.64696
#
# Compressibility (1/GPa) = 0.01323746
#
# Stress axis : x y z
#
# Youngs Moduli (GPa) = 41.31457 72.12300 127.93248
#
# Poissons Ratio (x) = 0.91158 0.28361
# Poissons Ratio (y) = 0.52218 0.18785
# Poissons Ratio (z) = 0.09159 0.10590
#
# Static dielectric constant tensor:
#      x y z
#    x 1.664150 0.000000 0.000000 
#    y 0.000000 1.598920 0.000000 
#    z 0.000000 0.000000 1.668750 
# 
# From -- ./inp_files/4298.got.cif
#   From: 2010.05.17/outbox.cif.g08.bks.cpg/sg53_3_cif.got.tgz:4298.got - 2010.06.03 12:45:16.
