data_PCOD9419409
_publ_section_title
;
Structure prediction by ZEFSAII (Michael W. Deem and Ramdas Pophale) SiO2 
 PCOD9419409
Probable space group: P M N A
;
_chemical_formula_sum "Si O2"
_cell_formula_units_Z 32
_cell_length_a 13.348688
_cell_length_b 10.376498
_cell_length_c 11.098715
_cell_angle_alpha 90.000000
_cell_angle_beta 90.000000
_cell_angle_gamma 90.000000
_cell_volume 1537.312252
_symmetry_space_group_name_H-M "P M N A"
_symmetry_group_IT_number 53
_symmetry_cell_setting 'orthorhombic'
loop_
_space_group_symop_operation_xyz
x,y,z
1/2-x,-y,1/2+z
x,-y,-z
1/2-x,y,1/2-z
-x,-y,-z
1/2+x,y,1/2-z
-x,y,z
1/2+x,-y,1/2+z
loop_
_atom_site_type_symbol
_atom_site_label
_atom_site_fract_x
_atom_site_fract_y
_atom_site_fract_z
Si Si1 0.387086 0.199643 0.829767
Si Si2 0.821022 0.867817 0.064478
Si Si3 0.706495 0.667455 0.632885
Si Si4 0.613008 0.493229 0.170001
O O1 0.500000 0.173660 0.872351
O O2 0.298186 0.136987 0.906374
O O3 0.374334 0.153680 0.691828
O O4 0.370901 0.354385 0.829069
O O5 0.838973 0.752056 0.970789
O O6 0.848683 0.000000 0.000000
O O7 0.750000 0.747016 0.750000
O O8 0.805657 0.588467 0.595948
O O9 0.633745 0.563610 0.695590
O O10 0.500000 0.464415 0.133521
#
# Coordination Sequence:
#
# PCOD9419409 Si02
#       4
#     8   8   8   8
#     4  10  23  39  57  86 113 143 187 234 286 332
#     4  11  23  39  59  79 115 156 188 228 272 326
#     4   8  19  34  56  85 108 145 188 225 273 336
#     4   8  17  35  57  86 117 139 177 236 286 330
#
# _framework density 20.815549000000001
#
# number of rings (size 3 to 8) (size 9 to 14) (size 15 to 20)
#    1.500    1.000    0.000    3.000    3.500    7.000 
#    0.000    7.500    0.000    0.000    0.000    0.000 
#    0.000    0.000    0.000    0.000    0.000    0.000 
#
# Total GULP energy -178349.724308 kJ/mol
# GULP energy per Si atom -5573.428885 kJ/mol
# Density = 2.076817 g / cm^3
# Si number density = 20.815549 Si / 1000 Ang^3
#
#
#
# Elastic Constant Matrix: (Units=GPa)
#
#
# Indices 1 2 3 4 5 6 
#
# 1 59.3452 6.4985 -14.7535 0.0000 0.0000 0.0000
# 2 6.4985 68.8334 19.6622 0.0000 0.0000 0.0000
# 3 -14.7535 19.6622 73.3641 0.0000 0.0000 0.0000
# 4 0.0000 0.0000 0.0000 24.8759 0.0000 0.0000
# 5 0.0000 0.0000 0.0000 0.0000 -11.0509 0.0000
# 6 0.0000 0.0000 0.0000 0.0000 0.0000 21.7467
#
#
#
# Elastic Compliance Matrix: (Units=1/GPa)
#
#
# Indices 1 2 3 4 5 6 
#
# 1 0.018295 -0.003008 0.004485 0.000000 0.000000 0.000000
# 2 -0.003008 0.016227 -0.004954 0.000000 0.000000 0.000000
# 3 0.004485 -0.004954 0.015860 0.000000 0.000000 0.000000
# 4 0.000000 0.000000 0.000000 0.040200 0.000000 0.000000
# 5 0.000000 0.000000 0.000000 0.000000 -0.090490 0.000000
# 6 0.000000 0.000000 0.000000 0.000000 0.000000 0.045984
#
#
# Mechanical properties :
#
#
# Convention : Reuss Voigt Hill
#
# Bulk Modulus (GPa) = 23.02641 24.92856 23.97749
# Shear Modulus (GPa) = 74.06767 19.79004 46.92886
#
# Velocity S-wave (km/s) = 5.97161 3.08674 4.75332
# Velocity P-wave (km/s) = 7.65721 4.97050 6.45519
#
# Compressibility (1/GPa) = 0.04342840
#
# Stress axis : x y z
#
# Youngs Moduli (GPa) = 54.65941 61.62589 63.05030
#
# Poissons Ratio (x) = 0.18540 -0.28281
# Poissons Ratio (y) = 0.16444 0.31235
# Poissons Ratio (z) = -0.24517 0.30529
#
# Static dielectric constant tensor:
#      x y z
#    x 1.761040 0.000000 0.000000 
#    y 0.000000 1.704250 0.000000 
#    z 0.000000 0.000000 1.796610 
# 
# From -- ./inp_files/15394.got.cif
#   From: 2010.05.17/outbox.cif.g08.bks.cpg/sg53_8_cif.got.tgz:15394.got - 2010.06.03 12:45:16.
