data_PCOD9419310
_publ_section_title
;
Structure prediction by ZEFSAII (Michael W. Deem and Ramdas Pophale) SiO2 
 PCOD9419310
Probable space group: P M N A
;
_chemical_formula_sum "Si O2"
_cell_formula_units_Z 20
_cell_length_a 29.096232
_cell_length_b 5.534270
_cell_length_c 5.097009
_cell_angle_alpha 90.000000
_cell_angle_beta 90.000000
_cell_angle_gamma 90.000000
_cell_volume 820.753030
_symmetry_space_group_name_H-M "P M N A"
_symmetry_group_IT_number 53
_symmetry_cell_setting 'orthorhombic'
loop_
_space_group_symop_operation_xyz
x,y,z
1/2-x,-y,1/2+z
x,-y,-z
1/2-x,y,1/2-z
-x,-y,-z
1/2+x,y,1/2-z
-x,y,z
1/2+x,-y,1/2+z
loop_
_atom_site_type_symbol
_atom_site_label
_atom_site_fract_x
_atom_site_fract_y
_atom_site_fract_z
Si Si1 0.000000 0.173774 0.246941
Si Si2 0.076064 0.500000 0.000000
Si Si3 0.349043 0.826366 0.249665
Si Si4 0.250000 0.824077 0.250000
O O1 0.044106 0.341884 0.193262
O O2 0.000000 0.000000 0.500000
O O3 0.000000 0.000000 0.000000
O O4 0.108952 0.653072 0.189586
O O5 0.346874 0.000000 0.500000
O O6 0.299239 0.693173 0.239541
O O7 0.355241 0.000000 0.000000
O O8 0.249401 0.000000 0.500000
#
# Coordination Sequence:
#
# PCOD9419310 Si02
#       4
#     4   4   8   4
#     4  11  28  51  73 102 141 179 232 303 363 422
#     4  11  26  46  78 106 134 188 240 287 360 422
#     4  10  22  41  68 103 144 185 232 285 339 412
#     4   8  16  36  62  94 142 188 222 276 340 396
#
# _framework density 24.367868999999999
#
# number of rings (size 3 to 8) (size 9 to 14) (size 15 to 20)
#    0.000    2.000    0.000    1.200    0.000   14.400 
#    0.000   15.000    0.000    4.800    0.000    0.000 
#    0.000    0.000    0.000    0.000    0.000    0.000 
#
# Total GULP energy -111949.042154 kJ/mol
# GULP energy per Si atom -5597.452108 kJ/mol
# Density = 2.431241 g / cm^3
# Si number density = 24.367869 Si / 1000 Ang^3
#
#
#
# Elastic Constant Matrix: (Units=GPa)
#
#
# Indices 1 2 3 4 5 6 
#
# 1 280.3802 113.1935 69.4271 0.0000 0.0000 0.0000
# 2 113.1935 100.9162 67.6135 0.0000 0.0000 0.0000
# 3 69.4271 67.6135 222.5955 0.0000 0.0000 0.0000
# 4 0.0000 0.0000 0.0000 51.3768 0.0000 0.0000
# 5 0.0000 0.0000 0.0000 0.0000 10.4315 0.0000
# 6 0.0000 0.0000 0.0000 0.0000 0.0000 51.6878
#
#
#
# Elastic Compliance Matrix: (Units=1/GPa)
#
#
# Indices 1 2 3 4 5 6 
#
# 1 0.006528 -0.007480 0.000236 0.000000 0.000000 0.000000
# 2 -0.007480 0.021013 -0.004050 0.000000 0.000000 0.000000
# 3 0.000236 -0.004050 0.005649 0.000000 0.000000 0.000000
# 4 0.000000 0.000000 0.000000 0.019464 0.000000 0.000000
# 5 0.000000 0.000000 0.000000 0.000000 0.095863 0.000000
# 6 0.000000 0.000000 0.000000 0.000000 0.000000 0.019347
#
#
# Mechanical properties :
#
#
# Convention : Reuss Voigt Hill
#
# Bulk Modulus (GPa) = 94.32142 122.70669 108.51406
# Shear Modulus (GPa) = 25.77507 46.27643 36.02575
#
# Velocity S-wave (km/s) = 3.25583 4.36257 3.84918
# Velocity P-wave (km/s) = 7.27497 8.70869 8.02392
#
# Compressibility (1/GPa) = 0.01060205
#
# Stress axis : x y z
#
# Youngs Moduli (GPa) = 153.18388 47.58973 177.02668
#
# Poissons Ratio (x) = 0.35599 -0.04180
# Poissons Ratio (y) = 1.14589 0.71688
# Poissons Ratio (z) = -0.03617 0.19272
#
# Static dielectric constant tensor:
#      x y z
#    x 2.090070 0.000000 0.000000 
#    y 0.000000 1.890440 0.000000 
#    z 0.000000 0.000000 1.863810 
# 
# From -- ./inp_files/4735.got.cif
#   From: 2010.05.17/outbox.cif.g08.bks.cpg/sg53_3_cif.got.tgz:4735.got - 2010.06.03 12:45:16.
