data_PCOD9419718
_publ_section_title
;
Structure prediction by ZEFSAII (Michael W. Deem and Ramdas Pophale) SiO2 
 PCOD9419718
Probable space group: P M N A
;
_chemical_formula_sum "Si O2"
_cell_formula_units_Z 48
_cell_length_a 10.224433
_cell_length_b 17.522279
_cell_length_c 15.109227
_cell_angle_alpha 90.000000
_cell_angle_beta 90.000000
_cell_angle_gamma 90.000000
_cell_volume 2706.899118
_symmetry_space_group_name_H-M "P M N A"
_symmetry_group_IT_number 53
_symmetry_cell_setting 'orthorhombic'
loop_
_space_group_symop_operation_xyz
x,y,z
1/2-x,-y,1/2+z
x,-y,-z
1/2-x,y,1/2-z
-x,-y,-z
1/2+x,y,1/2-z
-x,y,z
1/2+x,-y,1/2+z
loop_
_atom_site_type_symbol
_atom_site_label
_atom_site_fract_x
_atom_site_fract_y
_atom_site_fract_z
Si Si1 0.283619 0.072456 0.563334
Si Si2 0.000000 0.974773 0.387786
Si Si3 0.500000 0.987166 0.319496
Si Si4 0.656911 0.383996 0.496641
Si Si5 0.159966 0.495316 0.840454
Si Si6 0.223879 0.215969 0.051906
Si Si7 0.000000 0.153267 0.387417
Si Si8 0.500000 0.835617 0.675819
O O1 0.372623 0.055627 0.646619
O O2 0.319887 0.151457 0.517759
O O3 0.131575 0.067874 0.586280
O O4 0.309473 0.000000 0.500000
O O5 0.000000 0.985583 0.284000
O O6 0.000000 0.064032 0.416903
O O7 0.500000 0.075064 0.351524
O O8 0.500000 0.377498 0.497029
O O9 0.689778 0.425888 0.589951
O O10 0.687687 0.433316 0.407566
O O11 0.715929 0.300377 0.486519
O O12 0.250000 0.495239 0.750000
O O13 0.000000 0.494829 0.821699
O O14 0.369471 0.192752 0.078451
O O15 0.126651 0.205428 0.135069
O O16 0.000000 0.161670 0.281370
#
# Coordination Sequence:
#
# PCOD9419718 Si02
#       8
#     8   4   4   8   8   8   4   4
#     4  12  21  35  58  79 106 156 199 236 288 348
#     4  11  22  40  54  74 116 152 197 253 304 337
#     4  11  22  36  54  82 102 144 211 247 280 347
#     4   9  20  40  64  89 122 160 193 234 294 358
#     4   9  19  41  69  93 120 156 193 233 290 357
#     4  12  22  37  57  83 118 152 195 241 289 350
#     4  11  23  35  53  84 116 155 193 251 308 339
#     4  11  21  35  55  78 114 153 193 247 296 347
#
# _framework density 17.732467
#
# number of rings (size 3 to 8) (size 9 to 14) (size 15 to 20)
#    0.000    1.333    4.167    3.500    0.000    4.000 
#    3.000    2.500    0.000    0.000    0.000    0.000 
#    0.000    0.000    0.000    0.000    0.000    0.000 
#
# Total GULP energy -267674.847809 kJ/mol
# GULP energy per Si atom -5576.559329 kJ/mol
# Density = 1.769211 g / cm^3
# Si number density = 17.732467 Si / 1000 Ang^3
#
#
#
# Elastic Constant Matrix: (Units=GPa)
#
#
# Indices 1 2 3 4 5 6 
#
# 1 73.9244 15.5598 42.7656 0.0000 0.0000 0.0000
# 2 15.5598 101.7531 17.8656 0.0000 0.0000 0.0000
# 3 42.7656 17.8656 73.7007 0.0000 0.0000 0.0000
# 4 0.0000 0.0000 0.0000 19.3638 0.0000 0.0000
# 5 0.0000 0.0000 0.0000 0.0000 47.4350 0.0000
# 6 0.0000 0.0000 0.0000 0.0000 0.0000 16.9462
#
#
#
# Elastic Compliance Matrix: (Units=1/GPa)
#
#
# Indices 1 2 3 4 5 6 
#
# 1 0.020478 -0.001092 -0.011618 0.000000 0.000000 0.000000
# 2 -0.001092 0.010323 -0.001869 0.000000 0.000000 0.000000
# 3 -0.011618 -0.001869 0.020763 0.000000 0.000000 0.000000
# 4 0.000000 0.000000 0.000000 0.051643 0.000000 0.000000
# 5 0.000000 0.000000 0.000000 0.000000 0.021081 0.000000
# 6 0.000000 0.000000 0.000000 0.000000 0.000000 0.059010
#
#
# Mechanical properties :
#
#
# Convention : Reuss Voigt Hill
#
# Bulk Modulus (GPa) = 44.62939 44.64002 44.63471
# Shear Modulus (GPa) = 22.73510 28.29483 25.51497
#
# Velocity S-wave (km/s) = 3.58455 3.99889 3.79738
# Velocity P-wave (km/s) = 6.50806 6.82278 6.66728
#
# Compressibility (1/GPa) = 0.02240676
#
# Stress axis : x y z
#
# Youngs Moduli (GPa) = 48.83247 96.87319 48.16277
#
# Poissons Ratio (x) = 0.10575 0.55956
# Poissons Ratio (y) = 0.05330 0.09001
# Poissons Ratio (z) = 0.56734 0.18105
#
# Static dielectric constant tensor:
#      x y z
#    x 1.629090 0.000000 0.000000 
#    y 0.000000 1.609580 0.000000 
#    z 0.000000 0.000000 1.615510 
# 
# From -- ./inp_files/20303.got.cif
#   From: 2010.05.17/outbox.cif.g08.bks.cpg/sg53_11_cif.got.tgz:20303.got - 2010.06.03 12:45:16.
