data_PCOD9419088
_publ_section_title
;
Structure prediction by ZEFSAII (Michael W. Deem and Ramdas Pophale) SiO2 
 PCOD9419088
Probable space group: P M N A
;
_chemical_formula_sum "Si O2"
_cell_formula_units_Z 40
_cell_length_a 8.398156
_cell_length_b 10.007214
_cell_length_c 22.746876
_cell_angle_alpha 90.000000
_cell_angle_beta 90.000000
_cell_angle_gamma 90.000000
_cell_volume 1911.696235
_symmetry_space_group_name_H-M "P M N A"
_symmetry_group_IT_number 53
_symmetry_cell_setting 'orthorhombic'
loop_
_space_group_symop_operation_xyz
x,y,z
1/2-x,-y,1/2+z
x,-y,-z
1/2-x,y,1/2-z
-x,-y,-z
1/2+x,y,1/2-z
-x,y,z
1/2+x,-y,1/2+z
loop_
_atom_site_type_symbol
_atom_site_label
_atom_site_fract_x
_atom_site_fract_y
_atom_site_fract_z
Si Si1 0.310804 0.270723 0.647586
Si Si2 0.188767 0.350191 0.520811
Si Si3 0.808900 0.443865 0.188534
Si Si4 0.310082 0.770452 0.594178
Si Si5 0.312947 0.014456 0.184483
O O1 0.500000 0.252764 0.656875
O O2 0.277772 0.302599 0.579276
O O3 0.254319 0.404194 0.680844
O O4 0.222323 0.140041 0.670157
O O5 0.239276 0.500000 0.500000
O O6 0.225889 0.247646 0.468118
O O7 0.000000 0.354785 0.532579
O O8 0.750000 0.387230 0.250000
O O9 0.755201 0.354583 0.134179
O O10 0.000000 0.443177 0.188025
O O11 0.500000 0.762966 0.585223
O O12 0.270049 0.898645 0.633559
O O13 0.250000 0.044963 0.250000
O O14 0.500000 0.041526 0.182800
#
# Coordination Sequence:
#
# PCOD9419088 Si02
#       5
#     8   8   8   8   8
#     4  11  23  42  66  94 127 171 216 265 322 381
#     4  11  23  40  65  98 133 170 212 266 323 382
#     4  10  22  37  60  91 123 160 210 262 315 376
#     4  11  23  42  66  94 127 171 216 265 322 381
#     4  12  26  45  66  95 132 172 216 266 322 386
#
# _framework density 20.923828
#
# number of rings (size 3 to 8) (size 9 to 14) (size 15 to 20)
#    0.000    1.000    2.000    4.800    0.000    8.000 
#    0.000    4.000    0.000    0.000    0.000    0.000 
#    0.000    0.000    0.000    0.000    0.000    0.000 
#
# Total GULP energy -223811.127186 kJ/mol
# GULP energy per Si atom -5595.278180 kJ/mol
# Density = 2.087620 g / cm^3
# Si number density = 20.923828 Si / 1000 Ang^3
#
#
#
# Elastic Constant Matrix: (Units=GPa)
#
#
# Indices 1 2 3 4 5 6 
#
# 1 28.3848 -5.6536 -7.9325 0.0000 0.0000 0.0000
# 2 -5.6536 63.6799 -10.1182 0.0000 0.0000 0.0000
# 3 -7.9325 -10.1182 82.7344 0.0000 0.0000 0.0000
# 4 0.0000 0.0000 0.0000 -7.3443 0.0000 0.0000
# 5 0.0000 0.0000 0.0000 0.0000 33.3816 0.0000
# 6 0.0000 0.0000 0.0000 0.0000 0.0000 11.2410
#
#
#
# Elastic Compliance Matrix: (Units=1/GPa)
#
#
# Indices 1 2 3 4 5 6 
#
# 1 0.037145 0.003940 0.004043 0.000000 0.000000 0.000000
# 2 0.003940 0.016433 0.002387 0.000000 0.000000 0.000000
# 3 0.004043 0.002387 0.012767 0.000000 0.000000 0.000000
# 4 0.000000 0.000000 0.000000 -0.136160 0.000000 0.000000
# 5 0.000000 0.000000 0.000000 0.000000 0.029957 0.000000
# 6 0.000000 0.000000 0.000000 0.000000 0.000000 0.088960
#
#
# Mechanical properties :
#
#
# Convention : Reuss Voigt Hill
#
# Bulk Modulus (GPa) = 11.48287 14.15448 12.81868
# Shear Modulus (GPa) = 87.12693 20.68923 53.90808
#
# Velocity S-wave (km/s) = 6.45991 3.14791 5.08133
# Velocity P-wave (km/s) = 7.81924 4.47123 6.36916
#
# Compressibility (1/GPa) = 0.08708627
#
# Stress axis : x y z
#
# Youngs Moduli (GPa) = 26.92156 60.85421 78.32988
#
# Poissons Ratio (x) = -0.23978 -0.31671
# Poissons Ratio (y) = -0.10608 -0.18701
# Poissons Ratio (z) = -0.10885 -0.14529
#
# Static dielectric constant tensor:
#      x y z
#    x 1.702910 0.000000 0.000000 
#    y 0.000000 1.756160 0.000000 
#    z 0.000000 0.000000 1.182040 
# 
# From -- ./inp_files/33613.got.cif
#   From: 2010.05.17/outbox.cif.g08.bks.cpg/sg53_17_cif.got.tgz:33613.got - 2010.06.03 12:45:16.
