data_PCOD9419848
_publ_section_title
;
Structure prediction by ZEFSAII (Michael W. Deem and Ramdas Pophale) SiO2 
 PCOD9419848
Probable space group: P M N A
;
_chemical_formula_sum "Si O2"
_cell_formula_units_Z 34
_cell_length_a 7.902786
_cell_length_b 10.149830
_cell_length_c 19.864055
_cell_angle_alpha 90.000000
_cell_angle_beta 90.000000
_cell_angle_gamma 90.000000
_cell_volume 1593.334277
_symmetry_space_group_name_H-M "P M N A"
_symmetry_group_IT_number 53
_symmetry_cell_setting 'orthorhombic'
loop_
_space_group_symop_operation_xyz
x,y,z
1/2-x,-y,1/2+z
x,-y,-z
1/2-x,y,1/2-z
-x,-y,-z
1/2+x,y,1/2-z
-x,y,z
1/2+x,-y,1/2+z
loop_
_atom_site_type_symbol
_atom_site_label
_atom_site_fract_x
_atom_site_fract_y
_atom_site_fract_z
Si Si1 0.803597 0.466176 0.172082
Si Si2 0.000000 0.500000 0.000000
Si Si3 0.186792 0.347460 0.557054
Si Si4 0.798420 0.057240 0.927348
Si Si5 0.199623 0.173099 0.326707
O O1 0.750000 0.481477 0.250000
O O2 0.698898 0.555857 0.121420
O O3 0.785168 0.312091 0.154791
O O4 0.000000 0.503183 0.162033
O O5 0.847211 0.610722 0.011762
O O6 0.212277 0.198230 0.581533
O O7 0.000000 0.358007 0.525041
O O8 0.000000 0.076068 0.925493
O O9 0.749813 0.947823 0.873093
O O10 0.749872 0.000000 0.000000
O O11 0.250000 0.144115 0.250000
O O12 0.000000 0.195856 0.329982
#
# Coordination Sequence:
#
# PCOD9419848 Si02
#       5
#     8   2   8   8   8
#     4  11  22  42  68 100 135 175 226 279 336 397
#     4  12  26  48  66 102 136 176 224 274 336 402
#     4  12  26  45  69 100 133 178 225 275 338 400
#     4  11  25  45  67  97 136 176 221 276 338 401
#     4  11  23  41  66  98 132 178 227 275 337 400
#
# _framework density 21.338901
#
# number of rings (size 3 to 8) (size 9 to 14) (size 15 to 20)
#    0.000    0.706    2.353    6.706    3.294    2.824 
#    0.000    4.706    0.000    0.000    0.000    0.000 
#    0.000    0.000    0.000    0.000    0.000    0.000 
#
# Total GULP energy -189811.865295 kJ/mol
# GULP energy per Si atom -5582.701920 kJ/mol
# Density = 2.129033 g / cm^3
# Si number density = 21.338901 Si / 1000 Ang^3
#
#
#
# Elastic Constant Matrix: (Units=GPa)
#
#
# Indices 1 2 3 4 5 6 
#
# 1 146.1130 32.7011 19.6252 0.0000 0.0000 0.0000
# 2 32.7011 104.6849 61.7053 0.0000 0.0000 0.0000
# 3 19.6252 61.7053 78.3801 0.0000 0.0000 0.0000
# 4 0.0000 0.0000 0.0000 58.5084 0.0000 0.0000
# 5 0.0000 0.0000 0.0000 0.0000 -2.2646 0.0000
# 6 0.0000 0.0000 0.0000 0.0000 0.0000 62.3829
#
#
#
# Elastic Compliance Matrix: (Units=1/GPa)
#
#
# Indices 1 2 3 4 5 6 
#
# 1 0.007359 -0.002263 -0.000061 0.000000 0.000000 0.000000
# 2 -0.002263 0.018519 -0.014013 0.000000 0.000000 0.000000
# 3 -0.000061 -0.014013 0.023805 0.000000 0.000000 0.000000
# 4 0.000000 0.000000 0.000000 0.017092 0.000000 0.000000
# 5 0.000000 0.000000 0.000000 0.000000 -0.441586 0.000000
# 6 0.000000 0.000000 0.000000 0.000000 0.000000 0.016030
#
#
# Mechanical properties :
#
#
# Convention : Reuss Voigt Hill
#
# Bulk Modulus (GPa) = 58.78952 61.91568 60.35260
# Shear Modulus (GPa) = -15.60361 38.06843 11.23241
#
# Velocity S-wave (km/s) = -2.70706 4.22831 2.29679
# Velocity P-wave (km/s) = 4.22366 7.27438 5.94794
#
# Compressibility (1/GPa) = 0.01700984
#
# Stress axis : x y z
#
# Youngs Moduli (GPa) = 135.89497 53.99929 42.00769
#
# Poissons Ratio (x) = 0.12218 0.00257
# Poissons Ratio (y) = 0.30747 0.58863
# Poissons Ratio (z) = 0.00833 0.75667
#
# Static dielectric constant tensor:
#      x y z
#    x 1.776450 0.000000 0.000000 
#    y 0.000000 1.735840 0.000000 
#    z 0.000000 0.000000 1.872030 
# 
# From -- ./inp_files/30154.got.cif
#   From: 2010.05.17/outbox.cif.g08.bks.cpg/sg53_16_cif.got.tgz:30154.got - 2010.06.03 12:45:16.
