data_PCOD9419528
_publ_section_title
;
Structure prediction by ZEFSAII (Michael W. Deem and Ramdas Pophale) SiO2 
 PCOD9419528
Probable space group: P M N A
;
_chemical_formula_sum "Si O2"
_cell_formula_units_Z 48
_cell_length_a 8.791451
_cell_length_b 10.169919
_cell_length_c 28.232740
_cell_angle_alpha 90.000000
_cell_angle_beta 90.000000
_cell_angle_gamma 90.000000
_cell_volume 2524.242546
_symmetry_space_group_name_H-M "P M N A"
_symmetry_group_IT_number 53
_symmetry_cell_setting 'orthorhombic'
loop_
_space_group_symop_operation_xyz
x,y,z
1/2-x,-y,1/2+z
x,-y,-z
1/2-x,y,1/2-z
-x,-y,-z
1/2+x,y,1/2-z
-x,y,z
1/2+x,-y,1/2+z
loop_
_atom_site_type_symbol
_atom_site_label
_atom_site_fract_x
_atom_site_fract_y
_atom_site_fract_z
Si Si1 0.818021 0.682059 0.835161
Si Si2 0.817075 0.379725 0.435431
Si Si3 0.681089 0.587181 0.200156
Si Si4 0.818007 0.684605 0.459616
Si Si5 0.317136 0.029412 0.300606
Si Si6 0.318095 0.201482 0.629501
O O1 0.769351 0.674330 0.890043
O O2 0.736582 0.560803 0.809544
O O3 0.771777 0.821727 0.813203
O O4 0.000000 0.667274 0.830810
O O5 0.783069 0.534892 0.442876
O O6 0.777211 0.309282 0.484951
O O7 0.000000 0.369585 0.428481
O O8 0.750000 0.632652 0.250000
O O9 0.500000 0.592628 0.201225
O O10 0.744490 0.678795 0.158641
O O11 0.737757 0.784653 0.424239
O O12 0.000000 0.699701 0.456014
O O13 0.250000 0.989587 0.250000
O O14 0.500000 0.025692 0.297358
O O15 0.271967 0.930366 0.342602
O O16 0.500000 0.212851 0.631127
#
# Coordination Sequence:
#
# PCOD9419528 Si02
#       6
#     8   8   8   8   8   8
#     4  11  22  38  59  86 116 150 192 237 287 343
#     4   9  18  34  57  86 119 152 189 235 285 338
#     4  12  24  38  57  84 115 146 188 241 289 339
#     4   9  18  34  57  86 119 152 189 235 285 338
#     4  10  24  42  59  82 115 153 194 237 285 342
#     4  11  22  38  59  86 116 150 192 237 287 343
#
# _framework density 19.015605999999998
#
# number of rings (size 3 to 8) (size 9 to 14) (size 15 to 20)
#    0.000    1.667    1.667    4.500    0.000    6.000 
#    0.000    2.500    0.000    5.000    0.000    0.000 
#    0.000    0.000    0.000    0.000    0.000    0.000 
#
# Total GULP energy -268233.643598 kJ/mol
# GULP energy per Si atom -5588.200908 kJ/mol
# Density = 1.897233 g / cm^3
# Si number density = 19.015606 Si / 1000 Ang^3
#
#
#
# Elastic Constant Matrix: (Units=GPa)
#
#
# Indices 1 2 3 4 5 6 
#
# 1 40.1715 6.8054 12.2706 0.0000 0.0000 0.0000
# 2 6.8054 42.9123 -12.9764 0.0000 0.0000 0.0000
# 3 12.2706 -12.9764 72.2289 0.0000 0.0000 0.0000
# 4 0.0000 0.0000 0.0000 25.4445 0.0000 0.0000
# 5 0.0000 0.0000 0.0000 0.0000 24.7553 0.0000
# 6 0.0000 0.0000 0.0000 0.0000 0.0000 0.7233
#
#
#
# Elastic Compliance Matrix: (Units=1/GPa)
#
#
# Indices 1 2 3 4 5 6 
#
# 1 0.027711 -0.006152 -0.005813 0.000000 0.000000 0.000000
# 2 -0.006152 0.026008 0.005718 0.000000 0.000000 0.000000
# 3 -0.005813 0.005718 0.015860 0.000000 0.000000 0.000000
# 4 0.000000 0.000000 0.000000 0.039301 0.000000 0.000000
# 5 0.000000 0.000000 0.000000 0.000000 0.040395 0.000000
# 6 0.000000 0.000000 0.000000 0.000000 0.000000 1.382593
#
#
# Mechanical properties :
#
#
# Convention : Reuss Voigt Hill
#
# Bulk Modulus (GPa) = 17.51827 18.61243 18.06535
# Shear Modulus (GPa) = 3.19817 20.13215 11.66516
#
# Velocity S-wave (km/s) = 1.29828 3.25732 2.47948
# Velocity P-wave (km/s) = 3.38820 4.89450 4.20928
#
# Compressibility (1/GPa) = 0.05708327
#
# Stress axis : x y z
#
# Youngs Moduli (GPa) = 36.08655 38.44965 63.05314
#
# Poissons Ratio (x) = 0.23656 0.36653
# Poissons Ratio (y) = 0.22202 -0.36052
# Poissons Ratio (z) = 0.20977 -0.21984
#
# Static dielectric constant tensor:
#      x y z
#    x 1.633230 0.000000 0.000000 
#    y 0.000000 1.654290 0.000000 
#    z 0.000000 0.000000 1.704950 
# 
# From -- ./inp_files/13013.got.cif
#   From: 2010.05.17/outbox.cif.g08.bks.cpg/sg53_7_cif.got.tgz:13013.got - 2010.06.03 12:45:16.
