data_PCOD9419323
_publ_section_title
;
Structure prediction by ZEFSAII (Michael W. Deem and Ramdas Pophale) SiO2 
 PCOD9419323
Probable space group: P M N A
;
_chemical_formula_sum "Si O2"
_cell_formula_units_Z 48
_cell_length_a 28.207780
_cell_length_b 8.227721
_cell_length_c 9.760176
_cell_angle_alpha 90.000000
_cell_angle_beta 90.000000
_cell_angle_gamma 90.000000
_cell_volume 2265.197707
_symmetry_space_group_name_H-M "P M N A"
_symmetry_group_IT_number 53
_symmetry_cell_setting 'orthorhombic'
loop_
_space_group_symop_operation_xyz
x,y,z
1/2-x,-y,1/2+z
x,-y,-z
1/2-x,y,1/2-z
-x,-y,-z
1/2+x,y,1/2-z
-x,y,z
1/2+x,-y,1/2+z
loop_
_atom_site_type_symbol
_atom_site_label
_atom_site_fract_x
_atom_site_fract_y
_atom_site_fract_z
Si Si1 0.500000 0.504687 0.665761
Si Si2 0.604909 0.642045 0.306813
Si Si3 0.742976 0.140968 0.099066
Si Si4 0.500000 0.316596 0.063744
Si Si5 0.097169 0.178801 0.545265
Si Si6 0.851420 0.821133 0.947658
Si Si7 0.155882 0.656419 0.672754
O O1 0.500000 0.500000 0.500000
O O2 0.551003 0.423552 0.699561
O O3 0.500000 0.659408 0.770617
O O4 0.621041 0.694151 0.457375
O O5 0.641913 0.511817 0.244128
O O6 0.604802 0.795297 0.205410
O O7 0.750000 0.064248 0.250000
O O8 0.794106 0.193871 0.040664
O O9 0.709111 0.293962 0.130315
O O10 0.723411 0.000000 0.000000
O O11 0.455271 0.220567 0.005962
O O12 0.500000 0.500000 0.000000
O O13 0.127306 0.312410 0.464318
O O14 0.110726 0.000000 0.500000
O O15 0.860658 0.786580 0.788409
O O16 0.863929 0.000000 0.000000
#
# Coordination Sequence:
#
# PCOD9419323 Si02
#       7
#     4   8   8   4   8   8   8
#     4  12  24  42  69  97 132 177 215 268 341 391
#     4  12  24  43  67  96 132 176 224 277 333 397
#     4   9  20  39  64  93 131 173 214 271 336 395
#     4  12  21  44  65  93 135 170 215 273 328 389
#     4  12  24  40  64  94 128 171 219 271 327 390
#     4  10  22  42  65  93 132 171 215 274 335 399
#     4  11  21  39  64  93 126 171 222 267 326 397
#
# _framework density 21.190203
#
# number of rings (size 3 to 8) (size 9 to 14) (size 15 to 20)
#    0.000    1.000    3.333    3.750    0.000    2.667 
#    0.000   10.417    0.000    0.000    0.000    0.000 
#    0.000    0.000    0.000    0.000    0.000    0.000 
#
# Total GULP energy -267895.690092 kJ/mol
# GULP energy per Si atom -5581.160210 kJ/mol
# Density = 2.114197 g / cm^3
# Si number density = 21.190203 Si / 1000 Ang^3
#
#
#
# Elastic Constant Matrix: (Units=GPa)
#
#
# Indices 1 2 3 4 5 6 
#
# 1 81.4991 20.2556 15.8599 0.0000 0.0000 0.0000
# 2 20.2556 69.3855 3.1307 0.0000 0.0000 0.0000
# 3 15.8599 3.1307 89.8804 0.0000 0.0000 0.0000
# 4 0.0000 0.0000 0.0000 36.0925 0.0000 0.0000
# 5 0.0000 0.0000 0.0000 0.0000 11.9628 0.0000
# 6 0.0000 0.0000 0.0000 0.0000 0.0000 1.4163
#
#
#
# Elastic Compliance Matrix: (Units=1/GPa)
#
#
# Indices 1 2 3 4 5 6 
#
# 1 0.013681 -0.003891 -0.002278 0.000000 0.000000 0.000000
# 2 -0.003891 0.015542 0.000145 0.000000 0.000000 0.000000
# 3 -0.002278 0.000145 0.011523 0.000000 0.000000 0.000000
# 4 0.000000 0.000000 0.000000 0.027707 0.000000 0.000000
# 5 0.000000 0.000000 0.000000 0.000000 0.083592 0.000000
# 6 0.000000 0.000000 0.000000 0.000000 0.000000 0.706086
#
#
# Mechanical properties :
#
#
# Convention : Reuss Voigt Hill
#
# Bulk Modulus (GPa) = 34.84732 35.47305 35.16019
# Shear Modulus (GPa) = 5.68347 23.32891 14.50619
#
# Velocity S-wave (km/s) = 1.63950 3.32162 2.61927
# Velocity P-wave (km/s) = 4.47936 5.61138 5.07702
#
# Compressibility (1/GPa) = 0.02869661
#
# Stress axis : x y z
#
# Youngs Moduli (GPa) = 73.09664 64.34363 86.78381
#
# Poissons Ratio (x) = 0.25036 0.19774
# Poissons Ratio (y) = 0.28441 -0.01260
# Poissons Ratio (z) = 0.16655 -0.00934
#
# Static dielectric constant tensor:
#      x y z
#    x 1.806760 0.000000 0.000000 
#    y 0.000000 1.766780 0.000000 
#    z 0.000000 0.000000 1.748970 
# 
# From -- ./inp_files/13096.got.cif
#   From: 2010.05.17/outbox.cif.g08.bks.cpg/sg53_7_cif.got.tgz:13096.got - 2010.06.03 12:45:16.
