data_PCOD9419074
_publ_section_title
;
Structure prediction by ZEFSAII (Michael W. Deem and Ramdas Pophale) SiO2 
 PCOD9419074
Probable space group: P M N A
;
_chemical_formula_sum "Si O2"
_cell_formula_units_Z 40
_cell_length_a 25.634997
_cell_length_b 7.792496
_cell_length_c 9.152067
_cell_angle_alpha 90.000000
_cell_angle_beta 90.000000
_cell_angle_gamma 90.000000
_cell_volume 1828.222501
_symmetry_space_group_name_H-M "P M N A"
_symmetry_group_IT_number 53
_symmetry_cell_setting 'orthorhombic'
loop_
_space_group_symop_operation_xyz
x,y,z
1/2-x,-y,1/2+z
x,-y,-z
1/2-x,y,1/2-z
-x,-y,-z
1/2+x,y,1/2-z
-x,y,z
1/2+x,-y,1/2+z
loop_
_atom_site_type_symbol
_atom_site_label
_atom_site_fract_x
_atom_site_fract_y
_atom_site_fract_z
Si Si1 0.089888 0.012474 0.171765
Si Si2 0.439898 0.416366 0.338695
Si Si3 0.356570 0.385430 0.115049
Si Si4 0.943898 0.188443 0.573571
Si Si5 0.303145 0.052008 0.170388
O O1 0.067715 0.208233 0.184298
O O2 0.145922 0.982796 0.247351
O O3 0.058268 0.863858 0.255385
O O4 0.093972 0.000000 0.000000
O O5 0.432593 0.500000 0.500000
O O6 0.500000 0.453967 0.298135
O O7 0.393080 0.478965 0.233887
O O8 0.316007 0.253988 0.182667
O O9 0.326303 0.500000 0.000000
O O10 0.397946 0.287196 0.008634
O O11 0.000000 0.269693 0.540992
O O12 0.942582 0.000000 0.500000
O O13 0.250000 0.004470 0.250000
O O14 0.302466 0.000000 0.000000
#
# Coordination Sequence:
#
# PCOD9419074 Si02
#       5
#     8   8   8   8   8
#     4  11  22  38  60  91 125 162 207 265 312 368
#     4  10  22  37  54  85 128 167 206 250 306 373
#     4  11  23  41  62  87 128 166 211 256 314 383
#     4  11  20  37  63  90 126 169 213 259 310 366
#     4  11  22  44  68  94 115 155 206 264 323 378
#
# _framework density 21.879175
#
# number of rings (size 3 to 8) (size 9 to 14) (size 15 to 20)
#    0.000    1.200    6.000    1.800    2.800    3.200 
#    0.000    5.000    0.000    0.000    0.000    0.000 
#    0.000    0.000    0.000    0.000    0.000    0.000 
#
# Total GULP energy -222986.086494 kJ/mol
# GULP energy per Si atom -5574.652162 kJ/mol
# Density = 2.182938 g / cm^3
# Si number density = 21.879175 Si / 1000 Ang^3
#
#
#
# Elastic Constant Matrix: (Units=GPa)
#
#
# Indices 1 2 3 4 5 6 
#
# 1 87.0287 -0.7574 19.1921 0.0000 0.0000 0.0000
# 2 -0.7574 29.4161 9.6076 0.0000 0.0000 0.0000
# 3 19.1921 9.6076 147.4583 0.0000 0.0000 0.0000
# 4 0.0000 0.0000 0.0000 44.5781 0.0000 0.0000
# 5 0.0000 0.0000 0.0000 0.0000 38.0738 0.0000
# 6 0.0000 0.0000 0.0000 0.0000 0.0000 -24.2430
#
#
#
# Elastic Compliance Matrix: (Units=1/GPa)
#
#
# Indices 1 2 3 4 5 6 
#
# 1 0.011850 0.000826 -0.001596 0.000000 0.000000 0.000000
# 2 0.000826 0.034792 -0.002374 0.000000 0.000000 0.000000
# 3 -0.001596 -0.002374 0.007144 0.000000 0.000000 0.000000
# 4 0.000000 0.000000 0.000000 0.022433 0.000000 0.000000
# 5 0.000000 0.000000 0.000000 0.000000 0.026265 0.000000
# 6 0.000000 0.000000 0.000000 0.000000 0.000000 -0.041249
#
#
# Mechanical properties :
#
#
# Convention : Reuss Voigt Hill
#
# Bulk Modulus (GPa) = 21.05386 35.55419 28.30403
# Shear Modulus (GPa) = 59.98480 27.40583 43.69531
#
# Velocity S-wave (km/s) = 5.24175 3.54305 4.47376
# Velocity P-wave (km/s) = 6.80281 5.74657 6.29688
#
# Compressibility (1/GPa) = 0.04749722
#
# Stress axis : x y z
#
# Youngs Moduli (GPa) = 84.39079 28.74241 139.97725
#
# Poissons Ratio (x) = -0.02375 0.22342
# Poissons Ratio (y) = -0.06974 0.33236
# Poissons Ratio (z) = 0.13470 0.06825
#
# Static dielectric constant tensor:
#      x y z
#    x 1.764560 0.000000 0.000000 
#    y 0.000000 1.922290 0.000000 
#    z 0.000000 0.000000 1.863420 
# 
# From -- ./inp_files/11516.got.cif
#   From: 2010.05.17/outbox.cif.g08.bks.cpg/sg53_6_cif.got.tgz:11516.got - 2010.06.03 12:45:16.
