data_PCOD9419193
_publ_section_title
;
Structure prediction by ZEFSAII (Michael W. Deem and Ramdas Pophale) SiO2 
 PCOD9419193
Probable space group: P M N A
;
_chemical_formula_sum "Si O2"
_cell_formula_units_Z 40
_cell_length_a 16.395848
_cell_length_b 14.084133
_cell_length_c 9.150639
_cell_angle_alpha 90.000000
_cell_angle_beta 90.000000
_cell_angle_gamma 90.000000
_cell_volume 2113.077489
_symmetry_space_group_name_H-M "P M N A"
_symmetry_group_IT_number 53
_symmetry_cell_setting 'orthorhombic'
loop_
_space_group_symop_operation_xyz
x,y,z
1/2-x,-y,1/2+z
x,-y,-z
1/2-x,y,1/2-z
-x,-y,-z
1/2+x,y,1/2-z
-x,y,z
1/2+x,-y,1/2+z
loop_
_atom_site_type_symbol
_atom_site_label
_atom_site_fract_x
_atom_site_fract_y
_atom_site_fract_z
Si Si1 0.500000 0.249500 0.364153
Si Si2 0.500000 0.632271 0.394378
Si Si3 0.750000 0.582003 0.750000
Si Si4 0.141129 0.500000 0.000000
Si Si5 0.500000 0.388577 0.947392
Si Si6 0.334308 0.947915 0.844307
Si Si7 0.000000 0.027589 0.172193
Si Si8 0.629753 0.276893 0.129512
O O1 0.500000 0.263549 0.536963
O O2 0.500000 0.140488 0.329094
O O3 0.577785 0.290661 0.278718
O O4 0.420152 0.584791 0.462447
O O5 0.500000 0.613668 0.225359
O O6 0.693104 0.520006 0.645318
O O7 0.793793 0.655007 0.641195
O O8 0.500000 0.500000 0.000000
O O9 0.575253 0.325637 0.005461
O O10 0.250000 0.955239 0.750000
O O11 0.414025 0.992256 0.758494
O O12 0.350700 0.835154 0.877452
O O13 0.325378 0.000000 0.000000
O O14 0.000000 0.000000 0.000000
#
# Coordination Sequence:
#
# PCOD9419193 Si02
#       8
#     4   4   4   4   4   8   4   8
#     4   9  19  40  62  82 115 165 204 249 321 385
#     4  11  22  42  56  88 121 167 215 257 316 392
#     4  12  22  40  60  88 126 158 216 266 318 374
#     4  11  26  36  62  85 122 166 208 265 316 380
#     4  11  24  39  65  93 130 173 223 269 334 393
#     4  11  23  43  68  97 134 178 225 278 347 411
#     4  10  22  39  68  97 126 164 218 275 338 409
#     4  10  22  41  62  89 124 171 211 264 324 397
#
# _framework density 18.929736999999999
#
# number of rings (size 3 to 8) (size 9 to 14) (size 15 to 20)
#    0.000    1.400    3.000    2.700    7.000    1.600 
#    0.000    2.000    0.000    0.000    0.000    0.000 
#    0.000    0.000    0.000    0.000    0.000    0.000 
#
# Total GULP energy -222693.881188 kJ/mol
# GULP energy per Si atom -5567.347030 kJ/mol
# Density = 1.888665 g / cm^3
# Si number density = 18.929737 Si / 1000 Ang^3
#
#
#
# Elastic Constant Matrix: (Units=GPa)
#
#
# Indices 1 2 3 4 5 6 
#
# 1 117.0137 39.5205 52.0421 0.0000 0.0000 0.0000
# 2 39.5205 58.5673 48.6707 0.0000 0.0000 0.0000
# 3 52.0421 48.6707 152.0635 0.0000 0.0000 0.0000
# 4 0.0000 0.0000 0.0000 34.6752 0.0000 0.0000
# 5 0.0000 0.0000 0.0000 0.0000 34.3884 0.0000
# 6 0.0000 0.0000 0.0000 0.0000 0.0000 50.9486
#
#
#
# Elastic Compliance Matrix: (Units=1/GPa)
#
#
# Indices 1 2 3 4 5 6 
#
# 1 0.011489 -0.006110 -0.001976 0.000000 0.000000 0.000000
# 2 -0.006110 0.026511 -0.006394 0.000000 0.000000 0.000000
# 3 -0.001976 -0.006394 0.009299 0.000000 0.000000 0.000000
# 4 0.000000 0.000000 0.000000 0.028839 0.000000 0.000000
# 5 0.000000 0.000000 0.000000 0.000000 0.029080 0.000000
# 6 0.000000 0.000000 0.000000 0.000000 0.000000 0.019628
#
#
# Mechanical properties :
#
#
# Convention : Reuss Voigt Hill
#
# Bulk Modulus (GPa) = 54.53228 67.56789 61.05008
# Shear Modulus (GPa) = 31.26587 36.49652 33.88120
#
# Velocity S-wave (km/s) = 4.06850 4.39566 4.23524
# Velocity P-wave (km/s) = 7.13726 7.84436 7.49915
#
# Compressibility (1/GPa) = 0.01833776
#
# Stress axis : x y z
#
# Youngs Moduli (GPa) = 87.04318 37.71997 107.53682
#
# Poissons Ratio (x) = 0.23047 0.21251
# Poissons Ratio (y) = 0.53184 0.68762
# Poissons Ratio (z) = 0.17201 0.24119
#
# Static dielectric constant tensor:
#      x y z
#    x 1.724830 0.000000 0.000000 
#    y 0.000000 1.653230 0.000000 
#    z 0.000000 0.000000 1.593520 
# 
# From -- ./inp_files/8522.got.cif
#   From: 2010.05.17/outbox.cif.g08.bks.cpg/sg53_5_cif.got.tgz:8522.got - 2010.06.03 12:45:16.
