data_PCOD9419976
_publ_section_title
;
Structure prediction by ZEFSAII (Michael W. Deem and Ramdas Pophale) SiO2 
 PCOD9419976
Probable space group: P M N A
;
_chemical_formula_sum "Si O2"
_cell_formula_units_Z 18
_cell_length_a 8.279596
_cell_length_b 4.335304
_cell_length_c 17.132117
_cell_angle_alpha 90.000000
_cell_angle_beta 90.000000
_cell_angle_gamma 90.000000
_cell_volume 614.949899
_symmetry_space_group_name_H-M "P M N A"
_symmetry_group_IT_number 53
_symmetry_cell_setting 'orthorhombic'
loop_
_space_group_symop_operation_xyz
x,y,z
1/2-x,-y,1/2+z
x,-y,-z
1/2-x,y,1/2-z
-x,-y,-z
1/2+x,y,1/2-z
-x,y,z
1/2+x,-y,1/2+z
loop_
_atom_site_type_symbol
_atom_site_label
_atom_site_fract_x
_atom_site_fract_y
_atom_site_fract_z
Si Si1 0.500000 0.306748 0.846744
Si Si2 0.000000 0.794601 0.766766
Si Si3 0.000000 0.000000 0.000000
Si Si4 0.828564 0.480542 0.902538
O O1 0.500000 0.147331 0.760885
O O2 0.666703 0.288243 0.893090
O O3 0.500000 0.663137 0.820302
O O4 0.854960 0.671211 0.820816
O O5 0.144488 0.246848 0.036037
O O6 0.000000 0.274022 0.909373
#
# Coordination Sequence:
#
# PCOD9419976 Si02
#       4
#     4   4   2   8
#     4  12  20  41  64  93 129 174 203 266 339 376
#     4   9  24  37  58  97 130 156 221 256 323 397
#     4   6  16  42  60  98 128 166 232 266 316 388
#     4   8  20  39  62  97 129 172 213 278 308 402
#
# _framework density 29.270679000000001
#
# number of rings (size 3 to 8) (size 9 to 14) (size 15 to 20)
#    2.667    0.000    0.000    1.333    0.000    8.000 
#    4.000    0.000    0.000   50.667    0.000    0.000 
#    0.000    0.000    0.000    0.000    0.000    0.000 
#
# Total GULP energy -100233.263647 kJ/mol
# GULP energy per Si atom -5568.514647 kJ/mol
# Density = 2.920406 g / cm^3
# Si number density = 29.270679 Si / 1000 Ang^3
#
#
#
# Elastic Constant Matrix: (Units=GPa)
#
#
# Indices 1 2 3 4 5 6 
#
# 1 287.2621 65.6832 79.6861 0.0000 0.0000 0.0000
# 2 65.6832 154.8359 38.7890 0.0000 0.0000 0.0000
# 3 79.6861 38.7890 114.1344 0.0000 0.0000 0.0000
# 4 0.0000 0.0000 0.0000 58.7711 0.0000 0.0000
# 5 0.0000 0.0000 0.0000 0.0000 47.8635 0.0000
# 6 0.0000 0.0000 0.0000 0.0000 0.0000 32.0742
#
#
#
# Elastic Compliance Matrix: (Units=1/GPa)
#
#
# Indices 1 2 3 4 5 6 
#
# 1 0.004523 -0.001232 -0.002739 0.000000 0.000000 0.000000
# 2 -0.001232 0.007395 -0.001653 0.000000 0.000000 0.000000
# 3 -0.002739 -0.001653 0.011235 0.000000 0.000000 0.000000
# 4 0.000000 0.000000 0.000000 0.017015 0.000000 0.000000
# 5 0.000000 0.000000 0.000000 0.000000 0.020893 0.000000
# 6 0.000000 0.000000 0.000000 0.000000 0.000000 0.031178
#
#
# Mechanical properties :
#
#
# Convention : Reuss Voigt Hill
#
# Bulk Modulus (GPa) = 83.99611 102.72765 93.36188
# Shear Modulus (GPa) = 46.53079 52.54670 49.53875
#
# Velocity S-wave (km/s) = 3.99140 4.24158 4.11839
# Velocity P-wave (km/s) = 7.07109 7.69155 7.38783
#
# Compressibility (1/GPa) = 0.01190531
#
# Stress axis : x y z
#
# Youngs Moduli (GPa) = 221.10790 135.22020 89.00375
#
# Poissons Ratio (x) = 0.16665 0.24376
# Poissons Ratio (y) = 0.27251 0.14711
# Poissons Ratio (z) = 0.60556 0.22350
#
# Static dielectric constant tensor:
#      x y z
#    x 2.309240 0.000000 0.000000 
#    y 0.000000 2.275600 0.000000 
#    z 0.000000 0.000000 2.650960 
# 
# From -- ./inp_files/25413.got.cif
#   From: 2010.05.17/outbox.cif.g08.bks.cpg/sg53_13_cif.got.tgz:25413.got - 2010.06.03 12:45:16.
