data_PCOD9419487
_publ_section_title
;
Structure prediction by ZEFSAII (Michael W. Deem and Ramdas Pophale) SiO2 
 PCOD9419487
Probable space group: P M N A
;
_chemical_formula_sum "Si O2"
_cell_formula_units_Z 48
_cell_length_a 21.632182
_cell_length_b 19.016420
_cell_length_c 5.367073
_cell_angle_alpha 90.000000
_cell_angle_beta 90.000000
_cell_angle_gamma 90.000000
_cell_volume 2207.834886
_symmetry_space_group_name_H-M "P M N A"
_symmetry_group_IT_number 53
_symmetry_cell_setting 'orthorhombic'
loop_
_space_group_symop_operation_xyz
x,y,z
1/2-x,-y,1/2+z
x,-y,-z
1/2-x,y,1/2-z
-x,-y,-z
1/2+x,y,1/2-z
-x,y,z
1/2+x,-y,1/2+z
loop_
_atom_site_type_symbol
_atom_site_label
_atom_site_fract_x
_atom_site_fract_y
_atom_site_fract_z
Si Si1 0.685709 0.366356 0.108044
Si Si2 0.684454 0.218997 0.802123
Si Si3 0.934003 0.170700 0.424676
Si Si4 0.000000 0.954263 0.752632
Si Si5 0.613706 0.500000 0.000000
Si Si6 0.601461 0.286028 0.447525
Si Si7 0.500000 0.440035 0.254986
Si Si8 0.000000 0.348646 0.746730
O O1 0.750000 0.381746 0.250000
O O2 0.632034 0.351395 0.310359
O O3 0.692745 0.293852 0.950703
O O4 0.658050 0.432764 0.957566
O O5 0.750000 0.184520 0.750000
O O6 0.658834 0.240089 0.533907
O O7 0.629883 0.175073 0.929519
O O8 0.942218 0.099854 0.263997
O O9 0.934774 0.238566 0.246776
O O10 0.000000 0.170987 0.572766
O O11 0.000000 0.000000 0.500000
O O12 0.000000 0.000000 0.000000
O O13 0.563045 0.483945 0.214908
O O14 0.561492 0.304491 0.690784
O O15 0.500000 0.384776 0.020875
O O16 0.500000 0.400320 0.514242
#
# Coordination Sequence:
#
# PCOD9419487 Si02
#       8
#     8   8   8   4   4   8   4   4
#     4  11  23  44  56  85 122 170 228 289 363 427
#     4  11  23  40  66  96 136 180 232 300 356 429
#     4   9  23  38  65 108 139 180 237 278 347 403
#     4  10  23  43  71 112 161 191 228 285 338 406
#     4  11  24  44  60  82 120 165 230 280 362 447
#     4  11  22  38  66  90 130 166 226 291 354 414
#     4  11  26  44  61  86 116 157 213 277 361 428
#     4  12  23  42  66  88 121 158 209 288 359 420
#
# _framework density 21.740755
#
# number of rings (size 3 to 8) (size 9 to 14) (size 15 to 20)
#    0.500    0.833    4.167    1.000    5.833    2.000 
#    7.500    0.000    0.000    0.000    4.333    0.000 
#    0.000    0.000    0.000    0.000    0.000    0.000 
#
# Total GULP energy -267931.188749 kJ/mol
# GULP energy per Si atom -5581.899766 kJ/mol
# Density = 2.169127 g / cm^3
# Si number density = 21.740755 Si / 1000 Ang^3
#
#
#
# Elastic Constant Matrix: (Units=GPa)
#
#
# Indices 1 2 3 4 5 6 
#
# 1 167.4123 51.1246 34.7002 0.0000 0.0000 0.0000
# 2 51.1246 92.8306 33.5785 0.0000 0.0000 0.0000
# 3 34.7002 33.5785 79.2970 0.0000 0.0000 0.0000
# 4 0.0000 0.0000 0.0000 31.6435 0.0000 0.0000
# 5 0.0000 0.0000 0.0000 0.0000 28.7882 0.0000
# 6 0.0000 0.0000 0.0000 0.0000 0.0000 8.5910
#
#
#
# Elastic Compliance Matrix: (Units=1/GPa)
#
#
# Indices 1 2 3 4 5 6 
#
# 1 0.007389 -0.003424 -0.001783 0.000000 0.000000 0.000000
# 2 -0.003424 0.014308 -0.004560 0.000000 0.000000 0.000000
# 3 -0.001783 -0.004560 0.015322 0.000000 0.000000 0.000000
# 4 0.000000 0.000000 0.000000 0.031602 0.000000 0.000000
# 5 0.000000 0.000000 0.000000 0.000000 0.034736 0.000000
# 6 0.000000 0.000000 0.000000 0.000000 0.000000 0.116401
#
#
# Mechanical properties :
#
#
# Convention : Reuss Voigt Hill
#
# Bulk Modulus (GPa) = 57.19772 64.26073 60.72922
# Shear Modulus (GPa) = 20.39810 28.48031 24.43920
#
# Velocity S-wave (km/s) = 3.06640 3.62331 3.35643
# Velocity P-wave (km/s) = 6.23724 6.86487 6.55857
#
# Compressibility (1/GPa) = 0.01748321
#
# Stress axis : x y z
#
# Youngs Moduli (GPa) = 135.34458 69.89324 65.26473
#
# Poissons Ratio (x) = 0.23932 0.11639
# Poissons Ratio (y) = 0.46343 0.29762
# Poissons Ratio (z) = 0.24136 0.31873
#
# Static dielectric constant tensor:
#      x y z
#    x 1.853630 0.000000 0.000000 
#    y 0.000000 1.852350 0.000000 
#    z 0.000000 0.000000 1.834910 
# 
# From -- ./inp_files/2978.got.cif
#   From: 2010.05.17/outbox.cif.g08.bks.cpg/sg53_2_cif.got.tgz:2978.got - 2010.06.03 12:45:16.
