data_PCOD9419997
_publ_section_title
;
Structure prediction by ZEFSAII (Michael W. Deem and Ramdas Pophale) SiO2 
 PCOD9419997
Probable space group: P M N A
;
_chemical_formula_sum "Si O2"
_cell_formula_units_Z 44
_cell_length_a 29.843495
_cell_length_b 6.845058
_cell_length_c 7.987798
_cell_angle_alpha 90.000000
_cell_angle_beta 90.000000
_cell_angle_gamma 90.000000
_cell_volume 1631.751003
_symmetry_space_group_name_H-M "P M N A"
_symmetry_group_IT_number 53
_symmetry_cell_setting 'orthorhombic'
loop_
_space_group_symop_operation_xyz
x,y,z
1/2-x,-y,1/2+z
x,-y,-z
1/2-x,y,1/2-z
-x,-y,-z
1/2+x,y,1/2-z
-x,y,z
1/2+x,-y,1/2+z
loop_
_atom_site_type_symbol
_atom_site_label
_atom_site_fract_x
_atom_site_fract_y
_atom_site_fract_z
Si Si1 0.150418 0.282505 0.358194
Si Si2 0.250000 0.294570 0.250000
Si Si3 0.142976 0.172419 0.744365
Si Si4 0.953277 0.830910 0.261987
Si Si5 0.450614 0.289871 0.146031
Si Si6 0.726358 0.279332 0.573612
O O1 0.197268 0.368313 0.284316
O O2 0.151380 0.276760 0.562948
O O3 0.100123 0.360023 0.310147
O O4 0.149319 0.056057 0.298949
O O5 0.255896 0.166058 0.414328
O O6 0.093836 0.212464 0.816780
O O7 0.175933 0.236533 0.888053
O O8 0.952136 0.723845 0.442979
O O9 0.000000 0.788812 0.173040
O O10 0.951856 0.062251 0.299790
O O11 0.500000 0.369469 0.200635
O O12 0.734758 0.500000 0.500000
O O13 0.750000 0.261381 0.750000
#
# Coordination Sequence:
#
# PCOD9419997 Si02
#       6
#     8   4   8   8   8   8
#     4   9  18  30  52  87 118 149 180 230 300 350
#     4  12  24  36  58  84 116 148 184 242 298 352
#     4   9  18  32  54  83 116 149 189 234 285 345
#     4   7  10  20  42  74 109 145 181 222 274 333
#     4   7  10  20  40  71 112 149 183 216 261 342
#     4  12  25  43  60  78 107 151 205 243 280 338
#
# _framework density 26.964898999999999
#
# number of rings (size 3 to 8) (size 9 to 14) (size 15 to 20)
#    0.000    2.909    2.727    3.273    1.273    0.727 
#    0.000    0.000    0.000    1.636    0.000    5.091 
#    0.000    7.273    0.000    0.000    0.000    0.000 
#
# Total GULP energy -245533.155264 kJ/mol
# GULP energy per Si atom -5580.298983 kJ/mol
# Density = 2.690353 g / cm^3
# Si number density = 26.964899 Si / 1000 Ang^3
#
#
#
# Elastic Constant Matrix: (Units=GPa)
#
#
# Indices 1 2 3 4 5 6 
#
# 1 325.1536 32.0126 69.8074 0.0000 0.0000 0.0000
# 2 32.0126 93.4625 15.6380 0.0000 0.0000 0.0000
# 3 69.8074 15.6380 114.3782 0.0000 0.0000 0.0000
# 4 0.0000 0.0000 0.0000 23.1969 0.0000 0.0000
# 5 0.0000 0.0000 0.0000 0.0000 30.1037 0.0000
# 6 0.0000 0.0000 0.0000 0.0000 0.0000 15.5028
#
#
#
# Elastic Compliance Matrix: (Units=1/GPa)
#
#
# Indices 1 2 3 4 5 6 
#
# 1 0.003610 -0.000888 -0.002082 0.000000 0.000000 0.000000
# 2 -0.000888 0.011168 -0.000985 0.000000 0.000000 0.000000
# 3 -0.002082 -0.000985 0.010148 0.000000 0.000000 0.000000
# 4 0.000000 0.000000 0.000000 0.043109 0.000000 0.000000
# 5 0.000000 0.000000 0.000000 0.000000 0.033218 0.000000
# 6 0.000000 0.000000 0.000000 0.000000 0.000000 0.064504
#
#
# Mechanical properties :
#
#
# Convention : Reuss Voigt Hill
#
# Bulk Modulus (GPa) = 58.76530 85.32336 72.04433
# Shear Modulus (GPa) = 27.87994 41.46310 34.67152
#
# Velocity S-wave (km/s) = 3.21897 3.92557 3.58970
# Velocity P-wave (km/s) = 5.97129 7.22896 6.63001
#
# Compressibility (1/GPa) = 0.01701684
#
# Stress axis : x y z
#
# Youngs Moduli (GPa) = 277.02073 89.53770 98.54046
#
# Poissons Ratio (x) = 0.07952 0.20514
# Poissons Ratio (y) = 0.24603 0.09706
# Poissons Ratio (z) = 0.57668 0.08819
#
# Static dielectric constant tensor:
#      x y z
#    x 2.145620 0.000000 0.000000 
#    y 0.000000 2.217050 0.000000 
#    z 0.000000 0.000000 6.347390 
# 
# From -- ./inp_files/12895.got.cif
#   From: 2010.05.17/outbox.cif.g08.bks.cpg/sg53_7_cif.got.tgz:12895.got - 2010.06.03 12:45:16.
