data_PCOD9419937
_publ_section_title
;
Structure prediction by ZEFSAII (Michael W. Deem and Ramdas Pophale) SiO2 
 PCOD9419937
Probable space group: P M N A
;
_chemical_formula_sum "Si O2"
_cell_formula_units_Z 24
_cell_length_a 13.081819
_cell_length_b 6.567045
_cell_length_c 13.286937
_cell_angle_alpha 90.000000
_cell_angle_beta 90.000000
_cell_angle_gamma 90.000000
_cell_volume 1141.466063
_symmetry_space_group_name_H-M "P M N A"
_symmetry_group_IT_number 53
_symmetry_cell_setting 'orthorhombic'
loop_
_space_group_symop_operation_xyz
x,y,z
1/2-x,-y,1/2+z
x,-y,-z
1/2-x,y,1/2-z
-x,-y,-z
1/2+x,y,1/2-z
-x,y,z
1/2+x,-y,1/2+z
loop_
_atom_site_type_symbol
_atom_site_label
_atom_site_fract_x
_atom_site_fract_y
_atom_site_fract_z
Si Si1 0.500000 0.104670 0.392108
Si Si2 0.676758 0.165421 0.657329
Si Si3 0.330231 0.000000 0.000000
Si Si4 0.500000 0.512800 0.308431
Si Si5 0.500000 0.688664 0.917686
O O1 0.500000 0.341812 0.392858
O O2 0.500000 0.000000 0.500000
O O3 0.601817 0.028028 0.338729
O O4 0.750000 0.167549 0.750000
O O5 0.599519 0.352019 0.670114
O O6 0.752356 0.141039 0.563422
O O7 0.403608 0.842478 0.938421
O O8 0.500000 0.411802 0.195252
O O9 0.500000 0.500000 0.000000
#
# Coordination Sequence:
#
# PCOD9419937 Si02
#       5
#     4   8   4   4   4
#     4  11  24  47  67  97 142 184 225 292 343 408
#     4  11  24  44  68 103 136 182 233 284 346 417
#     4  11  24  45  72 100 144 185 234 285 358 412
#     4  11  26  44  69 101 141 177 235 288 348 414
#     4  11  24  45  73 106 142 184 232 296 352 423
#
# _framework density 21.025593000000001
#
# number of rings (size 3 to 8) (size 9 to 14) (size 15 to 20)
#    0.000    1.000    1.667    4.000    0.000   14.667 
#    6.000    0.000    0.000    0.000    0.000    0.000 
#    0.000    0.000    0.000    0.000    0.000    0.000 
#
# Total GULP energy -133950.237564 kJ/mol
# GULP energy per Si atom -5581.259899 kJ/mol
# Density = 2.097774 g / cm^3
# Si number density = 21.025593 Si / 1000 Ang^3
#
#
#
# Elastic Constant Matrix: (Units=GPa)
#
#
# Indices 1 2 3 4 5 6 
#
# 1 201.0506 69.7282 72.7115 0.0000 0.0000 0.0000
# 2 69.7282 90.7250 76.8534 0.0000 0.0000 0.0000
# 3 72.7115 76.8534 118.3041 0.0000 0.0000 0.0000
# 4 0.0000 0.0000 0.0000 30.6531 0.0000 0.0000
# 5 0.0000 0.0000 0.0000 0.0000 130.5038 0.0000
# 6 0.0000 0.0000 0.0000 0.0000 0.0000 -25.2563
#
#
#
# Elastic Compliance Matrix: (Units=1/GPa)
#
#
# Indices 1 2 3 4 5 6 
#
# 1 0.006946 -0.003830 -0.001782 0.000000 0.000000 0.000000
# 2 -0.003830 0.026622 -0.014940 0.000000 0.000000 0.000000
# 3 -0.001782 -0.014940 0.019253 0.000000 0.000000 0.000000
# 4 0.000000 0.000000 0.000000 0.032623 0.000000 0.000000
# 5 0.000000 0.000000 0.000000 0.000000 0.007663 0.000000
# 6 0.000000 0.000000 0.000000 0.000000 0.000000 -0.039594
#
#
# Mechanical properties :
#
#
# Convention : Reuss Voigt Hill
#
# Bulk Modulus (GPa) = 85.33591 94.29620 89.81606
# Shear Modulus (GPa) = 50.74992 39.89923 45.32458
#
# Velocity S-wave (km/s) = 4.91829 4.36093 4.64797
# Velocity P-wave (km/s) = 8.53977 8.38466 8.46257
#
# Compressibility (1/GPa) = 0.01171840
#
# Stress axis : x y z
#
# Youngs Moduli (GPa) = 143.96041 37.56336 51.93880
#
# Poissons Ratio (x) = 0.14385 0.09253
# Poissons Ratio (y) = 0.55131 0.77599
# Poissons Ratio (z) = 0.25647 0.56121
#
# Static dielectric constant tensor:
#      x y z
#    x 1.645020 0.000000 0.000000 
#    y 0.000000 1.725000 0.000000 
#    z 0.000000 0.000000 1.810900 
# 
# From -- ./inp_files/22027.got.cif
#   From: 2010.05.17/outbox.cif.g08.bks.cpg/sg53_12_cif.got.tgz:22027.got - 2010.06.03 12:45:16.
