data_PCOD9419256
_publ_section_title
;
Structure prediction by ZEFSAII (Michael W. Deem and Ramdas Pophale) SiO2 
 PCOD9419256
Probable space group: P M N A
;
_chemical_formula_sum "Si O2"
_cell_formula_units_Z 44
_cell_length_a 8.636976
_cell_length_b 27.237461
_cell_length_c 9.717982
_cell_angle_alpha 90.000000
_cell_angle_beta 90.000000
_cell_angle_gamma 90.000000
_cell_volume 2286.148433
_symmetry_space_group_name_H-M "P M N A"
_symmetry_group_IT_number 53
_symmetry_cell_setting 'orthorhombic'
loop_
_space_group_symop_operation_xyz
x,y,z
1/2-x,-y,1/2+z
x,-y,-z
1/2-x,y,1/2-z
-x,-y,-z
1/2+x,y,1/2-z
-x,y,z
1/2+x,-y,1/2+z
loop_
_atom_site_type_symbol
_atom_site_label
_atom_site_fract_x
_atom_site_fract_y
_atom_site_fract_z
Si Si1 0.314703 0.130241 0.599549
Si Si2 0.315768 0.574896 0.993248
Si Si3 0.685097 0.239502 0.899208
Si Si4 0.684079 0.322595 0.404169
Si Si5 0.250000 0.503897 0.250000
Si Si6 0.314190 0.046731 0.095585
O O1 0.250000 0.114853 0.750000
O O2 0.500000 0.130430 0.604853
O O3 0.252853 0.185256 0.574229
O O4 0.254996 0.093913 0.481965
O O5 0.500000 0.583492 0.989382
O O6 0.228362 0.626100 0.976155
O O7 0.273455 0.539017 0.867624
O O8 0.274194 0.546258 0.131688
O O9 0.750000 0.255038 0.750000
O O10 0.500000 0.236884 0.893910
O O11 0.740475 0.277980 0.012393
O O12 0.750000 0.324240 0.250000
O O13 0.500000 0.316896 0.400630
O O14 0.250000 0.041504 0.250000
O O15 0.500000 0.050690 0.101442
O O16 0.274196 0.000000 0.000000
#
# Coordination Sequence:
#
# PCOD9419256 Si02
#       6
#     8   8   8   8   4   8
#     4  11  22  40  66  96 131 170 216 266 323 382
#     4  11  24  43  65  95 128 163 209 257 312 377
#     4  11  23  43  69  97 130 166 213 263 318 381
#     4  12  26  44  66  93 127 166 210 261 320 378
#     4  10  22  40  68  92 128 162 210 250 312 370
#     4  11  24  41  63  94 132 175 223 272 325 383
#
# _framework density 19.246344000000001
#
# number of rings (size 3 to 8) (size 9 to 14) (size 15 to 20)
#    0.000    0.909    0.909    8.182    1.273    5.818 
#    0.000    8.182    0.000    0.000    0.000    0.000 
#    0.000    0.000    0.000    0.000    0.000    0.000 
#
# Total GULP energy -245098.314225 kJ/mol
# GULP energy per Si atom -5570.416232 kJ/mol
# Density = 1.920254 g / cm^3
# Si number density = 19.246344 Si / 1000 Ang^3
#
#
#
# Elastic Constant Matrix: (Units=GPa)
#
#
# Indices 1 2 3 4 5 6 
#
# 1 132.0930 54.3965 75.8017 0.0000 0.0000 0.0000
# 2 54.3965 83.5885 42.3208 0.0000 0.0000 0.0000
# 3 75.8017 42.3208 90.7420 0.0000 0.0000 0.0000
# 4 0.0000 0.0000 0.0000 42.1406 0.0000 0.0000
# 5 0.0000 0.0000 0.0000 0.0000 60.0201 0.0000
# 6 0.0000 0.0000 0.0000 0.0000 0.0000 39.7048
#
#
#
# Elastic Compliance Matrix: (Units=1/GPa)
#
#
# Indices 1 2 3 4 5 6 
#
# 1 0.015850 -0.004727 -0.011036 0.000000 0.000000 0.000000
# 2 -0.004727 0.017071 -0.004013 0.000000 0.000000 0.000000
# 3 -0.011036 -0.004013 0.022110 0.000000 0.000000 0.000000
# 4 0.000000 0.000000 0.000000 0.023730 0.000000 0.000000
# 5 0.000000 0.000000 0.000000 0.000000 0.016661 0.000000
# 6 0.000000 0.000000 0.000000 0.000000 0.000000 0.025186
#
#
# Mechanical properties :
#
#
# Convention : Reuss Voigt Hill
#
# Bulk Modulus (GPa) = 64.59841 72.38463 68.49152
# Shear Modulus (GPa) = 30.24429 37.30006 33.77217
#
# Velocity S-wave (km/s) = 3.96843 4.40709 4.19350
# Velocity P-wave (km/s) = 7.39153 7.97419 7.68838
#
# Compressibility (1/GPa) = 0.01548026
#
# Stress axis : x y z
#
# Youngs Moduli (GPa) = 63.09188 58.57727 45.22753
#
# Poissons Ratio (x) = 0.27691 0.49911
# Poissons Ratio (y) = 0.29825 0.18150
# Poissons Ratio (z) = 0.69625 0.23507
#
# Static dielectric constant tensor:
#      x y z
#    x 1.670840 0.000000 0.000000 
#    y 0.000000 1.648060 0.000000 
#    z 0.000000 0.000000 1.634290 
# 
# From -- ./inp_files/6528.got.cif
#   From: 2010.05.17/outbox.cif.g08.bks.cpg/sg53_4_cif.got.tgz:6528.got - 2010.06.03 12:45:16.
