data_PCOD9419474
_publ_section_title
;
Structure prediction by ZEFSAII (Michael W. Deem and Ramdas Pophale) SiO2 
 PCOD9419474
Probable space group: P M N A
;
_chemical_formula_sum "Si O2"
_cell_formula_units_Z 32
_cell_length_a 11.174083
_cell_length_b 13.463485
_cell_length_c 9.596980
_cell_angle_alpha 90.000000
_cell_angle_beta 90.000000
_cell_angle_gamma 90.000000
_cell_volume 1443.789814
_symmetry_space_group_name_H-M "P M N A"
_symmetry_group_IT_number 53
_symmetry_cell_setting 'orthorhombic'
loop_
_space_group_symop_operation_xyz
x,y,z
1/2-x,-y,1/2+z
x,-y,-z
1/2-x,y,1/2-z
-x,-y,-z
1/2+x,y,1/2-z
-x,y,z
1/2+x,-y,1/2+z
loop_
_atom_site_type_symbol
_atom_site_label
_atom_site_fract_x
_atom_site_fract_y
_atom_site_fract_z
Si Si1 0.870710 0.710637 0.074652
Si Si2 0.625663 0.241764 0.252889
Si Si3 0.131923 0.382142 0.514913
Si Si4 0.137709 0.056459 0.851635
O O1 0.745905 0.655706 0.099921
O O2 0.860193 0.824855 0.120424
O O3 0.000000 0.669657 0.122340
O O4 0.878956 0.712912 0.906173
O O5 0.750000 0.182787 0.250000
O O6 0.500000 0.187236 0.229046
O O7 0.634027 0.326547 0.135173
O O8 0.140151 0.500000 0.500000
O O9 0.000000 0.357374 0.572667
O O10 0.250000 0.036229 0.750000
O O11 0.000000 0.035431 0.802280
O O12 0.151849 0.000000 0.000000
#
# Coordination Sequence:
#
# PCOD9419474 Si02
#       4
#     8   8   8   8
#     4   9  18  34  55  79 110 150 196 245 298 360
#     4   8  14  26  45  69 100 139 183 231 283 340
#     4   9  17  29  48  79 117 155 199 250 302 360
#     4  10  23  43  66  95 129 164 208 261 319 388
#
# _framework density 22.163889999999999
#
# number of rings (size 3 to 8) (size 9 to 14) (size 15 to 20)
#    0.000    3.000    0.000    0.000    0.000    5.000 
#    0.000    6.250    0.000   15.000    0.000    0.000 
#    0.000    0.000    0.000    0.000    0.000    0.000 
#
# Total GULP energy -178219.269780 kJ/mol
# GULP energy per Si atom -5569.352181 kJ/mol
# Density = 2.211344 g / cm^3
# Si number density = 22.163890 Si / 1000 Ang^3
#
#
#
# Elastic Constant Matrix: (Units=GPa)
#
#
# Indices 1 2 3 4 5 6 
#
# 1 322.9170 69.3224 55.1215 0.0000 0.0000 0.0000
# 2 69.3224 77.7843 23.7542 0.0000 0.0000 0.0000
# 3 55.1215 23.7542 123.4092 0.0000 0.0000 0.0000
# 4 0.0000 0.0000 0.0000 3.3420 0.0000 0.0000
# 5 0.0000 0.0000 0.0000 0.0000 279.8150 0.0000
# 6 0.0000 0.0000 0.0000 0.0000 0.0000 -20.5412
#
#
#
# Elastic Compliance Matrix: (Units=1/GPa)
#
#
# Indices 1 2 3 4 5 6 
#
# 1 0.003981 -0.003192 -0.001164 0.000000 0.000000 0.000000
# 2 -0.003192 0.016219 -0.001696 0.000000 0.000000 0.000000
# 3 -0.001164 -0.001696 0.008949 0.000000 0.000000 0.000000
# 4 0.000000 0.000000 0.000000 0.299222 0.000000 0.000000
# 5 0.000000 0.000000 0.000000 0.000000 0.003574 0.000000
# 6 0.000000 0.000000 0.000000 0.000000 0.000000 -0.048683
#
#
# Mechanical properties :
#
#
# Convention : Reuss Voigt Hill
#
# Bulk Modulus (GPa) = 58.66734 91.16741 74.91738
# Shear Modulus (GPa) = 16.60868 77.58397 47.09632
#
# Velocity S-wave (km/s) = 2.74041 5.92289 4.61468
# Velocity P-wave (km/s) = 6.04486 9.38066 7.89105
#
# Compressibility (1/GPa) = 0.01704526
#
# Stress axis : x y z
#
# Youngs Moduli (GPa) = 251.21211 61.65592 111.74080
#
# Poissons Ratio (x) = 0.19683 0.13001
# Poissons Ratio (y) = 0.80195 0.18951
# Poissons Ratio (z) = 0.29229 0.10457
#
# Static dielectric constant tensor:
#      x y z
#    x 1.949520 0.000000 0.000000 
#    y 0.000000 1.743660 0.000000 
#    z 0.000000 0.000000 1.810120 
# 
# From -- ./inp_files/7244.got.cif
#   From: 2010.05.17/outbox.cif.g08.bks.cpg/sg53_4_cif.got.tgz:7244.got - 2010.06.03 12:45:16.
