data_PCOD9419761
_publ_section_title
;
Structure prediction by ZEFSAII (Michael W. Deem and Ramdas Pophale) SiO2 
 PCOD9419761
Probable space group: P M N A
;
_chemical_formula_sum "Si O2"
_cell_formula_units_Z 64
_cell_length_a 16.627779
_cell_length_b 17.808400
_cell_length_c 12.323526
_cell_angle_alpha 90.000000
_cell_angle_beta 90.000000
_cell_angle_gamma 90.000000
_cell_volume 3649.170298
_symmetry_space_group_name_H-M "P M N A"
_symmetry_group_IT_number 53
_symmetry_cell_setting 'orthorhombic'
loop_
_space_group_symop_operation_xyz
x,y,z
1/2-x,-y,1/2+z
x,-y,-z
1/2-x,y,1/2-z
-x,-y,-z
1/2+x,y,1/2-z
-x,y,z
1/2+x,-y,1/2+z
loop_
_atom_site_type_symbol
_atom_site_label
_atom_site_fract_x
_atom_site_fract_y
_atom_site_fract_z
Si Si1 0.340438 0.823757 0.294840
Si Si2 0.907024 0.818270 0.780686
Si Si3 0.673454 0.081240 0.106840
Si Si4 0.355001 0.085320 0.480000
Si Si5 0.592081 0.930962 0.123068
Si Si6 0.402259 0.333323 0.627009
Si Si7 0.094201 0.497812 0.868009
Si Si8 0.902177 0.660206 0.872858
O O1 0.250000 0.829311 0.250000
O O2 0.350417 0.869339 0.407288
O O3 0.395704 0.863424 0.205392
O O4 0.364990 0.737744 0.313716
O O5 0.850153 0.856139 0.692370
O O6 0.903557 0.867082 0.891210
O O7 0.879307 0.733838 0.806982
O O8 0.000000 0.817484 0.743083
O O9 0.765215 0.079975 0.069884
O O10 0.648277 0.000850 0.156509
O O11 0.620628 0.089968 0.997717
O O12 0.384137 0.000000 0.500000
O O13 0.500000 0.956008 0.122503
O O14 0.500000 0.330338 0.634223
O O15 0.374093 0.416132 0.665993
O O16 0.380924 0.328441 0.499181
O O17 0.128267 0.578677 0.833162
O O18 0.000000 0.497319 0.837507
O O19 0.096555 0.500000 0.000000
O O20 0.000000 0.657063 0.870711
#
# Coordination Sequence:
#
# PCOD9419761 Si02
#       8
#     8   8   8   8   8   8   8   8
#     4  12  22  35  51  77 108 139 173 214 267 315
#     4  11  22  34  55  84 109 132 169 222 271 310
#     4  11  21  40  54  74 101 141 183 218 255 315
#     4  12  23  38  56  72 104 143 178 213 269 322
#     4  11  22  38  59  76  97 135 185 231 256 294
#     4   9  16  29  50  76 105 134 166 210 256 305
#     4   7  11  22  45  74 102 131 161 196 251 312
#     4   8  14  27  47  78 109 128 156 206 264 312
#
# _framework density 17.538233000000002
#
# number of rings (size 3 to 8) (size 9 to 14) (size 15 to 20)
#    0.000    1.875    3.750    4.500    0.000    0.750 
#    0.000    0.000    0.000    1.500    0.000    0.875 
#    0.000    5.000    0.000    0.000    0.000    0.000 
#
# Total GULP energy -356940.383153 kJ/mol
# GULP energy per Si atom -5577.193487 kJ/mol
# Density = 1.749832 g / cm^3
# Si number density = 17.538233 Si / 1000 Ang^3
#
#
#
# Elastic Constant Matrix: (Units=GPa)
#
#
# Indices 1 2 3 4 5 6 
#
# 1 28.4863 4.0127 -0.8406 0.0000 0.0000 0.0000
# 2 4.0127 168.7202 44.4555 0.0000 0.0000 0.0000
# 3 -0.8406 44.4555 38.1185 0.0000 0.0000 0.0000
# 4 0.0000 0.0000 0.0000 15.2936 0.0000 0.0000
# 5 0.0000 0.0000 0.0000 0.0000 13.8359 0.0000
# 6 0.0000 0.0000 0.0000 0.0000 0.0000 2.0297
#
#
#
# Elastic Compliance Matrix: (Units=1/GPa)
#
#
# Indices 1 2 3 4 5 6 
#
# 1 0.035393 -0.001512 0.002544 0.000000 0.000000 0.000000
# 2 -0.001512 0.008621 -0.010087 0.000000 0.000000 0.000000
# 3 0.002544 -0.010087 0.038054 0.000000 0.000000 0.000000
# 4 0.000000 0.000000 0.000000 0.065387 0.000000 0.000000
# 5 0.000000 0.000000 0.000000 0.000000 0.072276 0.000000
# 6 0.000000 0.000000 0.000000 0.000000 0.000000 0.492692
#
#
# Mechanical properties :
#
#
# Convention : Reuss Voigt Hill
#
# Bulk Modulus (GPa) = 15.63553 36.73114 26.18333
# Shear Modulus (GPa) = 6.65025 18.74500 12.69763
#
# Velocity S-wave (km/s) = 1.94938 3.27281 2.69364
# Velocity P-wave (km/s) = 3.74182 5.93891 4.96346
#
# Compressibility (1/GPa) = 0.06395690
#
# Stress axis : x y z
#
# Youngs Moduli (GPa) = 28.25449 115.99855 26.27825
#
# Poissons Ratio (x) = 0.17540 -0.06685
# Poissons Ratio (y) = 0.04272 0.26508
# Poissons Ratio (z) = -0.07188 1.17011
#
# Static dielectric constant tensor:
#      x y z
#    x 1.600110 0.000000 0.000000 
#    y 0.000000 1.637860 0.000000 
#    z 0.000000 0.000000 1.582210 
# 
# From -- ./inp_files/17167.got.cif
#   From: 2010.05.17/outbox.cif.g08.bks.cpg/sg53_9_cif.got.tgz:17167.got - 2010.06.03 12:45:16.
