data_PCOD9419636
_publ_section_title
;
Structure prediction by ZEFSAII (Michael W. Deem and Ramdas Pophale) SiO2 
 PCOD9419636
Probable space group: P M N A
;
_chemical_formula_sum "Si O2"
_cell_formula_units_Z 64
_cell_length_a 8.815877
_cell_length_b 17.706946
_cell_length_c 27.387215
_cell_angle_alpha 90.000000
_cell_angle_beta 90.000000
_cell_angle_gamma 90.000000
_cell_volume 4275.206101
_symmetry_space_group_name_H-M "P M N A"
_symmetry_group_IT_number 53
_symmetry_cell_setting 'orthorhombic'
loop_
_space_group_symop_operation_xyz
x,y,z
1/2-x,-y,1/2+z
x,-y,-z
1/2-x,y,1/2-z
-x,-y,-z
1/2+x,y,1/2-z
-x,y,z
1/2+x,-y,1/2+z
loop_
_atom_site_type_symbol
_atom_site_label
_atom_site_fract_x
_atom_site_fract_y
_atom_site_fract_z
Si Si1 0.179607 0.325054 0.966449
Si Si2 0.182563 0.359334 0.427292
Si Si3 0.681256 0.914803 0.803125
Si Si4 0.682247 0.790471 0.878224
Si Si5 0.317366 0.980135 0.106925
Si Si6 0.324962 0.522434 0.057531
Si Si7 0.680394 0.831375 0.058845
Si Si8 0.179900 0.896174 0.960481
O O1 0.230586 0.401193 0.938721
O O2 0.240607 0.249715 0.940777
O O3 0.000000 0.321772 0.970831
O O4 0.249326 0.331077 0.021208
O O5 0.214969 0.297811 0.385641
O O6 0.232360 0.445423 0.417298
O O7 0.000000 0.362640 0.433989
O O8 0.750000 0.923927 0.750000
O O9 0.500000 0.918559 0.799029
O O10 0.719587 0.834070 0.828296
O O11 0.727378 0.978930 0.842595
O O12 0.500000 0.801105 0.886415
O O13 0.772926 0.834013 0.920281
O O14 0.500000 0.989578 0.101387
O O15 0.283243 0.891590 0.101436
O O16 0.237065 0.025996 0.063366
O O17 0.500000 0.537078 0.071212
O O18 0.323838 0.500000 0.000000
O O19 0.500000 0.820186 0.057246
O O20 0.734203 0.872591 0.009370
O O21 0.000000 0.897451 0.968489
#
# Coordination Sequence:
#
# PCOD9419636 Si02
#       8
#     8   8   8   8   8   8   8   8
#     4  11  20  27  38  60  88 117 147 183 224 255
#     4   9  16  28  45  60  80 115 154 185 209 247
#     4   9  18  33  50  68  87 110 141 177 221 267
#     4   9  17  30  47  64  86 118 152 180 211 259
#     4   9  20  35  48  61  80 113 151 179 212 264
#     4   8  15  27  41  57  78 112 154 182 208 248
#     4  11  20  31  45  58  81 118 154 184 213 252
#     4  11  20  28  41  64  90 113 141 181 223 258
#
# _framework density 14.970038000000001
#
# number of rings (size 3 to 8) (size 9 to 14) (size 15 to 20)
#    0.000    2.375    1.250    4.500    0.000    6.750 
#    0.000    0.000    0.000    0.000    0.000    0.000 
#    0.000    1.000    0.000    3.750    0.000    2.875 
#
# Total GULP energy -356588.032094 kJ/mol
# GULP energy per Si atom -5571.688001 kJ/mol
# Density = 1.493597 g / cm^3
# Si number density = 14.970038 Si / 1000 Ang^3
#
#
#
# Elastic Constant Matrix: (Units=GPa)
#
#
# Indices 1 2 3 4 5 6 
#
# 1 32.2730 36.4612 14.2099 0.0000 0.0000 0.0000
# 2 36.4612 141.7971 41.5538 0.0000 0.0000 0.0000
# 3 14.2099 41.5538 51.5182 0.0000 0.0000 0.0000
# 4 0.0000 0.0000 0.0000 10.3501 0.0000 0.0000
# 5 0.0000 0.0000 0.0000 0.0000 15.6354 0.0000
# 6 0.0000 0.0000 0.0000 0.0000 0.0000 6.2639
#
#
#
# Elastic Compliance Matrix: (Units=1/GPa)
#
#
# Indices 1 2 3 4 5 6 
#
# 1 0.044284 -0.010224 -0.003968 0.000000 0.000000 0.000000
# 2 -0.010224 0.011596 -0.006533 0.000000 0.000000 0.000000
# 3 -0.003968 -0.006533 0.025774 0.000000 0.000000 0.000000
# 4 0.000000 0.000000 0.000000 0.096617 0.000000 0.000000
# 5 0.000000 0.000000 0.000000 0.000000 0.063957 0.000000
# 6 0.000000 0.000000 0.000000 0.000000 0.000000 0.159644
#
#
# Mechanical properties :
#
#
# Convention : Reuss Voigt Hill
#
# Bulk Modulus (GPa) = 24.87307 45.55977 35.21642
# Shear Modulus (GPa) = 10.94754 15.34079 13.14416
#
# Velocity S-wave (km/s) = 2.70718 3.20467 2.96637
# Velocity P-wave (km/s) = 5.14034 6.64780 5.94207
#
# Compressibility (1/GPa) = 0.04020412
#
# Stress axis : x y z
#
# Youngs Moduli (GPa) = 22.58169 86.23784 38.79813
#
# Poissons Ratio (x) = 0.88171 0.15394
# Poissons Ratio (y) = 0.23088 0.25347
# Poissons Ratio (z) = 0.08960 0.56339
#
# Static dielectric constant tensor:
#      x y z
#    x 1.500260 0.000000 0.000000 
#    y 0.000000 1.551230 0.000000 
#    z 0.000000 0.000000 1.467280 
# 
# From -- ./inp_files/36479.got.cif
#   From: 2010.05.17/outbox.cif.g08.bks.cpg/sg53_19_cif.got.tgz:36479.got - 2010.06.03 12:45:16.
