data_PCOD9419141
_publ_section_title
;
Structure prediction by ZEFSAII (Michael W. Deem and Ramdas Pophale) SiO2 
 PCOD9419141
Probable space group: P M N A
;
_chemical_formula_sum "Si O2"
_cell_formula_units_Z 64
_cell_length_a 23.115571
_cell_length_b 16.627746
_cell_length_c 9.557434
_cell_angle_alpha 90.000000
_cell_angle_beta 90.000000
_cell_angle_gamma 90.000000
_cell_volume 3673.493834
_symmetry_space_group_name_H-M "P M N A"
_symmetry_group_IT_number 53
_symmetry_cell_setting 'orthorhombic'
loop_
_space_group_symop_operation_xyz
x,y,z
1/2-x,-y,1/2+z
x,-y,-z
1/2-x,y,1/2-z
-x,-y,-z
1/2+x,y,1/2-z
-x,y,z
1/2+x,-y,1/2+z
loop_
_atom_site_type_symbol
_atom_site_label
_atom_site_fract_x
_atom_site_fract_y
_atom_site_fract_z
Si Si1 0.625339 0.904809 0.969149
Si Si2 0.932427 0.170333 0.713258
Si Si3 0.124752 0.907098 0.043069
Si Si4 0.070608 0.500753 0.338081
Si Si5 0.069987 0.652673 0.841171
Si Si6 0.748615 0.914775 0.080536
Si Si7 0.570430 0.657629 0.335893
Si Si8 0.568112 0.833464 0.714445
O O1 0.610747 0.886588 0.808964
O O2 0.579765 0.850430 0.053487
O O3 0.688658 0.878381 0.024594
O O4 0.618628 0.000000 0.000000
O O5 0.897279 0.104328 0.800227
O O6 0.912597 0.258287 0.763893
O O7 0.000000 0.163208 0.743537
O O8 0.190588 0.875392 0.036565
O O9 0.081654 0.857836 0.944759
O O10 0.123379 0.000000 0.000000
O O11 0.089000 0.500000 0.500000
O O12 0.089984 0.422260 0.251726
O O13 0.088593 0.581221 0.256094
O O14 0.000000 0.499951 0.338519
O O15 0.082219 0.739104 0.772841
O O16 0.000000 0.647392 0.847858
O O17 0.090079 0.651153 0.002823
O O18 0.750000 0.923794 0.250000
O O19 0.749462 0.000000 0.000000
O O20 0.500000 0.657301 0.338029
O O21 0.500000 0.846986 0.744277
#
# Coordination Sequence:
#
# PCOD9419141 Si02
#       8
#     8   8   8   8   8   8   8   8
#     4  11  24  38  54  75 107 143 185 231 276 315
#     4  11  21  34  52  77 110 147 178 216 270 328
#     4  11  22  36  57  76 104 141 186 230 264 314
#     4   9  17  27  45  70  97 135 177 211 253 312
#     4   9  17  31  47  68 102 139 174 213 256 313
#     4  10  22  39  59  78  98 131 185 241 282 311
#     4   9  17  30  47  69 100 139 177 212 258 315
#     4  11  23  36  52  80 114 147 179 217 269 329
#
# _framework density 17.422107
#
# number of rings (size 3 to 8) (size 9 to 14) (size 15 to 20)
#    0.000    1.875    2.500    1.875    7.000    4.500 
#    0.000    0.000    0.000    0.000    0.000    0.000 
#    0.000    6.000    0.000    0.000    0.000    0.000 
#
# Total GULP energy -356698.463961 kJ/mol
# GULP energy per Si atom -5573.413499 kJ/mol
# Density = 1.738245 g / cm^3
# Si number density = 17.422107 Si / 1000 Ang^3
#
#
#
# Elastic Constant Matrix: (Units=GPa)
#
#
# Indices 1 2 3 4 5 6 
#
# 1 57.2834 13.1013 3.7650 0.0000 0.0000 0.0000
# 2 13.1013 78.2742 8.8081 0.0000 0.0000 0.0000
# 3 3.7650 8.8081 45.5711 0.0000 0.0000 0.0000
# 4 0.0000 0.0000 0.0000 29.0841 0.0000 0.0000
# 5 0.0000 0.0000 0.0000 0.0000 20.4469 0.0000
# 6 0.0000 0.0000 0.0000 0.0000 0.0000 -2.7096
#
#
#
# Elastic Compliance Matrix: (Units=1/GPa)
#
#
# Indices 1 2 3 4 5 6 
#
# 1 0.018191 -0.002940 -0.000935 0.000000 0.000000 0.000000
# 2 -0.002940 0.013535 -0.002373 0.000000 0.000000 0.000000
# 3 -0.000935 -0.002373 0.022480 0.000000 0.000000 0.000000
# 4 0.000000 0.000000 0.000000 0.034383 0.000000 0.000000
# 5 0.000000 0.000000 0.000000 0.000000 0.048907 0.000000
# 6 0.000000 0.000000 0.000000 0.000000 0.000000 -0.369055
#
#
# Mechanical properties :
#
#
# Convention : Reuss Voigt Hill
#
# Bulk Modulus (GPa) = 23.97491 25.83083 24.90287
# Shear Modulus (GPa) = -24.37104 19.72789 -2.32157
#
# Velocity S-wave (km/s) = -3.74419 3.36869 -1.15561
# Velocity P-wave (km/s) = 2.21379 5.47626 3.54179
#
# Compressibility (1/GPa) = 0.04171027
#
# Stress axis : x y z
#
# Youngs Moduli (GPa) = 54.97286 73.88436 44.48471
#
# Poissons Ratio (x) = 0.21719 0.04158
# Poissons Ratio (y) = 0.16159 0.10557
# Poissons Ratio (z) = 0.05138 0.17534
#
# Static dielectric constant tensor:
#      x y z
#    x 1.589590 0.000000 0.000000 
#    y 0.000000 1.591240 0.000000 
#    z 0.000000 0.000000 1.586660 
# 
# From -- ./inp_files/11992.got.cif
#   From: 2010.05.17/outbox.cif.g08.bks.cpg/sg53_6_cif.got.tgz:11992.got - 2010.06.03 12:45:16.
