data_PCOD9419313
_publ_section_title
;
Structure prediction by ZEFSAII (Michael W. Deem and Ramdas Pophale) SiO2 
 PCOD9419313
Probable space group: P M N A
;
_chemical_formula_sum "Si O2"
_cell_formula_units_Z 40
_cell_length_a 22.314187
_cell_length_b 5.114107
_cell_length_c 16.058586
_cell_angle_alpha 90.000000
_cell_angle_beta 90.000000
_cell_angle_gamma 90.000000
_cell_volume 1832.559906
_symmetry_space_group_name_H-M "P M N A"
_symmetry_group_IT_number 53
_symmetry_cell_setting 'orthorhombic'
loop_
_space_group_symop_operation_xyz
x,y,z
1/2-x,-y,1/2+z
x,-y,-z
1/2-x,y,1/2-z
-x,-y,-z
1/2+x,y,1/2-z
-x,y,z
1/2+x,-y,1/2+z
loop_
_atom_site_type_symbol
_atom_site_label
_atom_site_fract_x
_atom_site_fract_y
_atom_site_fract_z
Si Si1 0.719578 0.063612 0.406679
Si Si2 0.157212 0.575489 0.159226
Si Si3 0.566602 0.717654 0.749078
Si Si4 0.564964 0.646195 0.087185
Si Si5 0.836103 0.112223 0.684838
O O1 0.694063 0.349338 0.387111
O O2 0.739998 0.000000 0.500000
O O3 0.669255 0.843371 0.388835
O O4 0.775193 0.015308 0.345083
O O5 0.090186 0.471438 0.175806
O O6 0.177587 0.643167 0.254493
O O7 0.500000 0.823700 0.733576
O O8 0.564055 0.554155 0.835212
O O9 0.618422 0.930334 0.762959
O O10 0.500000 0.788808 0.089147
O O11 0.623451 0.814438 0.105299
O O12 0.569164 0.500000 0.000000
#
# Coordination Sequence:
#
# PCOD9419313 Si02
#       5
#     8   8   8   8   8
#     4  12  28  44  69 101 139 180 225 280 344 404
#     4  11  25  47  68  98 135 175 226 281 333 402
#     4  10  22  41  69  99 131 178 231 279 338 400
#     4   9  20  36  57  93 141 183 223 271 326 396
#     4  11  24  38  69  95 138 174 231 268 338 400
#
# _framework density 21.827390999999999
#
# number of rings (size 3 to 8) (size 9 to 14) (size 15 to 20)
#    0.000    1.400    2.000    1.800   11.200    0.800 
#    0.000    3.000    0.000    3.600    0.000    0.000 
#    0.000    0.000    0.000    0.000    0.000    0.000 
#
# Total GULP energy -223354.301849 kJ/mol
# GULP energy per Si atom -5583.857546 kJ/mol
# Density = 2.177771 g / cm^3
# Si number density = 21.827391 Si / 1000 Ang^3
#
#
#
# Elastic Constant Matrix: (Units=GPa)
#
#
# Indices 1 2 3 4 5 6 
#
# 1 56.9926 22.0342 22.1114 0.0000 0.0000 0.0000
# 2 22.0342 76.9607 4.3691 0.0000 0.0000 0.0000
# 3 22.1114 4.3691 44.4877 0.0000 0.0000 0.0000
# 4 0.0000 0.0000 0.0000 25.6734 0.0000 0.0000
# 5 0.0000 0.0000 0.0000 0.0000 16.2082 0.0000
# 6 0.0000 0.0000 0.0000 0.0000 0.0000 12.4564
#
#
#
# Elastic Compliance Matrix: (Units=1/GPa)
#
#
# Indices 1 2 3 4 5 6 
#
# 1 0.024481 -0.006354 -0.011544 0.000000 0.000000 0.000000
# 2 -0.006354 0.014716 0.001713 0.000000 0.000000 0.000000
# 3 -0.011544 0.001713 0.028047 0.000000 0.000000 0.000000
# 4 0.000000 0.000000 0.000000 0.038951 0.000000 0.000000
# 5 0.000000 0.000000 0.000000 0.000000 0.061697 0.000000
# 6 0.000000 0.000000 0.000000 0.000000 0.000000 0.080280
#
#
# Mechanical properties :
#
#
# Convention : Reuss Voigt Hill
#
# Bulk Modulus (GPa) = 28.67405 30.60780 29.64092
# Shear Modulus (GPa) = 17.11356 19.52937 18.32146
#
# Velocity S-wave (km/s) = 2.80311 2.99443 2.90035
# Velocity P-wave (km/s) = 4.86228 5.09986 4.98249
#
# Compressibility (1/GPa) = 0.03487474
#
# Stress axis : x y z
#
# Youngs Moduli (GPa) = 40.84769 67.95551 35.65392
#
# Poissons Ratio (x) = 0.43177 0.41158
# Poissons Ratio (y) = 0.25954 -0.06107
# Poissons Ratio (z) = 0.47153 -0.11639
#
# Static dielectric constant tensor:
#      x y z
#    x 1.828550 0.000000 0.000000 
#    y 0.000000 1.873020 0.000000 
#    z 0.000000 0.000000 1.811750 
# 
# From -- ./inp_files/24545.got.cif
#   From: 2010.05.17/outbox.cif.g08.bks.cpg/sg53_13_cif.got.tgz:24545.got - 2010.06.03 12:45:16.
