data_PCOD9419524
_publ_section_title
;
Structure prediction by ZEFSAII (Michael W. Deem and Ramdas Pophale) SiO2 
 PCOD9419524
Probable space group: P M N A
;
_chemical_formula_sum "Si O2"
_cell_formula_units_Z 64
_cell_length_a 18.598873
_cell_length_b 5.214926
_cell_length_c 29.808207
_cell_angle_alpha 90.000000
_cell_angle_beta 90.000000
_cell_angle_gamma 90.000000
_cell_volume 2891.150053
_symmetry_space_group_name_H-M "P M N A"
_symmetry_group_IT_number 53
_symmetry_cell_setting 'orthorhombic'
loop_
_space_group_symop_operation_xyz
x,y,z
1/2-x,-y,1/2+z
x,-y,-z
1/2-x,y,1/2-z
-x,-y,-z
1/2+x,y,1/2-z
-x,y,z
1/2+x,-y,1/2+z
loop_
_atom_site_type_symbol
_atom_site_label
_atom_site_fract_x
_atom_site_fract_y
_atom_site_fract_z
Si Si1 0.167982 0.443500 0.892175
Si Si2 0.181223 0.828043 0.753859
Si Si3 0.580983 0.200651 0.776755
Si Si4 0.704758 0.034561 0.446445
Si Si5 0.126687 0.085525 0.551258
Si Si6 0.194332 0.481336 0.669521
Si Si7 0.419739 0.396632 0.099375
Si Si8 0.581946 0.572674 0.689268
O O1 0.162195 0.190819 0.921853
O O2 0.235807 0.406050 0.858113
O O3 0.099094 0.467902 0.859896
O O4 0.184764 0.691374 0.923843
O O5 0.250000 0.020824 0.750000
O O6 0.209584 0.635113 0.715292
O O7 0.150241 0.760217 0.802418
O O8 0.103515 0.914764 0.735087
O O9 0.500000 0.229442 0.791563
O O10 0.640125 0.264013 0.813645
O O11 0.590240 0.367303 0.730590
O O12 0.789331 0.970999 0.438526
O O13 0.693662 0.000000 0.500000
O O14 0.106011 0.374985 0.565533
O O15 0.116935 0.000000 0.500000
O O16 0.079412 0.881012 0.577397
O O17 0.141496 0.631615 0.636638
O O18 0.500000 0.460547 0.115624
O O19 0.500000 0.670748 0.691263
#
# Coordination Sequence:
#
# PCOD9419524 Si02
#       8
#     8   8   8   8   8   8   8   8
#     4  12  24  42  74 103 133 173 224 285 329 404
#     4  11  23  38  65  93 134 178 225 277 326 390
#     4  10  24  41  61  88 137 185 220 276 334 391
#     4  11  24  45  71 101 133 171 219 280 352 413
#     4  11  23  42  63  88 123 165 216 277 336 397
#     4  11  24  39  57  92 126 171 229 269 318 384
#     4  12  25  40  60  88 127 169 218 271 327 395
#     4  10  24  44  65 101 137 177 227 275 341 402
#
# _framework density 22.136517999999999
#
# number of rings (size 3 to 8) (size 9 to 14) (size 15 to 20)
#    0.000    1.000    3.750    1.875    7.000    5.000 
#    0.000    0.000    0.000    2.250    0.000    0.000 
#    0.000    0.000    0.000    0.000    0.000    0.000 
#
# Total GULP energy -356718.162758 kJ/mol
# GULP energy per Si atom -5573.721293 kJ/mol
# Density = 2.208613 g / cm^3
# Si number density = 22.136518 Si / 1000 Ang^3
#
#
#
# Elastic Constant Matrix: (Units=GPa)
#
#
# Indices 1 2 3 4 5 6 
#
# 1 112.3597 -5.3505 28.0669 0.0000 0.0000 0.0000
# 2 -5.3505 49.9823 12.6828 0.0000 0.0000 0.0000
# 3 28.0669 12.6828 89.2260 0.0000 0.0000 0.0000
# 4 0.0000 0.0000 0.0000 23.1878 0.0000 0.0000
# 5 0.0000 0.0000 0.0000 0.0000 -29.9964 0.0000
# 6 0.0000 0.0000 0.0000 0.0000 0.0000 -8.7217
#
#
#
# Elastic Compliance Matrix: (Units=1/GPa)
#
#
# Indices 1 2 3 4 5 6 
#
# 1 0.009831 0.001906 -0.003363 0.000000 0.000000 0.000000
# 2 0.001906 0.021125 -0.003602 0.000000 0.000000 0.000000
# 3 -0.003363 -0.003602 0.012777 0.000000 0.000000 0.000000
# 4 0.000000 0.000000 0.000000 0.043126 0.000000 0.000000
# 5 0.000000 0.000000 0.000000 0.000000 -0.033337 0.000000
# 6 0.000000 0.000000 0.000000 0.000000 0.000000 -0.114657
#
#
# Mechanical properties :
#
#
# Convention : Reuss Voigt Hill
#
# Bulk Modulus (GPa) = 29.74952 35.81849 32.78401
# Shear Modulus (GPa) = -125.59460 11.30521 -57.14470
#
# Velocity S-wave (km/s) = -7.54053 2.26233 -5.08633
# Velocity P-wave (km/s) = 7.89585 4.80000 4.43308
#
# Compressibility (1/GPa) = 0.03361399
#
# Stress axis : x y z
#
# Youngs Moduli (GPa) = 101.72036 47.33689 78.26269
#
# Poissons Ratio (x) = -0.09021 0.26322
# Poissons Ratio (y) = -0.19386 0.28192
# Poissons Ratio (z) = 0.34211 0.17052
#
# Static dielectric constant tensor:
#      x y z
#    x 2.147460 0.000000 0.000000 
#    y 0.000000 2.209170 0.000000 
#    z 0.000000 0.000000 2.046610 
# 
# From -- ./inp_files/39032.got.cif
#   From: 2010.05.17/outbox.cif.g08.bks.cpg/sg53_20_cif.got.tgz:39032.got - 2010.06.03 12:45:16.
