data_PCOD9419489
_publ_section_title
;
Structure prediction by ZEFSAII (Michael W. Deem and Ramdas Pophale) SiO2 
 PCOD9419489
Probable space group: P M N A
;
_chemical_formula_sum "Si O2"
_cell_formula_units_Z 36
_cell_length_a 14.182242
_cell_length_b 10.731839
_cell_length_c 11.474343
_cell_angle_alpha 90.000000
_cell_angle_beta 90.000000
_cell_angle_gamma 90.000000
_cell_volume 1746.412650
_symmetry_space_group_name_H-M "P M N A"
_symmetry_group_IT_number 53
_symmetry_cell_setting 'orthorhombic'
loop_
_space_group_symop_operation_xyz
x,y,z
1/2-x,-y,1/2+z
x,-y,-z
1/2-x,y,1/2-z
-x,-y,-z
1/2+x,y,1/2-z
-x,y,z
1/2+x,-y,1/2+z
loop_
_atom_site_type_symbol
_atom_site_label
_atom_site_fract_x
_atom_site_fract_y
_atom_site_fract_z
Si Si1 0.896148 0.376100 0.074230
Si Si2 0.614529 0.124317 0.567948
Si Si3 0.888259 0.174861 0.414440
Si Si4 0.888695 0.888039 0.332764
Si Si5 0.750000 0.329964 0.250000
O O1 0.818921 0.405740 0.169187
O O2 0.000000 0.348039 0.124950
O O3 0.903784 0.500000 0.000000
O O4 0.868419 0.251785 0.002460
O O5 0.500000 0.112132 0.573861
O O6 0.649304 0.129965 0.701765
O O7 0.649148 0.000000 0.500000
O O8 0.854627 0.180718 0.549643
O O9 0.819826 0.250234 0.330867
O O10 0.000000 0.209889 0.409323
O O11 0.883387 0.033190 0.367728
O O12 0.000000 0.855772 0.326103
#
# Coordination Sequence:
#
# PCOD9419489 Si02
#       5
#     8   8   8   8   4
#     4  10  23  44  65  86 121 165 200 246 311 367
#     4   9  16  31  61  93 116 151 201 246 292 355
#     4   9  18  34  56  85 124 162 194 247 309 358
#     4   8  15  32  55  83 123 160 195 244 306 359
#     4  12  22  38  60  88 114 152 216 248 292 368
#
# _framework density 20.613683999999999
#
# number of rings (size 3 to 8) (size 9 to 14) (size 15 to 20)
#    0.000    2.667    0.000    3.333    0.000    3.556 
#   16.000    0.000    0.000    1.333    0.000    0.000 
#    0.000    0.000    0.000    0.000    0.000    0.000 
#
# Total GULP energy -200805.870523 kJ/mol
# GULP energy per Si atom -5577.940848 kJ/mol
# Density = 2.056677 g / cm^3
# Si number density = 20.613684 Si / 1000 Ang^3
#
#
#
# Elastic Constant Matrix: (Units=GPa)
#
#
# Indices 1 2 3 4 5 6 
#
# 1 99.9020 18.3831 51.0125 0.0000 0.0000 0.0000
# 2 18.3831 59.3483 23.9071 0.0000 0.0000 0.0000
# 3 51.0125 23.9071 132.2596 0.0000 0.0000 0.0000
# 4 0.0000 0.0000 0.0000 20.5570 0.0000 0.0000
# 5 0.0000 0.0000 0.0000 0.0000 35.4076 0.0000
# 6 0.0000 0.0000 0.0000 0.0000 0.0000 128.5207
#
#
#
# Elastic Compliance Matrix: (Units=1/GPa)
#
#
# Indices 1 2 3 4 5 6 
#
# 1 0.012706 -0.002116 -0.004518 0.000000 0.000000 0.000000
# 2 -0.002116 0.018525 -0.002533 0.000000 0.000000 0.000000
# 3 -0.004518 -0.002533 0.009761 0.000000 0.000000 0.000000
# 4 0.000000 0.000000 0.000000 0.048645 0.000000 0.000000
# 5 0.000000 0.000000 0.000000 0.000000 0.028243 0.000000
# 6 0.000000 0.000000 0.000000 0.000000 0.000000 0.007781
#
#
# Mechanical properties :
#
#
# Convention : Reuss Voigt Hill
#
# Bulk Modulus (GPa) = 44.13129 53.12394 48.62761
# Shear Modulus (GPa) = 32.99287 50.11089 41.55188
#
# Velocity S-wave (km/s) = 4.00501 4.93582 4.49457
# Velocity P-wave (km/s) = 6.54538 7.63611 7.11169
#
# Compressibility (1/GPa) = 0.02265966
#
# Stress axis : x y z
#
# Youngs Moduli (GPa) = 78.70101 53.98054 102.44415
#
# Poissons Ratio (x) = 0.11420 0.46288
# Poissons Ratio (y) = 0.16650 0.25945
# Poissons Ratio (z) = 0.35560 0.13671
#
# Static dielectric constant tensor:
#      x y z
#    x 1.816910 0.000000 0.000000 
#    y 0.000000 1.690380 0.000000 
#    z 0.000000 0.000000 1.766880 
# 
# From -- ./inp_files/15703.got.cif
#   From: 2010.05.17/outbox.cif.g08.bks.cpg/sg53_8_cif.got.tgz:15703.got - 2010.06.03 12:45:16.
