data_PCOD9419719
_publ_section_title
;
Structure prediction by ZEFSAII (Michael W. Deem and Ramdas Pophale) SiO2 
 PCOD9419719
Probable space group: P M N A
;
_chemical_formula_sum "Si O2"
_cell_formula_units_Z 56
_cell_length_a 8.593485
_cell_length_b 15.788563
_cell_length_c 23.420742
_cell_angle_alpha 90.000000
_cell_angle_beta 90.000000
_cell_angle_gamma 90.000000
_cell_volume 3177.697685
_symmetry_space_group_name_H-M "P M N A"
_symmetry_group_IT_number 53
_symmetry_cell_setting 'orthorhombic'
loop_
_space_group_symop_operation_xyz
x,y,z
1/2-x,-y,1/2+z
x,-y,-z
1/2-x,y,1/2-z
-x,-y,-z
1/2+x,y,1/2-z
-x,y,z
1/2+x,-y,1/2+z
loop_
_atom_site_type_symbol
_atom_site_label
_atom_site_fract_x
_atom_site_fract_y
_atom_site_fract_z
Si Si1 0.687031 0.654347 0.393806
Si Si2 0.186750 0.002277 0.814735
Si Si3 0.685784 0.598627 0.988182
Si Si4 0.185397 0.509954 0.312074
Si Si5 0.815233 0.655807 0.867143
Si Si6 0.314322 0.173928 0.185045
Si Si7 0.812657 0.189815 0.814409
O O1 0.500000 0.654694 0.398881
O O2 0.762513 0.650046 0.456040
O O3 0.740498 0.571583 0.359045
O O4 0.737372 0.735523 0.356514
O O5 0.250000 0.004405 0.750000
O O6 0.259816 0.916942 0.839765
O O7 0.000000 0.994035 0.814539
O O8 0.229289 0.095756 0.837206
O O9 0.500000 0.603530 0.979792
O O10 0.769616 0.631536 0.931612
O O11 0.725492 0.500000 0.000000
O O12 0.250000 0.533552 0.250000
O O13 0.235353 0.414587 0.327049
O O14 0.000000 0.517694 0.313500
O O15 0.753248 0.747934 0.850236
O O16 0.000000 0.651729 0.859392
O O17 0.250000 0.180176 0.250000
O O18 0.500000 0.177328 0.186936
O O19 0.750000 0.201119 0.750000
O O20 0.000000 0.192535 0.810545
#
# Coordination Sequence:
#
# PCOD9419719 Si02
#       7
#     8   8   8   8   8   8   8
#     4  11  22  37  57  82 110 146 187 228 274 325
#     4   9  16  30  51  78 111 146 182 221 267 322
#     4  11  23  40  60  81 107 142 187 233 276 323
#     4  12  24  38  54  79 112 146 180 223 274 327
#     4  12  24  39  59  81 107 143 184 228 275 327
#     4  11  21  35  55  83 116 147 182 224 273 329
#     4   9  19  33  53  82 115 147 183 225 271 325
#
# _framework density 17.622820999999998
#
# number of rings (size 3 to 8) (size 9 to 14) (size 15 to 20)
#    0.000    1.286    1.429    6.857    0.000    3.429 
#    0.000    0.000    0.000    0.857    0.000    6.000 
#    0.000    0.000    0.000    0.000    0.000    0.000 
#
# Total GULP energy -312847.735319 kJ/mol
# GULP energy per Si atom -5586.566702 kJ/mol
# Density = 1.758271 g / cm^3
# Si number density = 17.622821 Si / 1000 Ang^3
#
#
#
# Elastic Constant Matrix: (Units=GPa)
#
#
# Indices 1 2 3 4 5 6 
#
# 1 53.9749 12.9203 3.3857 0.0000 0.0000 0.0000
# 2 12.9203 105.0012 8.3959 0.0000 0.0000 0.0000
# 3 3.3857 8.3959 52.7384 0.0000 0.0000 0.0000
# 4 0.0000 0.0000 0.0000 5.0802 0.0000 0.0000
# 5 0.0000 0.0000 0.0000 0.0000 28.4051 0.0000
# 6 0.0000 0.0000 0.0000 0.0000 0.0000 23.5057
#
#
#
# Elastic Compliance Matrix: (Units=1/GPa)
#
#
# Indices 1 2 3 4 5 6 
#
# 1 0.019128 -0.002285 -0.000864 0.000000 0.000000 0.000000
# 2 -0.002285 0.009919 -0.001432 0.000000 0.000000 0.000000
# 3 -0.000864 -0.001432 0.019245 0.000000 0.000000 0.000000
# 4 0.000000 0.000000 0.000000 0.196842 0.000000 0.000000
# 5 0.000000 0.000000 0.000000 0.000000 0.035205 0.000000
# 6 0.000000 0.000000 0.000000 0.000000 0.000000 0.042543
#
#
# Mechanical properties :
#
#
# Convention : Reuss Voigt Hill
#
# Bulk Modulus (GPa) = 25.55589 29.01312 27.28450
# Shear Modulus (GPa) = 14.48903 23.86571 19.17737
#
# Velocity S-wave (km/s) = 2.87047 3.68401 3.30238
# Velocity P-wave (km/s) = 5.05165 5.88175 5.48243
#
# Compressibility (1/GPa) = 0.03912993
#
# Stress axis : x y z
#
# Youngs Moduli (GPa) = 52.27874 100.81296 51.96137
#
# Poissons Ratio (x) = 0.23032 0.04491
# Poissons Ratio (y) = 0.11944 0.07443
# Poissons Ratio (z) = 0.04518 0.14441
#
# Static dielectric constant tensor:
#      x y z
#    x 1.587020 0.000000 0.000000 
#    y 0.000000 1.628540 0.000000 
#    z 0.000000 0.000000 1.528520 
# 
# From -- ./inp_files/30869.got.cif
#   From: 2010.05.17/outbox.cif.g08.bks.cpg/sg53_16_cif.got.tgz:30869.got - 2010.06.03 12:45:16.
