data_PCOD9419437
_publ_section_title
;
Structure prediction by ZEFSAII (Michael W. Deem and Ramdas Pophale) SiO2 
 PCOD9419437
Probable space group: P M N A
;
_chemical_formula_sum "Si O2"
_cell_formula_units_Z 60
_cell_length_a 14.061473
_cell_length_b 11.266325
_cell_length_c 18.726156
_cell_angle_alpha 90.000000
_cell_angle_beta 90.000000
_cell_angle_gamma 90.000000
_cell_volume 2966.618697
_symmetry_space_group_name_H-M "P M N A"
_symmetry_group_IT_number 53
_symmetry_cell_setting 'orthorhombic'
loop_
_space_group_symop_operation_xyz
x,y,z
1/2-x,-y,1/2+z
x,-y,-z
1/2-x,y,1/2-z
-x,-y,-z
1/2+x,y,1/2-z
-x,y,z
1/2+x,-y,1/2+z
loop_
_atom_site_type_symbol
_atom_site_label
_atom_site_fract_x
_atom_site_fract_y
_atom_site_fract_z
Si Si1 0.750000 0.406797 0.250000
Si Si2 0.897545 0.772657 0.219331
Si Si3 0.358916 0.962798 0.772218
Si Si4 0.250974 0.264489 0.594086
Si Si5 0.612585 0.861209 0.513844
Si Si6 0.608437 0.951385 0.079404
Si Si7 0.611185 0.575428 0.159186
Si Si8 0.395778 0.244549 0.330318
O O1 0.671235 0.480017 0.204919
O O2 0.811287 0.330129 0.193755
O O3 0.892616 0.908779 0.244463
O O4 0.813300 0.739135 0.166195
O O5 0.894419 0.688559 0.287822
O O6 0.000000 0.754400 0.183068
O O7 0.250000 0.958770 0.750000
O O8 0.375038 0.955822 0.856792
O O9 0.403033 0.853755 0.731071
O O10 0.325203 0.232057 0.531468
O O11 0.181165 0.152774 0.593381
O O12 0.181442 0.378903 0.595745
O O13 0.500000 0.852740 0.496014
O O14 0.623953 0.826100 0.596513
O O15 0.639948 0.000000 0.500000
O O16 0.500000 0.908192 0.085432
O O17 0.621565 0.000000 0.000000
O O18 0.500000 0.543969 0.141944
O O19 0.500000 0.304478 0.337665
#
# Coordination Sequence:
#
# PCOD9419437 Si02
#       8
#     4   8   8   8   8   8   8   8
#     4  12  24  46  68  92 126 178 228 282 330 386
#     4  11  20  34  61  96 128 158 206 271 333 395
#     4  12  21  38  62  91 126 167 213 269 334 404
#     4  12  20  36  60  92 129 166 211 266 331 387
#     4  10  23  41  63  99 142 180 216 266 336 414
#     4  11  24  37  54  87 133 174 208 257 331 406
#     4  11  23  41  66  96 126 165 222 282 332 388
#     4  11  25  43  66  95 131 174 223 274 329 407
#
# _framework density 20.225045999999999
#
# number of rings (size 3 to 8) (size 9 to 14) (size 15 to 20)
#    0.000    0.800    4.667    3.600    1.867    1.067 
#    0.000    0.667    0.000    4.800    0.000    0.000 
#    0.000    0.000    0.000    0.000    0.000    0.000 
#
# Total GULP energy -334994.067063 kJ/mol
# GULP energy per Si atom -5583.234451 kJ/mol
# Density = 2.017901 g / cm^3
# Si number density = 20.225046 Si / 1000 Ang^3
#
#
#
# Elastic Constant Matrix: (Units=GPa)
#
#
# Indices 1 2 3 4 5 6 
#
# 1 172.3104 39.4280 40.4126 0.0000 0.0000 0.0000
# 2 39.4280 61.2721 14.3353 0.0000 0.0000 0.0000
# 3 40.4126 14.3353 101.5028 0.0000 0.0000 0.0000
# 4 0.0000 0.0000 0.0000 14.1325 0.0000 0.0000
# 5 0.0000 0.0000 0.0000 0.0000 41.3448 0.0000
# 6 0.0000 0.0000 0.0000 0.0000 0.0000 -7.4236
#
#
#
# Elastic Compliance Matrix: (Units=1/GPa)
#
#
# Indices 1 2 3 4 5 6 
#
# 1 0.007298 -0.004153 -0.002319 0.000000 0.000000 0.000000
# 2 -0.004153 0.019242 -0.001064 0.000000 0.000000 0.000000
# 3 -0.002319 -0.001064 0.010925 0.000000 0.000000 0.000000
# 4 0.000000 0.000000 0.000000 0.070759 0.000000 0.000000
# 5 0.000000 0.000000 0.000000 0.000000 0.024187 0.000000
# 6 0.000000 0.000000 0.000000 0.000000 0.000000 -0.134705
#
#
# Mechanical properties :
#
#
# Convention : Reuss Voigt Hill
#
# Bulk Modulus (GPa) = 44.65719 58.15968 51.40843
# Shear Modulus (GPa) = 246.99656 25.67136 136.33396
#
# Velocity S-wave (km/s) = 11.06297 3.56657 8.21917
# Velocity P-wave (km/s) = 13.61300 6.76604 10.74925
#
# Compressibility (1/GPa) = 0.02239281
#
# Stress axis : x y z
#
# Youngs Moduli (GPa) = 137.02853 51.96889 91.52921
#
# Poissons Ratio (x) = 0.21585 0.21225
# Poissons Ratio (y) = 0.56915 0.09738
# Poissons Ratio (z) = 0.31776 0.05529
#
# Static dielectric constant tensor:
#      x y z
#    x 1.840910 0.000000 0.000000 
#    y 0.000000 1.702950 0.000000 
#    z 0.000000 0.000000 1.711460 
# 
# From -- ./inp_files/28464.got.cif
#   From: 2010.05.17/outbox.cif.g08.bks.cpg/sg53_15_cif.got.tgz:28464.got - 2010.06.03 12:45:16.
