data_PCOD9419078
_publ_section_title
;
Structure prediction by ZEFSAII (Michael W. Deem and Ramdas Pophale) SiO2 
 PCOD9419078
Probable space group: P M N A
;
_chemical_formula_sum "Si O2"
_cell_formula_units_Z 64
_cell_length_a 16.196734
_cell_length_b 16.023627
_cell_length_c 12.022661
_cell_angle_alpha 90.000000
_cell_angle_beta 90.000000
_cell_angle_gamma 90.000000
_cell_volume 3120.246310
_symmetry_space_group_name_H-M "P M N A"
_symmetry_group_IT_number 53
_symmetry_cell_setting 'orthorhombic'
loop_
_space_group_symop_operation_xyz
x,y,z
1/2-x,-y,1/2+z
x,-y,-z
1/2-x,y,1/2-z
-x,-y,-z
1/2+x,y,1/2-z
-x,y,z
1/2+x,-y,1/2+z
loop_
_atom_site_type_symbol
_atom_site_label
_atom_site_fract_x
_atom_site_fract_y
_atom_site_fract_z
Si Si1 0.908801 0.099194 0.512245
Si Si2 0.908858 0.466685 0.377334
Si Si3 0.243905 0.350451 0.380807
Si Si4 0.091739 0.834699 0.010562
Si Si5 0.847059 0.815743 0.262073
Si Si6 0.909459 0.364770 0.013027
Si Si7 0.596935 0.370578 0.750311
Si Si8 0.751924 0.838708 0.616068
O O1 0.884680 0.132366 0.635416
O O2 0.835292 0.122589 0.429778
O O3 0.000000 0.134315 0.484615
O O4 0.914175 0.000000 0.500000
O O5 0.920744 0.500000 0.500000
O O6 0.842227 0.395547 0.394811
O O7 0.873522 0.544064 0.306230
O O8 0.000000 0.441543 0.332729
O O9 0.250000 0.341252 0.250000
O O10 0.327151 0.394433 0.424876
O O11 0.242448 0.257024 0.426796
O O12 0.110931 0.835530 0.142733
O O13 0.087860 0.736297 0.976448
O O14 0.000000 0.869856 0.989778
O O15 0.167639 0.872710 0.940352
O O16 0.750000 0.833203 0.250000
O O17 0.859407 0.716059 0.282334
O O18 0.899205 0.380694 0.882274
O O19 0.000000 0.397125 0.049342
O O20 0.500000 0.361559 0.781292
O O21 0.750000 0.843523 0.750000
#
# Coordination Sequence:
#
# PCOD9419078 Si02
#       8
#     8   8   8   8   8   8   8   8
#     4  11  25  43  64  93 129 165 200 249 314 378
#     4  10  23  38  52  79 121 161 197 244 298 351
#     4  10  22  37  57  83 114 157 203 242 293 355
#     4   9  17  34  61  94 126 153 195 258 315 366
#     4  11  20  35  66  99 124 157 202 258 316 368
#     4   8  16  33  58  85 112 143 189 251 307 351
#     4   9  19  36  59  88 118 151 198 255 311 364
#     4  10  22  41  62  90 124 165 215 254 299 374
#
# _framework density 20.511202000000001
#
# number of rings (size 3 to 8) (size 9 to 14) (size 15 to 20)
#    0.000    2.250    1.250    1.875    1.750    3.500 
#    0.000    2.500    0.000    3.000    0.000    0.000 
#    0.000    0.000    0.000    0.000    0.000    0.000 
#
# Total GULP energy -356922.407789 kJ/mol
# GULP energy per Si atom -5576.912622 kJ/mol
# Density = 2.046452 g / cm^3
# Si number density = 20.511202 Si / 1000 Ang^3
#
#
#
# Elastic Constant Matrix: (Units=GPa)
#
#
# Indices 1 2 3 4 5 6 
#
# 1 179.9322 49.6840 52.2676 0.0000 0.0000 0.0000
# 2 49.6840 34.6950 19.8523 0.0000 0.0000 0.0000
# 3 52.2676 19.8523 59.1671 0.0000 0.0000 0.0000
# 4 0.0000 0.0000 0.0000 5.7383 0.0000 0.0000
# 5 0.0000 0.0000 0.0000 0.0000 28.4133 0.0000
# 6 0.0000 0.0000 0.0000 0.0000 0.0000 8.8831
#
#
#
# Elastic Compliance Matrix: (Units=1/GPa)
#
#
# Indices 1 2 3 4 5 6 
#
# 1 0.010320 -0.011834 -0.005146 0.000000 0.000000 0.000000
# 2 -0.011834 0.049241 -0.006068 0.000000 0.000000 0.000000
# 3 -0.005146 -0.006068 0.023483 0.000000 0.000000 0.000000
# 4 0.000000 0.000000 0.000000 0.174267 0.000000 0.000000
# 5 0.000000 0.000000 0.000000 0.000000 0.035195 0.000000
# 6 0.000000 0.000000 0.000000 0.000000 0.000000 0.112573
#
#
# Mechanical properties :
#
#
# Convention : Reuss Voigt Hill
#
# Bulk Modulus (GPa) = 27.06452 57.48913 42.27683
# Shear Modulus (GPa) = 10.78769 18.73964 14.76366
#
# Velocity S-wave (km/s) = 2.29583 3.02591 2.68579
# Velocity P-wave (km/s) = 4.50016 6.34801 5.50221
#
# Compressibility (1/GPa) = 0.03694874
#
# Stress axis : x y z
#
# Youngs Moduli (GPa) = 96.89692 20.30814 42.58369
#
# Poissons Ratio (x) = 0.24033 0.21914
# Poissons Ratio (y) = 1.14670 0.25839
# Poissons Ratio (z) = 0.49864 0.12322
#
# Static dielectric constant tensor:
#      x y z
#    x 2.686270 0.000000 0.000000 
#    y 0.000000 1.447350 0.000000 
#    z 0.000000 0.000000 1.706490 
# 
# From -- ./inp_files/16239.got.cif
#   From: 2010.05.17/outbox.cif.g08.bks.cpg/sg53_9_cif.got.tgz:16239.got - 2010.06.03 12:45:16.
