data_PCOD9419064
_publ_section_title
;
Structure prediction by ZEFSAII (Michael W. Deem and Ramdas Pophale) SiO2 
 PCOD9419064
Probable space group: P M N A
;
_chemical_formula_sum "Si O2"
_cell_formula_units_Z 56
_cell_length_a 17.197968
_cell_length_b 12.631746
_cell_length_c 13.540153
_cell_angle_alpha 90.000000
_cell_angle_beta 90.000000
_cell_angle_gamma 90.000000
_cell_volume 2941.467759
_symmetry_space_group_name_H-M "P M N A"
_symmetry_group_IT_number 53
_symmetry_cell_setting 'orthorhombic'
loop_
_space_group_symop_operation_xyz
x,y,z
1/2-x,-y,1/2+z
x,-y,-z
1/2-x,y,1/2-z
-x,-y,-z
1/2+x,y,1/2-z
-x,y,z
1/2+x,-y,1/2+z
loop_
_atom_site_type_symbol
_atom_site_label
_atom_site_fract_x
_atom_site_fract_y
_atom_site_fract_z
Si Si1 0.657755 0.646250 0.249797
Si Si2 0.682739 0.746935 0.668189
Si Si3 0.189454 0.189061 0.476667
Si Si4 0.409724 0.093206 0.194879
Si Si5 0.910581 0.379494 0.533213
Si Si6 0.908713 0.466279 0.112789
Si Si7 0.830292 0.881140 0.294983
O O1 0.750000 0.624552 0.250000
O O2 0.618992 0.624251 0.144693
O O3 0.617611 0.568147 0.325409
O O4 0.650262 0.772733 0.262864
O O5 0.750000 0.726812 0.750000
O O6 0.726019 0.794760 0.571750
O O7 0.625609 0.831623 0.719887
O O8 0.639707 0.637895 0.642034
O O9 0.140005 0.115079 0.404097
O O10 0.145885 0.302502 0.473310
O O11 0.184882 0.149983 0.589912
O O12 0.500000 0.116351 0.179760
O O13 0.395010 0.969969 0.216656
O O14 0.906738 0.500000 0.500000
O O15 0.000000 0.342481 0.525724
O O16 0.000000 0.445079 0.129258
O O17 0.896352 0.500000 0.000000
O O18 0.750000 0.924869 0.250000
#
# Coordination Sequence:
#
# PCOD9419064 Si02
#       7
#     8   8   8   8   8   8   8
#     4  10  23  38  61  89 119 164 205 252 306 371
#     4  10  23  41  64  93 121 163 207 258 308 371
#     4  10  22  38  64  93 120 162 207 255 307 373
#     4  11  23  40  64  92 126 161 203 258 314 375
#     4  10  22  36  56  89 126 157 192 251 316 367
#     4  11  25  40  61  88 124 166 206 256 307 372
#     4  10  22  40  63  92 120 161 206 257 311 364
#
# _framework density 19.038115000000001
#
# number of rings (size 3 to 8) (size 9 to 14) (size 15 to 20)
#    0.000    1.714    0.000    3.429   12.000    4.000 
#    0.000    0.000    0.000    0.857    0.000    0.000 
#    0.000    0.000    0.000    0.000    0.000    0.000 
#
# Total GULP energy -312785.036156 kJ/mol
# GULP energy per Si atom -5585.447074 kJ/mol
# Density = 1.899478 g / cm^3
# Si number density = 19.038115 Si / 1000 Ang^3
#
#
#
# Elastic Constant Matrix: (Units=GPa)
#
#
# Indices 1 2 3 4 5 6 
#
# 1 36.1427 25.0697 33.4958 0.0000 0.0000 0.0000
# 2 25.0697 68.9330 32.2096 0.0000 0.0000 0.0000
# 3 33.4958 32.2096 43.6550 0.0000 0.0000 0.0000
# 4 0.0000 0.0000 0.0000 23.2334 0.0000 0.0000
# 5 0.0000 0.0000 0.0000 0.0000 31.2016 0.0000
# 6 0.0000 0.0000 0.0000 0.0000 0.0000 -1.9081
#
#
#
# Elastic Compliance Matrix: (Units=1/GPa)
#
#
# Indices 1 2 3 4 5 6 
#
# 1 0.095794 -0.000754 -0.072944 0.000000 0.000000 0.000000
# 2 -0.000754 0.022145 -0.015761 0.000000 0.000000 0.000000
# 3 -0.072944 -0.015761 0.090504 0.000000 0.000000 0.000000
# 4 0.000000 0.000000 0.000000 0.043041 0.000000 0.000000
# 5 0.000000 0.000000 0.000000 0.000000 0.032050 0.000000
# 6 0.000000 0.000000 0.000000 0.000000 0.000000 -0.524069
#
#
# Mechanical properties :
#
#
# Convention : Reuss Voigt Hill
#
# Bulk Modulus (GPa) = 33.86971 36.69785 35.28378
# Shear Modulus (GPa) = -96.57293 14.36909 -41.10192
#
# Velocity S-wave (km/s) = -7.12995 2.75026 -4.65147
# Velocity P-wave (km/s) = 7.06771 5.42246 3.20542
#
# Compressibility (1/GPa) = 0.02952490
#
# Stress axis : x y z
#
# Youngs Moduli (GPa) = 10.43912 45.15592 11.04919
#
# Poissons Ratio (x) = 0.03407 0.80597
# Poissons Ratio (y) = 0.00788 0.17414
# Poissons Ratio (z) = 0.76147 0.71168
#
# Static dielectric constant tensor:
#      x y z
#    x 1.735180 0.000000 0.000000 
#    y 0.000000 1.719940 0.000000 
#    z 0.000000 0.000000 1.680810 
# 
# From -- ./inp_files/22824.got.cif
#   From: 2010.05.17/outbox.cif.g08.bks.cpg/sg53_12_cif.got.tgz:22824.got - 2010.06.03 12:45:16.
