data_PCOD9419335
_publ_section_title
;
Structure prediction by ZEFSAII (Michael W. Deem and Ramdas Pophale) SiO2 
 PCOD9419335
Probable space group: P M N A
;
_chemical_formula_sum "Si O2"
_cell_formula_units_Z 48
_cell_length_a 27.889523
_cell_length_b 8.656799
_cell_length_c 9.557987
_cell_angle_alpha 90.000000
_cell_angle_beta 90.000000
_cell_angle_gamma 90.000000
_cell_volume 2307.622984
_symmetry_space_group_name_H-M "P M N A"
_symmetry_group_IT_number 53
_symmetry_cell_setting 'orthorhombic'
loop_
_space_group_symop_operation_xyz
x,y,z
1/2-x,-y,1/2+z
x,-y,-z
1/2-x,y,1/2-z
-x,-y,-z
1/2+x,y,1/2-z
-x,y,z
1/2+x,-y,1/2+z
loop_
_atom_site_type_symbol
_atom_site_label
_atom_site_fract_x
_atom_site_fract_y
_atom_site_fract_z
Si Si1 0.304137 0.162537 0.421241
Si Si2 0.943496 0.831139 0.801876
Si Si3 0.806930 0.158600 0.413272
Si Si4 0.556474 0.178949 0.788010
Si Si5 0.598256 0.673568 0.953824
Si Si6 0.893710 0.674567 0.043310
O O1 0.313696 0.140427 0.254978
O O2 0.248267 0.206656 0.435763
O O3 0.340171 0.282065 0.494200
O O4 0.311160 0.000000 0.500000
O O5 0.917558 0.707505 0.703671
O O6 0.926750 0.794706 0.957514
O O7 0.000000 0.813224 0.789878
O O8 0.931122 0.003483 0.752484
O O9 0.846246 0.279235 0.465729
O O10 0.814229 0.000000 0.500000
O O11 0.500000 0.205609 0.757326
O O12 0.591793 0.291509 0.702157
O O13 0.566892 0.212869 0.949478
O O14 0.589376 0.500000 0.000000
O O15 0.904587 0.500000 0.000000
#
# Coordination Sequence:
#
# PCOD9419335 Si02
#       6
#     8   8   8   8   8   8
#     4  10  22  42  68  96 126 164 211 259 310 374
#     4  11  23  43  66  89 122 167 219 262 308 373
#     4  10  22  42  68  96 126 164 211 259 310 374
#     4  11  25  43  66  93 124 169 217 260 306 371
#     4  12  25  40  63  96 131 166 204 260 324 374
#     4  12  25  40  63  96 131 166 204 260 324 374
#
# _framework density 20.800623000000002
#
# number of rings (size 3 to 8) (size 9 to 14) (size 15 to 20)
#    0.000    1.000    1.667    5.000    2.333    7.333 
#    0.000    0.000    0.000    0.000    0.000    0.000 
#    0.000    0.000    0.000    0.000    0.000    0.000 
#
# Total GULP energy -268458.816066 kJ/mol
# GULP energy per Si atom -5592.892001 kJ/mol
# Density = 2.075328 g / cm^3
# Si number density = 20.800623 Si / 1000 Ang^3
#
#
#
# Elastic Constant Matrix: (Units=GPa)
#
#
# Indices 1 2 3 4 5 6 
#
# 1 80.9358 21.3421 0.5450 0.0000 0.0000 0.0000
# 2 21.3421 62.7296 -4.9786 0.0000 0.0000 0.0000
# 3 0.5450 -4.9786 56.4190 0.0000 0.0000 0.0000
# 4 0.0000 0.0000 0.0000 29.2653 0.0000 0.0000
# 5 0.0000 0.0000 0.0000 0.0000 35.6346 0.0000
# 6 0.0000 0.0000 0.0000 0.0000 0.0000 -20.9028
#
#
#
# Elastic Compliance Matrix: (Units=1/GPa)
#
#
# Indices 1 2 3 4 5 6 
#
# 1 0.013590 -0.004667 -0.000543 0.000000 0.000000 0.000000
# 2 -0.004667 0.017656 0.001603 0.000000 0.000000 0.000000
# 3 -0.000543 0.001603 0.017871 0.000000 0.000000 0.000000
# 4 0.000000 0.000000 0.000000 0.034170 0.000000 0.000000
# 5 0.000000 0.000000 0.000000 0.000000 0.028063 0.000000
# 6 0.000000 0.000000 0.000000 0.000000 0.000000 -0.047840
#
#
# Mechanical properties :
#
#
# Convention : Reuss Voigt Hill
#
# Bulk Modulus (GPa) = 23.86401 25.98906 24.92654
# Shear Modulus (GPa) = 59.03827 21.01114 40.02471
#
# Velocity S-wave (km/s) = 5.33334 3.18169 4.39134
# Velocity P-wave (km/s) = 7.03020 5.10088 6.14177
#
# Compressibility (1/GPa) = 0.04190410
#
# Stress axis : x y z
#
# Youngs Moduli (GPa) = 73.58516 56.63675 55.95586
#
# Poissons Ratio (x) = 0.26430 0.03039
# Poissons Ratio (y) = 0.34340 -0.08970
# Poissons Ratio (z) = 0.03996 -0.09080
#
# Static dielectric constant tensor:
#      x y z
#    x 1.738130 0.000000 0.000000 
#    y 0.000000 1.698910 0.000000 
#    z 0.000000 0.000000 1.703720 
# 
# From -- ./inp_files/12976.got.cif
#   From: 2010.05.17/outbox.cif.g08.bks.cpg/sg53_7_cif.got.tgz:12976.got - 2010.06.03 12:45:16.
