data_PCOD9419328
_publ_section_title
;
Structure prediction by ZEFSAII (Michael W. Deem and Ramdas Pophale) SiO2 
 PCOD9419328
Probable space group: P M N A
;
_chemical_formula_sum "Si O2"
_cell_formula_units_Z 40
_cell_length_a 15.237273
_cell_length_b 15.047002
_cell_length_c 8.699844
_cell_angle_alpha 90.000000
_cell_angle_beta 90.000000
_cell_angle_gamma 90.000000
_cell_volume 1994.659146
_symmetry_space_group_name_H-M "P M N A"
_symmetry_group_IT_number 53
_symmetry_cell_setting 'orthorhombic'
loop_
_space_group_symop_operation_xyz
x,y,z
1/2-x,-y,1/2+z
x,-y,-z
1/2-x,y,1/2-z
-x,-y,-z
1/2+x,y,1/2-z
-x,y,z
1/2+x,-y,1/2+z
loop_
_atom_site_type_symbol
_atom_site_label
_atom_site_fract_x
_atom_site_fract_y
_atom_site_fract_z
Si Si1 0.330325 0.921560 0.624076
Si Si2 0.597810 0.912401 0.933546
Si Si3 0.103000 0.733420 0.939614
Si Si4 0.396808 0.713424 0.928216
Si Si5 0.758366 0.598031 0.068229
O O1 0.250000 0.919597 0.750000
O O2 0.406901 0.926245 0.750994
O O3 0.347313 0.827628 0.541689
O O4 0.330317 0.000000 0.500000
O O5 0.500000 0.909889 0.000110
O O6 0.633204 0.814449 0.969095
O O7 0.643082 0.000000 0.000000
O O8 0.106941 0.711336 0.757224
O O9 0.000000 0.739215 0.982805
O O10 0.157935 0.658369 0.025520
O O11 0.500000 0.701346 0.971102
O O12 0.328933 0.644549 0.998999
O O13 0.750000 0.592696 0.250000
O O14 0.768070 0.500000 0.000000
#
# Coordination Sequence:
#
# PCOD9419328 Si02
#       5
#     8   8   8   8   8
#     4  11  22  35  56  87 125 165 207 250 301 360
#     4   9  18  34  56  82 117 159 200 243 292 352
#     4  10  22  42  66  89 121 165 212 262 312 367
#     4   9  19  39  65  91 123 164 206 253 311 371
#     4  12  26  43  65  91 122 157 200 259 320 384
#
# _framework density 20.053550999999999
#
# number of rings (size 3 to 8) (size 9 to 14) (size 15 to 20)
#    0.000    1.800    0.000    6.600    0.000    5.600 
#    0.000    2.000    0.000    0.000    0.000    0.000 
#    0.000    0.000    0.000    0.000    0.000    0.000 
#
# Total GULP energy -223006.422954 kJ/mol
# GULP energy per Si atom -5575.160574 kJ/mol
# Density = 2.000791 g / cm^3
# Si number density = 20.053551 Si / 1000 Ang^3
#
#
#
# Elastic Constant Matrix: (Units=GPa)
#
#
# Indices 1 2 3 4 5 6 
#
# 1 135.5580 74.7374 41.7812 0.0000 0.0000 0.0000
# 2 74.7374 205.8185 80.0827 0.0000 0.0000 0.0000
# 3 41.7812 80.0827 65.6563 0.0000 0.0000 0.0000
# 4 0.0000 0.0000 0.0000 40.6533 0.0000 0.0000
# 5 0.0000 0.0000 0.0000 0.0000 15.2261 0.0000
# 6 0.0000 0.0000 0.0000 0.0000 0.0000 -5.5818
#
#
#
# Elastic Compliance Matrix: (Units=1/GPa)
#
#
# Indices 1 2 3 4 5 6 
#
# 1 0.009639 -0.002119 -0.003549 0.000000 0.000000 0.000000
# 2 -0.002119 0.009713 -0.010499 0.000000 0.000000 0.000000
# 3 -0.003549 -0.010499 0.030295 0.000000 0.000000 0.000000
# 4 0.000000 0.000000 0.000000 0.024598 0.000000 0.000000
# 5 0.000000 0.000000 0.000000 0.000000 0.065677 0.000000
# 6 0.000000 0.000000 0.000000 0.000000 0.000000 -0.179154
#
#
# Mechanical properties :
#
#
# Convention : Reuss Voigt Hill
#
# Bulk Modulus (GPa) = 57.75980 88.91504 73.33742
# Shear Modulus (GPa) = -4441.65676 24.08828 -2208.78424
#
# Velocity S-wave (km/s) = -47.11376 3.46959 -33.22400
# Velocity P-wave (km/s) = 54.13634 7.77726 37.88309
#
# Compressibility (1/GPa) = 0.01731308
#
# Stress axis : x y z
#
# Youngs Moduli (GPa) = 103.74257 102.95198 33.00863
#
# Poissons Ratio (x) = 0.21819 0.11715
# Poissons Ratio (y) = 0.21986 0.34655
# Poissons Ratio (z) = 0.36819 1.08088
#
# Static dielectric constant tensor:
#      x y z
#    x 1.822330 0.000000 0.000000 
#    y 0.000000 1.722220 0.000000 
#    z 0.000000 0.000000 1.688370 
# 
# From -- ./inp_files/8402.got.cif
#   From: 2010.05.17/outbox.cif.g08.bks.cpg/sg53_5_cif.got.tgz:8402.got - 2010.06.03 12:45:16.
