data_PCOD9419740
_publ_section_title
;
Structure prediction by ZEFSAII (Michael W. Deem and Ramdas Pophale) SiO2 
 PCOD9419740
Probable space group: P M N A
;
_chemical_formula_sum "Si O2"
_cell_formula_units_Z 48
_cell_length_a 27.334399
_cell_length_b 8.236697
_cell_length_c 10.220360
_cell_angle_alpha 90.000000
_cell_angle_beta 90.000000
_cell_angle_gamma 90.000000
_cell_volume 2301.064610
_symmetry_space_group_name_H-M "P M N A"
_symmetry_group_IT_number 53
_symmetry_cell_setting 'orthorhombic'
loop_
_space_group_symop_operation_xyz
x,y,z
1/2-x,-y,1/2+z
x,-y,-z
1/2-x,y,1/2-z
-x,-y,-z
1/2+x,y,1/2-z
-x,y,z
1/2+x,-y,1/2+z
loop_
_atom_site_type_symbol
_atom_site_label
_atom_site_fract_x
_atom_site_fract_y
_atom_site_fract_z
Si Si1 0.214647 0.500000 0.000000
Si Si2 0.155608 0.853422 0.714799
Si Si3 0.849249 0.527051 0.240592
Si Si4 0.555250 0.465673 0.147332
Si Si5 0.704920 0.268886 0.964539
Si Si6 0.750000 0.960920 0.250000
Si Si7 0.945665 0.928173 0.647365
O O1 0.181029 0.425139 0.887049
O O2 0.253252 0.363221 0.046280
O O3 0.152224 0.668902 0.763403
O O4 0.168867 0.822884 0.561915
O O5 0.105771 0.958595 0.721352
O O6 0.201826 0.936439 0.781260
O O7 0.907216 0.553153 0.255490
O O8 0.823790 0.609264 0.366580
O O9 0.500000 0.526030 0.162526
O O10 0.554129 0.269462 0.152582
O O11 0.572390 0.500000 0.000000
O O12 0.733269 0.147016 0.871035
O O13 0.000000 0.980131 0.696466
O O14 0.942106 0.000000 0.500000
#
# Coordination Sequence:
#
# PCOD9419740 Si02
#       7
#     4   8   8   8   8   4   8
#     4  12  22  36  55  74 107 150 198 220 268 350
#     4  11  22  36  56  83 116 147 182 240 288 331
#     4  11  21  37  58  78 108 155 188 228 281 343
#     4   9  18  33  56  85 109 136 182 236 283 327
#     4  12  22  38  56  80 110 152 192 231 280 350
#     4  12  24  34  52  86 116 144 184 236 290 342
#     4   9  17  31  51  78 111 144 174 214 278 344
#
# _framework density 20.859908999999998
#
# number of rings (size 3 to 8) (size 9 to 14) (size 15 to 20)
#    0.000    1.333    3.333    4.500    0.000    0.000 
#    0.000    0.417    0.000    0.000    0.000    0.000 
#    0.000    8.000    0.000    0.000    0.000    0.000 
#
# Total GULP energy -267644.520899 kJ/mol
# GULP energy per Si atom -5575.927519 kJ/mol
# Density = 2.081243 g / cm^3
# Si number density = 20.859909 Si / 1000 Ang^3
#
#
#
# Elastic Constant Matrix: (Units=GPa)
#
#
# Indices 1 2 3 4 5 6 
#
# 1 169.4574 22.5221 21.4538 0.0000 0.0000 0.0000
# 2 22.5221 28.2852 -8.9632 0.0000 0.0000 0.0000
# 3 21.4538 -8.9632 25.5026 0.0000 0.0000 0.0000
# 4 0.0000 0.0000 0.0000 28.8233 0.0000 0.0000
# 5 0.0000 0.0000 0.0000 0.0000 30.8758 0.0000
# 6 0.0000 0.0000 0.0000 0.0000 0.0000 12.4906
#
#
#
# Elastic Compliance Matrix: (Units=1/GPa)
#
#
# Indices 1 2 3 4 5 6 
#
# 1 0.008661 -0.010359 -0.010927 0.000000 0.000000 0.000000
# 2 -0.010359 0.052175 0.027053 0.000000 0.000000 0.000000
# 3 -0.010927 0.027053 0.057912 0.000000 0.000000 0.000000
# 4 0.000000 0.000000 0.000000 0.034694 0.000000 0.000000
# 5 0.000000 0.000000 0.000000 0.000000 0.032388 0.000000
# 6 0.000000 0.000000 0.000000 0.000000 0.000000 0.080060
#
#
# Mechanical properties :
#
#
# Convention : Reuss Voigt Hill
#
# Bulk Modulus (GPa) = 7.67574 32.58564 20.13069
# Shear Modulus (GPa) = 16.79055 26.98678 21.88866
#
# Velocity S-wave (km/s) = 2.84019 3.60073 3.24283
# Velocity P-wave (km/s) = 3.80042 5.73952 4.86751
#
# Compressibility (1/GPa) = 0.13028058
#
# Stress axis : x y z
#
# Youngs Moduli (GPa) = 115.45383 19.16610 17.26753
#
# Poissons Ratio (x) = 0.19855 0.18869
# Poissons Ratio (y) = 1.19604 -0.46713
# Poissons Ratio (z) = 1.26160 -0.51849
#
# Static dielectric constant tensor:
#      x y z
#    x 1.829540 0.000000 0.000000 
#    y 0.000000 1.821380 0.000000 
#    z 0.000000 0.000000 1.748500 
# 
# From -- ./inp_files/13098.got.cif
#   From: 2010.05.17/outbox.cif.g08.bks.cpg/sg53_7_cif.got.tgz:13098.got - 2010.06.03 12:45:16.
