data_PCOD9419490
_publ_section_title
;
Structure prediction by ZEFSAII (Michael W. Deem and Ramdas Pophale) SiO2 
 PCOD9419490
Probable space group: P M N A
;
_chemical_formula_sum "Si O2"
_cell_formula_units_Z 32
_cell_length_a 16.559761
_cell_length_b 12.315646
_cell_length_c 7.824668
_cell_angle_alpha 90.000000
_cell_angle_beta 90.000000
_cell_angle_gamma 90.000000
_cell_volume 1595.795298
_symmetry_space_group_name_H-M "P M N A"
_symmetry_group_IT_number 53
_symmetry_cell_setting 'orthorhombic'
loop_
_space_group_symop_operation_xyz
x,y,z
1/2-x,-y,1/2+z
x,-y,-z
1/2-x,y,1/2-z
-x,-y,-z
1/2+x,y,1/2-z
-x,y,z
1/2+x,-y,1/2+z
loop_
_atom_site_type_symbol
_atom_site_label
_atom_site_fract_x
_atom_site_fract_y
_atom_site_fract_z
Si Si1 0.904355 0.262754 0.328758
Si Si2 0.596735 0.122848 0.494844
Si Si3 0.155141 0.507474 0.795912
Si Si4 0.656212 0.730894 0.198928
O O1 0.889352 0.387687 0.276961
O O2 0.858668 0.236789 0.504083
O O3 0.000000 0.245132 0.354531
O O4 0.874430 0.189867 0.170352
O O5 0.500000 0.117334 0.478693
O O6 0.615729 0.188734 0.666324
O O7 0.628730 0.000000 0.500000
O O8 0.250000 0.519935 0.750000
O O9 0.125496 0.392960 0.720528
O O10 0.147081 0.500000 0.000000
O O11 0.750000 0.727763 0.250000
#
# Coordination Sequence:
#
# PCOD9419490 Si02
#       4
#     8   8   8   8
#     4  11  24  40  65  95 126 167 211 258 312 375
#     4  10  23  44  65  90 126 167 212 262 311 363
#     4  11  21  38  62  92 130 167 204 256 322 379
#     4  11  23  41  63  93 127 167 207 259 316 376
#
# _framework density 20.052696000000001
#
# number of rings (size 3 to 8) (size 9 to 14) (size 15 to 20)
#    0.000    1.250    2.500    4.500    0.000    4.500 
#    4.500    3.750    0.000    0.000    0.000    0.000 
#    0.000    0.000    0.000    0.000    0.000    0.000 
#
# Total GULP energy -178915.426688 kJ/mol
# GULP energy per Si atom -5591.107084 kJ/mol
# Density = 2.000706 g / cm^3
# Si number density = 20.052696 Si / 1000 Ang^3
#
#
#
# Elastic Constant Matrix: (Units=GPa)
#
#
# Indices 1 2 3 4 5 6 
#
# 1 23.8388 13.2667 18.9729 0.0000 0.0000 0.0000
# 2 13.2667 152.5153 70.3886 0.0000 0.0000 0.0000
# 3 18.9729 70.3886 195.4312 0.0000 0.0000 0.0000
# 4 0.0000 0.0000 0.0000 -8.9760 0.0000 0.0000
# 5 0.0000 0.0000 0.0000 0.0000 33.3376 0.0000
# 6 0.0000 0.0000 0.0000 0.0000 0.0000 37.4645
#
#
#
# Elastic Compliance Matrix: (Units=1/GPa)
#
#
# Indices 1 2 3 4 5 6 
#
# 1 0.046144 -0.002334 -0.003639 0.000000 0.000000 0.000000
# 2 -0.002334 0.007982 -0.002648 0.000000 0.000000 0.000000
# 3 -0.003639 -0.002648 0.006424 0.000000 0.000000 0.000000
# 4 0.000000 0.000000 0.000000 -0.111408 0.000000 0.000000
# 5 0.000000 0.000000 0.000000 0.000000 0.029996 0.000000
# 6 0.000000 0.000000 0.000000 0.000000 0.000000 0.026692
#
#
# Mechanical properties :
#
#
# Convention : Reuss Voigt Hill
#
# Bulk Modulus (GPa) = 23.09122 64.11573 43.60347
# Shear Modulus (GPa) = 133.30239 30.30903 81.80571
#
# Velocity S-wave (km/s) = 8.16213 3.89198 6.39405
# Velocity P-wave (km/s) = 10.01835 7.22770 8.73519
#
# Compressibility (1/GPa) = 0.04330651
#
# Stress axis : x y z
#
# Youngs Moduli (GPa) = 21.67140 125.28193 155.66653
#
# Poissons Ratio (x) = 0.29246 0.56646
# Poissons Ratio (y) = 0.05059 0.41224
# Poissons Ratio (z) = 0.07886 0.33178
#
# Static dielectric constant tensor:
#      x y z
#    x 1.719770 0.000000 0.000000 
#    y 0.000000 1.710330 0.000000 
#    z 0.000000 0.000000 1.684180 
# 
# From -- ./inp_files/7971.got.cif
#   From: 2010.05.17/outbox.cif.g08.bks.cpg/sg53_4_cif.got.tgz:7971.got - 2010.06.03 12:45:16.
