data_PCOD9419763
_publ_section_title
;
Structure prediction by ZEFSAII (Michael W. Deem and Ramdas Pophale) SiO2 
 PCOD9419763
Probable space group: P M N A
;
_chemical_formula_sum "Si O2"
_cell_formula_units_Z 34
_cell_length_a 20.554898
_cell_length_b 9.442312
_cell_length_c 9.017126
_cell_angle_alpha 90.000000
_cell_angle_beta 90.000000
_cell_angle_gamma 90.000000
_cell_volume 1750.095753
_symmetry_space_group_name_H-M "P M N A"
_symmetry_group_IT_number 53
_symmetry_cell_setting 'orthorhombic'
loop_
_space_group_symop_operation_xyz
x,y,z
1/2-x,-y,1/2+z
x,-y,-z
1/2-x,y,1/2-z
-x,-y,-z
1/2+x,y,1/2-z
-x,y,z
1/2+x,-y,1/2+z
loop_
_atom_site_type_symbol
_atom_site_label
_atom_site_fract_x
_atom_site_fract_y
_atom_site_fract_z
Si Si1 0.071982 0.465939 0.756584
Si Si2 0.500000 0.000000 0.500000
Si Si3 0.704403 0.378455 0.893687
Si Si4 0.762214 0.848672 0.924663
Si Si5 0.594819 0.730807 0.543475
O O1 0.132845 0.426370 0.655107
O O2 0.078568 0.624970 0.821054
O O3 0.000000 0.448409 0.690163
O O4 0.077394 0.359119 0.896701
O O5 0.556110 0.121843 0.461549
O O6 0.750000 0.362166 0.750000
O O7 0.732592 0.500000 0.000000
O O8 0.705844 0.236676 0.990252
O O9 0.750000 0.859030 0.750000
O O10 0.828824 0.763702 0.951571
O O11 0.768531 0.000000 0.000000
#
# Coordination Sequence:
#
# PCOD9419763 Si02
#       5
#     8   2   8   8   8
#     4  11  22  40  67  94 138 174 231 275 339 402
#     4  12  20  34  68  96 134 166 228 276 342 394
#     4  12  24  42  67  96 133 179 227 284 340 406
#     4  12  26  43  67  99 136 176 225 283 348 414
#     4  11  21  40  64 100 131 179 226 282 328 418
#
# _framework density 19.427508
#
# number of rings (size 3 to 8) (size 9 to 14) (size 15 to 20)
#    0.000    0.471    5.882    4.941    0.000    0.471 
#    0.000    0.000    0.000    0.706    0.000    0.000 
#    0.000    0.000    0.000    0.000    0.000    0.000 
#
# Total GULP energy -189528.616929 kJ/mol
# GULP energy per Si atom -5574.371086 kJ/mol
# Density = 1.938329 g / cm^3
# Si number density = 19.427508 Si / 1000 Ang^3
#
#
#
# Elastic Constant Matrix: (Units=GPa)
#
#
# Indices 1 2 3 4 5 6 
#
# 1 118.2850 72.2383 49.3729 0.0000 0.0000 0.0000
# 2 72.2383 118.8480 39.9296 0.0000 0.0000 0.0000
# 3 49.3729 39.9296 112.5072 0.0000 0.0000 0.0000
# 4 0.0000 0.0000 0.0000 28.0917 0.0000 0.0000
# 5 0.0000 0.0000 0.0000 0.0000 42.1645 0.0000
# 6 0.0000 0.0000 0.0000 0.0000 0.0000 128.3099
#
#
#
# Elastic Compliance Matrix: (Units=1/GPa)
#
#
# Indices 1 2 3 4 5 6 
#
# 1 0.014702 -0.007685 -0.003724 0.000000 0.000000 0.000000
# 2 -0.007685 0.013570 -0.001444 0.000000 0.000000 0.000000
# 3 -0.003724 -0.001444 0.011035 0.000000 0.000000 0.000000
# 4 0.000000 0.000000 0.000000 0.035598 0.000000 0.000000
# 5 0.000000 0.000000 0.000000 0.000000 0.023717 0.000000
# 6 0.000000 0.000000 0.000000 0.000000 0.000000 0.007794
#
#
# Mechanical properties :
#
#
# Convention : Reuss Voigt Hill
#
# Bulk Modulus (GPa) = 73.52249 74.74687 74.13468
# Shear Modulus (GPa) = 36.58841 52.25318 44.42080
#
# Velocity S-wave (km/s) = 4.34444 5.19181 4.78691
# Velocity P-wave (km/s) = 7.94306 8.63123 8.29429
#
# Compressibility (1/GPa) = 0.01360128
#
# Stress axis : x y z
#
# Youngs Moduli (GPa) = 68.01771 73.69092 90.61956
#
# Poissons Ratio (x) = 0.56631 0.33751
# Poissons Ratio (y) = 0.52271 0.13083
# Poissons Ratio (z) = 0.25333 0.10639
#
# Static dielectric constant tensor:
#      x y z
#    x 1.700390 0.000000 0.000000 
#    y 0.000000 1.605980 0.000000 
#    z 0.000000 0.000000 1.684070 
# 
# From -- ./inp_files/10567.got.cif
#   From: 2010.05.17/outbox.cif.g08.bks.cpg/sg53_6_cif.got.tgz:10567.got - 2010.06.03 12:45:16.
