data_PCOD9419919
_publ_section_title
;
Structure prediction by ZEFSAII (Michael W. Deem and Ramdas Pophale) SiO2 
 PCOD9419919
Probable space group: P M N A
;
_chemical_formula_sum "Si O2"
_cell_formula_units_Z 40
_cell_length_a 8.746921
_cell_length_b 26.141287
_cell_length_c 9.093268
_cell_angle_alpha 90.000000
_cell_angle_beta 90.000000
_cell_angle_gamma 90.000000
_cell_volume 2079.228217
_symmetry_space_group_name_H-M "P M N A"
_symmetry_group_IT_number 53
_symmetry_cell_setting 'orthorhombic'
loop_
_space_group_symop_operation_xyz
x,y,z
1/2-x,-y,1/2+z
x,-y,-z
1/2-x,y,1/2-z
-x,-y,-z
1/2+x,y,1/2-z
-x,y,z
1/2+x,-y,1/2+z
loop_
_atom_site_type_symbol
_atom_site_label
_atom_site_fract_x
_atom_site_fract_y
_atom_site_fract_z
Si Si1 0.817108 0.148718 0.586529
Si Si2 0.683330 0.051976 0.413731
Si Si3 0.682678 0.552717 0.913430
Si Si4 0.316614 0.746518 0.913845
Si Si5 0.317032 0.649458 0.414083
O O1 0.750000 0.151293 0.750000
O O2 0.748243 0.100511 0.500799
O O3 0.781559 0.200759 0.498556
O O4 0.000000 0.143461 0.594232
O O5 0.750000 0.050695 0.250000
O O6 0.500000 0.055495 0.406731
O O7 0.724205 0.000000 0.500000
O O8 0.750000 0.549632 0.750000
O O9 0.500000 0.560592 0.906570
O O10 0.712137 0.500000 0.000000
O O11 0.758822 0.599576 0.999610
O O12 0.250000 0.748310 0.750000
O O13 0.500000 0.740395 0.908208
O O14 0.244025 0.699269 0.001130
O O15 0.250000 0.648942 0.250000
O O16 0.500000 0.650018 0.408721
#
# Coordination Sequence:
#
# PCOD9419919 Si02
#       5
#     8   8   8   8   8
#     4  11  24  41  64  92 124 162 204 253 306 363
#     4  11  24  41  63  91 124 162 204 252 305 363
#     4  11  24  42  65  93 126 164 206 253 306 363
#     4  11  24  42  64  92 125 162 205 252 305 363
#     4  12  25  42  65  92 125 163 205 254 307 364
#
# _framework density 19.237907
#
# number of rings (size 3 to 8) (size 9 to 14) (size 15 to 20)
#    0.000    0.800    0.000    7.200    0.000   12.800 
#    0.000    0.000    0.000    0.000    0.000    0.000 
#    0.000    0.000    0.000    0.000    0.000    0.000 
#
# Total GULP energy -224007.417857 kJ/mol
# GULP energy per Si atom -5600.185446 kJ/mol
# Density = 1.919412 g / cm^3
# Si number density = 19.237907 Si / 1000 Ang^3
#
#
#
# Elastic Constant Matrix: (Units=GPa)
#
#
# Indices 1 2 3 4 5 6 
#
# 1 127.3404 123.4952 106.8122 0.0000 0.0000 0.0000
# 2 123.4952 213.6935 136.3715 0.0000 0.0000 0.0000
# 3 106.8122 136.3715 244.5494 0.0000 0.0000 0.0000
# 4 0.0000 0.0000 0.0000 42.2488 0.0000 0.0000
# 5 0.0000 0.0000 0.0000 0.0000 43.5030 0.0000
# 6 0.0000 0.0000 0.0000 0.0000 0.0000 45.9316
#
#
#
# Elastic Compliance Matrix: (Units=1/GPa)
#
#
# Indices 1 2 3 4 5 6 
#
# 1 0.019610 -0.009108 -0.003486 0.000000 0.000000 0.000000
# 2 -0.009108 0.011495 -0.002432 0.000000 0.000000 0.000000
# 3 -0.003486 -0.002432 0.006968 0.000000 0.000000 0.000000
# 4 0.000000 0.000000 0.000000 0.023669 0.000000 0.000000
# 5 0.000000 0.000000 0.000000 0.000000 0.022987 0.000000
# 6 0.000000 0.000000 0.000000 0.000000 0.000000 0.021772
#
#
# Mechanical properties :
#
#
# Convention : Reuss Voigt Hill
#
# Bulk Modulus (GPa) = 124.67498 146.54899 135.61198
# Shear Modulus (GPa) = 35.91235 40.93031 38.42133
#
# Velocity S-wave (km/s) = 4.32528 4.61758 4.47382
# Velocity P-wave (km/s) = 9.48112 10.23582 9.86569
#
# Compressibility (1/GPa) = 0.00802086
#
# Stress axis : x y z
#
# Youngs Moduli (GPa) = 50.99376 86.99106 143.51288
#
# Poissons Ratio (x) = 0.79234 0.50029
# Poissons Ratio (y) = 0.46446 0.34904
# Poissons Ratio (z) = 0.17777 0.21157
#
# Static dielectric constant tensor:
#      x y z
#    x 1.643970 0.000000 0.000000 
#    y 0.000000 1.635750 0.000000 
#    z 0.000000 0.000000 1.620750 
# 
# From -- ./inp_files/6300.got.cif
#   From: 2010.05.17/outbox.cif.g08.bks.cpg/sg53_4_cif.got.tgz:6300.got - 2010.06.03 12:45:16.
