data_PCOD9419688
_publ_section_title
;
Structure prediction by ZEFSAII (Michael W. Deem and Ramdas Pophale) SiO2 
 PCOD9419688
Probable space group: P M N A
;
_chemical_formula_sum "Si O2"
_cell_formula_units_Z 56
_cell_length_a 8.069853
_cell_length_b 19.865757
_cell_length_c 18.822358
_cell_angle_alpha 90.000000
_cell_angle_beta 90.000000
_cell_angle_gamma 90.000000
_cell_volume 3017.482583
_symmetry_space_group_name_H-M "P M N A"
_symmetry_group_IT_number 53
_symmetry_cell_setting 'orthorhombic'
loop_
_space_group_symop_operation_xyz
x,y,z
1/2-x,-y,1/2+z
x,-y,-z
1/2-x,y,1/2-z
-x,-y,-z
1/2+x,y,1/2-z
-x,y,z
1/2+x,-y,1/2+z
loop_
_atom_site_type_symbol
_atom_site_label
_atom_site_fract_x
_atom_site_fract_y
_atom_site_fract_z
Si Si1 0.702336 0.289399 0.958536
Si Si2 0.801084 0.080093 0.076411
Si Si3 0.700113 0.069364 0.586950
Si Si4 0.300660 0.639794 0.827829
Si Si5 0.696496 0.799836 0.169578
Si Si6 0.702589 0.572667 0.973849
Si Si7 0.199025 0.223072 0.393600
O O1 0.500000 0.288981 0.957946
O O2 0.764209 0.254768 0.886840
O O3 0.752745 0.365963 0.974552
O O4 0.753456 0.245416 0.027067
O O5 0.751492 0.146644 0.118634
O O6 0.000000 0.078196 0.074289
O O7 0.744668 0.006984 0.103978
O O8 0.743215 0.085153 0.993975
O O9 0.500000 0.069907 0.586333
O O10 0.757328 0.126540 0.640337
O O11 0.250000 0.616768 0.750000
O O12 0.500000 0.640804 0.830805
O O13 0.244733 0.594148 0.894291
O O14 0.241565 0.716654 0.842635
O O15 0.750000 0.789602 0.250000
O O16 0.500000 0.794435 0.167434
O O17 0.500000 0.571425 0.973455
O O18 0.760281 0.500000 0.000000
O O19 0.000000 0.224495 0.392659
#
# Coordination Sequence:
#
# PCOD9419688 Si02
#       7
#     8   8   8   8   8   8   8
#     4   8  15  28  46  69  94 121 160 203 237 278
#     4   9  17  29  48  72  96 121 154 204 252 291
#     4   9  18  32  47  68  97 125 159 201 248 299
#     4   9  18  31  49  74 103 131 161 200 243 290
#     4  11  21  33  49  68  95 131 167 209 252 291
#     4   8  14  28  52  77  99 128 166 201 234 281
#     4   9  16  29  48  70  95 124 163 204 236 283
#
# _framework density 18.558516000000001
#
# number of rings (size 3 to 8) (size 9 to 14) (size 15 to 20)
#    0.000    3.000    1.429    3.000    0.000    1.143 
#    0.000    2.857    0.000    2.143    0.000    0.000 
#    0.000    0.000    0.000    0.000    0.000    0.000 
#
# Total GULP energy -312021.190465 kJ/mol
# GULP energy per Si atom -5571.806973 kJ/mol
# Density = 1.851628 g / cm^3
# Si number density = 18.558516 Si / 1000 Ang^3
#
#
#
# Elastic Constant Matrix: (Units=GPa)
#
#
# Indices 1 2 3 4 5 6 
#
# 1 10.3693 7.0951 8.3640 0.0000 0.0000 0.0000
# 2 7.0951 156.2634 66.8086 0.0000 0.0000 0.0000
# 3 8.3640 66.8086 111.8854 0.0000 0.0000 0.0000
# 4 0.0000 0.0000 0.0000 17.9286 0.0000 0.0000
# 5 0.0000 0.0000 0.0000 0.0000 0.7962 0.0000
# 6 0.0000 0.0000 0.0000 0.0000 0.0000 -7.4789
#
#
#
# Elastic Compliance Matrix: (Units=1/GPa)
#
#
# Indices 1 2 3 4 5 6 
#
# 1 0.103028 -0.001860 -0.006591 0.000000 0.000000 0.000000
# 2 -0.001860 0.008627 -0.005012 0.000000 0.000000 0.000000
# 3 -0.006591 -0.005012 0.012423 0.000000 0.000000 0.000000
# 4 0.000000 0.000000 0.000000 0.055777 0.000000 0.000000
# 5 0.000000 0.000000 0.000000 0.000000 1.255988 0.000000
# 6 0.000000 0.000000 0.000000 0.000000 0.000000 -0.133709
#
#
# Mechanical properties :
#
#
# Convention : Reuss Voigt Hill
#
# Bulk Modulus (GPa) = 10.29322 49.22818 29.76070
# Shear Modulus (GPa) = 3.67257 15.33252 9.50255
#
# Velocity S-wave (km/s) = 1.40826 2.87744 2.26527
# Velocity P-wave (km/s) = 2.86403 6.13376 4.78674
#
# Compressibility (1/GPa) = 0.09715134
#
# Stress axis : x y z
#
# Youngs Moduli (GPa) = 9.70610 115.91797 80.49394
#
# Poissons Ratio (x) = 0.21560 0.53056
# Poissons Ratio (y) = 0.01805 0.40345
# Poissons Ratio (z) = 0.06398 0.58100
#
# Static dielectric constant tensor:
#      x y z
#    x 1.665230 0.000000 0.000000 
#    y 0.000000 1.655760 0.000000 
#    z 0.000000 0.000000 1.645400 
# 
# From -- ./inp_files/26709.got.cif
#   From: 2010.05.17/outbox.cif.g08.bks.cpg/sg53_14_cif.got.tgz:26709.got - 2010.06.03 12:45:16.
