data_PCOD9419494
_publ_section_title
;
Structure prediction by ZEFSAII (Michael W. Deem and Ramdas Pophale) SiO2 
 PCOD9419494
Probable space group: P M N A
;
_chemical_formula_sum "Si O2"
_cell_formula_units_Z 48
_cell_length_a 8.048920
_cell_length_b 12.165412
_cell_length_c 22.450965
_cell_angle_alpha 90.000000
_cell_angle_beta 90.000000
_cell_angle_gamma 90.000000
_cell_volume 2198.363199
_symmetry_space_group_name_H-M "P M N A"
_symmetry_group_IT_number 53
_symmetry_cell_setting 'orthorhombic'
loop_
_space_group_symop_operation_xyz
x,y,z
1/2-x,-y,1/2+z
x,-y,-z
1/2-x,y,1/2-z
-x,-y,-z
1/2+x,y,1/2-z
-x,y,z
1/2+x,-y,1/2+z
loop_
_atom_site_type_symbol
_atom_site_label
_atom_site_fract_x
_atom_site_fract_y
_atom_site_fract_z
Si Si1 0.807414 0.992977 0.568072
Si Si2 0.300809 0.362616 0.341755
Si Si3 0.195545 0.771671 0.083223
Si Si4 0.297821 0.619238 0.521664
Si Si5 0.193220 0.124452 0.314736
Si Si6 0.196538 0.390561 0.685435
O O1 0.731674 0.919339 0.622030
O O2 0.000000 0.958732 0.560241
O O3 0.735404 0.000000 0.500000
O O4 0.793514 0.116596 0.592987
O O5 0.500000 0.353378 0.336592
O O6 0.250213 0.361350 0.410942
O O7 0.220214 0.255454 0.313601
O O8 0.248616 0.481763 0.318370
O O9 0.218166 0.680829 0.134190
O O10 0.000000 0.798046 0.077991
O O11 0.256643 0.714571 0.022502
O O12 0.238967 0.500000 0.500000
O O13 0.500000 0.617128 0.519018
O O14 0.250000 0.080424 0.250000
O O15 0.000000 0.098234 0.318340
O O16 0.250000 0.348302 0.750000
O O17 0.000000 0.382766 0.678014
#
# Coordination Sequence:
#
# PCOD9419494 Si02
#       6
#     8   8   8   8   8   8
#     4  10  23  44  67  92 127 167 212 270 325 378
#     4  11  21  38  64  92 126 163 205 256 308 368
#     4  11  22  39  64  93 124 160 203 251 307 372
#     4   9  17  33  58  89 125 159 195 241 300 364
#     4  11  24  42  64  91 125 166 214 264 321 383
#     4  12  25  41  60  86 122 163 206 250 306 370
#
# _framework density 21.834425
#
# number of rings (size 3 to 8) (size 9 to 14) (size 15 to 20)
#    0.000    1.333    1.667    4.500    0.000    2.333 
#    0.000    5.000    0.000    0.000    0.000    0.000 
#    0.000    0.000    0.000    0.000    0.000    0.000 
#
# Total GULP energy -268190.521755 kJ/mol
# GULP energy per Si atom -5587.302537 kJ/mol
# Density = 2.178473 g / cm^3
# Si number density = 21.834425 Si / 1000 Ang^3
#
#
#
# Elastic Constant Matrix: (Units=GPa)
#
#
# Indices 1 2 3 4 5 6 
#
# 1 33.6793 -20.7030 8.3039 0.0000 0.0000 0.0000
# 2 -20.7030 70.8561 22.7314 0.0000 0.0000 0.0000
# 3 8.3039 22.7314 151.8539 0.0000 0.0000 0.0000
# 4 0.0000 0.0000 0.0000 28.8578 0.0000 0.0000
# 5 0.0000 0.0000 0.0000 0.0000 23.0352 0.0000
# 6 0.0000 0.0000 0.0000 0.0000 0.0000 -3.6284
#
#
#
# Elastic Compliance Matrix: (Units=1/GPa)
#
#
# Indices 1 2 3 4 5 6 
#
# 1 0.038336 0.012473 -0.003963 0.000000 0.000000 0.000000
# 2 0.012473 0.018883 -0.003509 0.000000 0.000000 0.000000
# 3 -0.003963 -0.003509 0.007327 0.000000 0.000000 0.000000
# 4 0.000000 0.000000 0.000000 0.034653 0.000000 0.000000
# 5 0.000000 0.000000 0.000000 0.000000 0.043412 0.000000
# 6 0.000000 0.000000 0.000000 0.000000 0.000000 -0.275603
#
#
# Mechanical properties :
#
#
# Convention : Reuss Voigt Hill
#
# Bulk Modulus (GPa) = 13.41423 30.78377 22.09900
# Shear Modulus (GPa) = -42.32114 26.05673 -8.13221
#
# Velocity S-wave (km/s) = -4.40736 3.45828 -1.93199
# Velocity P-wave (km/s) = 4.44329 5.48412 2.27297
#
# Compressibility (1/GPa) = 0.07454769
#
# Stress axis : x y z
#
# Youngs Moduli (GPa) = 26.08499 52.95749 136.47697
#
# Poissons Ratio (x) = -0.66052 0.54092
# Poissons Ratio (y) = -0.32535 0.47886
# Poissons Ratio (z) = 0.10339 0.18581
#
# Static dielectric constant tensor:
#      x y z
#    x 1.785790 0.000000 0.000000 
#    y 0.000000 1.772670 0.000000 
#    z 0.000000 0.000000 1.801610 
# 
# From -- ./inp_files/33922.got.cif
#   From: 2010.05.17/outbox.cif.g08.bks.cpg/sg53_17_cif.got.tgz:33922.got - 2010.06.03 12:45:16.
