data_PCOD9419597
_publ_section_title
;
Structure prediction by ZEFSAII (Michael W. Deem and Ramdas Pophale) SiO2 
 PCOD9419597
Probable space group: P M N A
;
_chemical_formula_sum "Si O2"
_cell_formula_units_Z 48
_cell_length_a 18.693470
_cell_length_b 8.347988
_cell_length_c 13.525856
_cell_angle_alpha 90.000000
_cell_angle_beta 90.000000
_cell_angle_gamma 90.000000
_cell_volume 2110.748557
_symmetry_space_group_name_H-M "P M N A"
_symmetry_group_IT_number 53
_symmetry_cell_setting 'orthorhombic'
loop_
_space_group_symop_operation_xyz
x,y,z
1/2-x,-y,1/2+z
x,-y,-z
1/2-x,y,1/2-z
-x,-y,-z
1/2+x,y,1/2-z
-x,y,z
1/2+x,-y,1/2+z
loop_
_atom_site_type_symbol
_atom_site_label
_atom_site_fract_x
_atom_site_fract_y
_atom_site_fract_z
Si Si1 0.633926 0.367056 0.442070
Si Si2 0.358312 0.826928 0.368841
Si Si3 0.250000 0.408684 0.750000
Si Si4 0.500000 0.014399 0.376895
Si Si5 0.000000 0.591128 0.606783
Si Si6 0.500000 0.600655 0.672280
Si Si7 0.233179 0.878687 0.863297
Si Si8 0.338355 0.377686 0.091342
O O1 0.679946 0.500000 0.500000
O O2 0.613544 0.251487 0.530575
O O3 0.569273 0.451255 0.387954
O O4 0.672586 0.257400 0.364424
O O5 0.311727 0.702484 0.302286
O O6 0.428568 0.925841 0.334016
O O7 0.299071 0.956796 0.399801
O O8 0.203848 0.522426 0.676482
O O9 0.500000 0.000000 0.500000
O O10 0.500000 0.202325 0.340559
O O11 0.000000 0.500000 0.500000
O O12 0.000000 0.521749 0.719551
O O13 0.078854 0.668920 0.610544
O O14 0.250000 0.909856 0.750000
O O15 0.296062 0.788914 0.921060
O O16 0.339539 0.500000 0.000000
#
# Coordination Sequence:
#
# PCOD9419597 Si02
#       8
#     8   8   4   4   4   4   8   8
#     4  12  25  41  67 108 148 185 239 311 378 456
#     4  12  25  43  67 104 154 195 240 306 380 457
#     4  12  26  42  70 110 144 190 250 308 376 450
#     4  12  22  43  68 106 152 198 243 310 390 472
#     4  10  26  48  73 105 142 197 257 313 367 449
#     4  12  23  41  72 107 146 199 242 303 394 465
#     4  12  22  40  66  97 137 194 240 291 370 451
#     4  11  25  47  73 100 141 190 246 312 371 445
#
# _framework density 22.740746000000001
#
# number of rings (size 3 to 8) (size 9 to 14) (size 15 to 20)
#    0.000    0.333    5.000    4.250    2.333    0.667 
#    0.000    0.000    0.000    0.000    0.000    8.167 
#    0.000    0.000    0.000    0.000    0.000    0.000 
#
# Total GULP energy -267547.508342 kJ/mol
# GULP energy per Si atom -5573.906424 kJ/mol
# Density = 2.268899 g / cm^3
# Si number density = 22.740746 Si / 1000 Ang^3
#
#
#
# Elastic Constant Matrix: (Units=GPa)
#
#
# Indices 1 2 3 4 5 6 
#
# 1 157.0831 34.8415 16.7572 0.0000 0.0000 0.0000
# 2 34.8415 88.6349 22.5649 0.0000 0.0000 0.0000
# 3 16.7572 22.5649 98.4469 0.0000 0.0000 0.0000
# 4 0.0000 0.0000 0.0000 12.8974 0.0000 0.0000
# 5 0.0000 0.0000 0.0000 0.0000 33.3233 0.0000
# 6 0.0000 0.0000 0.0000 0.0000 0.0000 27.0538
#
#
#
# Elastic Compliance Matrix: (Units=1/GPa)
#
#
# Indices 1 2 3 4 5 6 
#
# 1 0.007007 -0.002603 -0.000596 0.000000 0.000000 0.000000
# 2 -0.002603 0.012948 -0.002525 0.000000 0.000000 0.000000
# 3 -0.000596 -0.002525 0.010838 0.000000 0.000000 0.000000
# 4 0.000000 0.000000 0.000000 0.077535 0.000000 0.000000
# 5 0.000000 0.000000 0.000000 0.000000 0.030009 0.000000
# 6 0.000000 0.000000 0.000000 0.000000 0.000000 0.036963
#
#
# Mechanical properties :
#
#
# Convention : Reuss Voigt Hill
#
# Bulk Modulus (GPa) = 51.69072 54.72135 53.20604
# Shear Modulus (GPa) = 25.88042 32.65498 29.26770
#
# Velocity S-wave (km/s) = 3.37718 3.79353 3.59139
# Velocity P-wave (km/s) = 6.16335 6.58051 6.37535
#
# Compressibility (1/GPa) = 0.01934583
#
# Stress axis : x y z
#
# Youngs Moduli (GPa) = 142.71622 77.23172 92.26839
#
# Poissons Ratio (x) = 0.20100 0.05501
# Poissons Ratio (y) = 0.37143 0.23296
# Poissons Ratio (z) = 0.08508 0.19500
#
# Static dielectric constant tensor:
#      x y z
#    x 1.896990 0.000000 0.000000 
#    y 0.000000 1.906230 0.000000 
#    z 0.000000 0.000000 1.832890 
# 
# From -- ./inp_files/23747.got.cif
#   From: 2010.05.17/outbox.cif.g08.bks.cpg/sg53_12_cif.got.tgz:23747.got - 2010.06.03 12:45:16.
