data_PCOD9419639
_publ_section_title
;
Structure prediction by ZEFSAII (Michael W. Deem and Ramdas Pophale) SiO2 
 PCOD9419639
Probable space group: P M N A
;
_chemical_formula_sum "Si O2"
_cell_formula_units_Z 56
_cell_length_a 30.047496
_cell_length_b 5.185793
_cell_length_c 27.822394
_cell_angle_alpha 90.000000
_cell_angle_beta 90.000000
_cell_angle_gamma 90.000000
_cell_volume 4335.288060
_symmetry_space_group_name_H-M "P M N A"
_symmetry_group_IT_number 53
_symmetry_cell_setting 'orthorhombic'
loop_
_space_group_symop_operation_xyz
x,y,z
1/2-x,-y,1/2+z
x,-y,-z
1/2-x,y,1/2-z
-x,-y,-z
1/2+x,y,1/2-z
-x,y,z
1/2+x,-y,1/2+z
loop_
_atom_site_type_symbol
_atom_site_label
_atom_site_fract_x
_atom_site_fract_y
_atom_site_fract_z
Si Si1 0.731817 0.390504 0.327849
Si Si2 0.239350 0.110247 0.623418
Si Si3 0.315656 0.751321 0.033058
Si Si4 0.905265 0.161736 0.591107
Si Si5 0.352544 0.103398 0.814827
Si Si6 0.447910 0.364346 0.050765
Si Si7 0.323437 0.609240 0.765115
O O1 0.731389 0.663972 0.353846
O O2 0.692002 0.365771 0.289843
O O3 0.777270 0.386270 0.295937
O O4 0.737218 0.161810 0.366375
O O5 0.224296 0.188682 0.570098
O O6 0.193041 0.100062 0.653530
O O7 0.360749 0.733780 0.064412
O O8 0.309626 0.500000 0.000000
O O9 0.320914 0.000000 0.000000
O O10 0.891447 0.109675 0.645953
O O11 0.939324 0.399382 0.587168
O O12 0.921867 0.896885 0.565496
O O13 0.348171 0.349101 0.780388
O O14 0.351985 0.848688 0.783106
O O15 0.500000 0.297147 0.047604
O O16 0.434917 0.500000 0.000000
#
# Coordination Sequence:
#
# PCOD9419639 Si02
#       7
#     8   8   8   8   8   8   8
#     4   9  15  24  37  50  70  92 110 134 159 193
#     4   9  17  26  35  51  69  89 115 139 166 200
#     4  11  20  29  41  54  70  92 118 148 182 220
#     4  11  20  32  45  57  73  90 110 143 187 226
#     4   9  17  26  38  55  72  87 107 133 164 212
#     4  11  22  34  46  58  70  87 115 148 183 228
#     4   9  15  24  37  54  71  90 110 128 158 198
#
# _framework density 12.917251
#
# number of rings (size 3 to 8) (size 9 to 14) (size 15 to 20)
#    0.000    2.143    0.000    5.571    0.000    9.143 
#    0.000    0.000    0.000    0.000    0.000    0.000 
#    0.000    0.000    0.000    0.000    0.000    0.000 
#
# Total GULP energy -312028.606542 kJ/mol
# GULP energy per Si atom -5571.939403 kJ/mol
# Density = 1.288785 g / cm^3
# Si number density = 12.917251 Si / 1000 Ang^3
#
#
#
# Elastic Constant Matrix: (Units=GPa)
#
#
# Indices 1 2 3 4 5 6 
#
# 1 17.3909 -3.1792 10.4049 0.0000 0.0000 0.0000
# 2 -3.1792 46.0851 -14.4315 0.0000 0.0000 0.0000
# 3 10.4049 -14.4315 18.4296 0.0000 0.0000 0.0000
# 4 0.0000 0.0000 0.0000 -30.0350 0.0000 0.0000
# 5 0.0000 0.0000 0.0000 0.0000 15.5747 0.0000
# 6 0.0000 0.0000 0.0000 0.0000 0.0000 14.7482
#
#
#
# Elastic Compliance Matrix: (Units=1/GPa)
#
#
# Indices 1 2 3 4 5 6 
#
# 1 0.092533 -0.013217 -0.062592 0.000000 0.000000 0.000000
# 2 -0.013217 0.030636 0.031452 0.000000 0.000000 0.000000
# 3 -0.062592 0.031452 0.114227 0.000000 0.000000 0.000000
# 4 0.000000 0.000000 0.000000 -0.033295 0.000000 0.000000
# 5 0.000000 0.000000 0.000000 0.000000 0.064207 0.000000
# 6 0.000000 0.000000 0.000000 0.000000 0.000000 0.067805
#
#
# Mechanical properties :
#
#
# Convention : Reuss Voigt Hill
#
# Bulk Modulus (GPa) = 6.72570 7.49935 7.11253
# Shear Modulus (GPa) = 10.53989 5.99833 8.26911
#
# Velocity S-wave (km/s) = 2.85959 2.15725 2.53288
# Velocity P-wave (km/s) = 4.01511 3.46746 3.75129
#
# Compressibility (1/GPa) = 0.14868334
#
# Stress axis : x y z
#
# Youngs Moduli (GPa) = 10.80693 32.64093 8.75451
#
# Poissons Ratio (x) = 0.43142 0.54796
# Poissons Ratio (y) = 0.14284 -0.27535
# Poissons Ratio (z) = 0.67642 -1.02663
#
# Static dielectric constant tensor:
#      x y z
#    x 1.438850 0.000000 0.000000 
#    y 0.000000 1.439120 0.000000 
#    z 0.000000 0.000000 1.429300 
# 
# From -- ./inp_files/35747.got.cif
#   From: 2010.05.17/outbox.cif.g08.bks.cpg/sg53_18_cif.got.tgz:35747.got - 2010.06.03 12:45:16.
