data_PCOD9419056
_publ_section_title
;
Structure prediction by ZEFSAII (Michael W. Deem and Ramdas Pophale) SiO2 
 PCOD9419056
Probable space group: P M N A
;
_chemical_formula_sum "Si O2"
_cell_formula_units_Z 40
_cell_length_a 18.961090
_cell_length_b 13.473253
_cell_length_c 7.303536
_cell_angle_alpha 90.000000
_cell_angle_beta 90.000000
_cell_angle_gamma 90.000000
_cell_volume 1865.816541
_symmetry_space_group_name_H-M "P M N A"
_symmetry_group_IT_number 53
_symmetry_cell_setting 'orthorhombic'
loop_
_space_group_symop_operation_xyz
x,y,z
1/2-x,-y,1/2+z
x,-y,-z
1/2-x,y,1/2-z
-x,-y,-z
1/2+x,y,1/2-z
-x,y,z
1/2+x,-y,1/2+z
loop_
_atom_site_type_symbol
_atom_site_label
_atom_site_fract_x
_atom_site_fract_y
_atom_site_fract_z
Si Si1 0.671592 0.459976 0.697827
Si Si2 0.081495 0.369089 0.325106
Si Si3 0.270515 0.114848 0.960134
Si Si4 0.581119 0.198896 0.886118
Si Si5 0.852614 0.254331 0.979104
O O1 0.651629 0.500000 0.500000
O O2 0.750000 0.490916 0.750000
O O3 0.621128 0.526301 0.821407
O O4 0.672691 0.343037 0.656696
O O5 0.087216 0.306415 0.513143
O O6 0.000000 0.388298 0.289957
O O7 0.110689 0.301075 0.157609
O O8 0.250000 0.131662 0.750000
O O9 0.212986 0.188102 0.050079
O O10 0.353446 0.139313 0.976289
O O11 0.257503 0.000000 0.000000
O O12 0.500000 0.165771 0.920060
O O13 0.595617 0.199437 0.666269
#
# Coordination Sequence:
#
# PCOD9419056 Si02
#       5
#     8   8   8   8   8
#     4  10  22  35  57  87 120 161 200 247 292 355
#     4  10  23  38  60  92 122 162 202 238 298 363
#     4  10  23  40  64  92 116 156 210 256 309 361
#     4  10  22  39  61  88 124 159 194 249 307 361
#     4  10  22  40  61  85 124 159 202 253 298 356
#
# _framework density 21.438334000000001
#
# number of rings (size 3 to 8) (size 9 to 14) (size 15 to 20)
#    0.000    2.000    0.000    2.400   11.200    4.800 
#    0.000    2.000    0.000    3.000    0.000    0.000 
#    0.000    0.000    0.000    0.000    0.000    0.000 
#
# Total GULP energy -222849.319569 kJ/mol
# GULP energy per Si atom -5571.232989 kJ/mol
# Density = 2.138954 g / cm^3
# Si number density = 21.438334 Si / 1000 Ang^3
#
#
#
# Elastic Constant Matrix: (Units=GPa)
#
#
# Indices 1 2 3 4 5 6 
#
# 1 175.9495 82.5005 34.3888 0.0000 0.0000 0.0000
# 2 82.5005 104.4917 4.6536 0.0000 0.0000 0.0000
# 3 34.3888 4.6536 93.8928 0.0000 0.0000 0.0000
# 4 0.0000 0.0000 0.0000 16.4607 0.0000 0.0000
# 5 0.0000 0.0000 0.0000 0.0000 22.1823 0.0000
# 6 0.0000 0.0000 0.0000 0.0000 0.0000 53.5742
#
#
#
# Elastic Compliance Matrix: (Units=1/GPa)
#
#
# Indices 1 2 3 4 5 6 
#
# 1 0.009926 -0.007692 -0.003254 0.000000 0.000000 0.000000
# 2 -0.007692 0.015552 0.002047 0.000000 0.000000 0.000000
# 3 -0.003254 0.002047 0.011741 0.000000 0.000000 0.000000
# 4 0.000000 0.000000 0.000000 0.060751 0.000000 0.000000
# 5 0.000000 0.000000 0.000000 0.000000 0.045081 0.000000
# 6 0.000000 0.000000 0.000000 0.000000 0.000000 0.018666
#
#
# Mechanical properties :
#
#
# Convention : Reuss Voigt Hill
#
# Bulk Modulus (GPa) = 51.49479 68.60221 60.04850
# Shear Modulus (GPa) = 26.88311 35.29619 31.08965
#
# Velocity S-wave (km/s) = 3.54499 4.06199 3.81227
# Velocity P-wave (km/s) = 6.38968 7.35316 6.88829
#
# Compressibility (1/GPa) = 0.01941944
#
# Stress axis : x y z
#
# Youngs Moduli (GPa) = 100.74231 64.29888 85.17214
#
# Poissons Ratio (x) = 0.49461 0.27718
# Poissons Ratio (y) = 0.77494 -0.17431
# Poissons Ratio (z) = 0.32785 -0.13159
#
# Static dielectric constant tensor:
#      x y z
#    x 1.772990 0.000000 0.000000 
#    y 0.000000 1.926550 0.000000 
#    z 0.000000 0.000000 1.796040 
# 
# From -- ./inp_files/8421.got.cif
#   From: 2010.05.17/outbox.cif.g08.bks.cpg/sg53_5_cif.got.tgz:8421.got - 2010.06.03 12:45:16.
