data_PCOD9419903
_publ_section_title
;
Structure prediction by ZEFSAII (Michael W. Deem and Ramdas Pophale) SiO2 
 PCOD9419903
Probable space group: P M N A
;
_chemical_formula_sum "Si O2"
_cell_formula_units_Z 48
_cell_length_a 16.129776
_cell_length_b 15.049976
_cell_length_c 9.362969
_cell_angle_alpha 90.000000
_cell_angle_beta 90.000000
_cell_angle_gamma 90.000000
_cell_volume 2272.886395
_symmetry_space_group_name_H-M "P M N A"
_symmetry_group_IT_number 53
_symmetry_cell_setting 'orthorhombic'
loop_
_space_group_symop_operation_xyz
x,y,z
1/2-x,-y,1/2+z
x,-y,-z
1/2-x,y,1/2-z
-x,-y,-z
1/2+x,y,1/2-z
-x,y,z
1/2+x,-y,1/2+z
loop_
_atom_site_type_symbol
_atom_site_label
_atom_site_fract_x
_atom_site_fract_y
_atom_site_fract_z
Si Si1 0.594991 0.584507 0.105659
Si Si2 0.500000 0.977093 0.262876
Si Si3 0.167608 0.469260 0.157864
Si Si4 0.500000 0.852456 0.533992
Si Si5 0.865550 0.727144 0.847662
Si Si6 0.678912 0.935492 0.128364
Si Si7 0.819746 0.249252 0.465556
O O1 0.500000 0.614766 0.104713
O O2 0.620648 0.547341 0.259479
O O3 0.602045 0.500000 0.000000
O O4 0.651732 0.663644 0.050071
O O5 0.500000 0.900566 0.382982
O O6 0.587107 0.966182 0.179435
O O7 0.500000 0.070645 0.346149
O O8 0.250000 0.449883 0.250000
O O9 0.116081 0.378015 0.152212
O O10 0.189970 0.500000 0.000000
O O11 0.577464 0.788598 0.557210
O O12 0.773627 0.737926 0.910417
O O13 0.870559 0.758211 0.682766
O O14 0.750000 0.939021 0.250000
O O15 0.672454 0.836703 0.063969
O O16 0.705807 0.000000 0.000000
#
# Coordination Sequence:
#
# PCOD9419903 Si02
#       7
#     8   4   8   4   8   8   8
#     4  11  24  44  72 104 144 191 242 300 356 427
#     4  11  27  52  72 112 146 191 241 309 376 437
#     4  12  24  43  70 100 146 192 245 297 359 426
#     4  11  26  44  79 101 153 180 241 301 375 436
#     4  11  23  43  70 107 139 194 239 295 363 439
#     4  12  29  48  80 110 149 190 246 303 376 445
#     4  11  24  44  72 101 148 189 247 290 365 436
#
# _framework density 21.118521000000001
#
# number of rings (size 3 to 8) (size 9 to 14) (size 15 to 20)
#    0.000    0.667    3.333    3.750   10.500    3.667 
#    0.000    0.000    0.000    0.000    0.000    0.000 
#    0.000    0.000    0.000    0.000    0.000    0.000 
#
# Total GULP energy -268711.548886 kJ/mol
# GULP energy per Si atom -5598.157268 kJ/mol
# Density = 2.107045 g / cm^3
# Si number density = 21.118521 Si / 1000 Ang^3
#
#
#
# Elastic Constant Matrix: (Units=GPa)
#
#
# Indices 1 2 3 4 5 6 
#
# 1 75.3571 31.9524 36.6747 0.0000 0.0000 0.0000
# 2 31.9524 107.2088 50.7101 0.0000 0.0000 0.0000
# 3 36.6747 50.7101 126.1615 0.0000 0.0000 0.0000
# 4 0.0000 0.0000 0.0000 35.0148 0.0000 0.0000
# 5 0.0000 0.0000 0.0000 0.0000 22.0037 0.0000
# 6 0.0000 0.0000 0.0000 0.0000 0.0000 207.0424
#
#
#
# Elastic Compliance Matrix: (Units=1/GPa)
#
#
# Indices 1 2 3 4 5 6 
#
# 1 0.016317 -0.003235 -0.003443 0.000000 0.000000 0.000000
# 2 -0.003235 0.012158 -0.003947 0.000000 0.000000 0.000000
# 3 -0.003443 -0.003947 0.010514 0.000000 0.000000 0.000000
# 4 0.000000 0.000000 0.000000 0.028559 0.000000 0.000000
# 5 0.000000 0.000000 0.000000 0.000000 0.045447 0.000000
# 6 0.000000 0.000000 0.000000 0.000000 0.000000 0.004830
#
#
# Mechanical properties :
#
#
# Convention : Reuss Voigt Hill
#
# Bulk Modulus (GPa) = 56.36872 60.82242 58.59557
# Shear Modulus (GPa) = 34.48549 65.43818 49.96184
#
# Velocity S-wave (km/s) = 4.04536 5.57256 4.86921
# Velocity P-wave (km/s) = 6.96918 8.38258 7.70834
#
# Compressibility (1/GPa) = 0.01774034
#
# Stress axis : x y z
#
# Youngs Moduli (GPa) = 61.28420 82.24728 95.11398
#
# Poissons Ratio (x) = 0.26603 0.32751
# Poissons Ratio (y) = 0.19823 0.37539
# Poissons Ratio (z) = 0.21102 0.32461
#
# Static dielectric constant tensor:
#      x y z
#    x 1.769190 0.000000 0.000000 
#    y 0.000000 1.726960 0.000000 
#    z 0.000000 0.000000 1.770140 
# 
# From -- ./inp_files/10033.got.cif
#   From: 2010.05.17/outbox.cif.g08.bks.cpg/sg53_6_cif.got.tgz:10033.got - 2010.06.03 12:45:16.
