data_PCOD9419573
_publ_section_title
;
Structure prediction by ZEFSAII (Michael W. Deem and Ramdas Pophale) SiO2 
 PCOD9419573
Probable space group: P M N A
;
_chemical_formula_sum "Si O2"
_cell_formula_units_Z 24
_cell_length_a 14.246840
_cell_length_b 5.035475
_cell_length_c 13.881909
_cell_angle_alpha 90.000000
_cell_angle_beta 90.000000
_cell_angle_gamma 90.000000
_cell_volume 995.882691
_symmetry_space_group_name_H-M "P M N A"
_symmetry_group_IT_number 53
_symmetry_cell_setting 'orthorhombic'
loop_
_space_group_symop_operation_xyz
x,y,z
1/2-x,-y,1/2+z
x,-y,-z
1/2-x,y,1/2-z
-x,-y,-z
1/2+x,y,1/2-z
-x,y,z
1/2+x,-y,1/2+z
loop_
_atom_site_type_symbol
_atom_site_label
_atom_site_fract_x
_atom_site_fract_y
_atom_site_fract_z
Si Si1 0.105245 0.824811 0.903627
Si Si2 0.609520 0.106390 0.800408
Si Si3 0.301976 0.595156 0.895066
O O1 0.189756 0.618629 0.898229
O O2 0.000000 0.706734 0.901585
O O3 0.115254 0.008894 0.809452
O O4 0.114849 0.000000 0.000000
O O5 0.500000 0.129412 0.825619
O O6 0.659801 0.382915 0.819737
O O7 0.658345 0.881765 0.865768
O O8 0.334841 0.500000 0.000000
#
# Coordination Sequence:
#
# PCOD9419573 Si02
#       3
#     8   8   8
#     4  10  24  47  74 105 141 184 235 290 351 416
#     4  11  26  48  74 103 140 186 234 288 347 413
#     4  12  26  45  72 106 142 184 233 287 348 414
#
# _framework density 24.099222999999999
#
# number of rings (size 3 to 8) (size 9 to 14) (size 15 to 20)
#    0.000    1.000    0.000    5.000    0.000   15.333 
#    0.000   11.667    0.000    2.000    0.000    0.000 
#    0.000    0.000    0.000    0.000    0.000    0.000 
#
# Total GULP energy -134753.877015 kJ/mol
# GULP energy per Si atom -5614.744876 kJ/mol
# Density = 2.404437 g / cm^3
# Si number density = 24.099223 Si / 1000 Ang^3
#
#
#
# Elastic Constant Matrix: (Units=GPa)
#
#
# Indices 1 2 3 4 5 6 
#
# 1 181.2010 48.6192 37.0129 0.0000 0.0000 0.0000
# 2 48.6192 65.2833 -24.3112 0.0000 0.0000 0.0000
# 3 37.0129 -24.3112 91.1674 0.0000 0.0000 0.0000
# 4 0.0000 0.0000 0.0000 35.9084 0.0000 0.0000
# 5 0.0000 0.0000 0.0000 0.0000 25.4070 0.0000
# 6 0.0000 0.0000 0.0000 0.0000 0.0000 -40.4265
#
#
#
# Elastic Compliance Matrix: (Units=1/GPa)
#
#
# Indices 1 2 3 4 5 6 
#
# 1 0.009260 -0.009211 -0.006216 0.000000 0.000000 0.000000
# 2 -0.009211 0.026169 0.010718 0.000000 0.000000 0.000000
# 3 -0.006216 0.010718 0.016350 0.000000 0.000000 0.000000
# 4 0.000000 0.000000 0.000000 0.027849 0.000000 0.000000
# 5 0.000000 0.000000 0.000000 0.000000 0.039359 0.000000
# 6 0.000000 0.000000 0.000000 0.000000 0.000000 -0.024736
#
#
# Mechanical properties :
#
#
# Convention : Reuss Voigt Hill
#
# Bulk Modulus (GPa) = 23.60618 51.14372 37.37495
# Shear Modulus (GPa) = 42.44905 22.59982 32.52443
#
# Velocity S-wave (km/s) = 4.20149 3.06564 3.67768
# Velocity P-wave (km/s) = 5.77524 5.81370 5.79450
#
# Compressibility (1/GPa) = 0.04236179
#
# Stress axis : x y z
#
# Youngs Moduli (GPa) = 107.99419 38.21348 61.16078
#
# Poissons Ratio (x) = 0.35198 0.38015
# Poissons Ratio (y) = 0.99471 -0.65551
# Poissons Ratio (z) = 0.67124 -0.40956
#
# Static dielectric constant tensor:
#      x y z
#    x 1.903760 0.000000 0.000000 
#    y 0.000000 1.852720 0.000000 
#    z 0.000000 0.000000 1.836870 
# 
# From -- ./inp_files/22045.got.cif
#   From: 2010.05.17/outbox.cif.g08.bks.cpg/sg53_12_cif.got.tgz:22045.got - 2010.06.03 12:45:16.
