data_PCOD9419713
_publ_section_title
;
Structure prediction by ZEFSAII (Michael W. Deem and Ramdas Pophale) SiO2 
 PCOD9419713
Probable space group: P M N A
;
_chemical_formula_sum "Si O2"
_cell_formula_units_Z 64
_cell_length_a 9.128169
_cell_length_b 12.754498
_cell_length_c 28.710564
_cell_angle_alpha 90.000000
_cell_angle_beta 90.000000
_cell_angle_gamma 90.000000
_cell_volume 3342.633536
_symmetry_space_group_name_H-M "P M N A"
_symmetry_group_IT_number 53
_symmetry_cell_setting 'orthorhombic'
loop_
_space_group_symop_operation_xyz
x,y,z
1/2-x,-y,1/2+z
x,-y,-z
1/2-x,y,1/2-z
-x,-y,-z
1/2+x,y,1/2-z
-x,y,z
1/2+x,-y,1/2+z
loop_
_atom_site_type_symbol
_atom_site_label
_atom_site_fract_x
_atom_site_fract_y
_atom_site_fract_z
Si Si1 0.175439 0.063452 0.453370
Si Si2 0.668335 0.487112 0.055232
Si Si3 0.827488 0.020327 0.650484
Si Si4 0.327822 0.269140 0.425724
Si Si5 0.668001 0.211418 0.165799
Si Si6 0.175222 0.784241 0.199394
Si Si7 0.330175 0.566311 0.796161
Si Si8 0.825228 0.583841 0.134136
O O1 0.257368 0.174192 0.454620
O O2 0.000000 0.080212 0.452816
O O3 0.212082 0.000000 0.500000
O O4 0.210346 0.005870 0.403875
O O5 0.500000 0.481857 0.071641
O O6 0.749903 0.378440 0.064636
O O7 0.751316 0.578598 0.083423
O O8 0.668986 0.500000 0.000000
O O9 0.734474 0.111721 0.673762
O O10 0.000000 0.048500 0.651729
O O11 0.810171 0.909932 0.678301
O O12 0.500000 0.277057 0.432770
O O13 0.286479 0.238201 0.373093
O O14 0.500000 0.215920 0.146035
O O15 0.675196 0.307134 0.201452
O O16 0.250000 0.772427 0.250000
O O17 0.207786 0.685789 0.165343
O O18 0.000000 0.789580 0.205446
O O19 0.250000 0.528638 0.750000
O O20 0.500000 0.534919 0.796871
O O21 0.245397 0.514781 0.838975
O O22 0.000000 0.572763 0.130479
#
# Coordination Sequence:
#
# PCOD9419713 Si02
#       8
#     8   8   8   8   8   8   8   8
#     4   9  19  37  61  88 121 163 209 255 305 368
#     4  11  24  41  62  88 119 161 208 251 304 372
#     4   9  19  37  61  88 120 158 203 253 305 362
#     4  11  21  34  57  85 118 156 193 246 307 360
#     4   9  19  37  59  84 116 155 196 241 297 360
#     4  11  25  43  63  88 122 164 210 262 315 376
#     4  11  22  36  59  88 120 155 195 244 298 359
#     4  11  24  42  63  89 121 156 202 257 315 369
#
# _framework density 19.146578999999999
#
# number of rings (size 3 to 8) (size 9 to 14) (size 15 to 20)
#    0.000    1.750    1.250    3.750    0.000    8.250 
#    0.000    5.000    0.000    0.000    0.000    0.000 
#    0.000    0.000    0.000    0.000    0.000    0.000 
#
# Total GULP energy -357183.302237 kJ/mol
# GULP energy per Si atom -5580.989097 kJ/mol
# Density = 1.910300 g / cm^3
# Si number density = 19.146579 Si / 1000 Ang^3
#
#
#
# Elastic Constant Matrix: (Units=GPa)
#
#
# Indices 1 2 3 4 5 6 
#
# 1 102.9873 64.7507 41.1316 0.0000 0.0000 0.0000
# 2 64.7507 109.7263 33.9782 0.0000 0.0000 0.0000
# 3 41.1316 33.9782 65.3426 0.0000 0.0000 0.0000
# 4 0.0000 0.0000 0.0000 18.2697 0.0000 0.0000
# 5 0.0000 0.0000 0.0000 0.0000 20.2436 0.0000
# 6 0.0000 0.0000 0.0000 0.0000 0.0000 110.0136
#
#
#
# Elastic Compliance Matrix: (Units=1/GPa)
#
#
# Indices 1 2 3 4 5 6 
#
# 1 0.017646 -0.008312 -0.006785 0.000000 0.000000 0.000000
# 2 -0.008312 0.014778 -0.002452 0.000000 0.000000 0.000000
# 3 -0.006785 -0.002452 0.020851 0.000000 0.000000 0.000000
# 4 0.000000 0.000000 0.000000 0.054736 0.000000 0.000000
# 5 0.000000 0.000000 0.000000 0.000000 0.049398 0.000000
# 6 0.000000 0.000000 0.000000 0.000000 0.000000 0.009090
#
#
# Mechanical properties :
#
#
# Convention : Reuss Voigt Hill
#
# Bulk Modulus (GPa) = 55.02121 61.97523 58.49822
# Shear Modulus (GPa) = 24.07835 38.91842 31.49839
#
# Velocity S-wave (km/s) = 3.55008 4.51339 4.06041
# Velocity P-wave (km/s) = 6.75303 7.72011 7.25270
#
# Compressibility (1/GPa) = 0.01817481
#
# Stress axis : x y z
#
# Youngs Moduli (GPa) = 56.67093 67.66879 47.96045
#
# Poissons Ratio (x) = 0.56244 0.32543
# Poissons Ratio (y) = 0.47103 0.11762
# Poissons Ratio (z) = 0.38454 0.16595
#
# Static dielectric constant tensor:
#      x y z
#    x 1.644490 0.000000 0.000000 
#    y 0.000000 1.669940 0.000000 
#    z 0.000000 0.000000 1.713000 
# 
# From -- ./inp_files/38300.got.cif
#   From: 2010.05.17/outbox.cif.g08.bks.cpg/sg53_20_cif.got.tgz:38300.got - 2010.06.03 12:45:16.
