data_PCOD9419741
_publ_section_title
;
Structure prediction by ZEFSAII (Michael W. Deem and Ramdas Pophale) SiO2 
 PCOD9419741
Probable space group: P M N A
;
_chemical_formula_sum "Si O2"
_cell_formula_units_Z 32
_cell_length_a 7.384636
_cell_length_b 12.277915
_cell_length_c 20.545314
_cell_angle_alpha 90.000000
_cell_angle_beta 90.000000
_cell_angle_gamma 90.000000
_cell_volume 1862.801156
_symmetry_space_group_name_H-M "P M N A"
_symmetry_group_IT_number 53
_symmetry_cell_setting 'orthorhombic'
loop_
_space_group_symop_operation_xyz
x,y,z
1/2-x,-y,1/2+z
x,-y,-z
1/2-x,y,1/2-z
-x,-y,-z
1/2+x,y,1/2-z
-x,y,z
1/2+x,-y,1/2+z
loop_
_atom_site_type_symbol
_atom_site_label
_atom_site_fract_x
_atom_site_fract_y
_atom_site_fract_z
Si Si1 0.500000 0.341785 0.055619
Si Si2 0.718177 0.074249 0.592517
Si Si3 0.000000 0.586203 0.404541
Si Si4 0.782203 0.841513 0.947551
Si Si5 0.214198 0.722458 0.173644
O O1 0.500000 0.455771 0.093051
O O2 0.673643 0.266329 0.069832
O O3 0.500000 0.371350 0.978810
O O4 0.500000 0.069166 0.593625
O O5 0.764252 0.126391 0.522385
O O6 0.774967 0.158104 0.647985
O O7 0.775967 0.948540 0.593251
O O8 0.827082 0.634957 0.367154
O O9 0.000000 0.827891 0.943480
O O10 0.250000 0.711654 0.250000
O O11 0.000000 0.711703 0.161033
#
# Coordination Sequence:
#
# PCOD9419741 Si02
#       5
#     4   8   4   8   8
#     4  11  22  34  55  80 115 148 188 232 265 331
#     4   8  16  30  52  82 112 137 170 214 280 335
#     4  11  24  37  50  85 112 144 199 227 268 324
#     4   9  17  32  52  79 114 143 170 219 276 331
#     4  11  21  37  58  81 108 141 180 234 277 324
#
# _framework density 17.178432000000001
#
# number of rings (size 3 to 8) (size 9 to 14) (size 15 to 20)
#    0.000    2.250    3.750    1.500    0.000    4.000 
#    0.000    2.500    0.000    1.500    0.000    0.000 
#    0.000    0.000    0.000    0.000    0.000    0.000 
#
# Total GULP energy -178454.539362 kJ/mol
# GULP energy per Si atom -5576.704355 kJ/mol
# Density = 1.713933 g / cm^3
# Si number density = 17.178432 Si / 1000 Ang^3
#
#
#
# Elastic Constant Matrix: (Units=GPa)
#
#
# Indices 1 2 3 4 5 6 
#
# 1 106.6013 64.0468 26.0307 0.0000 0.0000 0.0000
# 2 64.0468 180.0607 54.4090 0.0000 0.0000 0.0000
# 3 26.0307 54.4090 71.2619 0.0000 0.0000 0.0000
# 4 0.0000 0.0000 0.0000 21.8622 0.0000 0.0000
# 5 0.0000 0.0000 0.0000 0.0000 -90.4094 0.0000
# 6 0.0000 0.0000 0.0000 0.0000 0.0000 37.2216
#
#
#
# Elastic Compliance Matrix: (Units=1/GPa)
#
#
# Indices 1 2 3 4 5 6 
#
# 1 0.012047 -0.003842 -0.001467 0.000000 0.000000 0.000000
# 2 -0.003842 0.008444 -0.005044 0.000000 0.000000 0.000000
# 3 -0.001467 -0.005044 0.018420 0.000000 0.000000 0.000000
# 4 0.000000 0.000000 0.000000 0.045741 0.000000 0.000000
# 5 0.000000 0.000000 0.000000 0.000000 -0.011061 0.000000
# 6 0.000000 0.000000 0.000000 0.000000 0.000000 0.026866
#
#
# Mechanical properties :
#
#
# Convention : Reuss Voigt Hill
#
# Bulk Modulus (GPa) = 54.92961 71.87743 63.40352
# Shear Modulus (GPa) = 39.29815 7.96404 23.63110
#
# Velocity S-wave (km/s) = 4.78812 2.15549 3.71297
# Velocity P-wave (km/s) = 7.91287 6.93739 7.44113
#
# Compressibility (1/GPa) = 0.01820512
#
# Stress axis : x y z
#
# Youngs Moduli (GPa) = 83.00670 118.42295 54.28915
#
# Poissons Ratio (x) = 0.45495 0.07967
# Poissons Ratio (y) = 0.31889 0.27383
# Poissons Ratio (z) = 0.12181 0.59732
#
# Static dielectric constant tensor:
#      x y z
#    x 1.615860 0.000000 0.000000 
#    y 0.000000 1.580650 0.000000 
#    z 0.000000 0.000000 1.557840 
# 
# From -- ./inp_files/25780.got.cif
#   From: 2010.05.17/outbox.cif.g08.bks.cpg/sg53_13_cif.got.tgz:25780.got - 2010.06.03 12:45:16.
