data_PCOD9419707
_publ_section_title
;
Structure prediction by ZEFSAII (Michael W. Deem and Ramdas Pophale) SiO2 
 PCOD9419707
Probable space group: P M N A
;
_chemical_formula_sum "Si O2"
_cell_formula_units_Z 64
_cell_length_a 8.533248
_cell_length_b 22.203930
_cell_length_c 18.103937
_cell_angle_alpha 90.000000
_cell_angle_beta 90.000000
_cell_angle_gamma 90.000000
_cell_volume 3430.182657
_symmetry_space_group_name_H-M "P M N A"
_symmetry_group_IT_number 53
_symmetry_cell_setting 'orthorhombic'
loop_
_space_group_symop_operation_xyz
x,y,z
1/2-x,-y,1/2+z
x,-y,-z
1/2-x,y,1/2-z
-x,-y,-z
1/2+x,y,1/2-z
-x,y,z
1/2+x,-y,1/2+z
loop_
_atom_site_type_symbol
_atom_site_label
_atom_site_fract_x
_atom_site_fract_y
_atom_site_fract_z
Si Si1 0.313150 0.118229 0.101752
Si Si2 0.190252 0.310275 0.949580
Si Si3 0.188221 0.374009 0.171880
Si Si4 0.687373 0.105350 0.930277
Si Si5 0.308375 0.566893 0.519226
Si Si6 0.314616 0.000699 0.669336
Si Si7 0.812228 0.784215 0.167155
Si Si8 0.810894 0.248861 0.104744
O O1 0.500000 0.109909 0.106654
O O2 0.230529 0.067783 0.150740
O O3 0.267242 0.185854 0.123476
O O4 0.263772 0.109688 0.015893
O O5 0.243345 0.275780 0.876406
O O6 0.000000 0.311679 0.948235
O O7 0.242399 0.378690 0.965088
O O8 0.232000 0.270202 0.021474
O O9 0.250000 0.395389 0.250000
O O10 0.239262 0.413114 0.101517
O O11 0.236388 0.304869 0.156149
O O12 0.000000 0.374685 0.172300
O O13 0.500000 0.110170 0.928088
O O14 0.758802 0.159157 0.881854
O O15 0.738990 0.043194 0.892754
O O16 0.254290 0.500000 0.500000
O O17 0.500000 0.566471 0.517639
O O18 0.250000 0.017466 0.750000
O O19 0.500000 0.008774 0.668540
O O20 0.750000 0.788037 0.250000
O O21 0.000000 0.783879 0.169339
O O22 0.000000 0.242639 0.107158
#
# Coordination Sequence:
#
# PCOD9419707 Si02
#       8
#     8   8   8   8   8   8   8   8
#     4  11  23  38  59  86 113 141 178 225 275 327
#     4   8  15  29  50  74 102 137 179 224 265 316
#     4   9  18  31  51  79 110 143 180 227 272 320
#     4  11  23  40  60  83 111 141 181 227 273 327
#     4   8  14  28  52  79 105 141 189 229 263 312
#     4  12  26  43  61  80 108 145 184 226 276 328
#     4  11  21  34  54  79 109 142 181 227 278 330
#     4   9  17  33  54  76 103 139 183 222 264 319
#
# _framework density 18.657897999999999
#
# number of rings (size 3 to 8) (size 9 to 14) (size 15 to 20)
#    0.000    2.125    1.250    4.500    0.000    4.000 
#    0.000    1.875    0.000    0.375    0.000    0.000 
#    0.000    0.000    0.000    0.000    0.000    0.000 
#
# Total GULP energy -357308.724979 kJ/mol
# GULP energy per Si atom -5582.948828 kJ/mol
# Density = 1.861543 g / cm^3
# Si number density = 18.657898 Si / 1000 Ang^3
#
#
#
# Elastic Constant Matrix: (Units=GPa)
#
#
# Indices 1 2 3 4 5 6 
#
# 1 24.7865 0.1091 10.5435 0.0000 0.0000 0.0000
# 2 0.1091 92.4764 5.4439 0.0000 0.0000 0.0000
# 3 10.5435 5.4439 49.3371 0.0000 0.0000 0.0000
# 4 0.0000 0.0000 0.0000 16.2556 0.0000 0.0000
# 5 0.0000 0.0000 0.0000 0.0000 20.3027 0.0000
# 6 0.0000 0.0000 0.0000 0.0000 0.0000 4.3149
#
#
#
# Elastic Compliance Matrix: (Units=1/GPa)
#
#
# Indices 1 2 3 4 5 6 
#
# 1 0.044403 0.000510 -0.009545 0.000000 0.000000 0.000000
# 2 0.000510 0.010890 -0.001311 0.000000 0.000000 0.000000
# 3 -0.009545 -0.001311 0.022453 0.000000 0.000000 0.000000
# 4 0.000000 0.000000 0.000000 0.061517 0.000000 0.000000
# 5 0.000000 0.000000 0.000000 0.000000 0.049255 0.000000
# 6 0.000000 0.000000 0.000000 0.000000 0.000000 0.231754
#
#
# Mechanical properties :
#
#
# Convention : Reuss Voigt Hill
#
# Bulk Modulus (GPa) = 17.52744 22.08813 19.80779
# Shear Modulus (GPa) = 10.86998 18.20820 14.53909
#
# Velocity S-wave (km/s) = 2.41632 3.12733 2.79453
# Velocity P-wave (km/s) = 4.14720 4.99043 4.58823
#
# Compressibility (1/GPa) = 0.05705339
#
# Stress axis : x y z
#
# Youngs Moduli (GPa) = 22.52124 91.82643 44.53715
#
# Poissons Ratio (x) = -0.04679 0.42512
# Poissons Ratio (y) = -0.01147 0.05837
# Poissons Ratio (z) = 0.21497 0.12034
#
# Static dielectric constant tensor:
#      x y z
#    x 1.634430 0.000000 0.000000 
#    y 0.000000 1.642000 0.000000 
#    z 0.000000 0.000000 1.631810 
# 
# From -- ./inp_files/26983.got.cif
#   From: 2010.05.17/outbox.cif.g08.bks.cpg/sg53_14_cif.got.tgz:26983.got - 2010.06.03 12:45:16.
