data_PCOD9419563
_publ_section_title
;
Structure prediction by ZEFSAII (Michael W. Deem and Ramdas Pophale) SiO2 
 PCOD9419563
Probable space group: P M N A
;
_chemical_formula_sum "Si O2"
_cell_formula_units_Z 18
_cell_length_a 9.928910
_cell_length_b 5.131775
_cell_length_c 14.483741
_cell_angle_alpha 90.000000
_cell_angle_beta 90.000000
_cell_angle_gamma 90.000000
_cell_volume 737.989072
_symmetry_space_group_name_H-M "P M N A"
_symmetry_group_IT_number 53
_symmetry_cell_setting 'orthorhombic'
loop_
_space_group_symop_operation_xyz
x,y,z
1/2-x,-y,1/2+z
x,-y,-z
1/2-x,y,1/2-z
-x,-y,-z
1/2+x,y,1/2-z
-x,y,z
1/2+x,-y,1/2+z
loop_
_atom_site_type_symbol
_atom_site_label
_atom_site_fract_x
_atom_site_fract_y
_atom_site_fract_z
Si Si1 0.000000 0.000000 0.000000
Si Si2 0.837952 0.240327 0.446166
Si Si3 0.500000 0.527402 0.359492
Si Si4 0.750000 0.372607 0.250000
O O1 0.000000 0.220172 0.921840
O O2 0.000000 0.745606 0.917115
O O3 0.793091 0.500000 0.500000
O O4 0.805231 0.221970 0.339027
O O5 0.000000 0.233382 0.455231
O O6 0.771412 0.000000 0.500000
O O7 0.629031 0.534990 0.292891
#
# Coordination Sequence:
#
# PCOD9419563 Si02
#       4
#     2   8   4   4
#     4  10  28  54  72 114 150 212 242 334 370 458
#     4  10  24  45  69 101 146 194 244 301 369 444
#     4  11  28  48  80 106 160 193 267 302 396 435
#     4  12  26  50  74 118 142 210 244 326 358 476
#
# _framework density 24.390605000000001
#
# number of rings (size 3 to 8) (size 9 to 14) (size 15 to 20)
#    0.000    1.333    2.222    0.000    9.333    7.111 
#    0.000    0.000    0.000    1.333    0.000    0.000 
#    0.000    0.000    0.000    0.000    0.000    0.000 
#
# Total GULP energy -100373.514784 kJ/mol
# GULP energy per Si atom -5576.306377 kJ/mol
# Density = 2.433509 g / cm^3
# Si number density = 24.390605 Si / 1000 Ang^3
#
#
#
# Elastic Constant Matrix: (Units=GPa)
#
#
# Indices 1 2 3 4 5 6 
#
# 1 98.2225 53.3173 50.0398 0.0000 0.0000 0.0000
# 2 53.3173 226.4486 129.5377 0.0000 0.0000 0.0000
# 3 50.0398 129.5377 257.6484 0.0000 0.0000 0.0000
# 4 0.0000 0.0000 0.0000 47.7819 0.0000 0.0000
# 5 0.0000 0.0000 0.0000 0.0000 48.5112 0.0000
# 6 0.0000 0.0000 0.0000 0.0000 0.0000 -34.3647
#
#
#
# Elastic Compliance Matrix: (Units=1/GPa)
#
#
# Indices 1 2 3 4 5 6 
#
# 1 0.011963 -0.002088 -0.001274 0.000000 0.000000 0.000000
# 2 -0.002088 0.006563 -0.002894 0.000000 0.000000 0.000000
# 3 -0.001274 -0.002894 0.005584 0.000000 0.000000 0.000000
# 4 0.000000 0.000000 0.000000 0.020928 0.000000 0.000000
# 5 0.000000 0.000000 0.000000 0.000000 0.020614 0.000000
# 6 0.000000 0.000000 0.000000 0.000000 0.000000 -0.029100
#
#
# Mechanical properties :
#
#
# Convention : Reuss Voigt Hill
#
# Bulk Modulus (GPa) = 86.21987 116.45659 101.33823
# Shear Modulus (GPa) = 94.46217 35.68067 65.07142
#
# Velocity S-wave (km/s) = 6.23001 3.82892 5.17076
# Velocity P-wave (km/s) = 9.33686 8.20961 8.79132
#
# Compressibility (1/GPa) = 0.01159825
#
# Stress axis : x y z
#
# Youngs Moduli (GPa) = 83.58871 152.36187 179.09075
#
# Poissons Ratio (x) = 0.31817 0.22809
# Poissons Ratio (y) = 0.17455 0.51834
# Poissons Ratio (z) = 0.10646 0.44098
#
# Static dielectric constant tensor:
#      x y z
#    x 2.151040 0.000000 0.000000 
#    y 0.000000 1.944960 0.000000 
#    z 0.000000 0.000000 2.018640 
# 
# From -- ./inp_files/21155.got.cif
#   From: 2010.05.17/outbox.cif.g08.bks.cpg/sg53_11_cif.got.tgz:21155.got - 2010.06.03 12:45:16.
