data_PCOD9419146
_publ_section_title
;
Structure prediction by ZEFSAII (Michael W. Deem and Ramdas Pophale) SiO2 
 PCOD9419146
Probable space group: P M N A
;
_chemical_formula_sum "Si O2"
_cell_formula_units_Z 48
_cell_length_a 8.084274
_cell_length_b 32.711730
_cell_length_c 9.242610
_cell_angle_alpha 90.000000
_cell_angle_beta 90.000000
_cell_angle_gamma 90.000000
_cell_volume 2444.213652
_symmetry_space_group_name_H-M "P M N A"
_symmetry_group_IT_number 53
_symmetry_cell_setting 'orthorhombic'
loop_
_space_group_symop_operation_xyz
x,y,z
1/2-x,-y,1/2+z
x,-y,-z
1/2-x,y,1/2-z
-x,-y,-z
1/2+x,y,1/2-z
-x,y,z
1/2+x,-y,1/2+z
loop_
_atom_site_type_symbol
_atom_site_label
_atom_site_fract_x
_atom_site_fract_y
_atom_site_fract_z
Si Si1 0.700294 0.782427 0.581797
Si Si2 0.697175 0.702497 0.415803
Si Si3 0.697313 0.378737 0.083516
Si Si4 0.799915 0.959994 0.917572
Si Si5 0.699961 0.459343 0.917012
Si Si6 0.199374 0.871471 0.918792
O O1 0.750000 0.778064 0.750000
O O2 0.500000 0.782391 0.577091
O O3 0.762997 0.744091 0.489764
O O4 0.757966 0.827194 0.525864
O O5 0.750000 0.698938 0.250000
O O6 0.500000 0.704629 0.419841
O O7 0.749001 0.662871 0.506150
O O8 0.750000 0.379617 0.250000
O O9 0.500000 0.380280 0.078888
O O10 0.761567 0.418470 0.997275
O O11 0.750000 0.962461 0.750000
O O12 0.742212 0.915546 0.977051
O O13 0.000000 0.960183 0.925327
O O14 0.737092 0.000000 0.000000
O O15 0.750000 0.459797 0.750000
O O16 0.500000 0.459196 0.923239
O O17 0.758502 0.500000 0.000000
O O18 0.250000 0.871595 0.750000
O O19 0.000000 0.871465 0.928124
#
# Coordination Sequence:
#
# PCOD9419146 Si02
#       6
#     8   8   8   8   8   8
#     4   9  18  32  52  75  97 126 165 209 253 300
#     4  11  23  38  55  77 107 141 176 215 262 313
#     4  11  23  39  60  85 112 143 181 222 265 313
#     4   9  17  29  46  68  94 125 160 200 246 296
#     4  10  22  39  59  85 115 147 183 222 265 313
#     4   8  14  27  46  67  92 122 159 201 245 294
#
# _framework density 19.638217000000001
#
# number of rings (size 3 to 8) (size 9 to 14) (size 15 to 20)
#    0.000    2.333    0.000    2.500    0.000    6.000 
#    0.000    0.833    0.000    0.000    0.000    0.000 
#    0.000    0.000    0.000    0.000    0.000    0.000 
#
# Total GULP energy -267736.729969 kJ/mol
# GULP energy per Si atom -5577.848541 kJ/mol
# Density = 1.959352 g / cm^3
# Si number density = 19.638217 Si / 1000 Ang^3
#
#
#
# Elastic Constant Matrix: (Units=GPa)
#
#
# Indices 1 2 3 4 5 6 
#
# 1 19.5988 20.0596 5.8609 0.0000 0.0000 0.0000
# 2 20.0596 254.7526 108.3925 0.0000 0.0000 0.0000
# 3 5.8609 108.3925 124.8483 0.0000 0.0000 0.0000
# 4 0.0000 0.0000 0.0000 34.9223 0.0000 0.0000
# 5 0.0000 0.0000 0.0000 0.0000 28.3877 0.0000
# 6 0.0000 0.0000 0.0000 0.0000 0.0000 26.9453
#
#
#
# Elastic Compliance Matrix: (Units=1/GPa)
#
#
# Indices 1 2 3 4 5 6 
#
# 1 0.055777 -0.005198 0.001895 0.000000 0.000000 0.000000
# 2 -0.005198 0.006709 -0.005581 0.000000 0.000000 0.000000
# 3 0.001895 -0.005581 0.012766 0.000000 0.000000 0.000000
# 4 0.000000 0.000000 0.000000 0.028635 0.000000 0.000000
# 5 0.000000 0.000000 0.000000 0.000000 0.035227 0.000000
# 6 0.000000 0.000000 0.000000 0.000000 0.000000 0.037112
#
#
# Mechanical properties :
#
#
# Convention : Reuss Voigt Hill
#
# Bulk Modulus (GPa) = 17.39627 74.20285 45.79956
# Shear Modulus (GPa) = 23.45695 35.71016 29.58356
#
# Velocity S-wave (km/s) = 3.45984 4.26890 3.88548
# Velocity P-wave (km/s) = 4.98380 7.88447 6.59557
#
# Compressibility (1/GPa) = 0.05748360
#
# Stress axis : x y z
#
# Youngs Moduli (GPa) = 17.92849 149.04783 78.33243
#
# Poissons Ratio (x) = 0.77476 -0.14840
# Poissons Ratio (y) = 0.09319 0.43717
# Poissons Ratio (z) = -0.03397 0.83182
#
# Static dielectric constant tensor:
#      x y z
#    x 1.696670 0.000000 0.000000 
#    y 0.000000 1.754980 0.000000 
#    z 0.000000 0.000000 1.617810 
# 
# From -- ./inp_files/6577.got.cif
#   From: 2010.05.17/outbox.cif.g08.bks.cpg/sg53_4_cif.got.tgz:6577.got - 2010.06.03 12:45:16.
