data_PCOD9419953
_publ_section_title
;
Structure prediction by ZEFSAII (Michael W. Deem and Ramdas Pophale) SiO2 
 PCOD9419953
Probable space group: P M N A
;
_chemical_formula_sum "Si O2"
_cell_formula_units_Z 40
_cell_length_a 26.212372
_cell_length_b 8.610758
_cell_length_c 8.174344
_cell_angle_alpha 90.000000
_cell_angle_beta 90.000000
_cell_angle_gamma 90.000000
_cell_volume 1845.018039
_symmetry_space_group_name_H-M "P M N A"
_symmetry_group_IT_number 53
_symmetry_cell_setting 'orthorhombic'
loop_
_space_group_symop_operation_xyz
x,y,z
1/2-x,-y,1/2+z
x,-y,-z
1/2-x,y,1/2-z
-x,-y,-z
1/2+x,y,1/2-z
-x,y,z
1/2+x,-y,1/2+z
loop_
_atom_site_type_symbol
_atom_site_label
_atom_site_fract_x
_atom_site_fract_y
_atom_site_fract_z
Si Si1 0.056935 0.179201 0.953000
Si Si2 0.698792 0.404240 0.848054
Si Si3 0.132720 0.370935 0.124936
Si Si4 0.632353 0.898392 0.159706
Si Si5 0.207418 0.117563 0.130402
O O1 0.090238 0.174458 0.784621
O O2 0.000000 0.242275 0.925752
O O3 0.083954 0.258770 0.111621
O O4 0.053649 0.000000 0.000000
O O5 0.750000 0.362662 0.750000
O O6 0.659078 0.529236 0.767335
O O7 0.667957 0.247558 0.890413
O O8 0.719231 0.500000 0.000000
O O9 0.177113 0.259897 0.053921
O O10 0.116348 0.500000 0.000000
O O11 0.666698 0.016278 0.267704
O O12 0.615503 0.000000 0.000000
O O13 0.250000 0.179494 0.250000
O O14 0.230659 0.000000 0.000000
#
# Coordination Sequence:
#
# PCOD9419953 Si02
#       5
#     8   8   8   8   8
#     4  11  24  47  77 101 130 180 239 295 350 408
#     4  12  27  43  67 102 144 191 229 282 353 420
#     4  12  22  43  68  97 139 173 225 288 344 417
#     4  12  24  44  68  96 140 180 230 290 339 418
#     4  12  23  40  63  96 131 181 230 273 337 413
#
# _framework density 21.680005000000001
#
# number of rings (size 3 to 8) (size 9 to 14) (size 15 to 20)
#    0.000    0.200    6.000    3.600    0.000    5.600 
#    0.000    2.000    0.000    1.200    0.000    0.000 
#    0.000    0.000    0.000    0.000    0.000    0.000 
#
# Total GULP energy -223171.132824 kJ/mol
# GULP energy per Si atom -5579.278321 kJ/mol
# Density = 2.163066 g / cm^3
# Si number density = 21.680005 Si / 1000 Ang^3
#
#
#
# Elastic Constant Matrix: (Units=GPa)
#
#
# Indices 1 2 3 4 5 6 
#
# 1 110.7119 20.2209 13.0947 0.0000 0.0000 0.0000
# 2 20.2209 102.8079 -0.5741 0.0000 0.0000 0.0000
# 3 13.0947 -0.5741 39.4864 0.0000 0.0000 0.0000
# 4 0.0000 0.0000 0.0000 37.7040 0.0000 0.0000
# 5 0.0000 0.0000 0.0000 0.0000 26.7041 0.0000
# 6 0.0000 0.0000 0.0000 0.0000 0.0000 11.5946
#
#
#
# Elastic Compliance Matrix: (Units=1/GPa)
#
#
# Indices 1 2 3 4 5 6 
#
# 1 0.009774 -0.001941 -0.003269 0.000000 0.000000 0.000000
# 2 -0.001941 0.010113 0.000791 0.000000 0.000000 0.000000
# 3 -0.003269 0.000791 0.026421 0.000000 0.000000 0.000000
# 4 0.000000 0.000000 0.000000 0.026522 0.000000 0.000000
# 5 0.000000 0.000000 0.000000 0.000000 0.037447 0.000000
# 6 0.000000 0.000000 0.000000 0.000000 0.000000 0.086247
#
#
# Mechanical properties :
#
#
# Convention : Reuss Voigt Hill
#
# Bulk Modulus (GPa) = 26.68899 35.38770 31.03835
# Shear Modulus (GPa) = 22.95127 29.88485 26.41806
#
# Velocity S-wave (km/s) = 3.25720 3.71678 3.49455
# Velocity P-wave (km/s) = 5.14616 5.89724 5.53446
#
# Compressibility (1/GPa) = 0.03746864
#
# Stress axis : x y z
#
# Youngs Moduli (GPa) = 102.31664 98.88284 37.84886
#
# Poissons Ratio (x) = 0.19189 0.12374
# Poissons Ratio (y) = 0.19855 -0.02992
# Poissons Ratio (z) = 0.33451 -0.07817
#
# Static dielectric constant tensor:
#      x y z
#    x 1.789880 0.000000 0.000000 
#    y 0.000000 2.467270 0.000000 
#    z 0.000000 0.000000 1.874470 
# 
# From -- ./inp_files/11569.got.cif
#   From: 2010.05.17/outbox.cif.g08.bks.cpg/sg53_6_cif.got.tgz:11569.got - 2010.06.03 12:45:16.
