data_PCOD9419408
_publ_section_title
;
Structure prediction by ZEFSAII (Michael W. Deem and Ramdas Pophale) SiO2 
 PCOD9419408
Probable space group: P M N A
;
_chemical_formula_sum "Si O2"
_cell_formula_units_Z 56
_cell_length_a 8.420425
_cell_length_b 15.168616
_cell_length_c 23.063572
_cell_angle_alpha 90.000000
_cell_angle_beta 90.000000
_cell_angle_gamma 90.000000
_cell_volume 2945.822257
_symmetry_space_group_name_H-M "P M N A"
_symmetry_group_IT_number 53
_symmetry_cell_setting 'orthorhombic'
loop_
_space_group_symop_operation_xyz
x,y,z
1/2-x,-y,1/2+z
x,-y,-z
1/2-x,y,1/2-z
-x,-y,-z
1/2+x,y,1/2-z
-x,y,z
1/2+x,-y,1/2+z
loop_
_atom_site_type_symbol
_atom_site_label
_atom_site_fract_x
_atom_site_fract_y
_atom_site_fract_z
Si Si1 0.687494 0.596226 0.525657
Si Si2 0.311519 0.805988 0.687529
Si Si3 0.691470 0.576518 0.187671
Si Si4 0.810755 0.700956 0.418017
Si Si5 0.812843 0.617634 0.652902
Si Si6 0.692000 0.884000 0.445498
Si Si7 0.693285 0.916075 0.576812
O O1 0.728373 0.500000 0.500000
O O2 0.500000 0.597921 0.539096
O O3 0.727011 0.665833 0.475924
O O4 0.782113 0.615012 0.584098
O O5 0.250000 0.836455 0.750000
O O6 0.500000 0.814880 0.687435
O O7 0.268754 0.703532 0.678907
O O8 0.248658 0.860518 0.631840
O O9 0.750000 0.607279 0.250000
O O10 0.500000 0.574801 0.186971
O O11 0.743047 0.640232 0.135599
O O12 0.747994 0.476173 0.176861
O O13 0.766817 0.802935 0.411493
O O14 0.000000 0.690549 0.424350
O O15 0.000000 0.623822 0.664790
O O16 0.500000 0.877585 0.443670
O O17 0.741798 0.880218 0.513469
O O18 0.736804 0.980655 0.422028
O O19 0.500000 0.912635 0.576832
#
# Coordination Sequence:
#
# PCOD9419408 Si02
#       7
#     8   8   8   8   8   8   8
#     4  11  22  35  55  84 113 148 189 229 272 330
#     4  11  22  37  56  83 116 153 194 237 284 343
#     4  10  23  39  55  74 105 147 189 228 273 322
#     4  11  22  37  55  82 116 148 181 230 283 331
#     4  11  22  38  58  82 113 151 186 232 288 336
#     4   9  17  35  62  87 107 140 184 230 284 342
#     4   8  17  35  59  83 111 141 180 231 284 337
#
# _framework density 19.009972999999999
#
# number of rings (size 3 to 8) (size 9 to 14) (size 15 to 20)
#    0.000    1.857    1.429    3.857    0.000    5.143 
#    0.000    4.286    0.000    3.429    0.000    0.000 
#    0.000    0.000    0.000    0.000    0.000    0.000 
#
# Total GULP energy -312821.983445 kJ/mol
# GULP energy per Si atom -5586.106847 kJ/mol
# Density = 1.896671 g / cm^3
# Si number density = 19.009973 Si / 1000 Ang^3
#
#
#
# Elastic Constant Matrix: (Units=GPa)
#
#
# Indices 1 2 3 4 5 6 
#
# 1 13.2330 7.1356 3.0185 0.0000 0.0000 0.0000
# 2 7.1356 106.0809 40.0232 0.0000 0.0000 0.0000
# 3 3.0185 40.0232 86.7640 0.0000 0.0000 0.0000
# 4 0.0000 0.0000 0.0000 8.5626 0.0000 0.0000
# 5 0.0000 0.0000 0.0000 0.0000 28.1843 0.0000
# 6 0.0000 0.0000 0.0000 0.0000 0.0000 20.7306
#
#
#
# Elastic Compliance Matrix: (Units=1/GPa)
#
#
# Indices 1 2 3 4 5 6 
#
# 1 0.078422 -0.005140 -0.000357 0.000000 0.000000 0.000000
# 2 -0.005140 0.011750 -0.005241 0.000000 0.000000 0.000000
# 3 -0.000357 -0.005241 0.013956 0.000000 0.000000 0.000000
# 4 0.000000 0.000000 0.000000 0.116787 0.000000 0.000000
# 5 0.000000 0.000000 0.000000 0.000000 0.035481 0.000000
# 6 0.000000 0.000000 0.000000 0.000000 0.000000 0.048238
#
#
# Mechanical properties :
#
#
# Convention : Reuss Voigt Hill
#
# Bulk Modulus (GPa) = 12.09920 34.04807 23.07363
# Shear Modulus (GPa) = 14.13785 21.88888 18.01337
#
# Velocity S-wave (km/s) = 2.73006 3.39697 3.08161
# Velocity P-wave (km/s) = 4.03932 5.77368 4.98254
#
# Compressibility (1/GPa) = 0.08265011
#
# Stress axis : x y z
#
# Youngs Moduli (GPa) = 12.75153 85.10614 71.65532
#
# Poissons Ratio (x) = 0.43748 0.02559
# Poissons Ratio (y) = 0.06555 0.37557
# Poissons Ratio (z) = 0.00455 0.44607
#
# Static dielectric constant tensor:
#      x y z
#    x 1.654350 0.000000 0.000000 
#    y 0.000000 1.667850 0.000000 
#    z 0.000000 0.000000 1.630310 
# 
# From -- ./inp_files/30800.got.cif
#   From: 2010.05.17/outbox.cif.g08.bks.cpg/sg53_16_cif.got.tgz:30800.got - 2010.06.03 12:45:16.
