data_PCOD9419009
_publ_section_title
;
Structure prediction by ZEFSAII (Michael W. Deem and Ramdas Pophale) SiO2 
 PCOD9419009
Probable space group: P M N A
;
_chemical_formula_sum "Si O2"
_cell_formula_units_Z 60
_cell_length_a 9.498111
_cell_length_b 17.433870
_cell_length_c 18.796456
_cell_angle_alpha 90.000000
_cell_angle_beta 90.000000
_cell_angle_gamma 90.000000
_cell_volume 3112.483203
_symmetry_space_group_name_H-M "P M N A"
_symmetry_group_IT_number 53
_symmetry_cell_setting 'orthorhombic'
loop_
_space_group_symop_operation_xyz
x,y,z
1/2-x,-y,1/2+z
x,-y,-z
1/2-x,y,1/2-z
-x,-y,-z
1/2+x,y,1/2-z
-x,y,z
1/2+x,-y,1/2+z
loop_
_atom_site_type_symbol
_atom_site_label
_atom_site_fract_x
_atom_site_fract_y
_atom_site_fract_z
Si Si1 0.837275 0.617855 0.930261
Si Si2 0.330579 0.640723 0.073882
Si Si3 0.663052 0.125497 0.095400
Si Si4 0.738698 0.032772 0.859878
Si Si5 0.831595 0.473764 0.824208
Si Si6 0.000000 0.020595 0.760901
Si Si7 0.665412 0.180660 0.936968
Si Si8 0.165685 0.243432 0.180227
O O1 0.818097 0.546682 0.876825
O O2 0.819155 0.693820 0.882286
O O3 0.000000 0.615910 0.956520
O O4 0.732375 0.616702 0.996958
O O5 0.500000 0.627972 0.076755
O O6 0.246632 0.594925 0.134357
O O7 0.303313 0.731707 0.081973
O O8 0.500000 0.134734 0.117835
O O9 0.762439 0.165279 0.153335
O O10 0.694321 0.035769 0.087488
O O11 0.684236 0.168014 0.020919
O O12 0.879494 0.009480 0.821389
O O13 0.620253 0.035235 0.799962
O O14 0.750516 0.115680 0.896030
O O15 0.750000 0.487056 0.750000
O O16 0.000000 0.460502 0.813160
O O17 0.500000 0.166835 0.921876
O O18 0.250000 0.269599 0.250000
O O19 0.000000 0.233823 0.195374
#
# Coordination Sequence:
#
# PCOD9419009 Si02
#       8
#     8   8   8   8   8   4   8   8
#     4  10  22  43  66  93 128 169 207 257 317 378
#     4  11  23  41  66  97 130 167 214 262 313 381
#     4  11  22  38  65  88 122 166 212 260 313 373
#     4  11  22  42  61  90 120 168 211 266 312 377
#     4  11  24  44  68  96 129 167 213 261 318 379
#     4  10  24  40  62  88 124 158 216 262 324 374
#     4  10  21  42  63  90 123 165 214 258 309 372
#     4  11  24  38  59  91 129 165 204 257 313 374
#
# _framework density 19.277211000000001
#
# number of rings (size 3 to 8) (size 9 to 14) (size 15 to 20)
#    0.000    1.333    2.667    2.400    2.800    4.267 
#    6.000    0.667    0.000    0.000    0.000    0.000 
#    0.000    0.000    0.000    0.000    0.000    0.000 
#
# Total GULP energy -334055.007238 kJ/mol
# GULP energy per Si atom -5567.583454 kJ/mol
# Density = 1.923334 g / cm^3
# Si number density = 19.277211 Si / 1000 Ang^3
#
#
#
# Elastic Constant Matrix: (Units=GPa)
#
#
# Indices 1 2 3 4 5 6 
#
# 1 129.3746 32.3704 24.3644 0.0000 0.0000 0.0000
# 2 32.3704 91.5481 18.5108 0.0000 0.0000 0.0000
# 3 24.3644 18.5108 21.2046 0.0000 0.0000 0.0000
# 4 0.0000 0.0000 0.0000 786.5844 0.0000 0.0000
# 5 0.0000 0.0000 0.0000 0.0000 -4.7173 0.0000
# 6 0.0000 0.0000 0.0000 0.0000 0.0000 73.0149
#
#
#
# Elastic Compliance Matrix: (Units=1/GPa)
#
#
# Indices 1 2 3 4 5 6 
#
# 1 0.010026 -0.001476 -0.010231 0.000000 0.000000 0.000000
# 2 -0.001476 0.013482 -0.010073 0.000000 0.000000 0.000000
# 3 -0.010231 -0.010073 0.067708 0.000000 0.000000 0.000000
# 4 0.000000 0.000000 0.000000 0.001271 0.000000 0.000000
# 5 0.000000 0.000000 0.000000 0.000000 -0.211987 0.000000
# 6 0.000000 0.000000 0.000000 0.000000 0.000000 0.013696
#
#
# Mechanical properties :
#
#
# Convention : Reuss Voigt Hill
#
# Bulk Modulus (GPa) = 20.98384 43.62428 32.30406
# Shear Modulus (GPa) = -107.85465 182.10185 37.12360
#
# Velocity S-wave (km/s) = -7.48804 9.72985 4.39313
# Velocity P-wave (km/s) = 7.99075 12.20269 6.52126
#
# Compressibility (1/GPa) = 0.04765572
#
# Stress axis : x y z
#
# Youngs Moduli (GPa) = 99.74486 74.17334 14.76925
#
# Poissons Ratio (x) = 0.10950 0.15110
# Poissons Ratio (y) = 0.14725 0.14877
# Poissons Ratio (z) = 1.02047 0.74714
#
# Static dielectric constant tensor:
#      x y z
#    x 1.655520 0.000000 0.000000 
#    y 0.000000 1.696140 0.000000 
#    z 0.000000 0.000000 1.653850 
# 
# From -- ./inp_files/26614.got.cif
#   From: 2010.05.17/outbox.cif.g08.bks.cpg/sg53_14_cif.got.tgz:26614.got - 2010.06.03 12:45:16.
