data_PCOD9419562
_publ_section_title
;
Structure prediction by ZEFSAII (Michael W. Deem and Ramdas Pophale) SiO2 
 PCOD9419562
Probable space group: P M N A
;
_chemical_formula_sum "Si O2"
_cell_formula_units_Z 48
_cell_length_a 14.467142
_cell_length_b 5.631275
_cell_length_c 26.074928
_cell_angle_alpha 90.000000
_cell_angle_beta 90.000000
_cell_angle_gamma 90.000000
_cell_volume 2124.284100
_symmetry_space_group_name_H-M "P M N A"
_symmetry_group_IT_number 53
_symmetry_cell_setting 'orthorhombic'
loop_
_space_group_symop_operation_xyz
x,y,z
1/2-x,-y,1/2+z
x,-y,-z
1/2-x,y,1/2-z
-x,-y,-z
1/2+x,y,1/2-z
-x,y,z
1/2+x,-y,1/2+z
loop_
_atom_site_type_symbol
_atom_site_label
_atom_site_fract_x
_atom_site_fract_y
_atom_site_fract_z
Si Si1 0.101396 0.132138 0.133140
Si Si2 0.639614 0.935438 0.750160
Si Si3 0.797604 0.857872 0.052950
Si Si4 0.102336 0.568749 0.307671
Si Si5 0.102274 0.939145 0.560146
Si Si6 0.273603 0.551316 0.900046
O O1 0.191196 0.292280 0.123880
O O2 0.000000 0.238182 0.123009
O O3 0.104731 0.054214 0.191944
O O4 0.122081 0.924391 0.092285
O O5 0.750000 0.936635 0.750000
O O6 0.609202 0.180527 0.777667
O O7 0.611694 0.680177 0.775551
O O8 0.782197 0.580171 0.054857
O O9 0.695425 0.924466 0.076225
O O10 0.807717 0.000000 0.000000
O O11 0.182072 0.567797 0.349978
O O12 0.000000 0.559550 0.331254
O O13 0.138132 0.676470 0.573003
O O14 0.000000 0.983957 0.582384
O O15 0.095940 0.000000 0.500000
#
# Coordination Sequence:
#
# PCOD9419562 Si02
#       6
#     8   8   8   8   8   8
#     4  11  25  45  71 103 139 184 240 299 363 436
#     4  12  25  48  72 110 150 194 240 298 366 436
#     4  10  24  45  68  97 137 182 236 298 364 430
#     4  12  26  44  74 110 152 194 240 298 366 443
#     4   9  20  39  65  97 136 181 231 289 354 427
#     4  11  24  44  68 103 138 189 237 300 364 432
#
# _framework density 22.595848
#
# number of rings (size 3 to 8) (size 9 to 14) (size 15 to 20)
#    0.000    1.167    1.667    3.500    4.667    8.333 
#    0.000    5.000    0.000    0.000    0.000    0.000 
#    0.000    0.000    0.000    0.000    0.000    0.000 
#
# Total GULP energy -267364.119137 kJ/mol
# GULP energy per Si atom -5570.085815 kJ/mol
# Density = 2.254442 g / cm^3
# Si number density = 22.595848 Si / 1000 Ang^3
#
#
#
# Elastic Constant Matrix: (Units=GPa)
#
#
# Indices 1 2 3 4 5 6 
#
# 1 149.8723 12.5875 37.5381 0.0000 0.0000 0.0000
# 2 12.5875 93.3670 75.5696 0.0000 0.0000 0.0000
# 3 37.5381 75.5696 136.0483 0.0000 0.0000 0.0000
# 4 0.0000 0.0000 0.0000 31.4246 0.0000 0.0000
# 5 0.0000 0.0000 0.0000 0.0000 22.6872 0.0000
# 6 0.0000 0.0000 0.0000 0.0000 0.0000 11.6854
#
#
#
# Elastic Compliance Matrix: (Units=1/GPa)
#
#
# Indices 1 2 3 4 5 6 
#
# 1 0.007237 0.001164 -0.002643 0.000000 0.000000 0.000000
# 2 0.001164 0.019646 -0.011234 0.000000 0.000000 0.000000
# 3 -0.002643 -0.011234 0.014319 0.000000 0.000000 0.000000
# 4 0.000000 0.000000 0.000000 0.031822 0.000000 0.000000
# 5 0.000000 0.000000 0.000000 0.000000 0.044078 0.000000
# 6 0.000000 0.000000 0.000000 0.000000 0.000000 0.085577
#
#
# Mechanical properties :
#
#
# Convention : Reuss Voigt Hill
#
# Bulk Modulus (GPa) = 63.38808 70.07534 66.73171
# Shear Modulus (GPa) = 21.42583 30.06559 25.74571
#
# Velocity S-wave (km/s) = 3.08266 3.65167 3.37916
# Velocity P-wave (km/s) = 6.38626 6.98995 6.69491
#
# Compressibility (1/GPa) = 0.01577584
#
# Stress axis : x y z
#
# Youngs Moduli (GPa) = 138.18613 50.90155 69.83540
#
# Poissons Ratio (x) = -0.05923 0.18458
# Poissons Ratio (y) = -0.16080 0.78450
# Poissons Ratio (z) = 0.36523 0.57180
#
# Static dielectric constant tensor:
#      x y z
#    x 1.796080 0.000000 0.000000 
#    y 0.000000 2.215680 0.000000 
#    z 0.000000 0.000000 1.752790 
# 
# From -- ./inp_files/37003.got.cif
#   From: 2010.05.17/outbox.cif.g08.bks.cpg/sg53_19_cif.got.tgz:37003.got - 2010.06.03 12:45:16.
