data_PCOD9419292
_publ_section_title
;
Structure prediction by ZEFSAII (Michael W. Deem and Ramdas Pophale) SiO2 
 PCOD9419292
Probable space group: P M N A
;
_chemical_formula_sum "Si O2"
_cell_formula_units_Z 32
_cell_length_a 10.325163
_cell_length_b 9.952671
_cell_length_c 13.158568
_cell_angle_alpha 90.000000
_cell_angle_beta 90.000000
_cell_angle_gamma 90.000000
_cell_volume 1352.213270
_symmetry_space_group_name_H-M "P M N A"
_symmetry_group_IT_number 53
_symmetry_cell_setting 'orthorhombic'
loop_
_space_group_symop_operation_xyz
x,y,z
1/2-x,-y,1/2+z
x,-y,-z
1/2-x,y,1/2-z
-x,-y,-z
1/2+x,y,1/2-z
-x,y,z
1/2+x,-y,1/2+z
loop_
_atom_site_type_symbol
_atom_site_label
_atom_site_fract_x
_atom_site_fract_y
_atom_site_fract_z
Si Si1 0.197128 0.297313 0.962025
Si Si2 0.356110 0.445569 0.331744
Si Si3 0.849941 0.041941 0.834081
Si Si4 0.362691 0.129567 0.072308
O O1 0.138894 0.358157 0.065150
O O2 0.339559 0.257133 0.000665
O O3 0.182190 0.406944 0.874583
O O4 0.144416 0.155022 0.921832
O O5 0.250000 0.400375 0.250000
O O6 0.500000 0.449943 0.286803
O O7 0.750000 0.101130 0.750000
O O8 0.000000 0.018512 0.805386
O O9 0.766959 0.909693 0.865641
O O10 0.500000 0.145152 0.127383
O O11 0.373558 0.000000 0.000000
#
# Coordination Sequence:
#
# PCOD9419292 Si02
#       4
#     8   8   8   8
#     4  10  22  41  66  90 123 167 210 255 311 375
#     4  11  24  42  64  92 125 163 211 262 314 373
#     4  11  22  37  62  94 128 167 210 256 310 373
#     4   9  20  38  60  87 119 156 201 253 307 366
#
# _framework density 23.664905000000001
#
# number of rings (size 3 to 8) (size 9 to 14) (size 15 to 20)
#    0.000    1.750    0.000    4.500    0.000   10.500 
#    0.000    2.500    0.000    0.000    0.000    0.000 
#    0.000    0.000    0.000    0.000    0.000    0.000 
#
# Total GULP energy -178286.924789 kJ/mol
# GULP energy per Si atom -5571.466400 kJ/mol
# Density = 2.361104 g / cm^3
# Si number density = 23.664905 Si / 1000 Ang^3
#
#
#
# Elastic Constant Matrix: (Units=GPa)
#
#
# Indices 1 2 3 4 5 6 
#
# 1 235.8734 43.6151 63.7527 0.0000 0.0000 0.0000
# 2 43.6151 73.7995 5.8679 0.0000 0.0000 0.0000
# 3 63.7527 5.8679 91.5873 0.0000 0.0000 0.0000
# 4 0.0000 0.0000 0.0000 31.8762 0.0000 0.0000
# 5 0.0000 0.0000 0.0000 0.0000 9.8472 0.0000
# 6 0.0000 0.0000 0.0000 0.0000 0.0000 -61.6991
#
#
#
# Elastic Compliance Matrix: (Units=1/GPa)
#
#
# Indices 1 2 3 4 5 6 
#
# 1 0.005875 -0.003163 -0.003887 0.000000 0.000000 0.000000
# 2 -0.003163 0.015323 0.001220 0.000000 0.000000 0.000000
# 3 -0.003887 0.001220 0.013546 0.000000 0.000000 0.000000
# 4 0.000000 0.000000 0.000000 0.031371 0.000000 0.000000
# 5 0.000000 0.000000 0.000000 0.000000 0.101552 0.000000
# 6 0.000000 0.000000 0.000000 0.000000 0.000000 -0.016208
#
#
# Mechanical properties :
#
#
# Convention : Reuss Voigt Hill
#
# Bulk Modulus (GPa) = 43.32035 69.74796 56.53416
# Shear Modulus (GPa) = 29.27166 15.20647 22.23906
#
# Velocity S-wave (km/s) = 3.52081 2.53766 3.06886
# Velocity P-wave (km/s) = 5.90539 6.17442 6.04140
#
# Compressibility (1/GPa) = 0.02308384
#
# Stress axis : x y z
#
# Youngs Moduli (GPa) = 170.21309 65.26325 73.82267
#
# Poissons Ratio (x) = 0.20643 0.28694
# Poissons Ratio (y) = 0.53839 -0.09007
# Poissons Ratio (z) = 0.66159 -0.07962
#
# Static dielectric constant tensor:
#      x y z
#    x 1.960910 0.000000 0.000000 
#    y 0.000000 1.916540 0.000000 
#    z 0.000000 0.000000 2.040540 
# 
# From -- ./inp_files/19530.got.cif
#   From: 2010.05.17/outbox.cif.g08.bks.cpg/sg53_10_cif.got.tgz:19530.got - 2010.06.03 12:45:16.
