data_PCOD9419736
_publ_section_title
;
Structure prediction by ZEFSAII (Michael W. Deem and Ramdas Pophale) SiO2 
 PCOD9419736
Probable space group: P M N A
;
_chemical_formula_sum "Si O2"
_cell_formula_units_Z 48
_cell_length_a 8.790977
_cell_length_b 10.125011
_cell_length_c 28.377516
_cell_angle_alpha 90.000000
_cell_angle_beta 90.000000
_cell_angle_gamma 90.000000
_cell_volume 2525.846910
_symmetry_space_group_name_H-M "P M N A"
_symmetry_group_IT_number 53
_symmetry_cell_setting 'orthorhombic'
loop_
_space_group_symop_operation_xyz
x,y,z
1/2-x,-y,1/2+z
x,-y,-z
1/2-x,y,1/2-z
-x,-y,-z
1/2+x,y,1/2-z
-x,y,z
1/2+x,-y,1/2+z
loop_
_atom_site_type_symbol
_atom_site_label
_atom_site_fract_x
_atom_site_fract_y
_atom_site_fract_z
Si Si1 0.320151 0.533956 0.894621
Si Si2 0.320614 0.028258 0.609007
Si Si3 0.819674 0.290650 0.948363
Si Si4 0.680107 0.801534 0.953024
Si Si5 0.181529 0.612521 0.799375
Si Si6 0.318528 0.907295 0.799186
O O1 0.500000 0.515091 0.887654
O O2 0.255907 0.424255 0.929847
O O3 0.297611 0.677891 0.917844
O O4 0.235033 0.531083 0.844695
O O5 0.500000 0.007214 0.617138
O O6 0.263965 0.927438 0.568791
O O7 0.230651 0.994011 0.656410
O O8 0.297084 0.175891 0.590310
O O9 0.000000 0.309476 0.955275
O O10 0.745621 0.240701 0.996703
O O11 0.500000 0.827998 0.956448
O O12 0.250000 0.562286 0.750000
O O13 0.248569 0.760605 0.805609
O O14 0.000000 0.618944 0.796606
O O15 0.250000 0.958628 0.750000
O O16 0.500000 0.896311 0.796236
#
# Coordination Sequence:
#
# PCOD9419736 Si02
#       6
#     8   8   8   8   8   8
#     4  11  23  40  61  89 122 157 201 248 296 355
#     4  11  23  40  61  88 121 158 200 248 297 353
#     4  11  25  41  59  86 122 161 202 247 301 357
#     4  11  23  39  62  89 118 156 204 251 297 353
#     4  11  21  36  61  90 121 155 195 245 295 349
#     4  11  21  36  60  90 120 153 195 244 295 351
#
# _framework density 19.003527999999999
#
# number of rings (size 3 to 8) (size 9 to 14) (size 15 to 20)
#    0.000    1.000    1.667    7.000    0.000    8.667 
#    0.000    0.833    0.000    4.000    0.000    0.000 
#    0.000    0.000    0.000    0.000    0.000    0.000 
#
# Total GULP energy -268535.620771 kJ/mol
# GULP energy per Si atom -5594.492099 kJ/mol
# Density = 1.896027 g / cm^3
# Si number density = 19.003528 Si / 1000 Ang^3
#
#
#
# Elastic Constant Matrix: (Units=GPa)
#
#
# Indices 1 2 3 4 5 6 
#
# 1 104.9233 19.0546 22.0234 0.0000 0.0000 0.0000
# 2 19.0546 19.6176 -24.9820 0.0000 0.0000 0.0000
# 3 22.0234 -24.9820 83.3338 0.0000 0.0000 0.0000
# 4 0.0000 0.0000 0.0000 -2.3293 0.0000 0.0000
# 5 0.0000 0.0000 0.0000 0.0000 40.9876 0.0000
# 6 0.0000 0.0000 0.0000 0.0000 0.0000 25.3194
#
#
#
# Elastic Compliance Matrix: (Units=1/GPa)
#
#
# Indices 1 2 3 4 5 6 
#
# 1 0.022308 -0.047190 -0.020042 0.000000 0.000000 0.000000
# 2 -0.047190 0.182278 0.067115 0.000000 0.000000 0.000000
# 3 -0.020042 0.067115 0.037417 0.000000 0.000000 0.000000
# 4 0.000000 0.000000 0.000000 -0.429316 0.000000 0.000000
# 5 0.000000 0.000000 0.000000 0.000000 0.024398 0.000000
# 6 0.000000 0.000000 0.000000 0.000000 0.000000 0.039495
#
#
# Mechanical properties :
#
#
# Convention : Reuss Voigt Hill
#
# Bulk Modulus (GPa) = 4.13619 26.67407 15.40513
# Shear Modulus (GPa) = -117.37994 25.58080 -45.89957
#
# Velocity S-wave (km/s) = -7.86775 3.67291 -4.91992
# Velocity P-wave (km/s) = 8.96405 5.66162 4.91428
#
# Compressibility (1/GPa) = 0.24176813
#
# Stress axis : x y z
#
# Youngs Moduli (GPa) = 44.82779 5.48613 26.72604
#
# Poissons Ratio (x) = 0.25889 0.53565
# Poissons Ratio (y) = 2.11543 -1.79372
# Poissons Ratio (z) = 0.89845 -0.36820
#
# Static dielectric constant tensor:
#      x y z
#    x 1.633930 0.000000 0.000000 
#    y 0.000000 1.630330 0.000000 
#    z 0.000000 0.000000 1.659270 
# 
# From -- ./inp_files/37705.got.cif
#   From: 2010.05.17/outbox.cif.g08.bks.cpg/sg53_19_cif.got.tgz:37705.got - 2010.06.03 12:45:16.
