data_PCOD9419002
_publ_section_title
;
Structure prediction by ZEFSAII (Michael W. Deem and Ramdas Pophale) SiO2 
 PCOD9419002
Probable space group: P M N A
;
_chemical_formula_sum "Si O2"
_cell_formula_units_Z 36
_cell_length_a 15.012576
_cell_length_b 19.759494
_cell_length_c 5.427493
_cell_angle_alpha 90.000000
_cell_angle_beta 90.000000
_cell_angle_gamma 90.000000
_cell_volume 1610.016438
_symmetry_space_group_name_H-M "P M N A"
_symmetry_group_IT_number 53
_symmetry_cell_setting 'orthorhombic'
loop_
_space_group_symop_operation_xyz
x,y,z
1/2-x,-y,1/2+z
x,-y,-z
1/2-x,y,1/2-z
-x,-y,-z
1/2+x,y,1/2-z
-x,y,z
1/2+x,-y,1/2+z
loop_
_atom_site_type_symbol
_atom_site_label
_atom_site_fract_x
_atom_site_fract_y
_atom_site_fract_z
Si Si1 0.100442 0.284895 0.046787
Si Si2 0.308574 0.577097 0.501443
Si Si3 0.403172 0.172683 0.069669
Si Si4 0.357604 0.037559 0.253877
Si Si5 0.250000 0.795367 0.250000
O O1 0.105101 0.247444 0.311928
O O2 0.000000 0.271048 0.956609
O O3 0.118651 0.364401 0.029658
O O4 0.181810 0.250878 0.901922
O O5 0.343402 0.500000 0.500000
O O6 0.250000 0.586351 0.250000
O O7 0.250000 0.583589 0.750000
O O8 0.500000 0.166743 0.950756
O O9 0.395332 0.113638 0.268570
O O10 0.316959 0.160143 0.906859
O O11 0.250000 0.039528 0.250000
O O12 0.386079 0.000000 0.500000
O O13 0.386216 0.000000 0.000000
#
# Coordination Sequence:
#
# PCOD9419002 Si02
#       5
#     8   8   8   8   4
#     4  11  24  41  66  99 136 179 230 285 343 409
#     4  10  21  41  68  99 138 185 228 277 343 409
#     4  11  26  43  67 101 133 178 232 283 346 412
#     4  10  23  42  68  99 134 182 226 275 340 406
#     4  12  22  42  70  94 134 180 224 288 342 412
#
# _framework density 22.360019999999999
#
# number of rings (size 3 to 8) (size 9 to 14) (size 15 to 20)
#    0.000    1.333    1.111    4.000    7.778    1.333 
#    0.000    0.000    0.000    4.000    0.000    0.000 
#    0.000    0.000    0.000    0.000    0.000    0.000 
#
# Total GULP energy -201130.365220 kJ/mol
# GULP energy per Si atom -5586.954589 kJ/mol
# Density = 2.230913 g / cm^3
# Si number density = 22.360020 Si / 1000 Ang^3
#
#
#
# Elastic Constant Matrix: (Units=GPa)
#
#
# Indices 1 2 3 4 5 6 
#
# 1 155.4016 29.0520 47.6669 0.0000 0.0000 0.0000
# 2 29.0520 106.9144 35.4020 0.0000 0.0000 0.0000
# 3 47.6669 35.4020 106.6148 0.0000 0.0000 0.0000
# 4 0.0000 0.0000 0.0000 21.3586 0.0000 0.0000
# 5 0.0000 0.0000 0.0000 0.0000 33.1889 0.0000
# 6 0.0000 0.0000 0.0000 0.0000 0.0000 173.1533
#
#
#
# Elastic Compliance Matrix: (Units=1/GPa)
#
#
# Indices 1 2 3 4 5 6 
#
# 1 0.007561 -0.001051 -0.003032 0.000000 0.000000 0.000000
# 2 -0.001051 0.010655 -0.003068 0.000000 0.000000 0.000000
# 3 -0.003032 -0.003068 0.011754 0.000000 0.000000 0.000000
# 4 0.000000 0.000000 0.000000 0.046819 0.000000 0.000000
# 5 0.000000 0.000000 0.000000 0.000000 0.030131 0.000000
# 6 0.000000 0.000000 0.000000 0.000000 0.000000 0.005775
#
#
# Mechanical properties :
#
#
# Convention : Reuss Voigt Hill
#
# Bulk Modulus (GPa) = 63.82199 65.90807 64.86503
# Shear Modulus (GPa) = 37.81598 62.66083 50.23840
#
# Velocity S-wave (km/s) = 4.11692 5.29948 4.74518
# Velocity P-wave (km/s) = 7.15567 8.18448 7.68731
#
# Compressibility (1/GPa) = 0.01566858
#
# Stress axis : x y z
#
# Youngs Moduli (GPa) = 132.25225 93.85477 85.07868
#
# Poissons Ratio (x) = 0.09862 0.25793
# Poissons Ratio (y) = 0.13897 0.26104
# Poissons Ratio (z) = 0.40095 0.28796
#
# Static dielectric constant tensor:
#      x y z
#    x 1.786520 0.000000 0.000000 
#    y 0.000000 1.830020 0.000000 
#    z 0.000000 0.000000 1.903080 
# 
# From -- ./inp_files/1340.got.cif
#   From: 2010.05.17/outbox.cif.g08.bks.cpg/sg53_1_cif.got.tgz:1340.got - 2010.06.03 12:45:16.
