data_PCOD9419370
_publ_section_title
;
Structure prediction by ZEFSAII (Michael W. Deem and Ramdas Pophale) SiO2 
 PCOD9419370
Probable space group: P M N A
;
_chemical_formula_sum "Si O2"
_cell_formula_units_Z 48
_cell_length_a 17.007376
_cell_length_b 12.044919
_cell_length_c 12.190327
_cell_angle_alpha 90.000000
_cell_angle_beta 90.000000
_cell_angle_gamma 90.000000
_cell_volume 2497.218551
_symmetry_space_group_name_H-M "P M N A"
_symmetry_group_IT_number 53
_symmetry_cell_setting 'orthorhombic'
loop_
_space_group_symop_operation_xyz
x,y,z
1/2-x,-y,1/2+z
x,-y,-z
1/2-x,y,1/2-z
-x,-y,-z
1/2+x,y,1/2-z
-x,y,z
1/2+x,-y,1/2+z
loop_
_atom_site_type_symbol
_atom_site_label
_atom_site_fract_x
_atom_site_fract_y
_atom_site_fract_z
Si Si1 0.408278 0.600945 0.873118
Si Si2 0.909770 0.230160 0.778413
Si Si3 0.171967 0.376367 0.607429
Si Si4 0.663134 0.757521 0.699614
Si Si5 0.093927 0.987518 0.872231
Si Si6 0.850360 0.376136 0.972395
O O1 0.500000 0.574374 0.882361
O O2 0.360323 0.490456 0.839770
O O3 0.393649 0.696385 0.785378
O O4 0.373308 0.633926 0.991498
O O5 0.851350 0.277008 0.686902
O O6 0.901610 0.307336 0.886010
O O7 0.000000 0.236319 0.738672
O O8 0.891527 0.104316 0.812629
O O9 0.263684 0.386316 0.581634
O O10 0.750000 0.749494 0.750000
O O11 0.638434 0.884114 0.680081
O O12 0.658049 0.692885 0.584415
O O13 0.000000 0.965825 0.868445
O O14 0.116010 0.000000 0.000000
O O15 0.879328 0.500000 0.000000
#
# Coordination Sequence:
#
# PCOD9419370 Si02
#       6
#     8   8   8   8   8   8
#     4  11  22  39  65  92 126 171 205 246 308 371
#     4  11  24  41  65  93 122 161 213 262 308 366
#     4  11  21  41  61  93 129 167 201 250 307 380
#     4  12  23  40  62  94 127 161 211 258 307 370
#     4  10  22  44  66  86 119 164 208 258 315 362
#     4  12  23  39  64  92 130 163 204 256 316 369
#
# _framework density 19.221385999999999
#
# number of rings (size 3 to 8) (size 9 to 14) (size 15 to 20)
#    0.000    0.833    5.000    4.000    0.000    2.333 
#    0.000    0.833    0.000    3.000    0.000    0.000 
#    0.000    0.000    0.000    0.000    0.000    0.000 
#
# Total GULP energy -268520.978892 kJ/mol
# GULP energy per Si atom -5594.187060 kJ/mol
# Density = 1.917764 g / cm^3
# Si number density = 19.221386 Si / 1000 Ang^3
#
#
#
# Elastic Constant Matrix: (Units=GPa)
#
#
# Indices 1 2 3 4 5 6 
#
# 1 36.9159 14.6739 -0.1166 0.0000 0.0000 0.0000
# 2 14.6739 107.3643 23.4684 0.0000 0.0000 0.0000
# 3 -0.1166 23.4684 45.7267 0.0000 0.0000 0.0000
# 4 0.0000 0.0000 0.0000 32.2685 0.0000 0.0000
# 5 0.0000 0.0000 0.0000 0.0000 21.7148 0.0000
# 6 0.0000 0.0000 0.0000 0.0000 0.0000 16.2242
#
#
#
# Elastic Compliance Matrix: (Units=1/GPa)
#
#
# Indices 1 2 3 4 5 6 
#
# 1 0.028870 -0.004462 0.002364 0.000000 0.000000 0.000000
# 2 -0.004462 0.011181 -0.005750 0.000000 0.000000 0.000000
# 3 0.002364 -0.005750 0.024826 0.000000 0.000000 0.000000
# 4 0.000000 0.000000 0.000000 0.030990 0.000000 0.000000
# 5 0.000000 0.000000 0.000000 0.000000 0.046052 0.000000
# 6 0.000000 0.000000 0.000000 0.000000 0.000000 0.061636
#
#
# Mechanical properties :
#
#
# Convention : Reuss Voigt Hill
#
# Bulk Modulus (GPa) = 20.33344 29.56206 24.94775
# Shear Modulus (GPa) = 21.21840 24.17357 22.69599
#
# Velocity S-wave (km/s) = 3.32610 3.55017 3.43996
# Velocity P-wave (km/s) = 5.03508 5.67610 5.36517
#
# Compressibility (1/GPa) = 0.04918007
#
# Stress axis : x y z
#
# Youngs Moduli (GPa) = 34.63821 89.43901 40.28026
#
# Poissons Ratio (x) = 0.39912 -0.09522
# Poissons Ratio (y) = 0.15457 0.23160
# Poissons Ratio (z) = -0.08188 0.51425
#
# Static dielectric constant tensor:
#      x y z
#    x 1.654910 0.000000 0.000000 
#    y 0.000000 1.652500 0.000000 
#    z 0.000000 0.000000 1.661380 
# 
# From -- ./inp_files/16957.got.cif
#   From: 2010.05.17/outbox.cif.g08.bks.cpg/sg53_9_cif.got.tgz:16957.got - 2010.06.03 12:45:16.
