data_PCOD9419613
_publ_section_title
;
Structure prediction by ZEFSAII (Michael W. Deem and Ramdas Pophale) SiO2 
 PCOD9419613
Probable space group: P M N A
;
_chemical_formula_sum "Si O2"
_cell_formula_units_Z 48
_cell_length_a 10.135915
_cell_length_b 13.921391
_cell_length_c 20.190319
_cell_angle_alpha 90.000000
_cell_angle_beta 90.000000
_cell_angle_gamma 90.000000
_cell_volume 2848.975877
_symmetry_space_group_name_H-M "P M N A"
_symmetry_group_IT_number 53
_symmetry_cell_setting 'orthorhombic'
loop_
_space_group_symop_operation_xyz
x,y,z
1/2-x,-y,1/2+z
x,-y,-z
1/2-x,y,1/2-z
-x,-y,-z
1/2+x,y,1/2-z
-x,y,z
1/2+x,-y,1/2+z
loop_
_atom_site_type_symbol
_atom_site_label
_atom_site_fract_x
_atom_site_fract_y
_atom_site_fract_z
Si Si1 0.160177 0.655121 0.902053
Si Si2 0.653467 0.480463 0.920484
Si Si3 0.756969 0.154801 0.171337
Si Si4 0.000000 0.065212 0.396276
Si Si5 0.500000 0.848948 0.449209
Si Si6 0.000000 0.067196 0.096755
Si Si7 0.747349 0.276402 0.549432
Si Si8 0.500000 0.139923 0.953582
O O1 0.244834 0.558231 0.891191
O O2 0.209683 0.736887 0.851841
O O3 0.000000 0.643133 0.899678
O O4 0.203830 0.691638 0.975207
O O5 0.500000 0.487965 0.897873
O O6 0.712678 0.373769 0.912930
O O7 0.649718 0.500000 0.000000
O O8 0.750000 0.149207 0.250000
O O9 0.625492 0.111572 0.139279
O O10 0.874048 0.093185 0.139772
O O11 0.000000 0.098113 0.472393
O O12 0.000000 0.949055 0.402093
O O13 0.500000 0.868631 0.529217
O O14 0.625550 0.787656 0.427179
O O15 0.500000 0.956023 0.421513
O O16 0.872775 0.207196 0.550767
#
# Coordination Sequence:
#
# PCOD9419613 Si02
#       8
#     8   8   8   4   4   4   8   4
#     4  11  21  35  51  78 112 147 187 222 270 339
#     4   9  20  31  50  76 114 144 172 217 270 328
#     4  12  23  38  56  78 113 149 189 234 275 329
#     4  11  23  34  55  83 108 151 185 229 278 337
#     4  11  20  32  62  78 116 153 182 233 281 343
#     4  11  21  40  51  83 114 151 193 229 282 329
#     4  11  18  33  52  82 114 147 175 221 282 340
#     4  11  20  34  54  82 116 143 182 227 287 343
#
# _framework density 16.84816
#
# number of rings (size 3 to 8) (size 9 to 14) (size 15 to 20)
#    0.000    1.167    5.833    1.500    3.500    3.667 
#    0.000    0.000    0.000    0.000    0.000    7.000 
#    0.000    0.000    0.000    0.000    0.000    0.000 
#
# Total GULP energy -267709.678216 kJ/mol
# GULP energy per Si atom -5577.284963 kJ/mol
# Density = 1.680981 g / cm^3
# Si number density = 16.848160 Si / 1000 Ang^3
#
#
#
# Elastic Constant Matrix: (Units=GPa)
#
#
# Indices 1 2 3 4 5 6 
#
# 1 208.2248 102.5228 46.3417 0.0000 0.0000 0.0000
# 2 102.5228 163.1909 37.5046 0.0000 0.0000 0.0000
# 3 46.3417 37.5046 62.2524 0.0000 0.0000 0.0000
# 4 0.0000 0.0000 0.0000 13.9658 0.0000 0.0000
# 5 0.0000 0.0000 0.0000 0.0000 -14.2244 0.0000
# 6 0.0000 0.0000 0.0000 0.0000 0.0000 47.0458
#
#
#
# Elastic Compliance Matrix: (Units=1/GPa)
#
#
# Indices 1 2 3 4 5 6 
#
# 1 0.007455 -0.003956 -0.003166 0.000000 0.000000 0.000000
# 2 -0.003956 0.009212 -0.002605 0.000000 0.000000 0.000000
# 3 -0.003166 -0.002605 0.019990 0.000000 0.000000 0.000000
# 4 0.000000 0.000000 0.000000 0.071604 0.000000 0.000000
# 5 0.000000 0.000000 0.000000 0.000000 -0.070302 0.000000
# 6 0.000000 0.000000 0.000000 0.000000 0.000000 0.021256
#
#
# Mechanical properties :
#
#
# Convention : Reuss Voigt Hill
#
# Bulk Modulus (GPa) = 58.13089 89.60070 73.86579
# Shear Modulus (GPa) = 59.23982 25.84403 42.54193
#
# Velocity S-wave (km/s) = 5.93610 3.92080 5.03041
# Velocity P-wave (km/s) = 9.03110 8.59032 8.81347
#
# Compressibility (1/GPa) = 0.01720256
#
# Stress axis : x y z
#
# Youngs Moduli (GPa) = 134.14062 108.55880 50.02481
#
# Poissons Ratio (x) = 0.42943 0.15840
# Poissons Ratio (y) = 0.53063 0.13031
# Poissons Ratio (z) = 0.42474 0.28278
#
# Static dielectric constant tensor:
#      x y z
#    x 1.522710 0.000000 0.000000 
#    y 0.000000 1.582900 0.000000 
#    z 0.000000 0.000000 1.532890 
# 
# From -- ./inp_files/26366.got.cif
#   From: 2010.05.17/outbox.cif.g08.bks.cpg/sg53_14_cif.got.tgz:26366.got - 2010.06.03 12:45:16.
