data_PCOD9419428
_publ_section_title
;
Structure prediction by ZEFSAII (Michael W. Deem and Ramdas Pophale) SiO2 
 PCOD9419428
Probable space group: P M N A
;
_chemical_formula_sum "Si O2"
_cell_formula_units_Z 56
_cell_length_a 9.006289
_cell_length_b 23.175212
_cell_length_c 14.489180
_cell_angle_alpha 90.000000
_cell_angle_beta 90.000000
_cell_angle_gamma 90.000000
_cell_volume 3024.220146
_symmetry_space_group_name_H-M "P M N A"
_symmetry_group_IT_number 53
_symmetry_cell_setting 'orthorhombic'
loop_
_space_group_symop_operation_xyz
x,y,z
1/2-x,-y,1/2+z
x,-y,-z
1/2-x,y,1/2-z
-x,-y,-z
1/2+x,y,1/2-z
-x,y,z
1/2+x,-y,1/2+z
loop_
_atom_site_type_symbol
_atom_site_label
_atom_site_fract_x
_atom_site_fract_y
_atom_site_fract_z
Si Si1 0.330639 0.481561 0.606788
Si Si2 0.678263 0.201374 0.351495
Si Si3 0.179917 0.033450 0.851126
Si Si4 0.827910 0.403210 0.335051
Si Si5 0.326043 0.700077 0.970962
Si Si6 0.178350 0.360141 0.652541
Si Si7 0.320232 0.084615 0.455617
O O1 0.334292 0.500000 0.500000
O O2 0.500000 0.474318 0.639836
O O3 0.251951 0.536088 0.652474
O O4 0.242578 0.422697 0.623610
O O5 0.750000 0.203733 0.250000
O O6 0.500000 0.201258 0.342300
O O7 0.730393 0.254849 0.413949
O O8 0.726374 0.143386 0.406053
O O9 0.250000 0.043539 0.750000
O O10 0.000000 0.035735 0.842554
O O11 0.221766 0.970182 0.891921
O O12 0.225526 0.075122 0.937215
O O13 0.750000 0.371571 0.250000
O O14 0.813659 0.362623 0.423134
O O15 0.000000 0.412165 0.315571
O O16 0.500000 0.716867 0.966044
O O17 0.282502 0.687831 0.076111
O O18 0.250000 0.345593 0.750000
O O19 0.000000 0.363949 0.657086
O O20 0.500000 0.084177 0.458071
#
# Coordination Sequence:
#
# PCOD9419428 Si02
#       7
#     8   8   8   8   8   8   8
#     4  11  22  36  57  84 111 140 176 218 270 330
#     4  11  22  37  59  84 112 146 186 229 278 331
#     4   9  16  31  54  80 114 151 190 230 275 327
#     4  11  22  37  56  79 108 140 175 217 270 325
#     4  10  23  41  59  80 108 143 183 228 274 322
#     4  11  23  41  62  83 109 142 182 226 276 332
#     4   8  17  33  53  79 113 154 189 225 276 335
#
# _framework density 18.517171000000001
#
# number of rings (size 3 to 8) (size 9 to 14) (size 15 to 20)
#    0.000    1.857    1.429    3.857    0.000    4.000 
#    0.000    4.286    0.000    3.429    0.000    0.000 
#    0.000    0.000    0.000    0.000    0.000    0.000 
#
# Total GULP energy -312496.057510 kJ/mol
# GULP energy per Si atom -5580.286741 kJ/mol
# Density = 1.847502 g / cm^3
# Si number density = 18.517171 Si / 1000 Ang^3
#
#
#
# Elastic Constant Matrix: (Units=GPa)
#
#
# Indices 1 2 3 4 5 6 
#
# 1 76.4013 45.4830 62.6902 0.0000 0.0000 0.0000
# 2 45.4830 90.9155 59.2715 0.0000 0.0000 0.0000
# 3 62.6902 59.2715 170.3925 0.0000 0.0000 0.0000
# 4 0.0000 0.0000 0.0000 24.5293 0.0000 0.0000
# 5 0.0000 0.0000 0.0000 0.0000 29.2021 0.0000
# 6 0.0000 0.0000 0.0000 0.0000 0.0000 14.1187
#
#
#
# Elastic Compliance Matrix: (Units=1/GPa)
#
#
# Indices 1 2 3 4 5 6 
#
# 1 0.022045 -0.007425 -0.005528 0.000000 0.000000 0.000000
# 2 -0.007425 0.016726 -0.003086 0.000000 0.000000 0.000000
# 3 -0.005528 -0.003086 0.008976 0.000000 0.000000 0.000000
# 4 0.000000 0.000000 0.000000 0.040768 0.000000 0.000000
# 5 0.000000 0.000000 0.000000 0.000000 0.034244 0.000000
# 6 0.000000 0.000000 0.000000 0.000000 0.000000 0.070828
#
#
# Mechanical properties :
#
#
# Convention : Reuss Voigt Hill
#
# Bulk Modulus (GPa) = 63.82145 74.73320 69.27732
# Shear Modulus (GPa) = 21.65560 24.92099 23.28830
#
# Velocity S-wave (km/s) = 3.42349 3.67254 3.55020
# Velocity P-wave (km/s) = 7.08293 7.64394 7.36878
#
# Compressibility (1/GPa) = 0.01566871
#
# Stress axis : x y z
#
# Youngs Moduli (GPa) = 45.36249 59.78794 111.40490
#
# Poissons Ratio (x) = 0.44390 0.61584
# Poissons Ratio (y) = 0.33680 0.34385
# Poissons Ratio (z) = 0.25076 0.18454
#
# Static dielectric constant tensor:
#      x y z
#    x 1.625080 0.000000 0.000000 
#    y 0.000000 1.620990 0.000000 
#    z 0.000000 0.000000 2.580950 
# 
# From -- ./inp_files/20496.got.cif
#   From: 2010.05.17/outbox.cif.g08.bks.cpg/sg53_11_cif.got.tgz:20496.got - 2010.06.03 12:45:16.
