data_PCOD9419451
_publ_section_title
;
Structure prediction by ZEFSAII (Michael W. Deem and Ramdas Pophale) SiO2 
 PCOD9419451
Probable space group: P M N A
;
_chemical_formula_sum "Si O2"
_cell_formula_units_Z 56
_cell_length_a 20.106204
_cell_length_b 8.872327
_cell_length_c 14.905578
_cell_angle_alpha 90.000000
_cell_angle_beta 90.000000
_cell_angle_gamma 90.000000
_cell_volume 2658.988420
_symmetry_space_group_name_H-M "P M N A"
_symmetry_group_IT_number 53
_symmetry_cell_setting 'orthorhombic'
loop_
_space_group_symop_operation_xyz
x,y,z
1/2-x,-y,1/2+z
x,-y,-z
1/2-x,y,1/2-z
-x,-y,-z
1/2+x,y,1/2-z
-x,y,z
1/2+x,-y,1/2+z
loop_
_atom_site_type_symbol
_atom_site_label
_atom_site_fract_x
_atom_site_fract_y
_atom_site_fract_z
Si Si1 0.304756 0.321752 0.521137
Si Si2 0.919253 0.665480 0.371907
Si Si3 0.428207 0.624995 0.577743
Si Si4 0.823142 0.855391 0.733528
Si Si5 0.336374 0.174318 0.021336
Si Si6 0.925876 0.617516 0.732093
Si Si7 0.175796 0.795581 0.219018
O O1 0.290576 0.500000 0.500000
O O2 0.363090 0.282046 0.450983
O O3 0.236421 0.231743 0.507721
O O4 0.330188 0.275925 0.620315
O O5 0.889383 0.726189 0.465310
O O6 0.902187 0.491473 0.346917
O O7 0.879899 0.751007 0.292134
O O8 0.000000 0.680270 0.368167
O O9 0.430182 0.500000 0.500000
O O10 0.500000 0.706443 0.578348
O O11 0.426298 0.533561 0.671885
O O12 0.750000 0.788914 0.750000
O O13 0.836576 0.833081 0.628088
O O14 0.883765 0.757004 0.766407
O O15 0.823138 0.021896 0.775157
O O16 0.347489 0.000000 0.000000
O O17 0.000000 0.665178 0.707591
O O18 0.250000 0.745592 0.250000
#
# Coordination Sequence:
#
# PCOD9419451 Si02
#       7
#     8   8   8   8   8   8   8
#     4  11  23  38  68 103 132 177 231 293 356 413
#     4  11  24  42  68 100 137 186 232 287 348 418
#     4   9  18  37  62  94 130 165 214 277 342 406
#     4  11  24  42  67  94 132 183 224 281 351 414
#     4  12  24  44  65  97 137 177 233 286 346 421
#     4  10  23  42  64  97 136 173 223 283 345 408
#     4  11  22  44  66  95 138 177 229 285 343 421
#
# _framework density 21.060642000000001
#
# number of rings (size 3 to 8) (size 9 to 14) (size 15 to 20)
#    0.000    1.286    2.857    3.429    2.000    3.714 
#    0.000    1.429    0.000    2.143    0.000    0.000 
#    0.000    0.000    0.000    0.000    0.000    0.000 
#
# Total GULP energy -311807.210532 kJ/mol
# GULP energy per Si atom -5567.985902 kJ/mol
# Density = 2.101271 g / cm^3
# Si number density = 21.060642 Si / 1000 Ang^3
#
#
#
# Elastic Constant Matrix: (Units=GPa)
#
#
# Indices 1 2 3 4 5 6 
#
# 1 98.3927 31.1565 13.4426 0.0000 0.0000 0.0000
# 2 31.1565 60.5103 35.0109 0.0000 0.0000 0.0000
# 3 13.4426 35.0109 138.0086 0.0000 0.0000 0.0000
# 4 0.0000 0.0000 0.0000 22.1991 0.0000 0.0000
# 5 0.0000 0.0000 0.0000 0.0000 -27.7232 0.0000
# 6 0.0000 0.0000 0.0000 0.0000 0.0000 29.0225
#
#
#
# Elastic Compliance Matrix: (Units=1/GPa)
#
#
# Indices 1 2 3 4 5 6 
#
# 1 0.012170 -0.006540 0.000474 0.000000 0.000000 0.000000
# 2 -0.006540 0.022884 -0.005168 0.000000 0.000000 0.000000
# 3 0.000474 -0.005168 0.008511 0.000000 0.000000 0.000000
# 4 0.000000 0.000000 0.000000 0.045047 0.000000 0.000000
# 5 0.000000 0.000000 0.000000 0.000000 -0.036071 0.000000
# 6 0.000000 0.000000 0.000000 0.000000 0.000000 0.034456
#
#
# Mechanical properties :
#
#
# Convention : Reuss Voigt Hill
#
# Bulk Modulus (GPa) = 47.40452 50.68130 49.04291
# Shear Modulus (GPa) = 42.91928 19.18644 31.05286
#
# Velocity S-wave (km/s) = 4.51920 3.02157 3.84402
# Velocity P-wave (km/s) = 7.05608 6.02411 6.56042
#
# Compressibility (1/GPa) = 0.02109504
#
# Stress axis : x y z
#
# Youngs Moduli (GPa) = 82.17190 43.69868 117.49628
#
# Poissons Ratio (x) = 0.28580 -0.05567
# Poissons Ratio (y) = 0.53742 0.60726
# Poissons Ratio (z) = -0.03893 0.22585
#
# Static dielectric constant tensor:
#      x y z
#    x 1.600650 0.000000 0.000000 
#    y 0.000000 2.096590 0.000000 
#    z 0.000000 0.000000 1.992360 
# 
# From -- ./inp_files/24334.got.cif
#   From: 2010.05.17/outbox.cif.g08.bks.cpg/sg53_13_cif.got.tgz:24334.got - 2010.06.03 12:45:16.
