data_PCOD9419012
_publ_section_title
;
Structure prediction by ZEFSAII (Michael W. Deem and Ramdas Pophale) SiO2 
 PCOD9419012
Probable space group: P M N A
;
_chemical_formula_sum "Si O2"
_cell_formula_units_Z 48
_cell_length_a 17.126532
_cell_length_b 14.190787
_cell_length_c 8.703061
_cell_angle_alpha 90.000000
_cell_angle_beta 90.000000
_cell_angle_gamma 90.000000
_cell_volume 2115.182961
_symmetry_space_group_name_H-M "P M N A"
_symmetry_group_IT_number 53
_symmetry_cell_setting 'orthorhombic'
loop_
_space_group_symop_operation_xyz
x,y,z
1/2-x,-y,1/2+z
x,-y,-z
1/2-x,y,1/2-z
-x,-y,-z
1/2+x,y,1/2-z
-x,y,z
1/2+x,-y,1/2+z
loop_
_atom_site_type_symbol
_atom_site_label
_atom_site_fract_x
_atom_site_fract_y
_atom_site_fract_z
Si Si1 0.266834 0.192982 0.086540
Si Si2 0.333024 0.896153 0.337608
Si Si3 0.500000 0.455235 0.322319
Si Si4 0.087546 0.056906 0.339502
Si Si5 0.640617 0.290400 0.836896
Si Si6 0.500000 0.383752 0.026176
Si Si7 0.828560 0.522007 0.176134
O O1 0.250000 0.238701 0.250000
O O2 0.342504 0.129189 0.125684
O O3 0.196893 0.131733 0.008432
O O4 0.291495 0.265087 0.955903
O O5 0.250000 0.912732 0.250000
O O6 0.374074 0.806009 0.256483
O O7 0.386340 0.985013 0.295427
O O8 0.500000 0.500000 0.500000
O O9 0.500000 0.362059 0.209988
O O10 0.587027 0.485465 0.273282
O O11 0.000000 0.095248 0.310171
O O12 0.083452 0.000000 0.500000
O O13 0.665024 0.368520 0.715798
O O14 0.572368 0.335195 0.939326
O O15 0.500000 0.500000 0.000000
O O16 0.750000 0.483050 0.250000
O O17 0.821371 0.500000 0.000000
#
# Coordination Sequence:
#
# PCOD9419012 Si02
#       7
#     8   8   4   8   8   4   8
#     4  11  25  45  69 105 147 200 242 299 375 438
#     4  10  21  42  65 102 143 189 235 297 360 422
#     4  10  24  50  68 104 134 180 242 296 375 455
#     4  11  22  38  74 109 144 191 252 294 357 448
#     4  11  24  44  70  99 141 177 242 302 364 446
#     4  12  24  46  74 101 134 191 236 301 392 456
#     4  11  24  44  72 103 137 183 241 307 378 458
#
# _framework density 22.693072000000001
#
# number of rings (size 3 to 8) (size 9 to 14) (size 15 to 20)
#    0.000    1.167    5.000    2.000    4.667    0.000 
#   12.000    1.667    0.000    0.000    0.000    0.000 
#    0.000    0.000    0.000    0.000    0.000    0.000 
#
# Total GULP energy -267412.904543 kJ/mol
# GULP energy per Si atom -5571.102178 kJ/mol
# Density = 2.264142 g / cm^3
# Si number density = 22.693072 Si / 1000 Ang^3
#
#
#
# Elastic Constant Matrix: (Units=GPa)
#
#
# Indices 1 2 3 4 5 6 
#
# 1 131.9559 52.9054 30.8036 0.0000 0.0000 0.0000
# 2 52.9054 75.1059 45.4598 0.0000 0.0000 0.0000
# 3 30.8036 45.4598 137.9474 0.0000 0.0000 0.0000
# 4 0.0000 0.0000 0.0000 38.8334 0.0000 0.0000
# 5 0.0000 0.0000 0.0000 0.0000 76.5895 0.0000
# 6 0.0000 0.0000 0.0000 0.0000 0.0000 21.2102
#
#
#
# Elastic Compliance Matrix: (Units=1/GPa)
#
#
# Indices 1 2 3 4 5 6 
#
# 1 0.010562 -0.007511 0.000117 0.000000 0.000000 0.000000
# 2 -0.007511 0.021973 -0.005564 0.000000 0.000000 0.000000
# 3 0.000117 -0.005564 0.009057 0.000000 0.000000 0.000000
# 4 0.000000 0.000000 0.000000 0.025751 0.000000 0.000000
# 5 0.000000 0.000000 0.000000 0.000000 0.013057 0.000000
# 6 0.000000 0.000000 0.000000 0.000000 0.000000 0.047147
#
#
# Mechanical properties :
#
#
# Convention : Reuss Voigt Hill
#
# Bulk Modulus (GPa) = 63.79303 67.03855 65.41579
# Shear Modulus (GPa) = 31.50831 41.71599 36.61215
#
# Velocity S-wave (km/s) = 3.73024 4.29216 4.02103
# Velocity P-wave (km/s) = 6.83558 7.35996 7.10261
#
# Compressibility (1/GPa) = 0.01567569
#
# Stress axis : x y z
#
# Youngs Moduli (GPa) = 94.67541 45.51060 110.41606
#
# Poissons Ratio (x) = 0.34182 -0.01287
# Poissons Ratio (y) = 0.71109 0.61434
# Poissons Ratio (z) = -0.01104 0.25322
#
# Static dielectric constant tensor:
#      x y z
#    x 1.656330 0.000000 0.000000 
#    y 0.000000 1.885360 0.000000 
#    z 0.000000 0.000000 1.856610 
# 
# From -- ./inp_files/10066.got.cif
#   From: 2010.05.17/outbox.cif.g08.bks.cpg/sg53_6_cif.got.tgz:10066.got - 2010.06.03 12:45:16.
