data_PCOD9419123
_publ_section_title
;
Structure prediction by ZEFSAII (Michael W. Deem and Ramdas Pophale) SiO2 
 PCOD9419123
Probable space group: P M N A
;
_chemical_formula_sum "Si O2"
_cell_formula_units_Z 48
_cell_length_a 14.164609
_cell_length_b 6.678663
_cell_length_c 24.334472
_cell_angle_alpha 90.000000
_cell_angle_beta 90.000000
_cell_angle_gamma 90.000000
_cell_volume 2302.056870
_symmetry_space_group_name_H-M "P M N A"
_symmetry_group_IT_number 53
_symmetry_cell_setting 'orthorhombic'
loop_
_space_group_symop_operation_xyz
x,y,z
1/2-x,-y,1/2+z
x,-y,-z
1/2-x,y,1/2-z
-x,-y,-z
1/2+x,y,1/2-z
-x,y,z
1/2+x,-y,1/2+z
loop_
_atom_site_type_symbol
_atom_site_label
_atom_site_fract_x
_atom_site_fract_y
_atom_site_fract_z
Si Si1 0.109515 0.941258 0.210152
Si Si2 0.156265 0.718496 0.876391
Si Si3 0.739686 0.418117 0.810745
Si Si4 0.600724 0.632524 0.445187
Si Si5 0.610085 0.083917 0.834332
Si Si6 0.242094 0.968865 0.439519
O O1 0.117796 0.127846 0.168796
O O2 0.000000 0.870877 0.209929
O O3 0.182105 0.765780 0.190804
O O4 0.132258 0.005068 0.273344
O O5 0.244293 0.599585 0.851270
O O6 0.096794 0.530763 0.896717
O O7 0.185997 0.850142 0.928169
O O8 0.750000 0.502141 0.750000
O O9 0.640725 0.313404 0.822987
O O10 0.607409 0.500000 0.500000
O O11 0.500000 0.746252 0.445833
O O12 0.692080 0.771651 0.438598
O O13 0.500000 0.056680 0.844879
O O14 0.670765 0.026761 0.887973
O O15 0.199171 0.000000 0.500000
#
# Coordination Sequence:
#
# PCOD9419123 Si02
#       6
#     8   8   8   8   8   8
#     4  10  22  40  66  99 132 165 208 263 330 397
#     4  12  22  38  67  94 132 170 209 259 326 389
#     4  10  22  38  64  93 130 167 208 261 317 388
#     4  11  24  42  64  96 133 171 213 260 322 397
#     4  10  22  45  67  90 129 171 217 276 324 375
#     4  12  25  42  65  94 131 172 222 274 321 383
#
# _framework density 20.850918
#
# number of rings (size 3 to 8) (size 9 to 14) (size 15 to 20)
#    0.000    1.167    5.000    0.500    2.333    4.667 
#    0.000    0.833    0.000    1.500    0.000    0.000 
#    0.000    0.000    0.000    0.000    0.000    0.000 
#
# Total GULP energy -267620.502012 kJ/mol
# GULP energy per Si atom -5575.427125 kJ/mol
# Density = 2.080346 g / cm^3
# Si number density = 20.850918 Si / 1000 Ang^3
#
#
#
# Elastic Constant Matrix: (Units=GPa)
#
#
# Indices 1 2 3 4 5 6 
#
# 1 80.2573 19.4889 28.9586 0.0000 0.0000 0.0000
# 2 19.4889 65.7324 29.0953 0.0000 0.0000 0.0000
# 3 28.9586 29.0953 134.2442 0.0000 0.0000 0.0000
# 4 0.0000 0.0000 0.0000 32.0212 0.0000 0.0000
# 5 0.0000 0.0000 0.0000 0.0000 18.4873 0.0000
# 6 0.0000 0.0000 0.0000 0.0000 0.0000 -18.6380
#
#
#
# Elastic Compliance Matrix: (Units=1/GPa)
#
#
# Indices 1 2 3 4 5 6 
#
# 1 0.014070 -0.003128 -0.002357 0.000000 0.000000 0.000000
# 2 -0.003128 0.017523 -0.003123 0.000000 0.000000 0.000000
# 3 -0.002357 -0.003123 0.008634 0.000000 0.000000 0.000000
# 4 0.000000 0.000000 0.000000 0.031229 0.000000 0.000000
# 5 0.000000 0.000000 0.000000 0.000000 0.054091 0.000000
# 6 0.000000 0.000000 0.000000 0.000000 0.000000 -0.053654
#
#
# Mechanical properties :
#
#
# Convention : Reuss Voigt Hill
#
# Bulk Modulus (GPa) = 43.45803 48.36883 45.91343
# Shear Modulus (GPa) = 51.66288 19.88685 35.77487
#
# Velocity S-wave (km/s) = 4.98308 3.09166 4.14665
# Velocity P-wave (km/s) = 7.34817 5.99936 6.70775
#
# Compressibility (1/GPa) = 0.02301071
#
# Stress axis : x y z
#
# Youngs Moduli (GPa) = 71.07287 57.06775 115.81514
#
# Poissons Ratio (x) = 0.17852 0.27299
# Poissons Ratio (y) = 0.22233 0.36169
# Poissons Ratio (z) = 0.16753 0.17822
#
# Static dielectric constant tensor:
#      x y z
#    x 1.786870 0.000000 0.000000 
#    y 0.000000 1.728890 0.000000 
#    z 0.000000 0.000000 1.817140 
# 
# From -- ./inp_files/36995.got.cif
#   From: 2010.05.17/outbox.cif.g08.bks.cpg/sg53_19_cif.got.tgz:36995.got - 2010.06.03 12:45:16.
