data_PCOD9419695
_publ_section_title
;
Structure prediction by ZEFSAII (Michael W. Deem and Ramdas Pophale) SiO2 
 PCOD9419695
Probable space group: P M N A
;
_chemical_formula_sum "Si O2"
_cell_formula_units_Z 48
_cell_length_a 7.765751
_cell_length_b 18.823498
_cell_length_c 14.127538
_cell_angle_alpha 90.000000
_cell_angle_beta 90.000000
_cell_angle_gamma 90.000000
_cell_volume 2065.143704
_symmetry_space_group_name_H-M "P M N A"
_symmetry_group_IT_number 53
_symmetry_cell_setting 'orthorhombic'
loop_
_space_group_symop_operation_xyz
x,y,z
1/2-x,-y,1/2+z
x,-y,-z
1/2-x,y,1/2-z
-x,-y,-z
1/2+x,y,1/2-z
-x,y,z
1/2+x,-y,1/2+z
loop_
_atom_site_type_symbol
_atom_site_label
_atom_site_fract_x
_atom_site_fract_y
_atom_site_fract_z
Si Si1 0.799044 0.663754 0.934327
Si Si2 0.806646 0.360871 0.646632
Si Si3 0.706638 0.040284 0.360217
Si Si4 0.211463 0.815131 0.956980
Si Si5 0.697775 0.514201 0.612604
Si Si6 0.206554 0.882658 0.141316
O O1 0.725798 0.741446 0.912969
O O2 0.724673 0.593555 0.883961
O O3 0.000000 0.662329 0.908411
O O4 0.792734 0.657088 0.049554
O O5 0.750000 0.333557 0.750000
O O6 0.797597 0.446959 0.652186
O O7 0.000000 0.337692 0.629748
O O8 0.750000 0.044988 0.250000
O O9 0.500000 0.039564 0.374505
O O10 0.770230 0.112144 0.408267
O O11 0.770059 0.961640 0.388999
O O12 0.000000 0.812901 0.952908
O O13 0.264227 0.824185 0.066532
O O14 0.688615 0.500000 0.500000
O O15 0.500000 0.512196 0.648143
O O16 0.250000 0.869591 0.250000
O O17 0.000000 0.885419 0.135504
#
# Coordination Sequence:
#
# PCOD9419695 Si02
#       6
#     8   8   8   8   8   8
#     4   9  18  33  51  71  98 129 159 195 243 296
#     4  11  21  33  51  73  97 125 160 200 241 288
#     4   9  17  31  51  73  97 129 170 213 252 292
#     4   9  17  31  52  74  99 135 171 201 245 305
#     4   8  15  30  50  69  91 120 153 189 231 280
#     4   9  17  30  49  73 100 131 170 211 248 292
#
# _framework density 23.242934000000002
#
# number of rings (size 3 to 8) (size 9 to 14) (size 15 to 20)
#    0.000    2.833    0.000    3.000    0.000    5.667 
#    0.000    5.000    0.000    6.000    0.000    0.000 
#    0.000    0.000    0.000    0.000    0.000    0.000 
#
# Total GULP energy -267671.146843 kJ/mol
# GULP energy per Si atom -5576.482226 kJ/mol
# Density = 2.319003 g / cm^3
# Si number density = 23.242934 Si / 1000 Ang^3
#
#
#
# Elastic Constant Matrix: (Units=GPa)
#
#
# Indices 1 2 3 4 5 6 
#
# 1 38.3678 -0.2590 -10.2704 0.0000 0.0000 0.0000
# 2 -0.2590 109.7776 -4.0300 0.0000 0.0000 0.0000
# 3 -10.2704 -4.0300 11.9011 0.0000 0.0000 0.0000
# 4 0.0000 0.0000 0.0000 8.4838 0.0000 0.0000
# 5 0.0000 0.0000 0.0000 0.0000 12.0832 0.0000
# 6 0.0000 0.0000 0.0000 0.0000 0.0000 8.6430
#
#
#
# Elastic Compliance Matrix: (Units=1/GPa)
#
#
# Indices 1 2 3 4 5 6 
#
# 1 0.034042 0.001173 0.029774 0.000000 0.000000 0.000000
# 2 0.001173 0.009264 0.004150 0.000000 0.000000 0.000000
# 3 0.029774 0.004150 0.111126 0.000000 0.000000 0.000000
# 4 0.000000 0.000000 0.000000 0.117871 0.000000 0.000000
# 5 0.000000 0.000000 0.000000 0.000000 0.082760 0.000000
# 6 0.000000 0.000000 0.000000 0.000000 0.000000 0.115701
#
#
# Mechanical properties :
#
#
# Convention : Reuss Voigt Hill
#
# Bulk Modulus (GPa) = 4.45183 14.54753 9.49968
# Shear Modulus (GPa) = 10.51649 17.48239 13.99944
#
# Velocity S-wave (km/s) = 2.12942 2.74553 2.45686
# Velocity P-wave (km/s) = 2.82230 4.04018 3.48486
#
# Compressibility (1/GPa) = 0.22462652
#
# Stress axis : x y z
#
# Youngs Moduli (GPa) = 29.37586 107.93971 8.99883
#
# Poissons Ratio (x) = -0.12665 -0.26794
# Poissons Ratio (y) = -0.03447 -0.03734
# Poissons Ratio (z) = -0.87465 -0.44792
#
# Static dielectric constant tensor:
#      x y z
#    x 1.842290 0.000000 0.000000 
#    y 0.000000 1.937440 0.000000 
#    z 0.000000 0.000000 1.875500 
# 
# From -- ./inp_files/20328.got.cif
#   From: 2010.05.17/outbox.cif.g08.bks.cpg/sg53_11_cif.got.tgz:20328.got - 2010.06.03 12:45:16.
