data_PCOD9419399
_publ_section_title
;
Structure prediction by ZEFSAII (Michael W. Deem and Ramdas Pophale) SiO2 
 PCOD9419399
Probable space group: P M N A
;
_chemical_formula_sum "Si O2"
_cell_formula_units_Z 56
_cell_length_a 26.978759
_cell_length_b 5.106684
_cell_length_c 21.828906
_cell_angle_alpha 90.000000
_cell_angle_beta 90.000000
_cell_angle_gamma 90.000000
_cell_volume 3007.411970
_symmetry_space_group_name_H-M "P M N A"
_symmetry_group_IT_number 53
_symmetry_cell_setting 'orthorhombic'
loop_
_space_group_symop_operation_xyz
x,y,z
1/2-x,-y,1/2+z
x,-y,-z
1/2-x,y,1/2-z
-x,-y,-z
1/2+x,y,1/2-z
-x,y,z
1/2+x,-y,1/2+z
loop_
_atom_site_type_symbol
_atom_site_label
_atom_site_fract_x
_atom_site_fract_y
_atom_site_fract_z
Si Si1 0.691882 0.019000 0.110680
Si Si2 0.669760 0.287517 0.332627
Si Si3 0.614313 0.856445 0.785338
Si Si4 0.442242 0.645223 0.170795
Si Si5 0.100883 0.763125 0.460367
Si Si6 0.729033 0.215567 0.686311
Si Si7 0.782733 0.248959 0.042934
O O1 0.651682 0.888596 0.066278
O O2 0.728028 0.792696 0.136340
O O3 0.662392 0.138552 0.169138
O O4 0.729171 0.216951 0.076604
O O5 0.626671 0.221035 0.284621
O O6 0.684670 0.590527 0.328365
O O7 0.674135 0.238130 0.405392
O O8 0.711395 0.083340 0.308466
O O9 0.577318 0.641597 0.812584
O O10 0.590211 0.141908 0.792258
O O11 0.500000 0.674690 0.183946
O O12 0.431336 0.695023 0.099138
O O13 0.108662 0.500000 0.500000
O O14 0.078074 0.000000 0.500000
O O15 0.750000 0.309786 0.750000
O O16 0.784723 0.500000 0.000000
O O17 0.787513 0.000000 0.000000
#
# Coordination Sequence:
#
# PCOD9419399 Si02
#       7
#     8   8   8   8   8   8   8
#     4  10  23  36  56  81 115 155 201 243 273 318
#     4  11  23  37  56  82 114 151 197 231 282 336
#     4  11  23  40  62  87 112 145 193 244 298 348
#     4  11  25  43  63  86 112 141 182 249 315 357
#     4  11  24  39  56  80 110 153 201 237 277 337
#     4  11  21  33  52  81 115 147 188 239 280 323
#     4  11  24  38  52  78 119 163 196 229 268 321
#
# _framework density 18.620661999999999
#
# number of rings (size 3 to 8) (size 9 to 14) (size 15 to 20)
#    0.000    1.143    1.429    5.571    4.000    9.714 
#    0.000    0.000    0.000    0.000    0.000    0.000 
#    0.000   11.429    0.000    0.000    0.000    0.000 
#
# Total GULP energy -312678.733403 kJ/mol
# GULP energy per Si atom -5583.548811 kJ/mol
# Density = 1.857828 g / cm^3
# Si number density = 18.620662 Si / 1000 Ang^3
#
#
#
# Elastic Constant Matrix: (Units=GPa)
#
#
# Indices 1 2 3 4 5 6 
#
# 1 37.4896 0.6475 28.4112 0.0000 0.0000 0.0000
# 2 0.6475 77.6077 23.1242 0.0000 0.0000 0.0000
# 3 28.4112 23.1242 92.9323 0.0000 0.0000 0.0000
# 4 0.0000 0.0000 0.0000 -13.3634 0.0000 0.0000
# 5 0.0000 0.0000 0.0000 0.0000 8.6022 0.0000
# 6 0.0000 0.0000 0.0000 0.0000 0.0000 11.8943
#
#
#
# Elastic Compliance Matrix: (Units=1/GPa)
#
#
# Indices 1 2 3 4 5 6 
#
# 1 0.035424 0.003166 -0.011617 0.000000 0.000000 0.000000
# 2 0.003166 0.014200 -0.004501 0.000000 0.000000 0.000000
# 3 -0.011617 -0.004501 0.015432 0.000000 0.000000 0.000000
# 4 0.000000 0.000000 0.000000 -0.074831 0.000000 0.000000
# 5 0.000000 0.000000 0.000000 0.000000 0.116249 0.000000
# 6 0.000000 0.000000 0.000000 0.000000 0.000000 0.084074
#
#
# Mechanical properties :
#
#
# Convention : Reuss Voigt Hill
#
# Bulk Modulus (GPa) = 25.54250 34.71061 30.12655
# Shear Modulus (GPa) = 21.78615 11.81640 16.80127
#
# Velocity S-wave (km/s) = 3.42424 2.52183 3.00708
# Velocity P-wave (km/s) = 5.42042 5.21161 5.31704
#
# Compressibility (1/GPa) = 0.03915043
#
# Stress axis : x y z
#
# Youngs Moduli (GPa) = 28.22978 70.42193 64.79929
#
# Poissons Ratio (x) = -0.22296 0.75280
# Poissons Ratio (y) = -0.08938 0.29168
# Poissons Ratio (z) = 0.32796 0.31699
#
# Static dielectric constant tensor:
#      x y z
#    x 1.636870 0.000000 0.000000 
#    y 0.000000 1.644790 0.000000 
#    z 0.000000 0.000000 1.688600 
# 
# From -- ./inp_files/33190.got.cif
#   From: 2010.05.17/outbox.cif.g08.bks.cpg/sg53_17_cif.got.tgz:33190.got - 2010.06.03 12:45:16.
