data_PCOD9419162
_publ_section_title
;
Structure prediction by ZEFSAII (Michael W. Deem and Ramdas Pophale) SiO2 
 PCOD9419162
Probable space group: P M N A
;
_chemical_formula_sum "Si O2"
_cell_formula_units_Z 34
_cell_length_a 7.783089
_cell_length_b 22.975761
_cell_length_c 8.816164
_cell_angle_alpha 90.000000
_cell_angle_beta 90.000000
_cell_angle_gamma 90.000000
_cell_volume 1576.527541
_symmetry_space_group_name_H-M "P M N A"
_symmetry_group_IT_number 53
_symmetry_cell_setting 'orthorhombic'
loop_
_space_group_symop_operation_xyz
x,y,z
1/2-x,-y,1/2+z
x,-y,-z
1/2-x,y,1/2-z
-x,-y,-z
1/2+x,y,1/2-z
-x,y,z
1/2+x,-y,1/2+z
loop_
_atom_site_type_symbol
_atom_site_label
_atom_site_fract_x
_atom_site_fract_y
_atom_site_fract_z
Si Si1 0.000000 0.500000 0.000000
Si Si2 0.199196 0.300630 0.074643
Si Si3 0.793095 0.059933 0.426598
Si Si4 0.794938 0.820424 0.426101
Si Si5 0.803133 0.415829 0.573600
O O1 0.155032 0.450446 0.015944
O O2 0.250000 0.305143 0.250000
O O3 0.000000 0.314227 0.057567
O O4 0.228919 0.235410 0.016382
O O5 0.297629 0.348631 0.976165
O O6 0.750000 0.061780 0.250000
O O7 0.727864 0.118293 0.508376
O O8 0.000000 0.059719 0.442753
O O9 0.727268 0.000000 0.500000
O O10 0.750000 0.815205 0.250000
O O11 0.000000 0.820368 0.442138
O O12 0.750000 0.422182 0.750000
O O13 0.000000 0.436530 0.554747
#
# Coordination Sequence:
#
# PCOD9419162 Si02
#       5
#     2   8   8   8   8
#     4  12  26  48  72 112 136 184 228 282 336 410
#     4  12  25  45  68 100 135 173 223 280 340 400
#     4  10  22  39  60  90 129 171 219 275 333 399
#     4  11  23  40  64  95 128 173 223 274 336 402
#     4  12  25  49  74 103 140 183 229 281 339 407
#
# _framework density 21.566385
#
# number of rings (size 3 to 8) (size 9 to 14) (size 15 to 20)
#    0.000    0.706    2.353    5.294    0.000    5.176 
#    4.235    0.000    0.000    0.000    0.000    0.000 
#    0.000    0.000    0.000    0.000    0.000    0.000 
#
# Total GULP energy -189709.267761 kJ/mol
# GULP energy per Si atom -5579.684346 kJ/mol
# Density = 2.151730 g / cm^3
# Si number density = 21.566385 Si / 1000 Ang^3
#
#
#
# Elastic Constant Matrix: (Units=GPa)
#
#
# Indices 1 2 3 4 5 6 
#
# 1 152.9035 42.9308 15.8888 0.0000 0.0000 0.0000
# 2 42.9308 140.8699 3.2727 0.0000 0.0000 0.0000
# 3 15.8888 3.2727 41.6973 0.0000 0.0000 0.0000
# 4 0.0000 0.0000 0.0000 -23.6432 0.0000 0.0000
# 5 0.0000 0.0000 0.0000 0.0000 26.7109 0.0000
# 6 0.0000 0.0000 0.0000 0.0000 0.0000 22.6822
#
#
#
# Elastic Compliance Matrix: (Units=1/GPa)
#
#
# Indices 1 2 3 4 5 6 
#
# 1 0.007435 -0.002204 -0.002660 0.000000 0.000000 0.000000
# 2 -0.002204 0.007765 0.000230 0.000000 0.000000 0.000000
# 3 -0.002660 0.000230 0.024978 0.000000 0.000000 0.000000
# 4 0.000000 0.000000 0.000000 -0.042295 0.000000 0.000000
# 5 0.000000 0.000000 0.000000 0.000000 0.037438 0.000000
# 6 0.000000 0.000000 0.000000 0.000000 0.000000 0.044087
#
#
# Mechanical properties :
#
#
# Convention : Reuss Voigt Hill
#
# Bulk Modulus (GPa) = 32.35148 51.07282 41.71215
# Shear Modulus (GPa) = 50.51541 23.37522 36.94532
#
# Velocity S-wave (km/s) = 4.84500 3.29579 4.14345
# Velocity P-wave (km/s) = 6.80678 6.18192 6.50186
#
# Compressibility (1/GPa) = 0.03091049
#
# Stress axis : x y z
#
# Youngs Moduli (GPa) = 134.49226 128.78099 40.03528
#
# Poissons Ratio (x) = 0.28385 0.10650
# Poissons Ratio (y) = 0.29644 -0.00923
# Poissons Ratio (z) = 0.35778 -0.02968
#
# Static dielectric constant tensor:
#      x y z
#    x 1.784950 0.000000 0.000000 
#    y 0.000000 1.791940 0.000000 
#    z 0.000000 0.000000 1.719110 
# 
# From -- ./inp_files/6151.got.cif
#   From: 2010.05.17/outbox.cif.g08.bks.cpg/sg53_4_cif.got.tgz:6151.got - 2010.06.03 12:45:16.
