data_PCOD9419545
_publ_section_title
;
Structure prediction by ZEFSAII (Michael W. Deem and Ramdas Pophale) SiO2 
 PCOD9419545
Probable space group: P M N A
;
_chemical_formula_sum "Si O2"
_cell_formula_units_Z 32
_cell_length_a 25.356041
_cell_length_b 6.360953
_cell_length_c 9.439097
_cell_angle_alpha 90.000000
_cell_angle_beta 90.000000
_cell_angle_gamma 90.000000
_cell_volume 1522.418599
_symmetry_space_group_name_H-M "P M N A"
_symmetry_group_IT_number 53
_symmetry_cell_setting 'orthorhombic'
loop_
_space_group_symop_operation_xyz
x,y,z
1/2-x,-y,1/2+z
x,-y,-z
1/2-x,y,1/2-z
-x,-y,-z
1/2+x,y,1/2-z
-x,y,z
1/2+x,-y,1/2+z
loop_
_atom_site_type_symbol
_atom_site_label
_atom_site_fract_x
_atom_site_fract_y
_atom_site_fract_z
Si Si1 0.905176 0.500000 0.000000
Si Si2 0.386361 0.218698 0.239535
Si Si3 0.660022 0.500000 0.000000
Si Si4 0.800622 0.108957 0.652655
Si Si5 0.000000 0.212388 0.905973
Si Si6 0.000000 0.949727 0.664824
O O1 0.875910 0.633006 0.876750
O O2 0.946121 0.333336 0.935195
O O3 0.447866 0.163096 0.224632
O O4 0.350153 0.008628 0.228716
O O5 0.373363 0.345879 0.097442
O O6 0.690926 0.648182 0.110459
O O7 0.750000 0.080987 0.750000
O O8 0.792839 0.000000 0.500000
O O9 0.000000 0.172716 0.740335
O O10 0.000000 0.000000 0.000000
O O11 0.000000 0.000000 0.500000
#
# Coordination Sequence:
#
# PCOD9419545 Si02
#       6
#     4   8   4   8   4   4
#     4  11  24  40  67  97 135 190 229 277 344 406
#     4  11  25  43  66 105 137 186 231 282 350 417
#     4  10  24  43  69 101 139 167 239 284 334 440
#     4  10  24  48  72  99 136 176 230 294 350 417
#     4  11  22  43  60  94 146 180 234 286 318 408
#     4  12  24  41  69  96 143 189 222 283 352 398
#
# _framework density 21.019183999999999
#
# number of rings (size 3 to 8) (size 9 to 14) (size 15 to 20)
#    0.000    1.250    2.500    3.000    7.000    6.500 
#    0.000    1.250    0.000    0.000    0.000    0.000 
#    0.000    0.000    0.000    0.000    0.000    0.000 
#
# Total GULP energy -178579.303991 kJ/mol
# GULP energy per Si atom -5580.603250 kJ/mol
# Density = 2.097134 g / cm^3
# Si number density = 21.019184 Si / 1000 Ang^3
#
#
#
# Elastic Constant Matrix: (Units=GPa)
#
#
# Indices 1 2 3 4 5 6 
#
# 1 122.7395 42.0695 35.1725 0.0000 0.0000 0.0000
# 2 42.0695 94.0924 28.3966 0.0000 0.0000 0.0000
# 3 35.1725 28.3966 125.6052 0.0000 0.0000 0.0000
# 4 0.0000 0.0000 0.0000 48.3980 0.0000 0.0000
# 5 0.0000 0.0000 0.0000 0.0000 34.2388 0.0000
# 6 0.0000 0.0000 0.0000 0.0000 0.0000 -0.0626
#
#
#
# Elastic Compliance Matrix: (Units=1/GPa)
#
#
# Indices 1 2 3 4 5 6 
#
# 1 0.010039 -0.003907 -0.001928 0.000000 0.000000 0.000000
# 2 -0.003907 0.012926 -0.001828 0.000000 0.000000 0.000000
# 3 -0.001928 -0.001828 0.008915 0.000000 0.000000 0.000000
# 4 0.000000 0.000000 0.000000 0.020662 0.000000 0.000000
# 5 0.000000 0.000000 0.000000 0.000000 0.029207 0.000000
# 6 0.000000 0.000000 0.000000 0.000000 0.000000-15.985612
#
#
# Mechanical properties :
#
#
# Convention : Reuss Voigt Hill
#
# Bulk Modulus (GPa) = 60.40853 61.52382 60.96617
# Shear Modulus (GPa) = -0.31480 32.30140 15.99330
#
# Velocity S-wave (km/s) = -0.38742 3.92440 2.76142
# Velocity P-wave (km/s) = 5.34808 7.06176 6.26380
#
# Compressibility (1/GPa) = 0.01655395
#
# Stress axis : x y z
#
# Youngs Moduli (GPa) = 99.61345 77.36150 112.17448
#
# Poissons Ratio (x) = 0.30222 0.21626
# Poissons Ratio (y) = 0.38915 0.20510
# Poissons Ratio (z) = 0.19205 0.14145
#
# Static dielectric constant tensor:
#      x y z
#    x 1.749310 0.000000 0.000000 
#    y 0.000000 1.845290 0.000000 
#    z 0.000000 0.000000 1.766720 
# 
# From -- ./inp_files/12806.got.cif
#   From: 2010.05.17/outbox.cif.g08.bks.cpg/sg53_7_cif.got.tgz:12806.got - 2010.06.03 12:45:16.
