data_PCOD9419347
_publ_section_title
;
Structure prediction by ZEFSAII (Michael W. Deem and Ramdas Pophale) SiO2 
 PCOD9419347
Probable space group: P M N A
;
_chemical_formula_sum "Si O2"
_cell_formula_units_Z 56
_cell_length_a 19.411297
_cell_length_b 9.330391
_cell_length_c 14.752515
_cell_angle_alpha 90.000000
_cell_angle_beta 90.000000
_cell_angle_gamma 90.000000
_cell_volume 2671.901619
_symmetry_space_group_name_H-M "P M N A"
_symmetry_group_IT_number 53
_symmetry_cell_setting 'orthorhombic'
loop_
_space_group_symop_operation_xyz
x,y,z
1/2-x,-y,1/2+z
x,-y,-z
1/2-x,y,1/2-z
-x,-y,-z
1/2+x,y,1/2-z
-x,y,z
1/2+x,-y,1/2+z
loop_
_atom_site_type_symbol
_atom_site_label
_atom_site_fract_x
_atom_site_fract_y
_atom_site_fract_z
Si Si1 0.760208 0.137123 0.356628
Si Si2 0.578299 0.420551 0.402746
Si Si3 0.119331 0.081412 0.585563
Si Si4 0.793650 0.342328 0.508825
Si Si5 0.190551 0.381571 0.826802
Si Si6 0.891568 0.914978 0.910951
Si Si7 0.073404 0.154054 0.777351
O O1 0.750000 0.155815 0.250000
O O2 0.773559 0.284292 0.409974
O O3 0.690661 0.076045 0.400017
O O4 0.821370 0.026240 0.377366
O O5 0.584280 0.500000 0.500000
O O6 0.500000 0.444431 0.369309
O O7 0.638395 0.485121 0.339460
O O8 0.588450 0.250743 0.414547
O O9 0.155950 0.224458 0.549706
O O10 0.075043 0.125698 0.670817
O O11 0.086504 0.000000 0.500000
O O12 0.824332 0.500000 0.500000
O O13 0.729123 0.354348 0.577590
O O14 0.250000 0.395896 0.750000
O O15 0.139369 0.249541 0.803940
O O16 0.921068 0.001387 0.826389
O O17 0.913615 0.000000 0.000000
O O18 0.000000 0.221304 0.804710
#
# Coordination Sequence:
#
# PCOD9419347 Si02
#       7
#     8   8   8   8   8   8   8
#     4  11  21  38  65  96 133 168 217 277 333 381
#     4  11  25  45  65  96 143 188 227 275 344 412
#     4  10  22  43  64  91 130 171 217 280 333 388
#     4  11  23  39  64  99 132 165 217 273 330 389
#     4  12  24  43  69  99 137 181 227 278 335 405
#     4  12  24  40  67 101 139 180 222 272 332 408
#     4  12  25  43  68  99 134 179 228 278 342 404
#
# _framework density 20.958855
#
# number of rings (size 3 to 8) (size 9 to 14) (size 15 to 20)
#    0.000    0.714    2.857    6.857    0.000    4.857 
#    0.000    0.000    0.000    0.429    0.000    0.000 
#    0.000    0.000    0.000    0.000    0.000    0.000 
#
# Total GULP energy -313300.892593 kJ/mol
# GULP energy per Si atom -5594.658796 kJ/mol
# Density = 2.091115 g / cm^3
# Si number density = 20.958855 Si / 1000 Ang^3
#
#
#
# Elastic Constant Matrix: (Units=GPa)
#
#
# Indices 1 2 3 4 5 6 
#
# 1 104.6250 47.3108 12.3681 0.0000 0.0000 0.0000
# 2 47.3108 161.6320 69.0569 0.0000 0.0000 0.0000
# 3 12.3681 69.0569 114.7662 0.0000 0.0000 0.0000
# 4 0.0000 0.0000 0.0000 22.1316 0.0000 0.0000
# 5 0.0000 0.0000 0.0000 0.0000 11.5952 0.0000
# 6 0.0000 0.0000 0.0000 0.0000 0.0000 25.9366
#
#
#
# Elastic Compliance Matrix: (Units=1/GPa)
#
#
# Indices 1 2 3 4 5 6 
#
# 1 0.011104 -0.003687 0.001022 0.000000 0.000000 0.000000
# 2 -0.003687 0.009552 -0.005350 0.000000 0.000000 0.000000
# 3 0.001022 -0.005350 0.011823 0.000000 0.000000 0.000000
# 4 0.000000 0.000000 0.000000 0.045184 0.000000 0.000000
# 5 0.000000 0.000000 0.000000 0.000000 0.086243 0.000000
# 6 0.000000 0.000000 0.000000 0.000000 0.000000 0.038555
#
#
# Mechanical properties :
#
#
# Convention : Reuss Voigt Hill
#
# Bulk Modulus (GPa) = 60.79702 70.94386 65.87044
# Shear Modulus (GPa) = 22.32393 28.75185 25.53789
#
# Velocity S-wave (km/s) = 3.26718 3.70783 3.49446
# Velocity P-wave (km/s) = 6.58053 7.22864 6.91219
#
# Compressibility (1/GPa) = 0.01644818
#
# Stress axis : x y z
#
# Youngs Moduli (GPa) = 90.05493 104.69072 84.58379
#
# Poissons Ratio (x) = 0.38598 -0.08642
# Poissons Ratio (y) = 0.33202 0.45254
# Poissons Ratio (z) = -0.09201 0.56012
#
# Static dielectric constant tensor:
#      x y z
#    x 1.770600 0.000000 0.000000 
#    y 0.000000 1.738350 0.000000 
#    z 0.000000 0.000000 1.753100 
# 
# From -- ./inp_files/24345.got.cif
#   From: 2010.05.17/outbox.cif.g08.bks.cpg/sg53_13_cif.got.tgz:24345.got - 2010.06.03 12:45:16.
