data_PCOD9419321
_publ_section_title
;
Structure prediction by ZEFSAII (Michael W. Deem and Ramdas Pophale) SiO2 
 PCOD9419321
Probable space group: P M N A
;
_chemical_formula_sum "Si O2"
_cell_formula_units_Z 34
_cell_length_a 13.269775
_cell_length_b 4.925275
_cell_length_c 26.278005
_cell_angle_alpha 90.000000
_cell_angle_beta 90.000000
_cell_angle_gamma 90.000000
_cell_volume 1717.459221
_symmetry_space_group_name_H-M "P M N A"
_symmetry_group_IT_number 53
_symmetry_cell_setting 'orthorhombic'
loop_
_space_group_symop_operation_xyz
x,y,z
1/2-x,-y,1/2+z
x,-y,-z
1/2-x,y,1/2-z
-x,-y,-z
1/2+x,y,1/2-z
-x,y,z
1/2+x,-y,1/2+z
loop_
_atom_site_type_symbol
_atom_site_label
_atom_site_fract_x
_atom_site_fract_y
_atom_site_fract_z
Si Si1 0.000000 0.500000 0.000000
Si Si2 0.000000 0.066446 0.683231
Si Si3 0.000000 0.566717 0.755426
Si Si4 0.205037 0.618505 0.197283
Si Si5 0.705521 0.729688 0.533373
Si Si6 0.787390 0.106962 0.358065
O O1 0.091097 0.384472 0.037709
O O2 0.000000 0.868206 0.732590
O O3 0.100430 0.005238 0.651198
O O4 0.000000 0.367241 0.706410
O O5 0.096455 0.497264 0.789291
O O6 0.250000 0.731789 0.250000
O O7 0.270724 0.363869 0.178703
O O8 0.212627 0.861516 0.157307
O O9 0.760947 0.500000 0.500000
O O10 0.759662 0.792890 0.585876
O O11 0.697519 0.000000 0.500000
#
# Coordination Sequence:
#
# PCOD9419321 Si02
#       6
#     2   4   4   8   8   8
#     4   8  22  40  70  82 130 156 186 268 338 346
#     4  12  22  40  63  88 123 174 205 250 318 356
#     4  12  24  38  63  88 131 168 205 256 306 354
#     4  12  23  41  61  94 129 166 208 255 298 376
#     4  10  22  42  65  90 122 157 202 261 315 370
#     4  12  24  41  66  90 126 167 213 251 314 369
#
# _framework density 19.796686999999999
#
# number of rings (size 3 to 8) (size 9 to 14) (size 15 to 20)
#    0.706    0.000    4.706    3.882    0.000    1.882 
#    0.000    1.176    0.000    0.000    0.000    0.000 
#    0.000    0.000    0.000    0.000    0.000    0.000 
#
# Total GULP energy -189404.601466 kJ/mol
# GULP energy per Si atom -5570.723573 kJ/mol
# Density = 1.975163 g / cm^3
# Si number density = 19.796687 Si / 1000 Ang^3
#
#
#
# Elastic Constant Matrix: (Units=GPa)
#
#
# Indices 1 2 3 4 5 6 
#
# 1 78.3101 -15.1973 31.5097 0.0000 0.0000 0.0000
# 2 -15.1973 50.3009 -10.3286 0.0000 0.0000 0.0000
# 3 31.5097 -10.3286 55.3928 0.0000 0.0000 0.0000
# 4 0.0000 0.0000 0.0000 25.0659 0.0000 0.0000
# 5 0.0000 0.0000 0.0000 0.0000 27.2061 0.0000
# 6 0.0000 0.0000 0.0000 0.0000 0.0000 12.9082
#
#
#
# Elastic Compliance Matrix: (Units=1/GPa)
#
#
# Indices 1 2 3 4 5 6 
#
# 1 0.017068 0.003289 -0.009096 0.000000 0.000000 0.000000
# 2 0.003289 0.021306 0.002102 0.000000 0.000000 0.000000
# 3 -0.009096 0.002102 0.023619 0.000000 0.000000 0.000000
# 4 0.000000 0.000000 0.000000 0.039895 0.000000 0.000000
# 5 0.000000 0.000000 0.000000 0.000000 0.036756 0.000000
# 6 0.000000 0.000000 0.000000 0.000000 0.000000 0.077470
#
#
# Mechanical properties :
#
#
# Convention : Reuss Voigt Hill
#
# Bulk Modulus (GPa) = 18.32087 21.77458 20.04773
# Shear Modulus (GPa) = 20.68529 24.90404 22.79467
#
# Velocity S-wave (km/s) = 3.23598 3.55066 3.39697
# Velocity P-wave (km/s) = 4.82044 5.27566 5.05318
#
# Compressibility (1/GPa) = 0.05458255
#
# Stress axis : x y z
#
# Youngs Moduli (GPa) = 58.58967 46.93594 42.33920
#
# Poissons Ratio (x) = -0.15437 0.38510
# Poissons Ratio (y) = -0.19270 -0.08899
# Poissons Ratio (z) = 0.53291 -0.09865
#
# Static dielectric constant tensor:
#      x y z
#    x 1.701520 0.000000 0.000000 
#    y 0.000000 1.719230 0.000000 
#    z 0.000000 0.000000 1.685650 
# 
# From -- ./inp_files/34735.got.cif
#   From: 2010.05.17/outbox.cif.g08.bks.cpg/sg53_18_cif.got.tgz:34735.got - 2010.06.03 12:45:16.
