data_PCOD9419582
_publ_section_title
;
Structure prediction by ZEFSAII (Michael W. Deem and Ramdas Pophale) SiO2 
 PCOD9419582
Probable space group: P M N A
;
_chemical_formula_sum "Si O2"
_cell_formula_units_Z 26
_cell_length_a 8.055675
_cell_length_b 4.867927
_cell_length_c 27.769861
_cell_angle_alpha 90.000000
_cell_angle_beta 90.000000
_cell_angle_gamma 90.000000
_cell_volume 1088.979488
_symmetry_space_group_name_H-M "P M N A"
_symmetry_group_IT_number 53
_symmetry_cell_setting 'orthorhombic'
loop_
_space_group_symop_operation_xyz
x,y,z
1/2-x,-y,1/2+z
x,-y,-z
1/2-x,y,1/2-z
-x,-y,-z
1/2+x,y,1/2-z
-x,y,z
1/2+x,-y,1/2+z
loop_
_atom_site_type_symbol
_atom_site_label
_atom_site_fract_x
_atom_site_fract_y
_atom_site_fract_z
Si Si1 0.811035 0.087006 0.853322
Si Si2 0.809805 0.201881 0.045958
Si Si3 0.312305 0.413816 0.196252
Si Si4 0.500000 0.500000 0.000000
O O1 0.779911 0.986651 0.907306
O O2 0.703329 0.903944 0.817428
O O3 0.000000 0.017504 0.841484
O O4 0.785312 0.406161 0.842934
O O5 0.650930 0.396188 0.037219
O O6 0.000000 0.321852 0.049634
O O7 0.809814 0.000000 0.000000
O O8 0.250000 0.462383 0.250000
O O9 0.500000 0.503544 0.192919
#
# Coordination Sequence:
#
# PCOD9419582 Si02
#       4
#     8   8   8   2
#     4  11  25  45  71 100 138 180 229 285 345 411
#     4  10  25  44  66  99 139 183 229 284 347 409
#     4  12  26  45  71 101 137 177 229 284 347 414
#     4  12  24  40  72  96 140 176 240 284 334 418
#
# _framework density 23.875565000000002
#
# number of rings (size 3 to 8) (size 9 to 14) (size 15 to 20)
#    0.000    0.923    0.000    5.538    8.615    0.000 
#    0.000    0.000    0.000    0.000    0.000    0.000 
#    0.000    0.000    0.000    0.000    0.000    0.000 
#
# Total GULP energy -144969.565013 kJ/mol
# GULP energy per Si atom -5575.752500 kJ/mol
# Density = 2.382122 g / cm^3
# Si number density = 23.875565 Si / 1000 Ang^3
#
#
#
# Elastic Constant Matrix: (Units=GPa)
#
#
# Indices 1 2 3 4 5 6 
#
# 1 165.8046 19.1829 27.3488 0.0000 0.0000 0.0000
# 2 19.1829 59.8559 -2.4907 0.0000 0.0000 0.0000
# 3 27.3488 -2.4907 83.2722 0.0000 0.0000 0.0000
# 4 0.0000 0.0000 0.0000 70.3298 0.0000 0.0000
# 5 0.0000 0.0000 0.0000 0.0000 26.0597 0.0000
# 6 0.0000 0.0000 0.0000 0.0000 0.0000 36.8101
#
#
#
# Elastic Compliance Matrix: (Units=1/GPa)
#
#
# Indices 1 2 3 4 5 6 
#
# 1 0.006661 -0.002229 -0.002254 0.000000 0.000000 0.000000
# 2 -0.002229 0.017473 0.001255 0.000000 0.000000 0.000000
# 3 -0.002254 0.001255 0.012787 0.000000 0.000000 0.000000
# 4 0.000000 0.000000 0.000000 0.014219 0.000000 0.000000
# 5 0.000000 0.000000 0.000000 0.000000 0.038373 0.000000
# 6 0.000000 0.000000 0.000000 0.000000 0.000000 0.027166
#
#
# Mechanical properties :
#
#
# Convention : Reuss Voigt Hill
#
# Bulk Modulus (GPa) = 32.82534 44.11277 38.46906
# Shear Modulus (GPa) = 37.51202 44.29936 40.90569
#
# Velocity S-wave (km/s) = 3.96807 4.31214 4.14368
# Velocity P-wave (km/s) = 5.89682 6.58095 6.24826
#
# Compressibility (1/GPa) = 0.03046427
#
# Stress axis : x y z
#
# Youngs Moduli (GPa) = 150.13087 57.23053 78.20627
#
# Poissons Ratio (x) = 0.12754 0.17630
# Poissons Ratio (y) = 0.33457 -0.09811
# Poissons Ratio (z) = 0.33843 -0.07180
#
# Static dielectric constant tensor:
#      x y z
#    x 1.859340 0.000000 0.000000 
#    y 0.000000 1.876320 0.000000 
#    z 0.000000 0.000000 1.878020 
# 
# From -- ./inp_files/35903.got.cif
#   From: 2010.05.17/outbox.cif.g08.bks.cpg/sg53_18_cif.got.tgz:35903.got - 2010.06.03 12:45:16.
