data_PCOD9419332
_publ_section_title
;
Structure prediction by ZEFSAII (Michael W. Deem and Ramdas Pophale) SiO2 
 PCOD9419332
Probable space group: P M N A
;
_chemical_formula_sum "Si O2"
_cell_formula_units_Z 64
_cell_length_a 16.861593
_cell_length_b 13.491515
_cell_length_c 11.312556
_cell_angle_alpha 90.000000
_cell_angle_beta 90.000000
_cell_angle_gamma 90.000000
_cell_volume 2573.475659
_symmetry_space_group_name_H-M "P M N A"
_symmetry_group_IT_number 53
_symmetry_cell_setting 'orthorhombic'
loop_
_space_group_symop_operation_xyz
x,y,z
1/2-x,-y,1/2+z
x,-y,-z
1/2-x,y,1/2-z
-x,-y,-z
1/2+x,y,1/2-z
-x,y,z
1/2+x,-y,1/2+z
loop_
_atom_site_type_symbol
_atom_site_label
_atom_site_fract_x
_atom_site_fract_y
_atom_site_fract_z
Si Si1 0.825331 0.990007 0.312841
Si Si2 0.165583 0.846490 0.513948
Si Si3 0.592787 0.712168 0.797279
Si Si4 0.095882 0.119853 0.119564
Si Si5 0.909658 0.490585 0.671346
Si Si6 0.818400 0.695865 0.335083
Si Si7 0.589553 0.587375 0.438659
Si Si8 0.595680 0.800536 0.380016
O O1 0.750000 0.940586 0.250000
O O2 0.792944 0.084323 0.388525
O O3 0.880245 0.031364 0.209017
O O4 0.864664 0.922245 0.412987
O O5 0.103076 0.781878 0.587668
O O6 0.213068 0.765710 0.439224
O O7 0.500000 0.695986 0.773177
O O8 0.623885 0.780507 0.689865
O O9 0.625615 0.601307 0.818363
O O10 0.120394 0.120022 0.981022
O O11 0.000000 0.122120 0.117002
O O12 0.863393 0.399429 0.611235
O O13 0.914682 0.446058 0.803705
O O14 0.000000 0.497018 0.627280
O O15 0.750000 0.656486 0.250000
O O16 0.869245 0.770576 0.248841
O O17 0.636823 0.500000 0.500000
O O18 0.500000 0.592102 0.490118
O O19 0.615617 0.698178 0.446867
O O20 0.500000 0.809202 0.364076
#
# Coordination Sequence:
#
# PCOD9419332 Si02
#       8
#     8   8   8   8   8   8   8   8
#     4  10  22  42  67  90 116 158 209 256 316 392
#     4  10  23  41  61  90 116 154 209 253 312 377
#     4   9  18  35  64  92 121 161 206 260 311 367
#     4   9  18  35  61  95 127 156 202 267 321 365
#     4   9  18  34  56  85 119 163 213 253 302 371
#     4  11  23  37  57  83 126 169 208 261 311 366
#     4   8  12  21  44  76 109 147 197 245 281 336
#     4   9  18  33  55  85 122 162 204 251 310 370
#
# _framework density 24.86909
#
# number of rings (size 3 to 8) (size 9 to 14) (size 15 to 20)
#    0.000    2.625    0.000    2.250    1.750    5.000 
#    0.000    6.250   13.750    1.500    0.000    0.000 
#    0.000    0.000    0.000    0.000    0.000    0.000 
#
# Total GULP energy -356595.562123 kJ/mol
# GULP energy per Si atom -5571.805658 kJ/mol
# Density = 2.481249 g / cm^3
# Si number density = 24.869090 Si / 1000 Ang^3
#
#
#
# Elastic Constant Matrix: (Units=GPa)
#
#
# Indices 1 2 3 4 5 6 
#
# 1 40.9596 19.4745 16.1009 0.0000 0.0000 0.0000
# 2 19.4745 116.2356 67.3481 0.0000 0.0000 0.0000
# 3 16.1009 67.3481 115.6117 0.0000 0.0000 0.0000
# 4 0.0000 0.0000 0.0000 35.8102 0.0000 0.0000
# 5 0.0000 0.0000 0.0000 0.0000 18.0740 0.0000
# 6 0.0000 0.0000 0.0000 0.0000 0.0000 21.7864
#
#
#
# Elastic Compliance Matrix: (Units=1/GPa)
#
#
# Indices 1 2 3 4 5 6 
#
# 1 0.026742 -0.003506 -0.001682 0.000000 0.000000 0.000000
# 2 -0.003506 0.013446 -0.007345 0.000000 0.000000 0.000000
# 3 -0.001682 -0.007345 0.013162 0.000000 0.000000 0.000000
# 4 0.000000 0.000000 0.000000 0.027925 0.000000 0.000000
# 5 0.000000 0.000000 0.000000 0.000000 0.055328 0.000000
# 6 0.000000 0.000000 0.000000 0.000000 0.000000 0.045900
#
#
# Mechanical properties :
#
#
# Convention : Reuss Voigt Hill
#
# Bulk Modulus (GPa) = 35.35337 53.18377 44.26857
# Shear Modulus (GPa) = 23.04169 26.45967 24.75068
#
# Velocity S-wave (km/s) = 3.04718 3.26538 3.15816
# Velocity P-wave (km/s) = 5.16014 5.97066 5.58014
#
# Compressibility (1/GPa) = 0.02828585
#
# Stress axis : x y z
#
# Youngs Moduli (GPa) = 37.39379 74.37061 75.97394
#
# Poissons Ratio (x) = 0.26074 0.12779
# Poissons Ratio (y) = 0.13110 0.55800
# Poissons Ratio (z) = 0.06290 0.54622
#
# Static dielectric constant tensor:
#      x y z
#    x 1.974830 0.000000 0.000000 
#    y 0.000000 2.067380 0.000000 
#    z 0.000000 0.000000 2.022430 
# 
# From -- ./inp_files/17192.got.cif
#   From: 2010.05.17/outbox.cif.g08.bks.cpg/sg53_9_cif.got.tgz:17192.got - 2010.06.03 12:45:16.
