data_PCOD9419174
_publ_section_title
;
Structure prediction by ZEFSAII (Michael W. Deem and Ramdas Pophale) SiO2 
 PCOD9419174
Probable space group: P M N A
;
_chemical_formula_sum "Si O2"
_cell_formula_units_Z 32
_cell_length_a 11.137237
_cell_length_b 18.993145
_cell_length_c 7.186861
_cell_angle_alpha 90.000000
_cell_angle_beta 90.000000
_cell_angle_gamma 90.000000
_cell_volume 1520.245024
_symmetry_space_group_name_H-M "P M N A"
_symmetry_group_IT_number 53
_symmetry_cell_setting 'orthorhombic'
loop_
_space_group_symop_operation_xyz
x,y,z
1/2-x,-y,1/2+z
x,-y,-z
1/2-x,y,1/2-z
-x,-y,-z
1/2+x,y,1/2-z
-x,y,z
1/2+x,-y,1/2+z
loop_
_atom_site_type_symbol
_atom_site_label
_atom_site_fract_x
_atom_site_fract_y
_atom_site_fract_z
Si Si1 0.134824 0.928012 0.383157
Si Si2 0.365303 0.785421 0.882563
Si Si3 0.127213 0.416187 0.979421
Si Si4 0.628546 0.361666 0.946729
O O1 0.250000 0.925951 0.250000
O O2 0.142763 0.860716 0.518208
O O3 0.000000 0.925397 0.294102
O O4 0.140286 0.000000 0.500000
O O5 0.250000 0.776504 0.750000
O O6 0.500000 0.781093 0.793359
O O7 0.363117 0.722539 0.034407
O O8 0.127792 0.390292 0.764116
O O9 0.255234 0.390627 0.049098
O O10 0.000000 0.388999 0.057065
O O11 0.126626 0.500000 0.000000
O O12 0.500000 0.384366 0.026468
#
# Coordination Sequence:
#
# PCOD9419174 Si02
#       4
#     8   8   8   8
#     4  10  22  39  62  94 130 167 210 256 307 367
#     4  10  22  40  61  88 123 164 209 258 308 364
#     4   9  18  34  57  83 111 146 189 238 300 373
#     4   9  19  36  57  82 114 150 193 246 302 359
#
# _framework density 21.049239
#
# number of rings (size 3 to 8) (size 9 to 14) (size 15 to 20)
#    0.000    2.500    0.000    0.750    3.500    3.000 
#    4.500    0.000    0.000    0.000    0.000    0.000 
#    0.000    0.000    0.000    0.000    0.000    0.000 
#
# Total GULP energy -178282.026602 kJ/mol
# GULP energy per Si atom -5571.313331 kJ/mol
# Density = 2.100133 g / cm^3
# Si number density = 21.049239 Si / 1000 Ang^3
#
#
#
# Elastic Constant Matrix: (Units=GPa)
#
#
# Indices 1 2 3 4 5 6 
#
# 1 251.2977 54.6918 50.7657 0.0000 0.0000 0.0000
# 2 54.6918 128.7074 38.2700 0.0000 0.0000 0.0000
# 3 50.7657 38.2700 99.5961 0.0000 0.0000 0.0000
# 4 0.0000 0.0000 0.0000 27.2347 0.0000 0.0000
# 5 0.0000 0.0000 0.0000 0.0000 -9.0661 0.0000
# 6 0.0000 0.0000 0.0000 0.0000 0.0000 34.3907
#
#
#
# Elastic Compliance Matrix: (Units=1/GPa)
#
#
# Indices 1 2 3 4 5 6 
#
# 1 0.004661 -0.001438 -0.001823 0.000000 0.000000 0.000000
# 2 -0.001438 0.009216 -0.002808 0.000000 0.000000 0.000000
# 3 -0.001823 -0.002808 0.012049 0.000000 0.000000 0.000000
# 4 0.000000 0.000000 0.000000 0.036718 0.000000 0.000000
# 5 0.000000 0.000000 0.000000 0.000000 -0.110301 0.000000
# 6 0.000000 0.000000 0.000000 0.000000 0.000000 0.029078
#
#
# Mechanical properties :
#
#
# Convention : Reuss Voigt Hill
#
# Bulk Modulus (GPa) = 72.53487 85.22846 78.88166
# Shear Modulus (GPa) = -2707.48672 32.90346 -1337.29163
#
# Velocity S-wave (km/s) = -35.90342 3.95798 -25.23282
# Velocity P-wave (km/s) = 41.03909 7.83999 28.48457
#
# Compressibility (1/GPa) = 0.01378647
#
# Stress axis : x y z
#
# Youngs Moduli (GPa) = 214.56232 108.51025 82.99672
#
# Poissons Ratio (x) = 0.15609 0.15129
# Poissons Ratio (y) = 0.30863 0.23305
# Poissons Ratio (z) = 0.39112 0.30469
#
# Static dielectric constant tensor:
#      x y z
#    x 1.856580 0.000000 0.000000 
#    y 0.000000 1.719300 0.000000 
#    z 0.000000 0.000000 1.699880 
# 
# From -- ./inp_files/7321.got.cif
#   From: 2010.05.17/outbox.cif.g08.bks.cpg/sg53_4_cif.got.tgz:7321.got - 2010.06.03 12:45:16.
