data_PCOD9419108
_publ_section_title
;
Structure prediction by ZEFSAII (Michael W. Deem and Ramdas Pophale) SiO2 
 PCOD9419108
Probable space group: P M N A
;
_chemical_formula_sum "Si O2"
_cell_formula_units_Z 56
_cell_length_a 22.895605
_cell_length_b 14.355155
_cell_length_c 9.431043
_cell_angle_alpha 90.000000
_cell_angle_beta 90.000000
_cell_angle_gamma 90.000000
_cell_volume 3099.700512
_symmetry_space_group_name_H-M "P M N A"
_symmetry_group_IT_number 53
_symmetry_cell_setting 'orthorhombic'
loop_
_space_group_symop_operation_xyz
x,y,z
1/2-x,-y,1/2+z
x,-y,-z
1/2-x,y,1/2-z
-x,-y,-z
1/2+x,y,1/2-z
-x,y,z
1/2+x,-y,1/2+z
loop_
_atom_site_type_symbol
_atom_site_label
_atom_site_fract_x
_atom_site_fract_y
_atom_site_fract_z
Si Si1 0.687861 0.599884 0.330493
Si Si2 0.628452 0.108782 0.958587
Si Si3 0.876045 0.891534 0.962315
Si Si4 0.000000 0.901285 0.418474
Si Si5 0.817078 0.801377 0.204585
Si Si6 0.312141 0.603288 0.670686
Si Si7 0.819077 0.801123 0.716134
Si Si8 0.500000 0.101201 0.574457
O O1 0.750000 0.597509 0.250000
O O2 0.659075 0.696061 0.279518
O O3 0.659285 0.498596 0.304700
O O4 0.696300 0.610604 0.500653
O O5 0.669240 0.174396 0.053638
O O6 0.561293 0.141513 0.966363
O O7 0.648405 0.124695 0.798391
O O8 0.633513 0.000000 0.000000
O O9 0.826517 0.834117 0.044865
O O10 0.939313 0.856087 0.016728
O O11 0.860793 0.873166 0.799873
O O12 0.871853 0.000000 0.000000
O O13 0.000000 0.908234 0.245760
O O14 0.000000 0.000000 0.500000
O O15 0.750000 0.802462 0.250000
O O16 0.250000 0.599067 0.750000
O O17 0.338610 0.697813 0.734270
O O18 0.750000 0.812010 0.750000
O O19 0.500000 0.000000 0.500000
#
# Coordination Sequence:
#
# PCOD9419108 Si02
#       8
#     8   8   8   4   8   8   8   4
#     4   9  18  32  53  77 107 145 182 224 273 324
#     4  11  24  38  56  77 113 150 188 230 271 320
#     4  11  22  36  55  78 110 144 191 230 266 321
#     4  10  22  40  58  78 103 142 196 242 274 309
#     4  11  21  34  53  82 112 149 180 218 277 341
#     4   9  18  33  51  77 110 142 182 228 269 322
#     4  11  23  36  53  84 117 150 179 223 276 340
#     4  10  22  38  60  80 101 139 199 249 265 308
#
# _framework density 18.066261000000001
#
# number of rings (size 3 to 8) (size 9 to 14) (size 15 to 20)
#    0.000    1.714    2.857    1.714   12.000    3.429 
#    0.000    0.000    0.000    0.000    0.000    6.000 
#    0.000    0.000    0.000    0.000    0.000    0.000 
#
# Total GULP energy -311815.389795 kJ/mol
# GULP energy per Si atom -5568.131961 kJ/mol
# Density = 1.802514 g / cm^3
# Si number density = 18.066261 Si / 1000 Ang^3
#
#
#
# Elastic Constant Matrix: (Units=GPa)
#
#
# Indices 1 2 3 4 5 6 
#
# 1 68.9201 9.6170 3.9894 0.0000 0.0000 0.0000
# 2 9.6170 102.0254 3.3141 0.0000 0.0000 0.0000
# 3 3.9894 3.3141 46.0947 0.0000 0.0000 0.0000
# 4 0.0000 0.0000 0.0000 27.8453 0.0000 0.0000
# 5 0.0000 0.0000 0.0000 0.0000 24.8102 0.0000
# 6 0.0000 0.0000 0.0000 0.0000 0.0000 -4.4892
#
#
#
# Elastic Compliance Matrix: (Units=1/GPa)
#
#
# Indices 1 2 3 4 5 6 
#
# 1 0.014767 -0.001354 -0.001181 0.000000 0.000000 0.000000
# 2 -0.001354 0.009949 -0.000598 0.000000 0.000000 0.000000
# 3 -0.001181 -0.000598 0.021840 0.000000 0.000000 0.000000
# 4 0.000000 0.000000 0.000000 0.035913 0.000000 0.000000
# 5 0.000000 0.000000 0.000000 0.000000 0.040306 0.000000
# 6 0.000000 0.000000 0.000000 0.000000 0.000000 -0.222755
#
#
# Mechanical properties :
#
#
# Convention : Reuss Voigt Hill
#
# Bulk Modulus (GPa) = 24.82001 27.87570 26.34786
# Shear Modulus (GPa) = -62.27668 22.97457 -19.65106
#
# Velocity S-wave (km/s) = -5.87759 3.56994 -3.30164
# Velocity P-wave (km/s) = 5.68272 5.69700 0.28502
#
# Compressibility (1/GPa) = 0.04029008
#
# Stress axis : x y z
#
# Youngs Moduli (GPa) = 67.71956 100.51764 45.78826
#
# Poissons Ratio (x) = 0.13606 0.05406
# Poissons Ratio (y) = 0.09166 0.02739
# Poissons Ratio (z) = 0.07996 0.06012
#
# Static dielectric constant tensor:
#      x y z
#    x 1.630200 0.000000 0.000000 
#    y 0.000000 1.678240 0.000000 
#    z 0.000000 0.000000 1.607830 
# 
# From -- ./inp_files/11121.got.cif
#   From: 2010.05.17/outbox.cif.g08.bks.cpg/sg53_6_cif.got.tgz:11121.got - 2010.06.03 12:45:16.
