data_PCOD9419904
_publ_section_title
;
Structure prediction by ZEFSAII (Michael W. Deem and Ramdas Pophale) SiO2 
 PCOD9419904
Probable space group: P M N A
;
_chemical_formula_sum "Si O2"
_cell_formula_units_Z 48
_cell_length_a 16.486274
_cell_length_b 13.959243
_cell_length_c 8.972838
_cell_angle_alpha 90.000000
_cell_angle_beta 90.000000
_cell_angle_gamma 90.000000
_cell_volume 2064.972193
_symmetry_space_group_name_H-M "P M N A"
_symmetry_group_IT_number 53
_symmetry_cell_setting 'orthorhombic'
loop_
_space_group_symop_operation_xyz
x,y,z
1/2-x,-y,1/2+z
x,-y,-z
1/2-x,y,1/2-z
-x,-y,-z
1/2+x,y,1/2-z
-x,y,z
1/2+x,-y,1/2+z
loop_
_atom_site_type_symbol
_atom_site_label
_atom_site_fract_x
_atom_site_fract_y
_atom_site_fract_z
Si Si1 0.089919 0.475241 0.321878
Si Si2 0.174048 0.359346 0.837860
Si Si3 0.590440 0.172306 0.787573
Si Si4 0.904842 0.141272 0.393577
Si Si5 0.211367 0.687539 0.613041
Si Si6 0.169911 0.989071 0.169264
O O1 0.089203 0.500000 0.500000
O O2 0.105883 0.562447 0.205564
O O3 0.164723 0.402692 0.317124
O O4 0.000000 0.434851 0.289163
O O5 0.250000 0.401022 0.750000
O O6 0.147706 0.259678 0.761151
O O7 0.216987 0.338067 0.997005
O O8 0.500000 0.212675 0.797724
O O9 0.601026 0.091902 0.662913
O O10 0.601173 0.105662 0.935405
O O11 0.862028 0.243296 0.432728
O O12 0.861332 0.079676 0.265632
O O13 0.000000 0.151415 0.355930
O O14 0.250000 0.743301 0.750000
O O15 0.250000 0.948838 0.250000
O O16 0.195646 0.000000 0.000000
#
# Coordination Sequence:
#
# PCOD9419904 Si02
#       6
#     8   8   8   8   8   8
#     4  11  23  43  71 104 141 187 240 300 366 436
#     4  12  23  43  72 104 140 187 242 297 361 432
#     4  11  24  44  70 103 141 187 236 295 364 433
#     4  11  24  46  71 102 141 188 239 294 363 435
#     4  12  27  43  70 104 144 187 241 300 362 426
#     4  12  27  44  72 104 143 186 239 293 357 429
#
# _framework density 23.244864
#
# number of rings (size 3 to 8) (size 9 to 14) (size 15 to 20)
#    0.000    0.500    3.333    4.500    4.667    5.333 
#    0.000    3.333    0.000    0.000    0.000    0.000 
#    0.000    0.000    0.000    0.000    0.000    0.000 
#
# Total GULP energy -267266.931218 kJ/mol
# GULP energy per Si atom -5568.061067 kJ/mol
# Density = 2.319196 g / cm^3
# Si number density = 23.244864 Si / 1000 Ang^3
#
#
#
# Elastic Constant Matrix: (Units=GPa)
#
#
# Indices 1 2 3 4 5 6 
#
# 1 123.9836 30.9377 34.0970 0.0000 0.0000 0.0000
# 2 30.9377 96.9228 15.2523 0.0000 0.0000 0.0000
# 3 34.0970 15.2523 79.5152 0.0000 0.0000 0.0000
# 4 0.0000 0.0000 0.0000 24.6337 0.0000 0.0000
# 5 0.0000 0.0000 0.0000 0.0000 32.2320 0.0000
# 6 0.0000 0.0000 0.0000 0.0000 0.0000 28.2642
#
#
#
# Elastic Compliance Matrix: (Units=1/GPa)
#
#
# Indices 1 2 3 4 5 6 
#
# 1 0.009706 -0.002519 -0.003679 0.000000 0.000000 0.000000
# 2 -0.002519 0.011292 -0.001086 0.000000 0.000000 0.000000
# 3 -0.003679 -0.001086 0.014362 0.000000 0.000000 0.000000
# 4 0.000000 0.000000 0.000000 0.040595 0.000000 0.000000
# 5 0.000000 0.000000 0.000000 0.000000 0.031025 0.000000
# 6 0.000000 0.000000 0.000000 0.000000 0.000000 0.035380
#
#
# Mechanical properties :
#
#
# Convention : Reuss Voigt Hill
#
# Bulk Modulus (GPa) = 48.09361 51.22174 49.65768
# Shear Modulus (GPa) = 30.51400 31.70162 31.10781
#
# Velocity S-wave (km/s) = 3.62708 3.69699 3.66220
# Velocity P-wave (km/s) = 6.18675 6.34879 6.26829
#
# Compressibility (1/GPa) = 0.02079278
#
# Stress axis : x y z
#
# Youngs Moduli (GPa) = 103.03003 88.55441 69.62825
#
# Poissons Ratio (x) = 0.22309 0.25615
# Poissons Ratio (y) = 0.25955 0.07560
# Poissons Ratio (z) = 0.37902 0.09615
#
# Static dielectric constant tensor:
#      x y z
#    x 1.680940 0.000000 0.000000 
#    y 0.000000 1.901350 0.000000 
#    z 0.000000 0.000000 2.028570 
# 
# From -- ./inp_files/9934.got.cif
#   From: 2010.05.17/outbox.cif.g08.bks.cpg/sg53_5_cif.got.tgz:9934.got - 2010.06.03 12:45:16.
