data_PCOD9419540
_publ_section_title
;
Structure prediction by ZEFSAII (Michael W. Deem and Ramdas Pophale) SiO2 
 PCOD9419540
Probable space group: P M N A
;
_chemical_formula_sum "Si O2"
_cell_formula_units_Z 56
_cell_length_a 21.264890
_cell_length_b 8.596630
_cell_length_c 15.772400
_cell_angle_alpha 90.000000
_cell_angle_beta 90.000000
_cell_angle_gamma 90.000000
_cell_volume 2883.295526
_symmetry_space_group_name_H-M "P M N A"
_symmetry_group_IT_number 53
_symmetry_cell_setting 'orthorhombic'
loop_
_space_group_symop_operation_xyz
x,y,z
1/2-x,-y,1/2+z
x,-y,-z
1/2-x,y,1/2-z
-x,-y,-z
1/2+x,y,1/2-z
-x,y,z
1/2+x,-y,1/2+z
loop_
_atom_site_type_symbol
_atom_site_label
_atom_site_fract_x
_atom_site_fract_y
_atom_site_fract_z
Si Si1 0.354643 0.888250 0.076647
Si Si2 0.188816 0.196155 0.810713
Si Si3 0.693636 0.833796 0.639862
Si Si4 0.929617 0.292752 0.698594
Si Si5 0.927582 0.587639 0.587233
Si Si6 0.233716 0.322523 0.974667
Si Si7 0.836291 0.186794 0.320486
O O1 0.414000 0.796321 0.110973
O O2 0.296762 0.778724 0.047041
O O3 0.337637 0.004996 0.154015
O O4 0.369538 0.000000 0.000000
O O5 0.250000 0.208556 0.750000
O O6 0.125106 0.242363 0.762259
O O7 0.197471 0.318608 0.886159
O O8 0.189733 0.022299 0.852576
O O9 0.690499 0.764904 0.545420
O O10 0.651385 0.784296 0.720798
O O11 0.763993 0.774035 0.661791
O O12 0.925105 0.469171 0.666654
O O13 0.000000 0.258820 0.728676
O O14 0.909093 0.500000 0.500000
O O15 0.881661 0.723363 0.616294
O O16 0.000000 0.638229 0.576259
O O17 0.248206 0.500000 0.000000
#
# Coordination Sequence:
#
# PCOD9419540 Si02
#       7
#     8   8   8   8   8   8   8
#     4  12  21  39  63  92 133 167 212 264 322 393
#     4  12  21  45  67  94 132 171 213 275 336 389
#     4  11  21  39  61  94 129 165 213 271 327 387
#     4  11  25  42  65  95 135 179 218 267 331 396
#     4  10  24  43  62  93 136 180 224 266 319 398
#     4  12  26  38  64 101 130 167 217 277 335 392
#     4  11  21  37  63  90 130 172 209 263 325 383
#
# _framework density 19.422219999999999
#
# number of rings (size 3 to 8) (size 9 to 14) (size 15 to 20)
#    0.000    0.714    7.143    1.286    4.000    0.857 
#    0.000    0.000    0.000    3.000    0.000    0.000 
#    0.000    0.000    0.000    0.000    0.000    0.000 
#
# Total GULP energy -312293.302714 kJ/mol
# GULP energy per Si atom -5576.666120 kJ/mol
# Density = 1.937801 g / cm^3
# Si number density = 19.422220 Si / 1000 Ang^3
#
#
#
# Elastic Constant Matrix: (Units=GPa)
#
#
# Indices 1 2 3 4 5 6 
#
# 1 105.6191 55.7230 50.5882 0.0000 0.0000 0.0000
# 2 55.7230 95.1549 54.6958 0.0000 0.0000 0.0000
# 3 50.5882 54.6958 118.4800 0.0000 0.0000 0.0000
# 4 0.0000 0.0000 0.0000 34.5613 0.0000 0.0000
# 5 0.0000 0.0000 0.0000 0.0000 31.1522 0.0000
# 6 0.0000 0.0000 0.0000 0.0000 0.0000 15.3674
#
#
#
# Elastic Compliance Matrix: (Units=1/GPa)
#
#
# Indices 1 2 3 4 5 6 
#
# 1 0.014486 -0.006708 -0.003089 0.000000 0.000000 0.000000
# 2 -0.006708 0.017411 -0.005174 0.000000 0.000000 0.000000
# 3 -0.003089 -0.005174 0.012147 0.000000 0.000000 0.000000
# 4 0.000000 0.000000 0.000000 0.028934 0.000000 0.000000
# 5 0.000000 0.000000 0.000000 0.000000 0.032100 0.000000
# 6 0.000000 0.000000 0.000000 0.000000 0.000000 0.065073
#
#
# Mechanical properties :
#
#
# Convention : Reuss Voigt Hill
#
# Bulk Modulus (GPa) = 70.89928 71.25202 71.07565
# Shear Modulus (GPa) = 24.41474 26.76598 25.59036
#
# Velocity S-wave (km/s) = 3.54934 3.71632 3.63379
# Velocity P-wave (km/s) = 7.30620 7.42834 7.36752
#
# Compressibility (1/GPa) = 0.01410452
#
# Stress axis : x y z
#
# Youngs Moduli (GPa) = 69.03067 57.43422 82.32166
#
# Poissons Ratio (x) = 0.38526 0.25426
# Poissons Ratio (y) = 0.46305 0.42591
# Poissons Ratio (z) = 0.21321 0.29715
#
# Static dielectric constant tensor:
#      x y z
#    x 1.663290 0.000000 0.000000 
#    y 0.000000 1.741830 0.000000 
#    z 0.000000 0.000000 1.792430 
# 
# From -- ./inp_files/24353.got.cif
#   From: 2010.05.17/outbox.cif.g08.bks.cpg/sg53_13_cif.got.tgz:24353.got - 2010.06.03 12:45:16.
