data_PCOD9419554
_publ_section_title
;
Structure prediction by ZEFSAII (Michael W. Deem and Ramdas Pophale) SiO2 
 PCOD9419554
Probable space group: P M N A
;
_chemical_formula_sum "Si O2"
_cell_formula_units_Z 40
_cell_length_a 13.413288
_cell_length_b 14.091644
_cell_length_c 8.532988
_cell_angle_alpha 90.000000
_cell_angle_beta 90.000000
_cell_angle_gamma 90.000000
_cell_volume 1612.865111
_symmetry_space_group_name_H-M "P M N A"
_symmetry_group_IT_number 53
_symmetry_cell_setting 'orthorhombic'
loop_
_space_group_symop_operation_xyz
x,y,z
1/2-x,-y,1/2+z
x,-y,-z
1/2-x,y,1/2-z
-x,-y,-z
1/2+x,y,1/2-z
-x,y,z
1/2+x,-y,1/2+z
loop_
_atom_site_type_symbol
_atom_site_label
_atom_site_fract_x
_atom_site_fract_y
_atom_site_fract_z
Si Si1 0.000000 0.389644 0.339196
Si Si2 0.608409 0.895542 0.421242
Si Si3 0.811318 0.591082 0.100658
Si Si4 0.000000 0.387346 0.717701
Si Si5 0.177459 0.274797 0.378937
Si Si6 0.340174 0.106460 0.939048
O O1 0.899284 0.341123 0.285105
O O2 0.000000 0.372025 0.529879
O O3 0.000000 0.497826 0.287489
O O4 0.500000 0.851899 0.467282
O O5 0.614501 0.896351 0.233073
O O6 0.722445 0.863089 0.451479
O O7 0.606963 0.000000 0.500000
O O8 0.750000 0.553167 0.250000
O O9 0.903667 0.644279 0.183574
O O10 0.842704 0.500000 0.000000
O O11 0.738353 0.658489 0.000150
O O12 0.250000 0.232053 0.250000
O O13 0.115815 0.190729 0.459169
O O14 0.349280 0.000000 0.000000
#
# Coordination Sequence:
#
# PCOD9419554 Si02
#       6
#     4   8   8   4   8   8
#     4  11  24  48  69 110 143 186 239 308 355 445
#     4   9  20  40  69  97 131 175 233 293 355 422
#     4  12  24  43  71 104 140 188 237 293 364 438
#     4  11  23  42  78 102 144 184 232 293 377 434
#     4  12  28  47  70 104 146 193 245 302 364 429
#     4  10  24  44  68 100 140 186 237 298 352 418
#
# _framework density 24.800587
#
# number of rings (size 3 to 8) (size 9 to 14) (size 15 to 20)
#    0.000    1.200    2.000    3.300    9.800    1.200 
#    3.600    0.000    0.000    0.000    0.000    0.000 
#    0.000    0.000    0.000    0.000    0.000    0.000 
#
# Total GULP energy -223436.330320 kJ/mol
# GULP energy per Si atom -5585.908258 kJ/mol
# Density = 2.474414 g / cm^3
# Si number density = 24.800587 Si / 1000 Ang^3
#
#
#
# Elastic Constant Matrix: (Units=GPa)
#
#
# Indices 1 2 3 4 5 6 
#
# 1 127.9776 -6.6788 4.5135 0.0000 0.0000 0.0000
# 2 -6.6788 101.4281 20.7291 0.0000 0.0000 0.0000
# 3 4.5135 20.7291 101.9324 0.0000 0.0000 0.0000
# 4 0.0000 0.0000 0.0000 35.3390 0.0000 0.0000
# 5 0.0000 0.0000 0.0000 0.0000 -24.0313 0.0000
# 6 0.0000 0.0000 0.0000 0.0000 0.0000 -23.1352
#
#
#
# Elastic Compliance Matrix: (Units=1/GPa)
#
#
# Indices 1 2 3 4 5 6 
#
# 1 0.007863 0.000614 -0.000473 0.000000 0.000000 0.000000
# 2 0.000614 0.010335 -0.002129 0.000000 0.000000 0.000000
# 3 -0.000473 -0.002129 0.010264 0.000000 0.000000 0.000000
# 4 0.000000 0.000000 0.000000 0.028297 0.000000 0.000000
# 5 0.000000 0.000000 0.000000 0.000000 -0.041612 0.000000
# 6 0.000000 0.000000 0.000000 0.000000 0.000000 -0.043224
#
#
# Mechanical properties :
#
#
# Convention : Reuss Voigt Hill
#
# Bulk Modulus (GPa) = 40.83878 40.94063 40.88971
# Shear Modulus (GPa) = -313.66978 18.48613 -147.59182
#
# Velocity S-wave (km/s) = -11.25839 2.73315 -7.72273
# Velocity P-wave (km/s) = 12.34905 5.14819 7.93710
#
# Compressibility (1/GPa) = 0.02448653
#
# Stress axis : x y z
#
# Youngs Moduli (GPa) = 127.18412 96.76098 97.42497
#
# Poissons Ratio (x) = -0.05945 0.04609
# Poissons Ratio (y) = -0.07814 0.20741
# Poissons Ratio (z) = 0.06017 0.20599
#
# Static dielectric constant tensor:
#      x y z
#    x 2.034200 0.000000 0.000000 
#    y 0.000000 1.898090 0.000000 
#    z 0.000000 0.000000 1.909770 
# 
# From -- ./inp_files/8463.got.cif
#   From: 2010.05.17/outbox.cif.g08.bks.cpg/sg53_5_cif.got.tgz:8463.got - 2010.06.03 12:45:16.
