data_PCOD9419782
_publ_section_title
;
Structure prediction by ZEFSAII (Michael W. Deem and Ramdas Pophale) SiO2 
 PCOD9419782
Probable space group: P M N A
;
_chemical_formula_sum "Si O2"
_cell_formula_units_Z 32
_cell_length_a 10.406074
_cell_length_b 7.390132
_cell_length_c 19.288413
_cell_angle_alpha 90.000000
_cell_angle_beta 90.000000
_cell_angle_gamma 90.000000
_cell_volume 1483.322560
_symmetry_space_group_name_H-M "P M N A"
_symmetry_group_IT_number 53
_symmetry_cell_setting 'orthorhombic'
loop_
_space_group_symop_operation_xyz
x,y,z
1/2-x,-y,1/2+z
x,-y,-z
1/2-x,y,1/2-z
-x,-y,-z
1/2+x,y,1/2-z
-x,y,z
1/2+x,-y,1/2+z
loop_
_atom_site_type_symbol
_atom_site_label
_atom_site_fract_x
_atom_site_fract_y
_atom_site_fract_z
Si Si1 0.000000 0.117406 0.397391
Si Si2 0.781807 0.446473 0.923224
Si Si3 0.235386 0.225358 0.173311
Si Si4 0.000000 0.710785 0.448497
Si Si5 0.857755 0.826227 0.192504
O O1 0.126005 0.168838 0.355548
O O2 0.000000 0.222426 0.471155
O O3 0.000000 0.902026 0.408839
O O4 0.812960 0.620359 0.877012
O O5 0.629208 0.399041 0.930602
O O6 0.836939 0.277609 0.880069
O O7 0.827094 0.500000 0.000000
O O8 0.250000 0.302992 0.250000
O O9 0.155404 0.040863 0.178972
O O10 0.750000 0.779279 0.250000
O O11 0.000000 0.784338 0.219558
#
# Coordination Sequence:
#
# PCOD9419782 Si02
#       5
#     4   8   8   4   8
#     4  11  21  44  75 107 143 191 248 295 364 424
#     4  12  24  44  71 107 143 190 238 297 358 429
#     4  11  25  42  69 104 142 187 235 295 358 424
#     4  11  22  41  78 109 149 185 245 307 356 426
#     4  11  28  50  73 103 144 189 237 298 365 432
#
# _framework density 21.573188999999999
#
# number of rings (size 3 to 8) (size 9 to 14) (size 15 to 20)
#    0.000    0.750    5.000    1.875    8.750    2.500 
#    4.500    1.250    0.000    0.000    0.000    0.000 
#    0.000    0.000    0.000    0.000    0.000    0.000 
#
# Total GULP energy -179011.654446 kJ/mol
# GULP energy per Si atom -5594.114201 kJ/mol
# Density = 2.152409 g / cm^3
# Si number density = 21.573189 Si / 1000 Ang^3
#
#
#
# Elastic Constant Matrix: (Units=GPa)
#
#
# Indices 1 2 3 4 5 6 
#
# 1 103.1090 -5.0982 19.6139 0.0000 0.0000 0.0000
# 2 -5.0982 97.0198 55.2161 0.0000 0.0000 0.0000
# 3 19.6139 55.2161 173.8482 0.0000 0.0000 0.0000
# 4 0.0000 0.0000 0.0000 50.5521 0.0000 0.0000
# 5 0.0000 0.0000 0.0000 0.0000 41.9384 0.0000
# 6 0.0000 0.0000 0.0000 0.0000 0.0000 -44.9516
#
#
#
# Elastic Compliance Matrix: (Units=1/GPa)
#
#
# Indices 1 2 3 4 5 6 
#
# 1 0.010072 0.001435 -0.001592 0.000000 0.000000 0.000000
# 2 0.001435 0.012786 -0.004223 0.000000 0.000000 0.000000
# 3 -0.001592 -0.004223 0.007273 0.000000 0.000000 0.000000
# 4 0.000000 0.000000 0.000000 0.019782 0.000000 0.000000
# 5 0.000000 0.000000 0.000000 0.000000 0.023845 0.000000
# 6 0.000000 0.000000 0.000000 0.000000 0.000000 -0.022246
#
#
# Mechanical properties :
#
#
# Convention : Reuss Voigt Hill
#
# Bulk Modulus (GPa) = 46.79043 57.04896 51.91969
# Shear Modulus (GPa) = 74.18980 29.79078 51.99029
#
# Velocity S-wave (km/s) = 5.87064 3.72010 4.91445
# Velocity P-wave (km/s) = 8.22732 6.70477 7.50476
#
# Compressibility (1/GPa) = 0.02137189
#
# Stress axis : x y z
#
# Youngs Moduli (GPa) = 99.28168 78.21076 137.49416
#
# Poissons Ratio (x) = -0.11227 0.21893
# Poissons Ratio (y) = -0.14252 0.58063
# Poissons Ratio (z) = 0.15809 0.33028
#
# Static dielectric constant tensor:
#      x y z
#    x 1.849890 0.000000 0.000000 
#    y 0.000000 1.782710 0.000000 
#    z 0.000000 0.000000 1.750490 
# 
# From -- ./inp_files/21404.got.cif
#   From: 2010.05.17/outbox.cif.g08.bks.cpg/sg53_11_cif.got.tgz:21404.got - 2010.06.03 12:45:16.
