data_PCOD9419585
_publ_section_title
;
Structure prediction by ZEFSAII (Michael W. Deem and Ramdas Pophale) SiO2 
 PCOD9419585
Probable space group: P M N A
;
_chemical_formula_sum "Si O2"
_cell_formula_units_Z 32
_cell_length_a 30.379936
_cell_length_b 9.159952
_cell_length_c 5.052666
_cell_angle_alpha 90.000000
_cell_angle_beta 90.000000
_cell_angle_gamma 90.000000
_cell_volume 1406.049607
_symmetry_space_group_name_H-M "P M N A"
_symmetry_group_IT_number 53
_symmetry_cell_setting 'orthorhombic'
loop_
_space_group_symop_operation_xyz
x,y,z
1/2-x,-y,1/2+z
x,-y,-z
1/2-x,y,1/2-z
-x,-y,-z
1/2+x,y,1/2-z
-x,y,z
1/2+x,-y,1/2+z
loop_
_atom_site_type_symbol
_atom_site_label
_atom_site_fract_x
_atom_site_fract_y
_atom_site_fract_z
Si Si1 0.547732 0.667687 0.097152
Si Si2 0.281711 0.159224 0.505998
Si Si3 0.914216 0.897255 0.745126
Si Si4 0.365936 0.671297 0.454128
O O1 0.500000 0.681141 0.235869
O O2 0.591545 0.697401 0.267329
O O3 0.550956 0.500000 0.000000
O O4 0.548542 0.786518 0.861763
O O5 0.250000 0.188815 0.250000
O O6 0.316365 0.280898 0.600839
O O7 0.305512 0.000000 0.500000
O O8 0.250000 0.138747 0.750000
O O9 0.876086 0.780507 0.804284
O O10 0.902758 0.000000 0.500000
O O11 0.923664 0.000000 0.000000
O O12 0.366898 0.500000 0.500000
#
# Coordination Sequence:
#
# PCOD9419585 Si02
#       4
#     8   8   8   8
#     4  11  26  48  75 111 158 209 258 312 382 455
#     4  10  25  46  74 108 147 193 243 307 388 462
#     4  12  26  46  73 109 148 197 252 317 375 441
#     4  12  26  46  78 110 153 201 258 310 380 451
#
# _framework density 22.758800999999998
#
# number of rings (size 3 to 8) (size 9 to 14) (size 15 to 20)
#    0.000    0.750    5.000    0.750    3.500    4.500 
#    0.000    0.000    0.000    0.000    0.000    0.000 
#    0.000    0.000    0.000    0.000    0.000    0.000 
#
# Total GULP energy -178338.912635 kJ/mol
# GULP energy per Si atom -5573.091020 kJ/mol
# Density = 2.270700 g / cm^3
# Si number density = 22.758801 Si / 1000 Ang^3
#
#
#
# Elastic Constant Matrix: (Units=GPa)
#
#
# Indices 1 2 3 4 5 6 
#
# 1 77.6943 43.8785 3.3231 0.0000 0.0000 0.0000
# 2 43.8785 199.9104 53.7814 0.0000 0.0000 0.0000
# 3 3.3231 53.7814 90.0816 0.0000 0.0000 0.0000
# 4 0.0000 0.0000 0.0000 23.5565 0.0000 0.0000
# 5 0.0000 0.0000 0.0000 0.0000 28.0013 0.0000
# 6 0.0000 0.0000 0.0000 0.0000 0.0000 586.1384
#
#
#
# Elastic Compliance Matrix: (Units=1/GPa)
#
#
# Indices 1 2 3 4 5 6 
#
# 1 0.014900 -0.003720 0.001671 0.000000 0.000000 0.000000
# 2 -0.003720 0.006888 -0.003975 0.000000 0.000000 0.000000
# 3 0.001671 -0.003975 0.013413 0.000000 0.000000 0.000000
# 4 0.000000 0.000000 0.000000 0.042451 0.000000 0.000000
# 5 0.000000 0.000000 0.000000 0.000000 0.035713 0.000000
# 6 0.000000 0.000000 0.000000 0.000000 0.000000 0.001706
#
#
# Mechanical properties :
#
#
# Convention : Reuss Voigt Hill
#
# Bulk Modulus (GPa) = 43.19026 63.29470 53.24248
# Shear Modulus (GPa) = 37.08177 145.31946 91.20061
#
# Velocity S-wave (km/s) = 4.04088 7.99941 6.33717
# Velocity P-wave (km/s) = 6.38672 10.63919 8.77447
#
# Compressibility (1/GPa) = 0.02315337
#
# Stress axis : x y z
#
# Youngs Moduli (GPa) = 67.11202 145.17505 74.55597
#
# Poissons Ratio (x) = 0.54007 -0.12461
# Poissons Ratio (y) = 0.24967 0.29638
# Poissons Ratio (z) = -0.11217 0.57711
#
# Static dielectric constant tensor:
#      x y z
#    x 1.881370 0.000000 0.000000 
#    y 0.000000 1.891510 0.000000 
#    z 0.000000 0.000000 1.957090 
# 
# From -- ./inp_files/5030.got.cif
#   From: 2010.05.17/outbox.cif.g08.bks.cpg/sg53_3_cif.got.tgz:5030.got - 2010.06.03 12:45:16.
