data_PCOD9419262
_publ_section_title
;
Structure prediction by ZEFSAII (Michael W. Deem and Ramdas Pophale) SiO2 
 PCOD9419262
Probable space group: P M N A
;
_chemical_formula_sum "Si O2"
_cell_formula_units_Z 40
_cell_length_a 26.307357
_cell_length_b 5.008177
_cell_length_c 14.849749
_cell_angle_alpha 90.000000
_cell_angle_beta 90.000000
_cell_angle_gamma 90.000000
_cell_volume 1956.482649
_symmetry_space_group_name_H-M "P M N A"
_symmetry_group_IT_number 53
_symmetry_cell_setting 'orthorhombic'
loop_
_space_group_symop_operation_xyz
x,y,z
1/2-x,-y,1/2+z
x,-y,-z
1/2-x,y,1/2-z
-x,-y,-z
1/2+x,y,1/2-z
-x,y,z
1/2+x,-y,1/2+z
loop_
_atom_site_type_symbol
_atom_site_label
_atom_site_fract_x
_atom_site_fract_y
_atom_site_fract_z
Si Si1 0.680341 0.877307 0.902790
Si Si2 0.757435 0.621039 0.352724
Si Si3 0.646794 0.376833 0.597561
Si Si4 0.102790 0.368984 0.265905
Si Si5 0.057027 0.862507 0.195800
O O1 0.703381 0.132465 0.850939
O O2 0.721279 0.636105 0.905913
O O3 0.633778 0.744869 0.849298
O O4 0.667875 0.000000 0.000000
O O5 0.750000 0.532505 0.250000
O O6 0.704187 0.725825 0.392620
O O7 0.640124 0.500000 0.500000
O O8 0.640345 0.588104 0.680031
O O9 0.600137 0.178891 0.619545
O O10 0.075781 0.654962 0.272797
O O11 0.061639 0.156368 0.234130
O O12 0.000000 0.800602 0.165968
#
# Coordination Sequence:
#
# PCOD9419262 Si02
#       5
#     8   8   8   8   8
#     4  12  24  40  63  93 126 167 207 251 306 374
#     4  12  23  40  61  91 132 166 205 247 306 371
#     4  10  23  39  60  90 123 160 204 251 303 368
#     4  10  22  41  61  88 117 163 200 253 306 366
#     4  10  22  41  63  87 119 159 204 257 319 366
#
# _framework density 20.444852000000001
#
# number of rings (size 3 to 8) (size 9 to 14) (size 15 to 20)
#    1.200    0.000    2.000    5.400    2.800    1.200 
#    0.000    1.000    0.000    3.600    0.000    0.000 
#    0.000    0.000    0.000    0.000    0.000    0.000 
#
# Total GULP energy -223081.623115 kJ/mol
# GULP energy per Si atom -5577.040578 kJ/mol
# Density = 2.039832 g / cm^3
# Si number density = 20.444852 Si / 1000 Ang^3
#
#
#
# Elastic Constant Matrix: (Units=GPa)
#
#
# Indices 1 2 3 4 5 6 
#
# 1 65.4289 -20.0498 -18.6479 0.0000 0.0000 0.0000
# 2 -20.0498 57.6771 -19.4114 0.0000 0.0000 0.0000
# 3 -18.6479 -19.4114 58.6204 0.0000 0.0000 0.0000
# 4 0.0000 0.0000 0.0000 20.2793 0.0000 0.0000
# 5 0.0000 0.0000 0.0000 0.0000 10.7401 0.0000
# 6 0.0000 0.0000 0.0000 0.0000 0.0000 17.8190
#
#
#
# Elastic Compliance Matrix: (Units=1/GPa)
#
#
# Indices 1 2 3 4 5 6 
#
# 1 0.021703 0.011105 0.010581 0.000000 0.000000 0.000000
# 2 0.011105 0.025195 0.011876 0.000000 0.000000 0.000000
# 3 0.010581 0.011876 0.024358 0.000000 0.000000 0.000000
# 4 0.000000 0.000000 0.000000 0.049311 0.000000 0.000000
# 5 0.000000 0.000000 0.000000 0.000000 0.093109 0.000000
# 6 0.000000 0.000000 0.000000 0.000000 0.000000 0.056120
#
#
# Mechanical properties :
#
#
# Convention : Reuss Voigt Hill
#
# Bulk Modulus (GPa) = 7.22643 7.27870 7.25256
# Shear Modulus (GPa) = 20.09667 25.75670 22.92669
#
# Velocity S-wave (km/s) = 3.13864 3.55324 3.35235
# Velocity P-wave (km/s) = 4.08375 4.51684 4.30574
#
# Compressibility (1/GPa) = 0.13838089
#
# Stress axis : x y z
#
# Youngs Moduli (GPa) = 46.07725 39.69000 41.05510
#
# Poissons Ratio (x) = -0.44078 -0.43442
# Poissons Ratio (y) = -0.51171 -0.48757
# Poissons Ratio (z) = -0.48756 -0.47135
#
# Static dielectric constant tensor:
#      x y z
#    x 1.769830 0.000000 0.000000 
#    y 0.000000 1.740750 0.000000 
#    z 0.000000 0.000000 1.745700 
# 
# From -- ./inp_files/24541.got.cif
#   From: 2010.05.17/outbox.cif.g08.bks.cpg/sg53_13_cif.got.tgz:24541.got - 2010.06.03 12:45:16.
