data_PCOD9419343
_publ_section_title
;
Structure prediction by ZEFSAII (Michael W. Deem and Ramdas Pophale) SiO2 
 PCOD9419343
Probable space group: P M N A
;
_chemical_formula_sum "Si O2"
_cell_formula_units_Z 32
_cell_length_a 18.168009
_cell_length_b 7.115945
_cell_length_c 11.828385
_cell_angle_alpha 90.000000
_cell_angle_beta 90.000000
_cell_angle_gamma 90.000000
_cell_volume 1529.203808
_symmetry_space_group_name_H-M "P M N A"
_symmetry_group_IT_number 53
_symmetry_cell_setting 'orthorhombic'
loop_
_space_group_symop_operation_xyz
x,y,z
1/2-x,-y,1/2+z
x,-y,-z
1/2-x,y,1/2-z
-x,-y,-z
1/2+x,y,1/2-z
-x,y,z
1/2+x,-y,1/2+z
loop_
_atom_site_type_symbol
_atom_site_label
_atom_site_fract_x
_atom_site_fract_y
_atom_site_fract_z
Si Si1 0.084299 0.385204 0.721339
Si Si2 0.644519 0.101108 0.612431
Si Si3 0.297454 0.716178 0.034492
Si Si4 0.330998 0.235704 0.214636
O O1 0.096683 0.268090 0.835616
O O2 0.139081 0.298241 0.627741
O O3 0.110715 0.599584 0.734628
O O4 0.000000 0.375914 0.684999
O O5 0.724560 0.185924 0.581322
O O6 0.615306 0.000000 0.500000
O O7 0.653458 0.942740 0.708118
O O8 0.279440 0.500000 0.000000
O O9 0.325749 0.808901 0.918352
O O10 0.250000 0.309509 0.250000
#
# Coordination Sequence:
#
# PCOD9419343 Si02
#       4
#     8   8   8   8
#     4  11  26  44  64  97 139 177 215 264 331 402
#     4  12  25  40  71 100 130 171 226 276 322 386
#     4  10  22  42  71 100 129 168 224 281 334 380
#     4  11  22  42  70  99 128 168 222 280 329 380
#
# _framework density 20.925923000000001
#
# number of rings (size 3 to 8) (size 9 to 14) (size 15 to 20)
#    0.000    1.000    2.500    5.250    0.000    6.000 
#    0.000    2.500    0.000    0.000    0.000    0.000 
#    0.000    0.000    0.000    0.000    0.000    0.000 
#
# Total GULP energy -179127.267129 kJ/mol
# GULP energy per Si atom -5597.727098 kJ/mol
# Density = 2.087829 g / cm^3
# Si number density = 20.925923 Si / 1000 Ang^3
#
#
#
# Elastic Constant Matrix: (Units=GPa)
#
#
# Indices 1 2 3 4 5 6 
#
# 1 48.6421 15.7440 10.8668 0.0000 0.0000 0.0000
# 2 15.7440 74.0995 66.1578 0.0000 0.0000 0.0000
# 3 10.8668 66.1578 108.7020 0.0000 0.0000 0.0000
# 4 0.0000 0.0000 0.0000 44.8246 0.0000 0.0000
# 5 0.0000 0.0000 0.0000 0.0000 2.3551 0.0000
# 6 0.0000 0.0000 0.0000 0.0000 0.0000 -14.7283
#
#
#
# Elastic Compliance Matrix: (Units=1/GPa)
#
#
# Indices 1 2 3 4 5 6 
#
# 1 0.022177 -0.005984 0.001425 0.000000 0.000000 0.000000
# 2 -0.005984 0.031170 -0.018372 0.000000 0.000000 0.000000
# 3 0.001425 -0.018372 0.020239 0.000000 0.000000 0.000000
# 4 0.000000 0.000000 0.000000 0.022309 0.000000 0.000000
# 5 0.000000 0.000000 0.000000 0.000000 0.424619 0.000000
# 6 0.000000 0.000000 0.000000 0.000000 0.000000 -0.067897
#
#
# Mechanical properties :
#
#
# Convention : Reuss Voigt Hill
#
# Bulk Modulus (GPa) = 36.07164 46.33119 41.20142
# Shear Modulus (GPa) = 9.84792 15.73527 12.79159
#
# Velocity S-wave (km/s) = 2.17170 2.74515 2.47509
# Velocity P-wave (km/s) = 4.85424 5.67771 5.28205
#
# Compressibility (1/GPa) = 0.02772261
#
# Stress axis : x y z
#
# Youngs Moduli (GPa) = 45.09196 32.08183 49.41008
#
# Poissons Ratio (x) = 0.19199 -0.07042
# Poissons Ratio (y) = 0.26985 0.90779
# Poissons Ratio (z) = -0.06427 0.58942
#
# Static dielectric constant tensor:
#      x y z
#    x 1.696050 0.000000 0.000000 
#    y 0.000000 1.791590 0.000000 
#    z 0.000000 0.000000 1.781960 
# 
# From -- ./inp_files/16532.got.cif
#   From: 2010.05.17/outbox.cif.g08.bks.cpg/sg53_9_cif.got.tgz:16532.got - 2010.06.03 12:45:16.
