data_PCOD9419672
_publ_section_title
;
Structure prediction by ZEFSAII (Michael W. Deem and Ramdas Pophale) SiO2 
 PCOD9419672
Probable space group: P M N A
;
_chemical_formula_sum "Si O2"
_cell_formula_units_Z 36
_cell_length_a 16.640336
_cell_length_b 8.202548
_cell_length_c 12.817740
_cell_angle_alpha 90.000000
_cell_angle_beta 90.000000
_cell_angle_gamma 90.000000
_cell_volume 1749.533770
_symmetry_space_group_name_H-M "P M N A"
_symmetry_group_IT_number 53
_symmetry_cell_setting 'orthorhombic'
loop_
_space_group_symop_operation_xyz
x,y,z
1/2-x,-y,1/2+z
x,-y,-z
1/2-x,y,1/2-z
-x,-y,-z
1/2+x,y,1/2-z
-x,y,z
1/2+x,-y,1/2+z
loop_
_atom_site_type_symbol
_atom_site_label
_atom_site_fract_x
_atom_site_fract_y
_atom_site_fract_z
Si Si1 0.250000 0.606611 0.250000
Si Si2 0.091375 0.193119 0.693315
Si Si3 0.407364 0.815644 0.751453
Si Si4 0.355384 0.691268 0.977876
Si Si5 0.188080 0.629262 0.923902
O O1 0.332924 0.705432 0.237040
O O2 0.262246 0.488457 0.347215
O O3 0.100846 0.206506 0.567927
O O4 0.000000 0.249159 0.720363
O O5 0.100922 0.009272 0.733729
O O6 0.500000 0.775366 0.735990
O O7 0.380755 0.737434 0.861231
O O8 0.360882 0.746212 0.651467
O O9 0.259070 0.721753 0.985319
O O10 0.372729 0.500000 0.000000
O O11 0.143739 0.500000 0.000000
#
# Coordination Sequence:
#
# PCOD9419672 Si02
#       5
#     4   8   8   8   8
#     4  12  22  42  68  94 132 176 218 276 330 400
#     4  11  25  42  65 101 133 171 223 278 344 400
#     4  11  24  41  64  95 135 174 219 280 340 404
#     4  11  20  40  65  95 131 167 222 278 331 396
#     4  11  22  42  64  97 128 175 232 266 334 406
#
# _framework density 20.576910000000002
#
# number of rings (size 3 to 8) (size 9 to 14) (size 15 to 20)
#    0.000    0.889    6.667    1.333    3.111    6.667 
#    0.000    1.111    0.000    2.667    0.000    0.000 
#    0.000    0.000    0.000    0.000    0.000    0.000 
#
# Total GULP energy -200951.295264 kJ/mol
# GULP energy per Si atom -5581.980424 kJ/mol
# Density = 2.053008 g / cm^3
# Si number density = 20.576910 Si / 1000 Ang^3
#
#
#
# Elastic Constant Matrix: (Units=GPa)
#
#
# Indices 1 2 3 4 5 6 
#
# 1 126.7887 43.5383 25.9714 0.0000 0.0000 0.0000
# 2 43.5383 45.2555 19.9878 0.0000 0.0000 0.0000
# 3 25.9714 19.9878 55.6564 0.0000 0.0000 0.0000
# 4 0.0000 0.0000 0.0000 39.9636 0.0000 0.0000
# 5 0.0000 0.0000 0.0000 0.0000 25.2985 0.0000
# 6 0.0000 0.0000 0.0000 0.0000 0.0000 33.9746
#
#
#
# Elastic Compliance Matrix: (Units=1/GPa)
#
#
# Indices 1 2 3 4 5 6 
#
# 1 0.011914 -0.010705 -0.001715 0.000000 0.000000 0.000000
# 2 -0.010705 0.035880 -0.007890 0.000000 0.000000 0.000000
# 3 -0.001715 -0.007890 0.021601 0.000000 0.000000 0.000000
# 4 0.000000 0.000000 0.000000 0.025023 0.000000 0.000000
# 5 0.000000 0.000000 0.000000 0.000000 0.039528 0.000000
# 6 0.000000 0.000000 0.000000 0.000000 0.000000 0.029434
#
#
# Mechanical properties :
#
#
# Convention : Reuss Voigt Hill
#
# Bulk Modulus (GPa) = 34.75212 45.18840 39.97026
# Shear Modulus (GPa) = 23.40896 29.06088 26.23492
#
# Velocity S-wave (km/s) = 3.37654 3.76214 3.57454
# Velocity P-wave (km/s) = 5.66806 6.39375 6.04181
#
# Compressibility (1/GPa) = 0.02877523
#
# Stress axis : x y z
#
# Youngs Moduli (GPa) = 83.93170 27.87048 46.29314
#
# Poissons Ratio (x) = 0.29835 0.07941
# Poissons Ratio (y) = 0.89847 0.36527
# Poissons Ratio (z) = 0.14397 0.21991
#
# Static dielectric constant tensor:
#      x y z
#    x 1.785740 0.000000 0.000000 
#    y 0.000000 1.749190 0.000000 
#    z 0.000000 0.000000 1.820640 
# 
# From -- ./inp_files/22310.got.cif
#   From: 2010.05.17/outbox.cif.g08.bks.cpg/sg53_12_cif.got.tgz:22310.got - 2010.06.03 12:45:16.
