data_PCOD9419416
_publ_section_title
;
Structure prediction by ZEFSAII (Michael W. Deem and Ramdas Pophale) SiO2 
 PCOD9419416
Probable space group: P M N A
;
_chemical_formula_sum "Si O2"
_cell_formula_units_Z 64
_cell_length_a 8.820184
_cell_length_b 16.666643
_cell_length_c 23.502150
_cell_angle_alpha 90.000000
_cell_angle_beta 90.000000
_cell_angle_gamma 90.000000
_cell_volume 3454.883217
_symmetry_space_group_name_H-M "P M N A"
_symmetry_group_IT_number 53
_symmetry_cell_setting 'orthorhombic'
loop_
_space_group_symop_operation_xyz
x,y,z
1/2-x,-y,1/2+z
x,-y,-z
1/2-x,y,1/2-z
-x,-y,-z
1/2+x,y,1/2-z
-x,y,z
1/2+x,-y,1/2+z
loop_
_atom_site_type_symbol
_atom_site_label
_atom_site_fract_x
_atom_site_fract_y
_atom_site_fract_z
Si Si1 0.320144 0.041819 0.413397
Si Si2 0.682235 0.386240 0.813404
Si Si3 0.821212 0.123553 0.312600
Si Si4 0.170712 0.590677 0.979293
Si Si5 0.182158 0.706269 0.426650
Si Si6 0.821711 0.437090 0.361620
Si Si7 0.178334 0.718177 0.811806
Si Si8 0.180124 0.130220 0.972304
O O1 0.500000 0.053501 0.402839
O O2 0.227539 0.055284 0.356278
O O3 0.275256 0.104331 0.463472
O O4 0.300210 0.952016 0.437069
O O5 0.750000 0.376368 0.750000
O O6 0.500000 0.383974 0.807944
O O7 0.725438 0.321407 0.862249
O O8 0.721636 0.473991 0.840045
O O9 0.750000 0.110819 0.250000
O O10 0.755100 0.205256 0.341194
O O11 0.000000 0.130797 0.306425
O O12 0.285926 0.581209 0.927150
O O13 0.000000 0.618859 0.962119
O O14 0.155310 0.500000 0.000000
O O15 0.236911 0.646605 0.028658
O O16 0.232146 0.795483 0.444768
O O17 0.000000 0.697532 0.431144
O O18 0.723283 0.369223 0.331908
O O19 0.000000 0.426328 0.349637
O O20 0.250000 0.724088 0.750000
O O21 0.000000 0.729093 0.811546
O O22 0.000000 0.149127 0.973056
#
# Coordination Sequence:
#
# PCOD9419416 Si02
#       8
#     8   8   8   8   8   8   8   8
#     4   9  19  39  63  88 119 152 190 236 293 354
#     4  10  23  40  60  83 112 153 196 243 295 342
#     4  11  22  37  58  85 118 157 197 240 293 351
#     4  11  23  38  58  85 115 153 195 238 287 344
#     4  11  23  40  60  87 121 155 193 243 296 346
#     4  11  22  38  58  82 114 153 195 241 294 344
#     4  11  22  37  55  80 115 153 195 240 285 342
#     4   9  20  39  64  90 117 152 191 238 293 354
#
# _framework density 18.524505000000001
#
# number of rings (size 3 to 8) (size 9 to 14) (size 15 to 20)
#    0.000    1.625    1.250    5.250    1.750    4.500 
#    0.000    1.875    0.000    1.500    0.000    0.000 
#    0.000    0.000    0.000    0.000    0.000    0.000 
#
# Total GULP energy -357006.036597 kJ/mol
# GULP energy per Si atom -5578.219322 kJ/mol
# Density = 1.848234 g / cm^3
# Si number density = 18.524505 Si / 1000 Ang^3
#
#
#
# Elastic Constant Matrix: (Units=GPa)
#
#
# Indices 1 2 3 4 5 6 
#
# 1 100.7039 43.5056 43.0313 0.0000 0.0000 0.0000
# 2 43.5056 77.2091 52.1947 0.0000 0.0000 0.0000
# 3 43.0313 52.1947 103.1148 0.0000 0.0000 0.0000
# 4 0.0000 0.0000 0.0000 24.6256 0.0000 0.0000
# 5 0.0000 0.0000 0.0000 0.0000 55.8370 0.0000
# 6 0.0000 0.0000 0.0000 0.0000 0.0000 37.8062
#
#
#
# Elastic Compliance Matrix: (Units=1/GPa)
#
#
# Indices 1 2 3 4 5 6 
#
# 1 0.013614 -0.005823 -0.002734 0.000000 0.000000 0.000000
# 2 -0.005823 0.022180 -0.008797 0.000000 0.000000 0.000000
# 3 -0.002734 -0.008797 0.015292 0.000000 0.000000 0.000000
# 4 0.000000 0.000000 0.000000 0.040608 0.000000 0.000000
# 5 0.000000 0.000000 0.000000 0.000000 0.017909 0.000000
# 6 0.000000 0.000000 0.000000 0.000000 0.000000 0.026451
#
#
# Mechanical properties :
#
#
# Convention : Reuss Voigt Hill
#
# Bulk Modulus (GPa) = 61.05815 62.05456 61.55635
# Shear Modulus (GPa) = 28.37352 33.14015 30.75683
#
# Velocity S-wave (km/s) = 3.91791 4.23423 4.07914
# Velocity P-wave (km/s) = 7.31430 7.58131 7.44900
#
# Compressibility (1/GPa) = 0.01637783
#
# Stress axis : x y z
#
# Youngs Moduli (GPa) = 73.45426 45.08577 65.39523
#
# Poissons Ratio (x) = 0.26254 0.17878
# Poissons Ratio (y) = 0.42773 0.57528
# Poissons Ratio (z) = 0.20081 0.39662
#
# Static dielectric constant tensor:
#      x y z
#    x 3.529070 0.000000 0.000000 
#    y 0.000000 1.840950 0.000000 
#    z 0.000000 0.000000 1.610660 
# 
# From -- ./inp_files/34310.got.cif
#   From: 2010.05.17/outbox.cif.g08.bks.cpg/sg53_18_cif.got.tgz:34310.got - 2010.06.03 12:45:16.
