data_PCOD9419802
_publ_section_title
;
Structure prediction by ZEFSAII (Michael W. Deem and Ramdas Pophale) SiO2 
 PCOD9419802
Probable space group: P M N A
;
_chemical_formula_sum "Si O2"
_cell_formula_units_Z 64
_cell_length_a 8.629696
_cell_length_b 17.932592
_cell_length_c 20.481880
_cell_angle_alpha 90.000000
_cell_angle_beta 90.000000
_cell_angle_gamma 90.000000
_cell_volume 3169.628637
_symmetry_space_group_name_H-M "P M N A"
_symmetry_group_IT_number 53
_symmetry_cell_setting 'orthorhombic'
loop_
_space_group_symop_operation_xyz
x,y,z
1/2-x,-y,1/2+z
x,-y,-z
1/2-x,y,1/2-z
-x,-y,-z
1/2+x,y,1/2-z
-x,y,z
1/2+x,-y,1/2+z
loop_
_atom_site_type_symbol
_atom_site_label
_atom_site_fract_x
_atom_site_fract_y
_atom_site_fract_z
Si Si1 0.684596 0.446396 0.314779
Si Si2 0.315323 0.925922 0.960364
Si Si3 0.819996 0.711521 0.653523
Si Si4 0.175874 0.662350 0.976149
Si Si5 0.684273 0.125649 0.320721
Si Si6 0.687934 0.282498 0.677077
Si Si7 0.325441 0.189634 0.560504
Si Si8 0.811445 0.426801 0.906879
O O1 0.750000 0.484742 0.250000
O O2 0.500000 0.444608 0.311516
O O3 0.750733 0.363530 0.316687
O O4 0.735504 0.494348 0.377164
O O5 0.500000 0.927983 0.951499
O O6 0.243846 0.913339 0.887961
O O7 0.270345 0.860048 0.010398
O O8 0.265945 0.000000 0.000000
O O9 0.789796 0.693732 0.577780
O O10 0.733187 0.787329 0.672091
O O11 0.000000 0.720197 0.669299
O O12 0.000000 0.647472 0.949391
O O13 0.159258 0.729639 0.027044
O O14 0.234210 0.593851 0.019625
O O15 0.750000 0.099456 0.250000
O O16 0.500000 0.119856 0.319139
O O17 0.750000 0.278245 0.750000
O O18 0.500000 0.281854 0.677302
O O19 0.737548 0.212009 0.631827
O O20 0.737196 0.360114 0.642179
O O21 0.500000 0.157705 0.566196
O O22 0.000000 0.425979 0.908332
#
# Coordination Sequence:
#
# PCOD9419802 Si02
#       8
#     8   8   8   8   8   8   8   8
#     4  11  22  37  54  75 107 151 199 251 310 368
#     4  11  24  42  66  98 132 163 198 241 293 355
#     4  12  24  38  57  85 119 154 198 253 308 362
#     4   9  17  34  58  83 109 148 197 244 297 361
#     4  12  25  44  70  98 128 164 206 252 302 361
#     4   9  17  31  52  82 114 151 200 251 303 357
#     4   9  18  34  58  85 117 156 202 246 291 354
#     4   8  17  33  54  77 108 150 198 249 305 365
#
# _framework density 20.191641000000001
#
# number of rings (size 3 to 8) (size 9 to 14) (size 15 to 20)
#    0.000    1.875    1.250    5.250    0.000    2.000 
#    0.000    6.875    0.000    1.500    0.000    0.000 
#    0.000    0.000    0.000    0.000    0.000    0.000 
#
# Total GULP energy -357040.813835 kJ/mol
# GULP energy per Si atom -5578.762716 kJ/mol
# Density = 2.014568 g / cm^3
# Si number density = 20.191641 Si / 1000 Ang^3
#
#
#
# Elastic Constant Matrix: (Units=GPa)
#
#
# Indices 1 2 3 4 5 6 
#
# 1 69.1967 27.3070 36.5746 0.0000 0.0000 0.0000
# 2 27.3070 78.6848 51.6868 0.0000 0.0000 0.0000
# 3 36.5746 51.6868 145.2960 0.0000 0.0000 0.0000
# 4 0.0000 0.0000 0.0000 -11.4719 0.0000 0.0000
# 5 0.0000 0.0000 0.0000 0.0000 -689.8791 0.0000
# 6 0.0000 0.0000 0.0000 0.0000 0.0000 24.7218
#
#
#
# Elastic Compliance Matrix: (Units=1/GPa)
#
#
# Indices 1 2 3 4 5 6 
#
# 1 0.017668 -0.004189 -0.002957 0.000000 0.000000 0.000000
# 2 -0.004189 0.017577 -0.005198 0.000000 0.000000 0.000000
# 3 -0.002957 -0.005198 0.009476 0.000000 0.000000 0.000000
# 4 0.000000 0.000000 0.000000 -0.087170 0.000000 0.000000
# 5 0.000000 0.000000 0.000000 0.000000 -0.001450 0.000000
# 6 0.000000 0.000000 0.000000 0.000000 0.000000 0.040450
#
#
# Mechanical properties :
#
#
# Convention : Reuss Voigt Hill
#
# Bulk Modulus (GPa) = 49.91979 58.25714 54.08846
# Shear Modulus (GPa) = 179.09232 -123.48522 27.80355
#
# Velocity S-wave (km/s) = 9.42809 -7.82875 3.71480
# Velocity P-wave (km/s) = 11.97059 7.26667 6.72647
#
# Compressibility (1/GPa) = 0.02003214
#
# Stress axis : x y z
#
# Youngs Moduli (GPa) = 56.60043 56.89113 105.52759
#
# Poissons Ratio (x) = 0.23831 0.31207
# Poissons Ratio (y) = 0.23709 0.54858
# Poissons Ratio (z) = 0.16738 0.29575
#
# Static dielectric constant tensor:
#      x y z
#    x 1.698400 0.000000 0.000000 
#    y 0.000000 1.732280 0.000000 
#    z 0.000000 0.000000 1.881560 
# 
# From -- ./inp_files/31158.got.cif
#   From: 2010.05.17/outbox.cif.g08.bks.cpg/sg53_16_cif.got.tgz:31158.got - 2010.06.03 12:45:16.
