data_PCOD9419435
_publ_section_title
;
Structure prediction by ZEFSAII (Michael W. Deem and Ramdas Pophale) SiO2 
 PCOD9419435
Probable space group: P M N A
;
_chemical_formula_sum "Si O2"
_cell_formula_units_Z 26
_cell_length_a 14.376740
_cell_length_b 14.333293
_cell_length_c 5.310224
_cell_angle_alpha 90.000000
_cell_angle_beta 90.000000
_cell_angle_gamma 90.000000
_cell_volume 1094.256761
_symmetry_space_group_name_H-M "P M N A"
_symmetry_group_IT_number 53
_symmetry_cell_setting 'orthorhombic'
loop_
_space_group_symop_operation_xyz
x,y,z
1/2-x,-y,1/2+z
x,-y,-z
1/2-x,y,1/2-z
-x,-y,-z
1/2+x,y,1/2-z
-x,y,z
1/2+x,-y,1/2+z
loop_
_atom_site_type_symbol
_atom_site_label
_atom_site_fract_x
_atom_site_fract_y
_atom_site_fract_z
Si Si1 0.363307 0.945277 0.250224
Si Si2 0.361639 0.382453 0.256256
Si Si3 0.362314 0.269202 0.754188
Si Si4 0.500000 0.500000 0.000000
O O1 0.250000 0.944402 0.250000
O O2 0.393421 0.837890 0.251755
O O3 0.392159 0.000000 0.500000
O O4 0.392082 0.000000 0.000000
O O5 0.250000 0.396810 0.250000
O O6 0.388507 0.326275 0.506039
O O7 0.418244 0.475410 0.207986
O O8 0.389706 0.320120 0.011732
O O9 0.250000 0.267287 0.750000
#
# Coordination Sequence:
#
# PCOD9419435 Si02
#       4
#     8   8   8   2
#     4   9  15  24  46  82 120 158 205 253 299 369
#     4  10  23  41  63  91 127 165 210 270 331 395
#     4   9  18  35  56  85 127 168 204 258 326 381
#     4  12  28  46  72 100 124 170 228 278 340 400
#
# _framework density 23.760421000000001
#
# number of rings (size 3 to 8) (size 9 to 14) (size 15 to 20)
#    0.000    2.462    0.000    1.846    0.000   14.769 
#    0.000    0.000    0.000    0.000    0.000   21.538 
#    0.000    0.000    0.000    0.000    0.000    1.846 
#
# Total GULP energy -145034.180532 kJ/mol
# GULP energy per Si atom -5578.237713 kJ/mol
# Density = 2.370634 g / cm^3
# Si number density = 23.760421 Si / 1000 Ang^3
#
#
#
# Elastic Constant Matrix: (Units=GPa)
#
#
# Indices 1 2 3 4 5 6 
#
# 1 148.8346 18.2890 27.8594 0.0000 0.0000 0.0000
# 2 18.2890 120.9708 94.9757 0.0000 0.0000 0.0000
# 3 27.8594 94.9757 245.7815 0.0000 0.0000 0.0000
# 4 0.0000 0.0000 0.0000 50.0330 0.0000 0.0000
# 5 0.0000 0.0000 0.0000 0.0000 -0.7127 0.0000
# 6 0.0000 0.0000 0.0000 0.0000 0.0000 -70.6201
#
#
#
# Elastic Compliance Matrix: (Units=1/GPa)
#
#
# Indices 1 2 3 4 5 6 
#
# 1 0.006896 -0.000616 -0.000544 0.000000 0.000000 0.000000
# 2 -0.000616 0.011922 -0.004537 0.000000 0.000000 0.000000
# 3 -0.000544 -0.004537 0.005883 0.000000 0.000000 0.000000
# 4 0.000000 0.000000 0.000000 0.019987 0.000000 0.000000
# 5 0.000000 0.000000 0.000000 0.000000 -1.403092 0.000000
# 6 0.000000 0.000000 0.000000 0.000000 0.000000 -0.014160
#
#
# Mechanical properties :
#
#
# Convention : Reuss Voigt Hill
#
# Bulk Modulus (GPa) = 75.14016 88.64835 81.89426
# Shear Modulus (GPa) = -3.68532 20.70422 8.50945
#
# Velocity S-wave (km/s) = -1.24676 2.95511 1.89450
# Velocity P-wave (km/s) = 5.44245 7.00241 6.27112
#
# Compressibility (1/GPa) = 0.01330846
#
# Stress axis : x y z
#
# Youngs Moduli (GPa) = 145.00507 83.88143 169.96707
#
# Poissons Ratio (x) = 0.05165 0.09242
# Poissons Ratio (y) = 0.08928 0.77114
# Poissons Ratio (z) = 0.07885 0.38057
#
# Static dielectric constant tensor:
#      x y z
#    x 1.925580 0.000000 0.000000 
#    y 0.000000 1.941420 0.000000 
#    z 0.000000 0.000000 1.858740 
# 
# From -- ./inp_files/1115.got.cif
#   From: 2010.05.17/outbox.cif.g08.bks.cpg/sg53_1_cif.got.tgz:1115.got - 2010.06.03 12:45:16.
