data_PCOD9419794
_publ_section_title
;
Structure prediction by ZEFSAII (Michael W. Deem and Ramdas Pophale) SiO2 
 PCOD9419794
Probable space group: P M N A
;
_chemical_formula_sum "Si O2"
_cell_formula_units_Z 48
_cell_length_a 8.537405
_cell_length_b 21.962995
_cell_length_c 14.591281
_cell_angle_alpha 90.000000
_cell_angle_beta 90.000000
_cell_angle_gamma 90.000000
_cell_volume 2735.967083
_symmetry_space_group_name_H-M "P M N A"
_symmetry_group_IT_number 53
_symmetry_cell_setting 'orthorhombic'
loop_
_space_group_symop_operation_xyz
x,y,z
1/2-x,-y,1/2+z
x,-y,-z
1/2-x,y,1/2-z
-x,-y,-z
1/2+x,y,1/2-z
-x,y,z
1/2+x,-y,1/2+z
loop_
_atom_site_type_symbol
_atom_site_label
_atom_site_fract_x
_atom_site_fract_y
_atom_site_fract_z
Si Si1 0.313543 0.665411 0.647145
Si Si2 0.809141 0.098375 0.497459
Si Si3 0.189628 0.570061 0.503107
Si Si4 0.189847 0.762319 0.504952
Si Si5 0.311068 0.998291 0.147510
Si Si6 0.188289 0.666862 0.352626
O O1 0.250000 0.664846 0.750000
O O2 0.500000 0.666044 0.648249
O O3 0.254399 0.607027 0.589725
O O4 0.251811 0.723883 0.590835
O O5 0.755975 0.167943 0.495746
O O6 0.761130 0.058161 0.409686
O O7 0.000000 0.099240 0.497696
O O8 0.760881 0.060146 0.587198
O O9 0.239700 0.500000 0.500000
O O10 0.237042 0.607951 0.412429
O O11 0.000000 0.571785 0.508012
O O12 0.237164 0.725270 0.413478
O O13 0.000000 0.761470 0.508712
O O14 0.250000 0.997341 0.250000
O O15 0.500000 0.998242 0.149123
O O16 0.250000 0.667162 0.250000
O O17 0.000000 0.666892 0.349128
#
# Coordination Sequence:
#
# PCOD9419794 Si02
#       6
#     8   8   8   8   8   8
#     4  11  22  36  54  77 105 136 171 212 256 304
#     4   8  16  32  52  70  96 133 168 202 249 306
#     4   9  19  37  57  77 103 135 171 211 253 298
#     4   9  18  35  54  72  97 133 174 214 255 299
#     4   9  17  31  50  73  99 130 165 203 249 301
#     4   9  18  31  49  72  99 129 161 201 248 296
#
# _framework density 17.544070999999999
#
# number of rings (size 3 to 8) (size 9 to 14) (size 15 to 20)
#    0.000    2.833    0.000    3.500    0.000    5.000 
#    0.000    6.667    0.000    0.000    0.000    0.000 
#    0.000    0.000    0.000    0.000    0.000    0.000 
#
# Total GULP energy -267633.397362 kJ/mol
# GULP energy per Si atom -5575.695778 kJ/mol
# Density = 1.750414 g / cm^3
# Si number density = 17.544071 Si / 1000 Ang^3
#
#
#
# Elastic Constant Matrix: (Units=GPa)
#
#
# Indices 1 2 3 4 5 6 
#
# 1 18.0332 33.4287 30.8053 0.0000 0.0000 0.0000
# 2 33.4287 206.2868 113.3067 0.0000 0.0000 0.0000
# 3 30.8053 113.3067 202.1023 0.0000 0.0000 0.0000
# 4 0.0000 0.0000 0.0000 6.2120 0.0000 0.0000
# 5 0.0000 0.0000 0.0000 0.0000 36.1262 0.0000
# 6 0.0000 0.0000 0.0000 0.0000 0.0000 16.2157
#
#
#
# Elastic Compliance Matrix: (Units=1/GPa)
#
#
# Indices 1 2 3 4 5 6 
#
# 1 0.086889 -0.009834 -0.007731 0.000000 0.000000 0.000000
# 2 -0.009834 0.008118 -0.003052 0.000000 0.000000 0.000000
# 3 -0.007731 -0.003052 0.007837 0.000000 0.000000 0.000000
# 4 0.000000 0.000000 0.000000 0.160978 0.000000 0.000000
# 5 0.000000 0.000000 0.000000 0.000000 0.027681 0.000000
# 6 0.000000 0.000000 0.000000 0.000000 0.000000 0.061669
#
#
# Mechanical properties :
#
#
# Convention : Reuss Voigt Hill
#
# Bulk Modulus (GPa) = 16.23107 86.83376 51.53241
# Shear Modulus (GPa) = 12.04988 28.30288 20.17638
#
# Velocity S-wave (km/s) = 2.62360 4.02088 3.39490
# Velocity P-wave (km/s) = 4.29527 8.43556 6.69358
#
# Compressibility (1/GPa) = 0.06161024
#
# Stress axis : x y z
#
# Youngs Moduli (GPa) = 11.50897 123.18778 127.59237
#
# Poissons Ratio (x) = 1.21145 0.98635
# Poissons Ratio (y) = 0.11318 0.38943
# Poissons Ratio (z) = 0.08897 0.37599
#
# Static dielectric constant tensor:
#      x y z
#    x 1.599060 0.000000 0.000000 
#    y 0.000000 1.599020 0.000000 
#    z 0.000000 0.000000 1.564190 
# 
# From -- ./inp_files/20345.got.cif
#   From: 2010.05.17/outbox.cif.g08.bks.cpg/sg53_11_cif.got.tgz:20345.got - 2010.06.03 12:45:16.
