data_PCOD9419916
_publ_section_title
;
Structure prediction by ZEFSAII (Michael W. Deem and Ramdas Pophale) SiO2 
 PCOD9419916
Probable space group: P M N A
;
_chemical_formula_sum "Si O2"
_cell_formula_units_Z 48
_cell_length_a 10.018390
_cell_length_b 30.992247
_cell_length_c 8.751084
_cell_angle_alpha 90.000000
_cell_angle_beta 90.000000
_cell_angle_gamma 90.000000
_cell_volume 2717.145226
_symmetry_space_group_name_H-M "P M N A"
_symmetry_group_IT_number 53
_symmetry_cell_setting 'orthorhombic'
loop_
_space_group_symop_operation_xyz
x,y,z
1/2-x,-y,1/2+z
x,-y,-z
1/2-x,y,1/2-z
-x,-y,-z
1/2+x,y,1/2-z
-x,y,z
1/2+x,-y,1/2+z
loop_
_atom_site_type_symbol
_atom_site_label
_atom_site_fract_x
_atom_site_fract_y
_atom_site_fract_z
Si Si1 0.254341 0.099219 0.567152
Si Si2 0.000000 0.047258 0.069791
Si Si3 0.158087 0.541426 0.100937
Si Si4 0.656340 0.364767 0.601793
Si Si5 0.843382 0.269955 0.899093
Si Si6 0.339267 0.814857 0.597903
Si Si7 0.500000 0.950792 0.936539
O O1 0.250000 0.096959 0.750000
O O2 0.373781 0.071908 0.496253
O O3 0.282378 0.147862 0.512443
O O4 0.124696 0.076618 0.497143
O O5 0.000000 0.046919 0.253005
O O6 0.000000 0.000000 0.000000
O O7 0.250000 0.540522 0.250000
O O8 0.179190 0.588734 0.023283
O O9 0.000000 0.538543 0.139420
O O10 0.190934 0.500000 0.000000
O O11 0.750000 0.364874 0.750000
O O12 0.500000 0.365036 0.646788
O O13 0.679643 0.317747 0.528625
O O14 0.750000 0.265639 0.750000
O O15 0.000000 0.267756 0.852984
O O16 0.820901 0.231269 0.016414
O O17 0.250000 0.816950 0.750000
O O18 0.500000 0.821364 0.624190
O O19 0.500000 0.000000 0.000000
#
# Coordination Sequence:
#
# PCOD9419916 Si02
#       7
#     8   4   8   8   8   8   4
#     4  12  25  43  65  92 121 155 198 240 282 335
#     4  12  24  44  66  92 128 158 196 236 281 340
#     4   9  17  29  46  70 100 136 180 225 277 333
#     4   8  14  27  48  71  99 136 176 225 275 328
#     4   9  18  34  56  82 109 139 183 231 280 334
#     4  11  24  41  60  85 117 152 188 231 284 341
#     4  12  26  44  68  96 124 162 194 236 289 332
#
# _framework density 17.665599
#
# number of rings (size 3 to 8) (size 9 to 14) (size 15 to 20)
#    0.000    1.833    0.833    4.000    1.167    1.000 
#    0.000    0.833    0.000    0.000    0.000    0.000 
#    0.000    0.000    0.000    0.000    0.000    0.000 
#
# Total GULP energy -267473.544114 kJ/mol
# GULP energy per Si atom -5572.365502 kJ/mol
# Density = 1.762539 g / cm^3
# Si number density = 17.665599 Si / 1000 Ang^3
#
#
#
# Elastic Constant Matrix: (Units=GPa)
#
#
# Indices 1 2 3 4 5 6 
#
# 1 96.4929 58.9672 52.9204 0.0000 0.0000 0.0000
# 2 58.9672 188.1061 71.9328 0.0000 0.0000 0.0000
# 3 52.9204 71.9328 130.3528 0.0000 0.0000 0.0000
# 4 0.0000 0.0000 0.0000 27.1564 0.0000 0.0000
# 5 0.0000 0.0000 0.0000 0.0000 24.8853 0.0000
# 6 0.0000 0.0000 0.0000 0.0000 0.0000 69.6093
#
#
#
# Elastic Compliance Matrix: (Units=1/GPa)
#
#
# Indices 1 2 3 4 5 6 
#
# 1 0.014485 -0.002905 -0.004277 0.000000 0.000000 0.000000
# 2 -0.002905 0.007321 -0.002860 0.000000 0.000000 0.000000
# 3 -0.004277 -0.002860 0.010986 0.000000 0.000000 0.000000
# 4 0.000000 0.000000 0.000000 0.036824 0.000000 0.000000
# 5 0.000000 0.000000 0.000000 0.000000 0.040184 0.000000
# 6 0.000000 0.000000 0.000000 0.000000 0.000000 0.014366
#
#
# Mechanical properties :
#
#
# Convention : Reuss Voigt Hill
#
# Bulk Modulus (GPa) = 78.70162 86.95474 82.82818
# Shear Modulus (GPa) = 33.67312 39.73896 36.70604
#
# Velocity S-wave (km/s) = 4.37067 4.74805 4.56326
# Velocity P-wave (km/s) = 8.37364 8.91000 8.64598
#
# Compressibility (1/GPa) = 0.01270622
#
# Stress axis : x y z
#
# Youngs Moduli (GPa) = 69.03918 136.60056 91.02092
#
# Poissons Ratio (x) = 0.39681 0.38933
# Poissons Ratio (y) = 0.20055 0.26036
# Poissons Ratio (z) = 0.29531 0.39074
#
# Static dielectric constant tensor:
#      x y z
#    x 1.522980 0.000000 0.000000 
#    y 0.000000 1.670970 0.000000 
#    z 0.000000 0.000000 1.559380 
# 
# From -- ./inp_files/6810.got.cif
#   From: 2010.05.17/outbox.cif.g08.bks.cpg/sg53_4_cif.got.tgz:6810.got - 2010.06.03 12:45:16.
