data_PCOD9419789
_publ_section_title
;
Structure prediction by ZEFSAII (Michael W. Deem and Ramdas Pophale) SiO2 
 PCOD9419789
Probable space group: P M N A
;
_chemical_formula_sum "Si O2"
_cell_formula_units_Z 40
_cell_length_a 8.777528
_cell_length_b 14.038039
_cell_length_c 18.582236
_cell_angle_alpha 90.000000
_cell_angle_beta 90.000000
_cell_angle_gamma 90.000000
_cell_volume 2289.689748
_symmetry_space_group_name_H-M "P M N A"
_symmetry_group_IT_number 53
_symmetry_cell_setting 'orthorhombic'
loop_
_space_group_symop_operation_xyz
x,y,z
1/2-x,-y,1/2+z
x,-y,-z
1/2-x,y,1/2-z
-x,-y,-z
1/2+x,y,1/2-z
-x,y,z
1/2+x,-y,1/2+z
loop_
_atom_site_type_symbol
_atom_site_label
_atom_site_fract_x
_atom_site_fract_y
_atom_site_fract_z
Si Si1 0.817943 0.694013 0.173243
Si Si2 0.818384 0.205842 0.455448
Si Si3 0.817030 0.087741 0.170052
Si Si4 0.316476 0.888224 0.404986
Si Si5 0.315818 0.605757 0.475820
O O1 0.750000 0.669858 0.250000
O O2 0.774978 0.800885 0.147944
O O3 0.000000 0.691577 0.178777
O O4 0.772608 0.626180 0.107108
O O5 0.748347 0.170309 0.380691
O O6 0.760036 0.135092 0.518791
O O7 0.758347 0.310230 0.477609
O O8 0.000000 0.204610 0.452813
O O9 0.750000 0.090553 0.250000
O O10 0.000000 0.092850 0.172895
O O11 0.774959 0.987909 0.131105
O O12 0.500000 0.886178 0.415614
O O13 0.273488 0.500000 0.500000
O O14 0.500000 0.615478 0.481083
#
# Coordination Sequence:
#
# PCOD9419789 Si02
#       5
#     8   8   8   8   8
#     4   9  17  30  50  78 106 131 164 209 263 315
#     4  11  22  35  54  80 108 138 176 221 266 317
#     4  11  22  36  54  77 109 146 183 221 261 309
#     4   9  19  35  54  76 105 142 179 215 259 313
#     4   9  19  38  60  77  99 137 180 220 269 325
#
# _framework density 17.469615000000001
#
# number of rings (size 3 to 8) (size 9 to 14) (size 15 to 20)
#    0.000    2.200    0.000    4.800    0.000    7.600 
#    0.000    1.000    0.000    2.400    0.000    0.000 
#    0.000    0.000    0.000    0.000    0.000    0.000 
#
# Total GULP energy -223319.990556 kJ/mol
# GULP energy per Si atom -5582.999764 kJ/mol
# Density = 1.742985 g / cm^3
# Si number density = 17.469615 Si / 1000 Ang^3
#
#
#
# Elastic Constant Matrix: (Units=GPa)
#
#
# Indices 1 2 3 4 5 6 
#
# 1 48.3744 46.1228 53.9776 0.0000 0.0000 0.0000
# 2 46.1228 116.8648 95.3342 0.0000 0.0000 0.0000
# 3 53.9776 95.3342 143.5446 0.0000 0.0000 0.0000
# 4 0.0000 0.0000 0.0000 15.0888 0.0000 0.0000
# 5 0.0000 0.0000 0.0000 0.0000 35.8332 0.0000
# 6 0.0000 0.0000 0.0000 0.0000 0.0000 19.4886
#
#
#
# Elastic Compliance Matrix: (Units=1/GPa)
#
#
# Indices 1 2 3 4 5 6 
#
# 1 0.038306 -0.007349 -0.009523 0.000000 0.000000 0.000000
# 2 -0.007349 0.020084 -0.010575 0.000000 0.000000 0.000000
# 3 -0.009523 -0.010575 0.017571 0.000000 0.000000 0.000000
# 4 0.000000 0.000000 0.000000 0.066274 0.000000 0.000000
# 5 0.000000 0.000000 0.000000 0.000000 0.027907 0.000000
# 6 0.000000 0.000000 0.000000 0.000000 0.000000 0.051312
#
#
# Mechanical properties :
#
#
# Convention : Reuss Voigt Hill
#
# Bulk Modulus (GPa) = 47.47131 77.73924 62.60527
# Shear Modulus (GPa) = 17.64467 21.63876 19.64172
#
# Velocity S-wave (km/s) = 3.18153 3.52327 3.35675
# Velocity P-wave (km/s) = 6.38191 7.81969 7.13710
#
# Compressibility (1/GPa) = 0.02106536
#
# Stress axis : x y z
#
# Youngs Moduli (GPa) = 26.10590 49.78980 56.91168
#
# Poissons Ratio (x) = 0.36592 0.54198
# Poissons Ratio (y) = 0.19186 0.60186
# Poissons Ratio (z) = 0.24861 0.52655
#
# Static dielectric constant tensor:
#      x y z
#    x 1.585710 0.000000 0.000000 
#    y 0.000000 1.583810 0.000000 
#    z 0.000000 0.000000 1.577230 
# 
# From -- ./inp_files/19883.got.cif
#   From: 2010.05.17/outbox.cif.g08.bks.cpg/sg53_10_cif.got.tgz:19883.got - 2010.06.03 12:45:16.
