data_PCOD9419523
_publ_section_title
;
Structure prediction by ZEFSAII (Michael W. Deem and Ramdas Pophale) SiO2 
 PCOD9419523
Probable space group: P M N A
;
_chemical_formula_sum "Si O2"
_cell_formula_units_Z 48
_cell_length_a 29.323435
_cell_length_b 9.230586
_cell_length_c 8.747490
_cell_angle_alpha 90.000000
_cell_angle_beta 90.000000
_cell_angle_gamma 90.000000
_cell_volume 2367.704887
_symmetry_space_group_name_H-M "P M N A"
_symmetry_group_IT_number 53
_symmetry_cell_setting 'orthorhombic'
loop_
_space_group_symop_operation_xyz
x,y,z
1/2-x,-y,1/2+z
x,-y,-z
1/2-x,y,1/2-z
-x,-y,-z
1/2+x,y,1/2-z
-x,y,z
1/2+x,-y,1/2+z
loop_
_atom_site_type_symbol
_atom_site_label
_atom_site_fract_x
_atom_site_fract_y
_atom_site_fract_z
Si Si1 0.395723 0.344326 0.576213
Si Si2 0.845370 0.351645 0.597376
Si Si3 0.000000 0.662485 0.444439
Si Si4 0.415937 0.840281 0.929580
Si Si5 0.500000 0.655849 0.416519
Si Si6 0.298235 0.934513 0.170873
Si Si7 0.375374 0.105052 0.370725
O O1 0.396091 0.500000 0.500000
O O2 0.378083 0.364825 0.751299
O O3 0.448040 0.284471 0.558538
O O4 0.362475 0.244809 0.471963
O O5 0.835218 0.500000 0.500000
O O6 0.872164 0.250796 0.478343
O O7 0.806649 0.239409 0.656027
O O8 0.000000 0.500000 0.500000
O O9 0.957406 0.750699 0.505924
O O10 0.000000 0.647702 0.264861
O O11 0.414022 0.853249 0.749038
O O12 0.415104 0.000000 0.000000
O O13 0.500000 0.500000 0.500000
O O14 0.250000 0.961747 0.250000
O O15 0.336874 0.017295 0.273700
O O16 0.298936 0.000000 0.000000
O O17 0.393343 0.000000 0.500000
#
# Coordination Sequence:
#
# PCOD9419523 Si02
#       7
#     8   8   4   8   4   8   8
#     4  11  24  40  69 102 142 186 239 295 349 409
#     4  12  23  45  73 103 142 186 234 285 357 434
#     4  12  27  41  64  97 138 200 243 292 355 405
#     4  12  23  44  67 100 138 187 241 289 343 426
#     4  10  24  41  60  98 141 183 243 293 342 405
#     4  12  26  49  78 107 138 179 231 291 362 441
#     4  12  23  44  71 103 137 179 236 289 353 425
#
# _framework density 20.272794999999999
#
# number of rings (size 3 to 8) (size 9 to 14) (size 15 to 20)
#    0.000    0.333    6.667    2.250    4.667    0.000 
#    0.000    2.500    0.000    0.000    0.000    0.000 
#    0.000    0.000    0.000    0.000    0.000    0.000 
#
# Total GULP energy -267484.133752 kJ/mol
# GULP energy per Si atom -5572.586120 kJ/mol
# Density = 2.022665 g / cm^3
# Si number density = 20.272795 Si / 1000 Ang^3
#
#
#
# Elastic Constant Matrix: (Units=GPa)
#
#
# Indices 1 2 3 4 5 6 
#
# 1 60.5899 31.9785 38.4148 0.0000 0.0000 0.0000
# 2 31.9785 144.2529 59.3050 0.0000 0.0000 0.0000
# 3 38.4148 59.3050 180.3417 0.0000 0.0000 0.0000
# 4 0.0000 0.0000 0.0000 50.3100 0.0000 0.0000
# 5 0.0000 0.0000 0.0000 0.0000 35.1229 0.0000
# 6 0.0000 0.0000 0.0000 0.0000 0.0000 -118.0094
#
#
#
# Elastic Compliance Matrix: (Units=1/GPa)
#
#
# Indices 1 2 3 4 5 6 
#
# 1 0.020240 -0.003139 -0.003279 0.000000 0.000000 0.000000
# 2 -0.003139 0.008503 -0.002128 0.000000 0.000000 0.000000
# 3 -0.003279 -0.002128 0.006943 0.000000 0.000000 0.000000
# 4 0.000000 0.000000 0.000000 0.019877 0.000000 0.000000
# 5 0.000000 0.000000 0.000000 0.000000 0.028471 0.000000
# 6 0.000000 0.000000 0.000000 0.000000 0.000000 -0.008474
#
#
# Mechanical properties :
#
#
# Convention : Reuss Voigt Hill
#
# Bulk Modulus (GPa) = 53.77783 71.62013 62.69898
# Shear Modulus (GPa) = 50.58198 10.51713 30.54955
#
# Velocity S-wave (km/s) = 5.00048 2.28015 3.88612
# Velocity P-wave (km/s) = 7.74109 6.50669 7.15057
#
# Compressibility (1/GPa) = 0.01859502
#
# Stress axis : x y z
#
# Youngs Moduli (GPa) = 49.40707 117.60909 144.02658
#
# Poissons Ratio (x) = 0.36915 0.47229
# Poissons Ratio (y) = 0.15508 0.30642
# Poissons Ratio (z) = 0.16201 0.25022
#
# Static dielectric constant tensor:
#      x y z
#    x 1.748340 0.000000 0.000000 
#    y 0.000000 1.649170 0.000000 
#    z 0.000000 0.000000 1.709350 
# 
# From -- ./inp_files/13082.got.cif
#   From: 2010.05.17/outbox.cif.g08.bks.cpg/sg53_7_cif.got.tgz:13082.got - 2010.06.03 12:45:16.
