data_PCOD9419389
_publ_section_title
;
Structure prediction by ZEFSAII (Michael W. Deem and Ramdas Pophale) SiO2 
 PCOD9419389
Probable space group: P M N A
;
_chemical_formula_sum "Si O2"
_cell_formula_units_Z 32
_cell_length_a 18.877923
_cell_length_b 9.138142
_cell_length_c 8.155769
_cell_angle_alpha 90.000000
_cell_angle_beta 90.000000
_cell_angle_gamma 90.000000
_cell_volume 1406.944705
_symmetry_space_group_name_H-M "P M N A"
_symmetry_group_IT_number 53
_symmetry_cell_setting 'orthorhombic'
loop_
_space_group_symop_operation_xyz
x,y,z
1/2-x,-y,1/2+z
x,-y,-z
1/2-x,y,1/2-z
-x,-y,-z
1/2+x,y,1/2-z
-x,y,z
1/2+x,-y,1/2+z
loop_
_atom_site_type_symbol
_atom_site_label
_atom_site_fract_x
_atom_site_fract_y
_atom_site_fract_z
Si Si1 0.152670 0.216302 0.342283
Si Si2 0.000000 0.079162 0.683986
Si Si3 0.000000 0.672836 0.531888
Si Si4 0.710997 0.673669 0.498319
Si Si5 0.152156 0.067507 0.823937
O O1 0.207216 0.283677 0.471325
O O2 0.169719 0.279049 0.163129
O O3 0.072290 0.263833 0.384841
O O4 0.174347 0.044481 0.320022
O O5 0.000000 0.249836 0.643318
O O6 0.931255 0.052656 0.790822
O O7 0.000000 0.000000 0.500000
O O8 0.000000 0.500000 0.500000
O O9 0.705250 0.500000 0.500000
O O10 0.679034 0.766746 0.346710
O O11 0.170465 0.000000 0.000000
#
# Coordination Sequence:
#
# PCOD9419389 Si02
#       5
#     8   4   4   8   8
#     4  10  22  47  65 101 135 177 235 286 345 415
#     4  12  23  44  68 101 133 176 232 283 342 407
#     4  12  26  42  69  98 140 181 224 298 350 419
#     4  10  23  44  68  99 139 181 228 292 344 420
#     4  10  22  45  71  96 135 181 227 283 345 420
#
# _framework density 22.744319000000001
#
# number of rings (size 3 to 8) (size 9 to 14) (size 15 to 20)
#    0.000    1.500    2.500    1.125    3.500    3.000 
#   27.000    1.250    0.000    0.000    0.000    0.000 
#    0.000    0.000    0.000    0.000    0.000    0.000 
#
# Total GULP energy -178455.961469 kJ/mol
# GULP energy per Si atom -5576.748796 kJ/mol
# Density = 2.269255 g / cm^3
# Si number density = 22.744319 Si / 1000 Ang^3
#
#
#
# Elastic Constant Matrix: (Units=GPa)
#
#
# Indices 1 2 3 4 5 6 
#
# 1 170.1528 25.7474 37.7656 0.0000 0.0000 0.0000
# 2 25.7474 192.3912 39.3941 0.0000 0.0000 0.0000
# 3 37.7656 39.3941 97.8545 0.0000 0.0000 0.0000
# 4 0.0000 0.0000 0.0000 20.1101 0.0000 0.0000
# 5 0.0000 0.0000 0.0000 0.0000 13.9738 0.0000
# 6 0.0000 0.0000 0.0000 0.0000 0.0000 37.7425
#
#
#
# Elastic Compliance Matrix: (Units=1/GPa)
#
#
# Indices 1 2 3 4 5 6 
#
# 1 0.006454 -0.000385 -0.002336 0.000000 0.000000 0.000000
# 2 -0.000385 0.005688 -0.002141 0.000000 0.000000 0.000000
# 3 -0.002336 -0.002141 0.011983 0.000000 0.000000 0.000000
# 4 0.000000 0.000000 0.000000 0.049726 0.000000 0.000000
# 5 0.000000 0.000000 0.000000 0.000000 0.071562 0.000000
# 6 0.000000 0.000000 0.000000 0.000000 0.000000 0.026495
#
#
# Mechanical properties :
#
#
# Convention : Reuss Voigt Hill
#
# Bulk Modulus (GPa) = 69.44441 74.02362 71.73402
# Shear Modulus (GPa) = 26.81939 38.19803 32.50871
#
# Velocity S-wave (km/s) = 3.43763 4.10256 3.78472
# Velocity P-wave (km/s) = 6.80847 7.42011 7.12086
#
# Compressibility (1/GPa) = 0.01440001
#
# Stress axis : x y z
#
# Youngs Moduli (GPa) = 154.94789 175.81741 83.45474
#
# Poissons Ratio (x) = 0.06777 0.19491
# Poissons Ratio (y) = 0.05973 0.17868
# Poissons Ratio (z) = 0.36189 0.37642
#
# Static dielectric constant tensor:
#      x y z
#    x 1.961130 0.000000 0.000000 
#    y 0.000000 1.941450 0.000000 
#    z 0.000000 0.000000 1.855680 
# 
# From -- ./inp_files/10507.got.cif
#   From: 2010.05.17/outbox.cif.g08.bks.cpg/sg53_6_cif.got.tgz:10507.got - 2010.06.03 12:45:16.
