data_PCOD9419231
_publ_section_title
;
Structure prediction by ZEFSAII (Michael W. Deem and Ramdas Pophale) SiO2 
 PCOD9419231
Probable space group: P M N A
;
_chemical_formula_sum "Si O2"
_cell_formula_units_Z 32
_cell_length_a 10.874589
_cell_length_b 7.742976
_cell_length_c 17.565190
_cell_angle_alpha 90.000000
_cell_angle_beta 90.000000
_cell_angle_gamma 90.000000
_cell_volume 1479.018536
_symmetry_space_group_name_H-M "P M N A"
_symmetry_group_IT_number 53
_symmetry_cell_setting 'orthorhombic'
loop_
_space_group_symop_operation_xyz
x,y,z
1/2-x,-y,1/2+z
x,-y,-z
1/2-x,y,1/2-z
-x,-y,-z
1/2+x,y,1/2-z
-x,y,z
1/2+x,-y,1/2+z
loop_
_atom_site_type_symbol
_atom_site_label
_atom_site_fract_x
_atom_site_fract_y
_atom_site_fract_z
Si Si1 0.870131 0.962120 0.699219
Si Si2 0.720582 0.320080 0.838303
Si Si3 0.137127 0.661323 0.575810
Si Si4 0.139310 0.796739 0.022702
O O1 0.750000 0.946175 0.750000
O O2 0.863021 0.818613 0.634933
O O3 0.000000 0.940058 0.741762
O O4 0.865313 0.152074 0.663351
O O5 0.750000 0.360083 0.750000
O O6 0.661753 0.485826 0.878046
O O7 0.835668 0.251100 0.888864
O O8 0.251022 0.698239 0.520461
O O9 0.000000 0.661155 0.540525
O O10 0.000000 0.744962 0.001773
O O11 0.151167 0.000000 0.000000
#
# Coordination Sequence:
#
# PCOD9419231 Si02
#       4
#     8   8   8   8
#     4  10  22  40  63  96 137 181 226 281 338 401
#     4  11  24  43  70 102 139 181 229 284 345 410
#     4  11  24  43  69 101 136 178 229 284 342 409
#     4  11  25  47  73 102 138 184 233 284 344 409
#
# _framework density 21.635968999999999
#
# number of rings (size 3 to 8) (size 9 to 14) (size 15 to 20)
#    0.000    1.250    2.500    2.250    0.000   11.500 
#    0.000    0.000    0.000    0.000    0.000    0.000 
#    0.000    0.000    0.000    0.000    0.000    0.000 
#
# Total GULP energy -178733.682649 kJ/mol
# GULP energy per Si atom -5585.427583 kJ/mol
# Density = 2.158672 g / cm^3
# Si number density = 21.635969 Si / 1000 Ang^3
#
#
#
# Elastic Constant Matrix: (Units=GPa)
#
#
# Indices 1 2 3 4 5 6 
#
# 1 218.9876 59.8276 80.6671 0.0000 0.0000 0.0000
# 2 59.8276 93.3759 55.5903 0.0000 0.0000 0.0000
# 3 80.6671 55.5903 96.9043 0.0000 0.0000 0.0000
# 4 0.0000 0.0000 0.0000 43.7926 0.0000 0.0000
# 5 0.0000 0.0000 0.0000 0.0000 13.4300 0.0000
# 6 0.0000 0.0000 0.0000 0.0000 0.0000 -49.9477
#
#
#
# Elastic Compliance Matrix: (Units=1/GPa)
#
#
# Indices 1 2 3 4 5 6 
#
# 1 0.006718 -0.001481 -0.004743 0.000000 0.000000 0.000000
# 2 -0.001481 0.016590 -0.008285 0.000000 0.000000 0.000000
# 3 -0.004743 -0.008285 0.019020 0.000000 0.000000 0.000000
# 4 0.000000 0.000000 0.000000 0.022835 0.000000 0.000000
# 5 0.000000 0.000000 0.000000 0.000000 0.074460 0.000000
# 6 0.000000 0.000000 0.000000 0.000000 0.000000 -0.020021
#
#
# Mechanical properties :
#
#
# Convention : Reuss Voigt Hill
#
# Bulk Modulus (GPa) = 75.11996 89.04863 82.08430
# Shear Modulus (GPa) = 32.66759 15.66717 24.16738
#
# Velocity S-wave (km/s) = 3.88993 2.69388 3.34578
# Velocity P-wave (km/s) = 7.41422 7.13604 7.27646
#
# Compressibility (1/GPa) = 0.01331204
#
# Stress axis : x y z
#
# Youngs Moduli (GPa) = 148.85006 60.27629 52.57541
#
# Poissons Ratio (x) = 0.08925 0.24937
# Poissons Ratio (y) = 0.22041 0.43556
# Poissons Ratio (z) = 0.70600 0.49936
#
# Static dielectric constant tensor:
#      x y z
#    x 1.773070 0.000000 0.000000 
#    y 0.000000 1.773410 0.000000 
#    z 0.000000 0.000000 1.821460 
# 
# From -- ./inp_files/21355.got.cif
#   From: 2010.05.17/outbox.cif.g08.bks.cpg/sg53_11_cif.got.tgz:21355.got - 2010.06.03 12:45:16.
