data_PCOD9419569
_publ_section_title
;
Structure prediction by ZEFSAII (Michael W. Deem and Ramdas Pophale) SiO2 
 PCOD9419569
Probable space group: P M N A
;
_chemical_formula_sum "Si O2"
_cell_formula_units_Z 48
_cell_length_a 27.234210
_cell_length_b 13.816913
_cell_length_c 5.536513
_cell_angle_alpha 90.000000
_cell_angle_beta 90.000000
_cell_angle_gamma 90.000000
_cell_volume 2083.349482
_symmetry_space_group_name_H-M "P M N A"
_symmetry_group_IT_number 53
_symmetry_cell_setting 'orthorhombic'
loop_
_space_group_symop_operation_xyz
x,y,z
1/2-x,-y,1/2+z
x,-y,-z
1/2-x,y,1/2-z
-x,-y,-z
1/2+x,y,1/2-z
-x,y,z
1/2+x,-y,1/2+z
loop_
_atom_site_type_symbol
_atom_site_label
_atom_site_fract_x
_atom_site_fract_y
_atom_site_fract_z
Si Si1 0.849285 0.265521 0.281461
Si Si2 0.882308 0.396691 0.874563
Si Si3 0.280299 0.113788 0.003029
Si Si4 0.213631 0.398446 0.564394
Si Si5 0.055655 0.734711 0.400403
Si Si6 0.058763 0.046634 0.751250
O O1 0.829428 0.172500 0.429479
O O2 0.803736 0.337020 0.340165
O O3 0.903122 0.278166 0.396513
O O4 0.860555 0.300958 0.011253
O O5 0.838740 0.418620 0.687496
O O6 0.932895 0.356512 0.768785
O O7 0.889574 0.500000 0.000000
O O8 0.250000 0.132320 0.250000
O O9 0.250000 0.133427 0.750000
O O10 0.291180 0.000000 0.000000
O O11 0.237910 0.500000 0.500000
O O12 0.250000 0.347380 0.750000
O O13 0.063914 0.837653 0.266070
O O14 0.000000 0.736421 0.491961
O O15 0.000000 0.026311 0.754634
O O16 0.077433 0.000000 0.500000
O O17 0.079342 0.000000 0.000000
#
# Coordination Sequence:
#
# PCOD9419569 Si02
#       6
#     8   8   8   8   8   8
#     4  11  25  41  68  97 137 185 231 299 347 427
#     4  11  24  44  64  97 137 181 235 297 352 426
#     4  10  24  46  73 108 149 191 235 284 351 439
#     4  11  23  38  64  98 133 169 223 282 359 426
#     4  10  25  44  66  98 134 185 244 299 362 427
#     4   9  19  38  65  96 130 167 218 288 355 415
#
# _framework density 23.039822999999998
#
# number of rings (size 3 to 8) (size 9 to 14) (size 15 to 20)
#    0.000    1.667    1.667    1.000    9.333    1.667 
#    0.000    0.833    0.000    0.000    0.000    0.000 
#    0.000    0.000    0.000    0.000    0.000    0.000 
#
# Total GULP energy -267255.182924 kJ/mol
# GULP energy per Si atom -5567.816311 kJ/mol
# Density = 2.298738 g / cm^3
# Si number density = 23.039823 Si / 1000 Ang^3
#
#
#
# Elastic Constant Matrix: (Units=GPa)
#
#
# Indices 1 2 3 4 5 6 
#
# 1 100.2303 22.6914 19.1617 0.0000 0.0000 0.0000
# 2 22.6914 97.3606 24.2449 0.0000 0.0000 0.0000
# 3 19.1617 24.2449 99.6517 0.0000 0.0000 0.0000
# 4 0.0000 0.0000 0.0000 20.7358 0.0000 0.0000
# 5 0.0000 0.0000 0.0000 0.0000 18.6345 0.0000
# 6 0.0000 0.0000 0.0000 0.0000 0.0000 41.8975
#
#
#
# Elastic Compliance Matrix: (Units=1/GPa)
#
#
# Indices 1 2 3 4 5 6 
#
# 1 0.010754 -0.002120 -0.001552 0.000000 0.000000 0.000000
# 2 -0.002120 0.011351 -0.002354 0.000000 0.000000 0.000000
# 3 -0.001552 -0.002354 0.010906 0.000000 0.000000 0.000000
# 4 0.000000 0.000000 0.000000 0.048226 0.000000 0.000000
# 5 0.000000 0.000000 0.000000 0.000000 0.053664 0.000000
# 6 0.000000 0.000000 0.000000 0.000000 0.000000 0.023868
#
#
# Mechanical properties :
#
#
# Convention : Reuss Voigt Hill
#
# Bulk Modulus (GPa) = 47.71179 47.71542 47.71361
# Shear Modulus (GPa) = 28.12039 31.66321 29.89180
#
# Velocity S-wave (km/s) = 3.49737 3.71115 3.60585
# Velocity P-wave (km/s) = 6.08787 6.25448 6.17174
#
# Compressibility (1/GPa) = 0.02095918
#
# Stress axis : x y z
#
# Youngs Moduli (GPa) = 92.99174 88.09505 91.69143
#
# Poissons Ratio (x) = 0.18674 0.14231
# Poissons Ratio (y) = 0.19712 0.21585
# Poissons Ratio (z) = 0.14433 0.20739
#
# Static dielectric constant tensor:
#      x y z
#    x 1.829860 0.000000 0.000000 
#    y 0.000000 2.026030 0.000000 
#    z 0.000000 0.000000 1.923780 
# 
# From -- ./inp_files/4470.got.cif
#   From: 2010.05.17/outbox.cif.g08.bks.cpg/sg53_3_cif.got.tgz:4470.got - 2010.06.03 12:45:16.
