data_PCOD9419184
_publ_section_title
;
Structure prediction by ZEFSAII (Michael W. Deem and Ramdas Pophale) SiO2 
 PCOD9419184
Probable space group: P M N A
;
_chemical_formula_sum "Si O2"
_cell_formula_units_Z 40
_cell_length_a 14.545028
_cell_length_b 10.046849
_cell_length_c 11.334610
_cell_angle_alpha 90.000000
_cell_angle_beta 90.000000
_cell_angle_gamma 90.000000
_cell_volume 1656.345828
_symmetry_space_group_name_H-M "P M N A"
_symmetry_group_IT_number 53
_symmetry_cell_setting 'orthorhombic'
loop_
_space_group_symop_operation_xyz
x,y,z
1/2-x,-y,1/2+z
x,-y,-z
1/2-x,y,1/2-z
-x,-y,-z
1/2+x,y,1/2-z
-x,y,z
1/2+x,-y,1/2+z
loop_
_atom_site_type_symbol
_atom_site_label
_atom_site_fract_x
_atom_site_fract_y
_atom_site_fract_z
Si Si1 0.392635 0.812984 0.798718
Si Si2 0.148393 0.085865 0.786913
Si Si3 0.810759 0.313539 0.932153
Si Si4 0.397899 0.234640 0.940866
Si Si5 0.389220 0.439666 0.328086
O O1 0.500000 0.697868 0.046645
O O2 0.354518 0.927182 0.714041
O O3 0.360845 0.662364 0.774905
O O4 0.382914 0.845451 0.936514
O O5 0.250000 0.123978 0.750000
O O6 0.140300 0.171413 0.904926
O O7 0.094355 0.142742 0.674701
O O8 0.800569 0.312629 0.565382
O O9 0.845788 0.414582 0.830879
O O10 0.000000 0.812155 0.728385
O O11 0.352263 0.368231 0.446277
O O12 0.500000 0.454090 0.330959
#
# Coordination Sequence:
#
# PCOD9419184 Si02
#       5
#     8   8   8   8   8
#     4  10  22  41  67  97 130 170 212 272 333 385
#     4  10  22  39  64  96 130 170 217 264 323 387
#     4  10  22  43  66  94 130 178 218 267 327 386
#     4  10  22  42  65  97 134 171 217 268 327 393
#     4  10  23  44  67  94 131 173 219 273 328 386
#
# _framework density 24.149546999999998
#
# number of rings (size 3 to 8) (size 9 to 14) (size 15 to 20)
#    0.000    2.000    0.000    2.400    2.800    5.600 
#   21.600    4.000    0.000    0.000    0.000    0.000 
#    0.000    0.000    0.000    0.000    0.000    0.000 
#
# Total GULP energy -223051.690870 kJ/mol
# GULP energy per Si atom -5576.292272 kJ/mol
# Density = 2.409458 g / cm^3
# Si number density = 24.149547 Si / 1000 Ang^3
#
#
#
# Elastic Constant Matrix: (Units=GPa)
#
#
# Indices 1 2 3 4 5 6 
#
# 1 147.6919 45.1317 22.9320 0.0000 0.0000 0.0000
# 2 45.1317 90.0810 12.2581 0.0000 0.0000 0.0000
# 3 22.9320 12.2581 52.3271 0.0000 0.0000 0.0000
# 4 0.0000 0.0000 0.0000 29.0212 0.0000 0.0000
# 5 0.0000 0.0000 0.0000 0.0000 24.4482 0.0000
# 6 0.0000 0.0000 0.0000 0.0000 0.0000 27.0167
#
#
#
# Elastic Compliance Matrix: (Units=1/GPa)
#
#
# Indices 1 2 3 4 5 6 
#
# 1 0.008367 -0.003815 -0.002773 0.000000 0.000000 0.000000
# 2 -0.003815 0.013206 -0.001422 0.000000 0.000000 0.000000
# 3 -0.002773 -0.001422 0.020659 0.000000 0.000000 0.000000
# 4 0.000000 0.000000 0.000000 0.034458 0.000000 0.000000
# 5 0.000000 0.000000 0.000000 0.000000 0.040903 0.000000
# 6 0.000000 0.000000 0.000000 0.000000 0.000000 0.037014
#
#
# Mechanical properties :
#
#
# Convention : Reuss Voigt Hill
#
# Bulk Modulus (GPa) = 38.14977 50.08261 44.11619
# Shear Modulus (GPa) = 27.87636 30.08242 28.97939
#
# Velocity S-wave (km/s) = 3.40122 3.53324 3.46786
# Velocity P-wave (km/s) = 5.59070 6.11789 5.86023
#
# Compressibility (1/GPa) = 0.02621248
#
# Stress axis : x y z
#
# Youngs Moduli (GPa) = 119.51526 75.72434 48.40513
#
# Poissons Ratio (x) = 0.28886 0.13424
# Poissons Ratio (y) = 0.45591 0.06882
# Poissons Ratio (z) = 0.33144 0.10767
#
# Static dielectric constant tensor:
#      x y z
#    x 1.929040 0.000000 0.000000 
#    y 0.000000 2.001810 0.000000 
#    z 0.000000 0.000000 2.011940 
# 
# From -- ./inp_files/22379.got.cif
#   From: 2010.05.17/outbox.cif.g08.bks.cpg/sg53_12_cif.got.tgz:22379.got - 2010.06.03 12:45:16.
