data_PCOD9419221
_publ_section_title
;
Structure prediction by ZEFSAII (Michael W. Deem and Ramdas Pophale) SiO2 
 PCOD9419221
Probable space group: P M N A
;
_chemical_formula_sum "Si O2"
_cell_formula_units_Z 28
_cell_length_a 8.255240
_cell_length_b 5.106904
_cell_length_c 27.370942
_cell_angle_alpha 90.000000
_cell_angle_beta 90.000000
_cell_angle_gamma 90.000000
_cell_volume 1153.923830
_symmetry_space_group_name_H-M "P M N A"
_symmetry_group_IT_number 53
_symmetry_cell_setting 'orthorhombic'
loop_
_space_group_symop_operation_xyz
x,y,z
1/2-x,-y,1/2+z
x,-y,-z
1/2-x,y,1/2-z
-x,-y,-z
1/2+x,y,1/2-z
-x,y,z
1/2+x,-y,1/2+z
loop_
_atom_site_type_symbol
_atom_site_label
_atom_site_fract_x
_atom_site_fract_y
_atom_site_fract_z
Si Si1 0.500000 0.754450 0.035156
Si Si2 0.807447 0.681767 0.194843
Si Si3 0.176285 0.549924 0.057960
Si Si4 0.808528 0.184619 0.364432
O O1 0.334116 0.730203 0.065083
O O2 0.500000 0.500000 0.000000
O O3 0.500000 0.000000 0.000000
O O4 0.750000 0.727999 0.250000
O O5 0.761837 0.931510 0.162113
O O6 0.000000 0.638376 0.194095
O O7 0.719685 0.428032 0.172634
O O8 0.214945 0.285338 0.087293
O O9 0.000000 0.652400 0.073457
O O10 0.167377 0.500000 0.000000
O O11 0.000000 0.160274 0.374769
#
# Coordination Sequence:
#
# PCOD9419221 Si02
#       4
#     4   8   8   8
#     4  10  22  40  62  90 130 174 220 274 332 394
#     4  12  26  47  72 103 140 182 234 293 358 425
#     4  10  22  43  69 101 139 184 234 287 348 416
#     4  12  25  45  72 104 141 186 235 291 356 422
#
# _framework density 24.265031
#
# number of rings (size 3 to 8) (size 9 to 14) (size 15 to 20)
#    0.000    0.857    1.429    6.000    0.000    5.143 
#    0.000    5.714    0.000    0.000    0.000    0.000 
#    0.000    0.000    0.000    0.000    0.000    0.000 
#
# Total GULP energy -157028.523386 kJ/mol
# GULP energy per Si atom -5608.161550 kJ/mol
# Density = 2.420980 g / cm^3
# Si number density = 24.265031 Si / 1000 Ang^3
#
#
#
# Elastic Constant Matrix: (Units=GPa)
#
#
# Indices 1 2 3 4 5 6 
#
# 1 237.6372 28.2295 18.5877 0.0000 0.0000 0.0000
# 2 28.2295 119.1674 21.4886 0.0000 0.0000 0.0000
# 3 18.5877 21.4886 159.6588 0.0000 0.0000 0.0000
# 4 0.0000 0.0000 0.0000 42.7145 0.0000 0.0000
# 5 0.0000 0.0000 0.0000 0.0000 31.9709 0.0000
# 6 0.0000 0.0000 0.0000 0.0000 0.0000 43.8612
#
#
#
# Elastic Compliance Matrix: (Units=1/GPa)
#
#
# Indices 1 2 3 4 5 6 
#
# 1 0.004352 -0.000963 -0.000377 0.000000 0.000000 0.000000
# 2 -0.000963 0.008813 -0.001074 0.000000 0.000000 0.000000
# 3 -0.000377 -0.001074 0.006452 0.000000 0.000000 0.000000
# 4 0.000000 0.000000 0.000000 0.023411 0.000000 0.000000
# 5 0.000000 0.000000 0.000000 0.000000 0.031278 0.000000
# 6 0.000000 0.000000 0.000000 0.000000 0.000000 0.022799
#
#
# Mechanical properties :
#
#
# Convention : Reuss Voigt Hill
#
# Bulk Modulus (GPa) = 67.61803 72.56392 70.09097
# Shear Modulus (GPa) = 46.78852 53.58651 50.18752
#
# Velocity S-wave (km/s) = 4.39592 4.70444 4.55280
# Velocity P-wave (km/s) = 7.32751 7.71224 7.52234
#
# Compressibility (1/GPa) = 0.01478895
#
# Stress axis : x y z
#
# Youngs Moduli (GPa) = 229.78055 113.46422 154.99512
#
# Poissons Ratio (x) = 0.10926 0.05844
# Poissons Ratio (y) = 0.22127 0.16648
# Poissons Ratio (z) = 0.08664 0.12187
#
# Static dielectric constant tensor:
#      x y z
#    x 1.942620 0.000000 0.000000 
#    y 0.000000 1.868440 0.000000 
#    z 0.000000 0.000000 1.880760 
# 
# From -- ./inp_files/35892.got.cif
#   From: 2010.05.17/outbox.cif.g08.bks.cpg/sg53_18_cif.got.tgz:35892.got - 2010.06.03 12:45:16.
