data_PCOD9419511
_publ_section_title
;
Structure prediction by ZEFSAII (Michael W. Deem and Ramdas Pophale) SiO2 
 PCOD9419511
Probable space group: P M N A
;
_chemical_formula_sum "Si O2"
_cell_formula_units_Z 36
_cell_length_a 20.990120
_cell_length_b 9.549682
_cell_length_c 8.042068
_cell_angle_alpha 90.000000
_cell_angle_beta 90.000000
_cell_angle_gamma 90.000000
_cell_volume 1612.024256
_symmetry_space_group_name_H-M "P M N A"
_symmetry_group_IT_number 53
_symmetry_cell_setting 'orthorhombic'
loop_
_space_group_symop_operation_xyz
x,y,z
1/2-x,-y,1/2+z
x,-y,-z
1/2-x,y,1/2-z
-x,-y,-z
1/2+x,y,1/2-z
-x,y,z
1/2+x,-y,1/2+z
loop_
_atom_site_type_symbol
_atom_site_label
_atom_site_fract_x
_atom_site_fract_y
_atom_site_fract_z
Si Si1 0.500000 0.212916 0.617550
Si Si2 0.750000 0.297178 0.750000
Si Si3 0.500000 0.084926 0.251398
Si Si4 0.717375 0.860402 0.922573
Si Si5 0.597130 0.697533 0.870040
Si Si6 0.894616 0.597629 0.259263
O O1 0.500000 0.140664 0.439610
O O2 0.563243 0.306194 0.640045
O O3 0.500000 0.082260 0.747120
O O4 0.745443 0.204677 0.580701
O O5 0.682231 0.380296 0.752378
O O6 0.559761 0.161921 0.169818
O O7 0.750000 0.902714 0.750000
O O8 0.670425 0.738433 0.867624
O O9 0.685953 0.000000 0.000000
O O10 0.586781 0.565565 0.750076
O O11 0.583973 0.647752 0.056952
#
# Coordination Sequence:
#
# PCOD9419511 Si02
#       6
#     4   4   4   8   8   8
#     4  11  26  43  68  96 135 178 226 281 344 398
#     4  10  24  44  70 100 144 178 220 284 346 400
#     4  11  26  43  64 100 132 175 228 281 337 415
#     4  11  24  42  67 101 136 182 226 281 342 412
#     4  10  24  43  68  97 130 172 231 273 344 406
#     4  10  23  46  69  99 134 177 223 283 341 406
#
# _framework density 22.332169
#
# number of rings (size 3 to 8) (size 9 to 14) (size 15 to 20)
#    0.000    1.556    1.111    1.333   10.889    4.444 
#    0.000    0.000    0.000    0.000    0.000    0.000 
#    0.000    0.000    0.000    0.000    0.000    0.000 
#
# Total GULP energy -200863.042407 kJ/mol
# GULP energy per Si atom -5579.528956 kJ/mol
# Density = 2.228134 g / cm^3
# Si number density = 22.332169 Si / 1000 Ang^3
#
#
#
# Elastic Constant Matrix: (Units=GPa)
#
#
# Indices 1 2 3 4 5 6 
#
# 1 79.1816 16.4653 28.0744 0.0000 0.0000 0.0000
# 2 16.4653 85.7176 29.6375 0.0000 0.0000 0.0000
# 3 28.0744 29.6375 85.2844 0.0000 0.0000 0.0000
# 4 0.0000 0.0000 0.0000 33.6053 0.0000 0.0000
# 5 0.0000 0.0000 0.0000 0.0000 39.9820 0.0000
# 6 0.0000 0.0000 0.0000 0.0000 0.0000 51.2395
#
#
#
# Elastic Compliance Matrix: (Units=1/GPa)
#
#
# Indices 1 2 3 4 5 6 
#
# 1 0.014421 -0.001283 -0.004301 0.000000 0.000000 0.000000
# 2 -0.001283 0.013374 -0.004225 0.000000 0.000000 0.000000
# 3 -0.004301 -0.004225 0.014610 0.000000 0.000000 0.000000
# 4 0.000000 0.000000 0.000000 0.029757 0.000000 0.000000
# 5 0.000000 0.000000 0.000000 0.000000 0.025011 0.000000
# 6 0.000000 0.000000 0.000000 0.000000 0.000000 0.019516
#
#
# Mechanical properties :
#
#
# Convention : Reuss Voigt Hill
#
# Bulk Modulus (GPa) = 43.88767 44.28199 44.08483
# Shear Modulus (GPa) = 34.74563 36.69912 35.72238
#
# Velocity S-wave (km/s) = 3.94871 4.05820 4.00383
# Velocity P-wave (km/s) = 6.36276 6.46765 6.41542
#
# Compressibility (1/GPa) = 0.02278544
#
# Stress axis : x y z
#
# Youngs Moduli (GPa) = 69.34313 74.77456 68.44749
#
# Poissons Ratio (x) = 0.09593 0.29442
# Poissons Ratio (y) = 0.08896 0.28920
# Poissons Ratio (z) = 0.29827 0.31594
#
# Static dielectric constant tensor:
#      x y z
#    x 1.870130 0.000000 0.000000 
#    y 0.000000 1.816580 0.000000 
#    z 0.000000 0.000000 1.907140 
# 
# From -- ./inp_files/10636.got.cif
#   From: 2010.05.17/outbox.cif.g08.bks.cpg/sg53_6_cif.got.tgz:10636.got - 2010.06.03 12:45:16.
