data_PCOD9419472
_publ_section_title
;
Structure prediction by ZEFSAII (Michael W. Deem and Ramdas Pophale) SiO2 
 PCOD9419472
Probable space group: P M N A
;
_chemical_formula_sum "Si O2"
_cell_formula_units_Z 36
_cell_length_a 22.626588
_cell_length_b 5.115826
_cell_length_c 12.510431
_cell_angle_alpha 90.000000
_cell_angle_beta 90.000000
_cell_angle_gamma 90.000000
_cell_volume 1448.128516
_symmetry_space_group_name_H-M "P M N A"
_symmetry_group_IT_number 53
_symmetry_cell_setting 'orthorhombic'
loop_
_space_group_symop_operation_xyz
x,y,z
1/2-x,-y,1/2+z
x,-y,-z
1/2-x,y,1/2-z
-x,-y,-z
1/2+x,y,1/2-z
-x,y,z
1/2+x,-y,1/2+z
loop_
_atom_site_type_symbol
_atom_site_label
_atom_site_fract_x
_atom_site_fract_y
_atom_site_fract_z
Si Si1 0.810003 0.296351 0.283859
Si Si2 0.193548 0.000000 0.500000
Si Si3 0.500000 0.952889 0.212766
Si Si4 0.901944 0.360046 0.596788
Si Si5 0.125735 0.259112 0.069368
Si Si6 0.000000 0.554232 0.842306
O O1 0.750000 0.448681 0.250000
O O2 0.786739 0.113920 0.382676
O O3 0.867797 0.458253 0.320058
O O4 0.837101 0.180364 0.174497
O O5 0.152669 0.768387 0.462237
O O6 0.557724 0.858993 0.149902
O O7 0.500000 0.753912 0.314997
O O8 0.500000 0.259194 0.236878
O O9 0.935494 0.500000 0.500000
O O10 0.060233 0.359573 0.100905
O O11 0.153168 0.500000 0.000000
O O12 0.120971 0.000000 0.000000
#
# Coordination Sequence:
#
# PCOD9419472 Si02
#       6
#     8   4   4   8   8   4
#     4  11  26  46  73 104 147 192 249 308 365 437
#     4  10  24  45  74 102 142 187 244 306 368 430
#     4  12  23  40  76 100 148 186 238 299 374 432
#     4  10  23  43  66 103 140 187 240 300 362 436
#     4  12  27  47  75 108 149 197 249 301 372 445
#     4  12  24  45  72 106 144 195 235 308 365 450
#
# _framework density 24.859669
#
# number of rings (size 3 to 8) (size 9 to 14) (size 15 to 20)
#    0.000    0.889    2.222    3.667    7.778    4.000 
#    0.000    0.000    0.000    0.000    0.000    0.000 
#    0.000    0.000    0.000    0.000    0.000    0.000 
#
# Total GULP energy -200795.161966 kJ/mol
# GULP energy per Si atom -5577.643388 kJ/mol
# Density = 2.480309 g / cm^3
# Si number density = 24.859669 Si / 1000 Ang^3
#
#
#
# Elastic Constant Matrix: (Units=GPa)
#
#
# Indices 1 2 3 4 5 6 
#
# 1 107.7213 -7.3925 41.1485 0.0000 0.0000 0.0000
# 2 -7.3925 49.5991 10.2077 0.0000 0.0000 0.0000
# 3 41.1485 10.2077 130.0489 0.0000 0.0000 0.0000
# 4 0.0000 0.0000 0.0000 48.8310 0.0000 0.0000
# 5 0.0000 0.0000 0.0000 0.0000 55.2045 0.0000
# 6 0.0000 0.0000 0.0000 0.0000 0.0000 3.3869
#
#
#
# Elastic Compliance Matrix: (Units=1/GPa)
#
#
# Indices 1 2 3 4 5 6 
#
# 1 0.010824 0.002356 -0.003610 0.000000 0.000000 0.000000
# 2 0.002356 0.021006 -0.002394 0.000000 0.000000 0.000000
# 3 -0.003610 -0.002394 0.009019 0.000000 0.000000 0.000000
# 4 0.000000 0.000000 0.000000 0.020479 0.000000 0.000000
# 5 0.000000 0.000000 0.000000 0.000000 0.018114 0.000000
# 6 0.000000 0.000000 0.000000 0.000000 0.000000 0.295251
#
#
# Mechanical properties :
#
#
# Convention : Reuss Voigt Hill
#
# Bulk Modulus (GPa) = 29.80341 41.69962 35.75151
# Shear Modulus (GPa) = 12.71705 37.71154 25.21429
#
# Velocity S-wave (km/s) = 2.26421 3.89906 3.18821
# Velocity P-wave (km/s) = 4.34168 6.08939 5.28824
#
# Compressibility (1/GPa) = 0.03355321
#
# Stress axis : x y z
#
# Youngs Moduli (GPa) = 92.38936 47.60643 110.87128
#
# Poissons Ratio (x) = -0.11217 0.40021
# Poissons Ratio (y) = -0.21768 0.26545
# Poissons Ratio (z) = 0.33349 0.11398
#
# Static dielectric constant tensor:
#      x y z
#    x 1.945180 0.000000 0.000000 
#    y 0.000000 1.773680 0.000000 
#    z 0.000000 0.000000 2.007960 
# 
# From -- ./inp_files/18131.got.cif
#   From: 2010.05.17/outbox.cif.g08.bks.cpg/sg53_10_cif.got.tgz:18131.got - 2010.06.03 12:45:16.
