data_PCOD9419981
_publ_section_title
;
Structure prediction by ZEFSAII (Michael W. Deem and Ramdas Pophale) SiO2 
 PCOD9419981
Probable space group: P M N A
;
_chemical_formula_sum "Si O2"
_cell_formula_units_Z 20
_cell_length_a 5.312363
_cell_length_b 7.222810
_cell_length_c 24.125142
_cell_angle_alpha 90.000000
_cell_angle_beta 90.000000
_cell_angle_gamma 90.000000
_cell_volume 925.686249
_symmetry_space_group_name_H-M "P M N A"
_symmetry_group_IT_number 53
_symmetry_cell_setting 'orthorhombic'
loop_
_space_group_symop_operation_xyz
x,y,z
1/2-x,-y,1/2+z
x,-y,-z
1/2-x,y,1/2-z
-x,-y,-z
1/2+x,y,1/2-z
-x,y,z
1/2+x,-y,1/2+z
loop_
_atom_site_type_symbol
_atom_site_label
_atom_site_fract_x
_atom_site_fract_y
_atom_site_fract_z
Si Si1 0.500000 0.132014 0.041163
Si Si2 0.500000 0.384136 0.956240
Si Si3 0.500000 0.338416 0.615553
Si Si4 0.000000 0.375136 0.212909
Si Si5 0.000000 0.908049 0.886630
O O1 0.756094 0.133123 0.076266
O O2 0.500000 0.876000 0.028314
O O3 0.500000 0.374634 0.025431
O O4 0.245130 0.383544 0.921018
O O5 0.500000 0.448355 0.672588
O O6 0.500000 0.122586 0.627397
O O7 0.250000 0.371548 0.250000
O O8 0.000000 0.207569 0.169355
#
# Coordination Sequence:
#
# PCOD9419981 Si02
#       5
#     4   4   4   4   4
#     4  12  21  39  65 100 139 168 203 256 317 400
#     4  12  23  38  63  98 137 172 206 249 316 389
#     4  12  24  43  66  94 128 170 216 263 316 388
#     4  12  28  48  68  92 126 169 226 287 328 367
#     4  12  24  43  68  98 132 172 220 261 326 391
#
# _framework density 21.605592999999999
#
# number of rings (size 3 to 8) (size 9 to 14) (size 15 to 20)
#    0.000    0.000    4.000    7.200    0.000    1.600 
#    0.000    0.000    0.000    0.000    0.000    0.000 
#    0.000    0.000    0.000    0.000    0.000    0.000 
#
# Total GULP energy -111838.212219 kJ/mol
# GULP energy per Si atom -5591.910611 kJ/mol
# Density = 2.155642 g / cm^3
# Si number density = 21.605593 Si / 1000 Ang^3
#
#
#
# Elastic Constant Matrix: (Units=GPa)
#
#
# Indices 1 2 3 4 5 6 
#
# 1 275.3776 85.9354 158.7543 0.0000 0.0000 0.0000
# 2 85.9354 221.4358 114.8526 0.0000 0.0000 0.0000
# 3 158.7543 114.8526 212.0061 0.0000 0.0000 0.0000
# 4 0.0000 0.0000 0.0000 64.7893 0.0000 0.0000
# 5 0.0000 0.0000 0.0000 0.0000 63.2985 0.0000
# 6 0.0000 0.0000 0.0000 0.0000 0.0000 -15.7696
#
#
#
# Elastic Compliance Matrix: (Units=1/GPa)
#
#
# Indices 1 2 3 4 5 6 
#
# 1 0.006390 0.000003 -0.004786 0.000000 0.000000 0.000000
# 2 0.000003 0.006281 -0.003405 0.000000 0.000000 0.000000
# 3 -0.004786 -0.003405 0.010145 0.000000 0.000000 0.000000
# 4 0.000000 0.000000 0.000000 0.015435 0.000000 0.000000
# 5 0.000000 0.000000 0.000000 0.000000 0.015798 0.000000
# 6 0.000000 0.000000 0.000000 0.000000 0.000000 -0.063413
#
#
# Mechanical properties :
#
#
# Convention : Reuss Voigt Hill
#
# Bulk Modulus (GPa) = 155.28934 158.65602 156.97268
# Shear Modulus (GPa) = 545.93557 45.74880 295.84219
#
# Velocity S-wave (km/s) = 15.91324 4.60657 11.71434
# Velocity P-wave (km/s) = 20.24036 10.09387 15.99310
#
# Compressibility (1/GPa) = 0.00643959
#
# Stress axis : x y z
#
# Youngs Moduli (GPa) = 156.49921 159.21531 98.56724
#
# Poissons Ratio (x) = -0.00044 0.47177
# Poissons Ratio (y) = -0.00043 0.33559
# Poissons Ratio (z) = 0.74905 0.54207
#
# Static dielectric constant tensor:
#      x y z
#    x 1.574190 0.000000 0.000000 
#    y 0.000000 4.534180 0.000000 
#    z 0.000000 0.000000 1.669580 
# 
# From -- ./inp_files/25286.got.cif
#   From: 2010.05.17/outbox.cif.g08.bks.cpg/sg53_13_cif.got.tgz:25286.got - 2010.06.03 12:45:16.
