data_PCOD9419723
_publ_section_title
;
Structure prediction by ZEFSAII (Michael W. Deem and Ramdas Pophale) SiO2 
 PCOD9419723
Probable space group: P M N A
;
_chemical_formula_sum "Si O2"
_cell_formula_units_Z 32
_cell_length_a 8.680974
_cell_length_b 10.399632
_cell_length_c 19.652619
_cell_angle_alpha 90.000000
_cell_angle_beta 90.000000
_cell_angle_gamma 90.000000
_cell_volume 1774.217513
_symmetry_space_group_name_H-M "P M N A"
_symmetry_group_IT_number 53
_symmetry_cell_setting 'orthorhombic'
loop_
_space_group_symop_operation_xyz
x,y,z
1/2-x,-y,1/2+z
x,-y,-z
1/2-x,y,1/2-z
-x,-y,-z
1/2+x,y,1/2-z
-x,y,z
1/2+x,-y,1/2+z
loop_
_atom_site_type_symbol
_atom_site_label
_atom_site_fract_x
_atom_site_fract_y
_atom_site_fract_z
Si Si1 0.683622 0.870616 0.543480
Si Si2 0.684125 0.985400 0.823079
Si Si3 0.815844 0.726823 0.176727
Si Si4 0.684290 0.369216 0.960243
O O1 0.500000 0.854534 0.549931
O O2 0.759161 0.894126 0.616698
O O3 0.754869 0.750825 0.503909
O O4 0.711940 0.000000 0.500000
O O5 0.750000 0.944262 0.750000
O O6 0.500000 0.992744 0.820957
O O7 0.751316 0.128780 0.835685
O O8 0.750000 0.685425 0.250000
O O9 0.759860 0.640500 0.114176
O O10 0.000000 0.732692 0.179226
O O11 0.500000 0.360406 0.952980
O O12 0.722197 0.500000 0.000000
#
# Coordination Sequence:
#
# PCOD9419723 Si02
#       4
#     8   8   8   8
#     4  11  22  37  60  89 119 153 196 243 293 350
#     4  11  21  35  58  87 121 155 195 246 299 350
#     4  11  21  36  59  87 118 154 197 243 294 351
#     4  11  24  41  61  88 121 158 200 245 296 353
#
# _framework density 18.03612
#
# number of rings (size 3 to 8) (size 9 to 14) (size 15 to 20)
#    0.000    1.000    2.500    7.500    0.000    3.000 
#    0.000    1.250    0.000    6.000    0.000    0.000 
#    0.000    0.000    0.000    0.000    0.000    0.000 
#
# Total GULP energy -178945.099178 kJ/mol
# GULP energy per Si atom -5592.034349 kJ/mol
# Density = 1.799507 g / cm^3
# Si number density = 18.036120 Si / 1000 Ang^3
#
#
#
# Elastic Constant Matrix: (Units=GPa)
#
#
# Indices 1 2 3 4 5 6 
#
# 1 131.4539 65.3284 79.8020 0.0000 0.0000 0.0000
# 2 65.3284 88.5380 68.1047 0.0000 0.0000 0.0000
# 3 79.8020 68.1047 178.0790 0.0000 0.0000 0.0000
# 4 0.0000 0.0000 0.0000 27.1450 0.0000 0.0000
# 5 0.0000 0.0000 0.0000 0.0000 40.5897 0.0000
# 6 0.0000 0.0000 0.0000 0.0000 0.0000 22.0381
#
#
#
# Elastic Compliance Matrix: (Units=1/GPa)
#
#
# Indices 1 2 3 4 5 6 
#
# 1 0.013106 -0.007300 -0.003081 0.000000 0.000000 0.000000
# 2 -0.007300 0.020068 -0.004404 0.000000 0.000000 0.000000
# 3 -0.003081 -0.004404 0.008680 0.000000 0.000000 0.000000
# 4 0.000000 0.000000 0.000000 0.036839 0.000000 0.000000
# 5 0.000000 0.000000 0.000000 0.000000 0.024637 0.000000
# 6 0.000000 0.000000 0.000000 0.000000 0.000000 0.045376
#
#
# Mechanical properties :
#
#
# Convention : Reuss Voigt Hill
#
# Bulk Modulus (GPa) = 81.40202 91.61568 86.50885
# Shear Modulus (GPa) = 27.41672 30.27695 28.84683
#
# Velocity S-wave (km/s) = 3.90308 4.10162 4.00358
# Velocity P-wave (km/s) = 8.09585 8.56370 8.33306
#
# Compressibility (1/GPa) = 0.01228471
#
# Stress axis : x y z
#
# Youngs Moduli (GPa) = 76.30344 49.82996 115.20284
#
# Poissons Ratio (x) = 0.36376 0.35496
# Poissons Ratio (y) = 0.55701 0.50731
# Poissons Ratio (z) = 0.23510 0.21943
#
# Static dielectric constant tensor:
#      x y z
#    x 1.599590 0.000000 0.000000 
#    y 0.000000 1.587280 0.000000 
#    z 0.000000 0.000000 1.624770 
# 
# From -- ./inp_files/30007.got.cif
#   From: 2010.05.17/outbox.cif.g08.bks.cpg/sg53_16_cif.got.tgz:30007.got - 2010.06.03 12:45:16.
