data_PCOD9419381
_publ_section_title
;
Structure prediction by ZEFSAII (Michael W. Deem and Ramdas Pophale) SiO2 
 PCOD9419381
Probable space group: P M N A
;
_chemical_formula_sum "Si O2"
_cell_formula_units_Z 32
_cell_length_a 9.543584
_cell_length_b 11.240990
_cell_length_c 13.535607
_cell_angle_alpha 90.000000
_cell_angle_beta 90.000000
_cell_angle_gamma 90.000000
_cell_volume 1452.090881
_symmetry_space_group_name_H-M "P M N A"
_symmetry_group_IT_number 53
_symmetry_cell_setting 'orthorhombic'
loop_
_space_group_symop_operation_xyz
x,y,z
1/2-x,-y,1/2+z
x,-y,-z
1/2-x,y,1/2-z
-x,-y,-z
1/2+x,y,1/2-z
-x,y,z
1/2+x,-y,1/2+z
loop_
_atom_site_type_symbol
_atom_site_label
_atom_site_fract_x
_atom_site_fract_y
_atom_site_fract_z
Si Si1 0.781828 0.820885 0.852779
Si Si2 0.750000 0.581782 0.250000
Si Si3 0.000000 0.252600 0.674144
Si Si4 0.500000 0.535541 0.384271
Si Si5 0.000000 0.771257 0.013450
Si Si6 0.000000 0.031440 0.826446
Si Si7 0.500000 0.866413 0.965071
O O1 0.750000 0.755939 0.750000
O O2 0.870887 0.758405 0.938600
O O3 0.635002 0.848287 0.899851
O O4 0.868541 0.941196 0.826325
O O5 0.639006 0.668190 0.194235
O O6 0.643662 0.510299 0.323586
O O7 0.000000 0.130383 0.739757
O O8 0.000000 0.216150 0.560424
O O9 0.500000 0.500000 0.500000
O O10 0.500000 0.678212 0.398307
O O11 0.000000 0.896144 0.070523
O O12 0.500000 0.000000 0.000000
#
# Coordination Sequence:
#
# PCOD9419381 Si02
#       7
#     8   4   4   4   4   4   4
#     4  11  23  36  52  83 127 175 212 250 302 369
#     4  10  22  44  72  98 124 158 214 262 340 388
#     4  11  23  37  65  92 125 167 215 273 307 376
#     4  11  24  46  74 101 127 159 207 273 333 395
#     4  11  21  42  61  83 123 167 207 258 323 373
#     4  11  22  35  59  83 124 175 214 258 307 362
#     4  12  22  30  50  85 119 159 220 254 298 346
#
# _framework density 22.037188
#
# number of rings (size 3 to 8) (size 9 to 14) (size 15 to 20)
#    0.000    1.000    2.500    7.500    5.250    0.000 
#    2.250    2.500    0.000    0.000    0.000    0.000 
#    0.000    0.000    0.000    0.000    0.000    0.000 
#
# Total GULP energy -178783.359651 kJ/mol
# GULP energy per Si atom -5586.979989 kJ/mol
# Density = 2.198703 g / cm^3
# Si number density = 22.037188 Si / 1000 Ang^3
#
#
#
# Elastic Constant Matrix: (Units=GPa)
#
#
# Indices 1 2 3 4 5 6 
#
# 1 212.8055 20.3404 76.1362 0.0000 0.0000 0.0000
# 2 20.3404 45.5890 21.7697 0.0000 0.0000 0.0000
# 3 76.1362 21.7697 160.1717 0.0000 0.0000 0.0000
# 4 0.0000 0.0000 0.0000 43.7313 0.0000 0.0000
# 5 0.0000 0.0000 0.0000 0.0000 52.8570 0.0000
# 6 0.0000 0.0000 0.0000 0.0000 0.0000 -1.9517
#
#
#
# Elastic Compliance Matrix: (Units=1/GPa)
#
#
# Indices 1 2 3 4 5 6 
#
# 1 0.005738 -0.001345 -0.002545 0.000000 0.000000 0.000000
# 2 -0.001345 0.023773 -0.002592 0.000000 0.000000 0.000000
# 3 -0.002545 -0.002592 0.007805 0.000000 0.000000 0.000000
# 4 0.000000 0.000000 0.000000 0.022867 0.000000 0.000000
# 5 0.000000 0.000000 0.000000 0.000000 0.018919 0.000000
# 6 0.000000 0.000000 0.000000 0.000000 0.000000 -0.512378
#
#
# Mechanical properties :
#
#
# Convention : Reuss Voigt Hill
#
# Bulk Modulus (GPa) = 41.06251 72.78432 56.92342
# Shear Modulus (GPa) = -12.13017 38.94864 13.40923
#
# Velocity S-wave (km/s) = -2.34869 4.20861 2.46942
# Velocity P-wave (km/s) = 3.36431 7.53102 5.83244
#
# Compressibility (1/GPa) = 0.02435311
#
# Stress axis : x y z
#
# Youngs Moduli (GPa) = 174.27270 42.06486 128.11989
#
# Poissons Ratio (x) = 0.05658 0.32604
# Poissons Ratio (y) = 0.23440 0.33205
# Poissons Ratio (z) = 0.44348 0.10902
#
# Static dielectric constant tensor:
#      x y z
#    x 1.872880 0.000000 0.000000 
#    y 0.000000 1.859630 0.000000 
#    z 0.000000 0.000000 1.800190 
# 
# From -- ./inp_files/13835.got.cif
#   From: 2010.05.17/outbox.cif.g08.bks.cpg/sg53_7_cif.got.tgz:13835.got - 2010.06.03 12:45:16.
