data_PCOD9419117
_publ_section_title
;
Structure prediction by ZEFSAII (Michael W. Deem and Ramdas Pophale) SiO2 
 PCOD9419117
Probable space group: P M N A
;
_chemical_formula_sum "Si O2"
_cell_formula_units_Z 60
_cell_length_a 9.083026
_cell_length_b 10.787614
_cell_length_c 32.081458
_cell_angle_alpha 90.000000
_cell_angle_beta 90.000000
_cell_angle_gamma 90.000000
_cell_volume 3143.475305
_symmetry_space_group_name_H-M "P M N A"
_symmetry_group_IT_number 53
_symmetry_cell_setting 'orthorhombic'
loop_
_space_group_symop_operation_xyz
x,y,z
1/2-x,-y,1/2+z
x,-y,-z
1/2-x,y,1/2-z
-x,-y,-z
1/2+x,y,1/2-z
-x,y,z
1/2+x,-y,1/2+z
loop_
_atom_site_type_symbol
_atom_site_label
_atom_site_fract_x
_atom_site_fract_y
_atom_site_fract_z
Si Si1 0.826629 0.443565 0.291216
Si Si2 0.835784 0.051130 0.331936
Si Si3 0.672637 0.200580 0.881639
Si Si4 0.178630 0.623834 0.555512
Si Si5 0.322911 0.341127 0.961834
Si Si6 0.337269 0.314402 0.693710
Si Si7 0.750000 0.906568 0.250000
Si Si8 0.674161 0.712879 0.638381
O O1 0.750000 0.388820 0.250000
O O2 0.785776 0.588707 0.291866
O O3 0.753093 0.386392 0.331894
O O4 0.000000 0.424463 0.290339
O O5 0.716765 0.154719 0.341889
O O6 0.000000 0.105860 0.335897
O O7 0.821582 0.940268 0.365560
O O8 0.822148 0.991495 0.285757
O O9 0.500000 0.239821 0.875236
O O10 0.713054 0.233780 0.928990
O O11 0.783428 0.273423 0.851730
O O12 0.226138 0.671079 0.509615
O O13 0.218663 0.477011 0.555837
O O14 0.256593 0.695585 0.592705
O O15 0.000000 0.633285 0.559530
O O16 0.500000 0.345261 0.964726
O O17 0.500000 0.372166 0.694104
O O18 0.341253 0.191536 0.722182
O O19 0.500000 0.695035 0.637582
#
# Coordination Sequence:
#
# PCOD9419117 Si02
#       8
#     8   8   8   8   8   8   4   8
#     4  12  25  41  61  85 115 150 190 236 289 349
#     4  10  22  39  59  81 110 156 207 248 291 343
#     4   9  18  34  57  86 118 155 198 242 289 343
#     4   9  17  34  61  90 119 152 189 236 294 355
#     4   8  15  31  60  93 119 147 189 237 291 354
#     4  11  21  35  58  89 123 153 186 232 291 346
#     4  10  22  38  62  84 116 148 202 244 292 338
#     4  12  26  42  58  81 116 156 198 243 294 351
#
# _framework density 19.087154999999999
#
# number of rings (size 3 to 8) (size 9 to 14) (size 15 to 20)
#    0.000    1.867    0.667    4.800    0.933    4.800 
#    0.000    2.667    0.000    4.000    0.000    0.000 
#    0.000    0.000    0.000    0.000    0.000    0.000 
#
# Total GULP energy -334639.593371 kJ/mol
# GULP energy per Si atom -5577.326556 kJ/mol
# Density = 1.904371 g / cm^3
# Si number density = 19.087155 Si / 1000 Ang^3
#
#
#
# Elastic Constant Matrix: (Units=GPa)
#
#
# Indices 1 2 3 4 5 6 
#
# 1 105.5895 21.4389 42.4373 0.0000 0.0000 0.0000
# 2 21.4389 48.5968 44.0576 0.0000 0.0000 0.0000
# 3 42.4373 44.0576 123.4726 0.0000 0.0000 0.0000
# 4 0.0000 0.0000 0.0000 23.1964 0.0000 0.0000
# 5 0.0000 0.0000 0.0000 0.0000 -7.6438 0.0000
# 6 0.0000 0.0000 0.0000 0.0000 0.0000 16.0919
#
#
#
# Elastic Compliance Matrix: (Units=1/GPa)
#
#
# Indices 1 2 3 4 5 6 
#
# 1 0.011136 -0.002133 -0.003066 0.000000 0.000000 0.000000
# 2 -0.002133 0.030826 -0.010266 0.000000 0.000000 0.000000
# 3 -0.003066 -0.010266 0.012816 0.000000 0.000000 0.000000
# 4 0.000000 0.000000 0.000000 0.043110 0.000000 0.000000
# 5 0.000000 0.000000 0.000000 0.000000 -0.130825 0.000000
# 6 0.000000 0.000000 0.000000 0.000000 0.000000 0.062143
#
#
# Mechanical properties :
#
#
# Convention : Reuss Voigt Hill
#
# Bulk Modulus (GPa) = 41.93397 54.83628 48.38513
# Shear Modulus (GPa) = 73.43661 17.64391 45.54026
#
# Velocity S-wave (km/s) = 6.20950 3.04367 4.88988
# Velocity P-wave (km/s) = 8.56901 6.41434 7.56874
#
# Compressibility (1/GPa) = 0.02384701
#
# Stress axis : x y z
#
# Youngs Moduli (GPa) = 89.79803 32.44051 78.02692
#
# Poissons Ratio (x) = 0.06919 0.23927
# Poissons Ratio (y) = 0.19152 0.80104
# Poissons Ratio (z) = 0.27536 0.33304
#
# Static dielectric constant tensor:
#      x y z
#    x 1.657080 0.000000 0.000000 
#    y 0.000000 1.678800 0.000000 
#    z 0.000000 0.000000 1.680820 
# 
# From -- ./inp_files/38090.got.cif
#   From: 2010.05.17/outbox.cif.g08.bks.cpg/sg53_20_cif.got.tgz:38090.got - 2010.06.03 12:45:16.
