data_PCOD9419722
_publ_section_title
;
Structure prediction by ZEFSAII (Michael W. Deem and Ramdas Pophale) SiO2 
 PCOD9419722
Probable space group: P M N A
;
_chemical_formula_sum "Si O2"
_cell_formula_units_Z 64
_cell_length_a 15.449921
_cell_length_b 11.193520
_cell_length_c 16.924730
_cell_angle_alpha 90.000000
_cell_angle_beta 90.000000
_cell_angle_gamma 90.000000
_cell_volume 2926.945877
_symmetry_space_group_name_H-M "P M N A"
_symmetry_group_IT_number 53
_symmetry_cell_setting 'orthorhombic'
loop_
_space_group_symop_operation_xyz
x,y,z
1/2-x,-y,1/2+z
x,-y,-z
1/2-x,y,1/2-z
-x,-y,-z
1/2+x,y,1/2-z
-x,y,z
1/2+x,-y,1/2+z
loop_
_atom_site_type_symbol
_atom_site_label
_atom_site_fract_x
_atom_site_fract_y
_atom_site_fract_z
Si Si1 0.716895 0.264852 0.591463
Si Si2 0.398779 0.630939 0.539800
Si Si3 0.348378 0.625203 0.721927
Si Si4 0.096364 0.884461 0.781848
Si Si5 0.093832 0.736844 0.397131
Si Si6 0.595656 0.633837 0.275356
Si Si7 0.217906 0.988424 0.912913
Si Si8 0.094583 0.982064 0.611252
O O1 0.655812 0.282227 0.515960
O O2 0.813909 0.309574 0.572204
O O3 0.670713 0.333581 0.663352
O O4 0.723794 0.125892 0.615599
O O5 0.394147 0.500000 0.500000
O O6 0.500000 0.664366 0.545426
O O7 0.359482 0.625239 0.627080
O O8 0.250000 0.623074 0.750000
O O9 0.390054 0.749737 0.748513
O O10 0.393610 0.503780 0.749717
O O11 0.000000 0.897166 0.814923
O O12 0.164875 0.915283 0.848936
O O13 0.103833 0.968814 0.705752
O O14 0.099094 0.713516 0.302825
O O15 0.091482 0.878840 0.410961
O O16 0.000000 0.687548 0.423768
O O17 0.500000 0.648706 0.313101
O O18 0.314694 0.933977 0.921793
O O19 0.178452 0.000000 0.000000
O O20 0.000000 0.929145 0.589981
#
# Coordination Sequence:
#
# PCOD9419722 Si02
#       8
#     8   8   8   8   8   8   8   8
#     4  11  21  36  61  87 117 160 201 246 305 362
#     4  11  23  40  61  88 124 158 194 243 300 364
#     4  12  24  39  61  86 118 158 200 243 290 355
#     4  11  23  39  59  84 122 163 201 244 295 354
#     4   9  19  35  58  88 120 152 199 257 304 353
#     4  11  21  35  57  88 119 150 197 248 299 357
#     4  11  23  37  57  87 119 152 197 248 298 354
#     4   9  19  38  61  84 113 154 197 245 301 351
#
# _framework density 21.865794999999999
#
# number of rings (size 3 to 8) (size 9 to 14) (size 15 to 20)
#    0.000    1.375    1.250    5.250    0.000    4.500 
#    0.000    0.000    0.000    2.625    0.000    0.000 
#    0.000    0.000    0.000    0.000    0.000    0.000 
#
# Total GULP energy -357601.191731 kJ/mol
# GULP energy per Si atom -5587.518621 kJ/mol
# Density = 2.181603 g / cm^3
# Si number density = 21.865795 Si / 1000 Ang^3
#
#
#
# Elastic Constant Matrix: (Units=GPa)
#
#
# Indices 1 2 3 4 5 6 
#
# 1 173.2951 21.6296 43.2344 0.0000 0.0000 0.0000
# 2 21.6296 47.1390 -3.8519 0.0000 0.0000 0.0000
# 3 43.2344 -3.8519 59.2698 0.0000 0.0000 0.0000
# 4 0.0000 0.0000 0.0000 16.3642 0.0000 0.0000
# 5 0.0000 0.0000 0.0000 0.0000 -18.4539 0.0000
# 6 0.0000 0.0000 0.0000 0.0000 0.0000 21.4514
#
#
#
# Elastic Compliance Matrix: (Units=1/GPa)
#
#
# Indices 1 2 3 4 5 6 
#
# 1 0.007751 -0.004040 -0.005916 0.000000 0.000000 0.000000
# 2 -0.004040 0.023433 0.004470 0.000000 0.000000 0.000000
# 3 -0.005916 0.004470 0.021478 0.000000 0.000000 0.000000
# 4 0.000000 0.000000 0.000000 0.061109 0.000000 0.000000
# 5 0.000000 0.000000 0.000000 0.000000 -0.054189 0.000000
# 6 0.000000 0.000000 0.000000 0.000000 0.000000 0.046617
#
#
# Mechanical properties :
#
#
# Convention : Reuss Voigt Hill
#
# Bulk Modulus (GPa) = 23.98725 44.63646 34.31186
# Shear Modulus (GPa) = 38.14814 18.45178 28.29996
#
# Velocity S-wave (km/s) = 4.18143 2.90809 3.60148
# Velocity P-wave (km/s) = 5.85718 5.63330 5.74633
#
# Compressibility (1/GPa) = 0.04168881
#
# Stress axis : x y z
#
# Youngs Moduli (GPa) = 129.01934 42.67526 46.55891
#
# Poissons Ratio (x) = 0.17240 0.27546
# Poissons Ratio (y) = 0.52122 -0.20811
# Poissons Ratio (z) = 0.76332 -0.19075
#
# Static dielectric constant tensor:
#      x y z
#    x 1.850360 0.000000 0.000000 
#    y 0.000000 1.822280 0.000000 
#    z 0.000000 0.000000 1.764760 
# 
# From -- ./inp_files/28563.got.cif
#   From: 2010.05.17/outbox.cif.g08.bks.cpg/sg53_15_cif.got.tgz:28563.got - 2010.06.03 12:45:16.
