data_PCOD9419224
_publ_section_title
;
Structure prediction by ZEFSAII (Michael W. Deem and Ramdas Pophale) SiO2 
 PCOD9419224
Probable space group: P M N A
;
_chemical_formula_sum "Si O2"
_cell_formula_units_Z 32
_cell_length_a 10.181861
_cell_length_b 19.367304
_cell_length_c 8.841648
_cell_angle_alpha 90.000000
_cell_angle_beta 90.000000
_cell_angle_gamma 90.000000
_cell_volume 1743.530522
_symmetry_space_group_name_H-M "P M N A"
_symmetry_group_IT_number 53
_symmetry_cell_setting 'orthorhombic'
loop_
_space_group_symop_operation_xyz
x,y,z
1/2-x,-y,1/2+z
x,-y,-z
1/2-x,y,1/2-z
-x,-y,-z
1/2+x,y,1/2-z
-x,y,z
1/2+x,-y,1/2+z
loop_
_atom_site_type_symbol
_atom_site_label
_atom_site_fract_x
_atom_site_fract_y
_atom_site_fract_z
Si Si1 0.843787 0.693626 0.890239
Si Si2 0.254850 0.847833 0.569596
Si Si3 0.000000 0.925088 0.073758
Si Si4 0.500000 0.078429 0.935914
Si Si5 0.848671 0.564085 0.111333
O O1 0.750000 0.673203 0.750000
O O2 0.783692 0.766289 0.946319
O O3 0.000000 0.702883 0.849539
O O4 0.837223 0.634458 0.015805
O O5 0.250000 0.861527 0.750000
O O6 0.373803 0.886172 0.489517
O O7 0.124494 0.878515 0.495415
O O8 0.000000 0.926818 0.254740
O O9 0.000000 0.000000 0.000000
O O10 0.500000 0.000000 0.000000
O O11 0.750000 0.563645 0.250000
O O12 0.000000 0.557559 0.163441
O O13 0.822125 0.500000 0.000000
#
# Coordination Sequence:
#
# PCOD9419224 Si02
#       5
#     8   8   4   4   8
#     4  10  22  40  64  93 125 164 206 253 309 371
#     4  11  23  42  64  91 124 163 207 260 312 379
#     4  12  24  42  64  88 125 160 203 262 314 376
#     4  12  26  42  64  94 121 164 211 256 322 380
#     4  10  22  40  62  93 130 168 212 261 309 366
#
# _framework density 18.353565
#
# number of rings (size 3 to 8) (size 9 to 14) (size 15 to 20)
#    0.000    1.250    1.250    4.500    5.250    3.500 
#    0.000    0.000    0.000    0.000    0.000    0.000 
#    0.000    0.000    0.000    0.000    0.000    0.000 
#
# Total GULP energy -178792.956684 kJ/mol
# GULP energy per Si atom -5587.279896 kJ/mol
# Density = 1.831179 g / cm^3
# Si number density = 18.353565 Si / 1000 Ang^3
#
#
#
# Elastic Constant Matrix: (Units=GPa)
#
#
# Indices 1 2 3 4 5 6 
#
# 1 190.9039 84.8017 99.4287 0.0000 0.0000 0.0000
# 2 84.8017 100.3260 95.6020 0.0000 0.0000 0.0000
# 3 99.4287 95.6020 156.7985 0.0000 0.0000 0.0000
# 4 0.0000 0.0000 0.0000 23.2095 0.0000 0.0000
# 5 0.0000 0.0000 0.0000 0.0000 45.3700 0.0000
# 6 0.0000 0.0000 0.0000 0.0000 0.0000 42.7654
#
#
#
# Elastic Compliance Matrix: (Units=1/GPa)
#
#
# Indices 1 2 3 4 5 6 
#
# 1 0.008776 -0.005048 -0.002487 0.000000 0.000000 0.000000
# 2 -0.005048 0.026692 -0.013074 0.000000 0.000000 0.000000
# 3 -0.002487 -0.013074 0.015926 0.000000 0.000000 0.000000
# 4 0.000000 0.000000 0.000000 0.043086 0.000000 0.000000
# 5 0.000000 0.000000 0.000000 0.000000 0.022041 0.000000
# 6 0.000000 0.000000 0.000000 0.000000 0.000000 0.023383
#
#
# Mechanical properties :
#
#
# Convention : Reuss Voigt Hill
#
# Bulk Modulus (GPa) = 98.26366 111.96592 105.11479
# Shear Modulus (GPa) = 27.09814 33.48206 30.29010
#
# Velocity S-wave (km/s) = 3.84663 4.27579 4.06688
# Velocity P-wave (km/s) = 8.56646 9.24738 8.91342
#
# Compressibility (1/GPa) = 0.01017670
#
# Stress axis : x y z
#
# Youngs Moduli (GPa) = 113.94705 37.46388 62.79018
#
# Poissons Ratio (x) = 0.18911 0.15618
# Poissons Ratio (y) = 0.57519 0.82090
# Poissons Ratio (z) = 0.28342 0.48979
#
# Static dielectric constant tensor:
#      x y z
#    x 1.593990 0.000000 0.000000 
#    y 0.000000 1.634750 0.000000 
#    z 0.000000 0.000000 1.597050 
# 
# From -- ./inp_files/6067.got.cif
#   From: 2010.05.17/outbox.cif.g08.bks.cpg/sg53_4_cif.got.tgz:6067.got - 2010.06.03 12:45:16.
