data_PCOD9419837
_publ_section_title
;
Structure prediction by ZEFSAII (Michael W. Deem and Ramdas Pophale) SiO2 
 PCOD9419837
Probable space group: P M N A
;
_chemical_formula_sum "Si O2"
_cell_formula_units_Z 48
_cell_length_a 10.021177
_cell_length_b 9.216921
_cell_length_c 27.075934
_cell_angle_alpha 90.000000
_cell_angle_beta 90.000000
_cell_angle_gamma 90.000000
_cell_volume 2500.852310
_symmetry_space_group_name_H-M "P M N A"
_symmetry_group_IT_number 53
_symmetry_cell_setting 'orthorhombic'
loop_
_space_group_symop_operation_xyz
x,y,z
1/2-x,-y,1/2+z
x,-y,-z
1/2-x,y,1/2-z
-x,-y,-z
1/2+x,y,1/2-z
-x,y,z
1/2+x,-y,1/2+z
loop_
_atom_site_type_symbol
_atom_site_label
_atom_site_fract_x
_atom_site_fract_y
_atom_site_fract_z
Si Si1 0.758020 0.257126 0.400097
Si Si2 0.500000 0.603592 0.564597
Si Si3 0.853512 0.769706 0.709407
Si Si4 0.223394 0.921605 0.100132
Si Si5 0.500000 0.738717 0.457849
Si Si6 0.000000 0.657092 0.525521
Si Si7 0.000000 0.099399 0.547392
Si Si8 0.158540 0.121222 0.704184
O O1 0.635275 0.363350 0.407181
O O2 0.822586 0.274550 0.346417
O O3 0.870534 0.295041 0.441583
O O4 0.693250 0.094233 0.400526
O O5 0.500000 0.716543 0.517372
O O6 0.500000 0.431776 0.554895
O O7 0.750000 0.717961 0.750000
O O8 0.000000 0.720595 0.723679
O O9 0.851196 0.945830 0.709119
O O10 0.125318 0.825960 0.066017
O O11 0.370376 0.925858 0.078219
O O12 0.251047 0.858249 0.154836
O O13 0.000000 0.500000 0.500000
O O14 0.000000 0.744789 0.475156
O O15 0.000000 0.000000 0.500000
O O16 0.250000 0.174469 0.750000
O O17 0.000000 0.170117 0.701772
#
# Coordination Sequence:
#
# PCOD9419837 Si02
#       8
#     8   4   8   8   4   4   4   8
#     4  11  22  41  63  93 124 163 207 262 308 372
#     4  11  27  43  58  84 128 167 209 250 314 376
#     4   9  18  33  58  92 127 155 197 254 314 364
#     4  11  22  40  64  94 122 158 213 260 313 365
#     4  11  27  43  60  88 125 168 206 256 312 377
#     4  12  26  38  63  91 125 168 210 250 313 373
#     4  12  22  38  63  91 121 162 206 261 306 357
#     4   9  18  33  57  91 128 157 192 251 315 370
#
# _framework density 19.193455
#
# number of rings (size 3 to 8) (size 9 to 14) (size 15 to 20)
#    0.000    1.500    3.333    1.500    7.000    0.667 
#    0.000    0.000    0.000    1.000    4.333    0.000 
#    0.000    0.000    0.000    0.000    0.000    0.000 
#
# Total GULP energy -267287.008048 kJ/mol
# GULP energy per Si atom -5568.479334 kJ/mol
# Density = 1.914977 g / cm^3
# Si number density = 19.193455 Si / 1000 Ang^3
#
#
#
# Elastic Constant Matrix: (Units=GPa)
#
#
# Indices 1 2 3 4 5 6 
#
# 1 103.0907 3.2121 8.0670 0.0000 0.0000 0.0000
# 2 3.2121 49.7675 6.2025 0.0000 0.0000 0.0000
# 3 8.0670 6.2025 65.2518 0.0000 0.0000 0.0000
# 4 0.0000 0.0000 0.0000 11.0011 0.0000 0.0000
# 5 0.0000 0.0000 0.0000 0.0000 33.0244 0.0000
# 6 0.0000 0.0000 0.0000 0.0000 0.0000 21.9381
#
#
#
# Elastic Compliance Matrix: (Units=1/GPa)
#
#
# Indices 1 2 3 4 5 6 
#
# 1 0.009807 -0.000488 -0.001166 0.000000 0.000000 0.000000
# 2 -0.000488 0.020359 -0.001875 0.000000 0.000000 0.000000
# 3 -0.001166 -0.001875 0.015648 0.000000 0.000000 0.000000
# 4 0.000000 0.000000 0.000000 0.090900 0.000000 0.000000
# 5 0.000000 0.000000 0.000000 0.000000 0.030281 0.000000
# 6 0.000000 0.000000 0.000000 0.000000 0.000000 0.045583
#
#
# Mechanical properties :
#
#
# Convention : Reuss Voigt Hill
#
# Bulk Modulus (GPa) = 25.80263 28.11924 26.96093
# Shear Modulus (GPa) = 21.50056 26.56794 24.03425
#
# Velocity S-wave (km/s) = 3.35057 3.72455 3.54250
# Velocity P-wave (km/s) = 5.33302 5.76008 5.55066
#
# Compressibility (1/GPa) = 0.03875575
#
# Stress axis : x y z
#
# Youngs Moduli (GPa) = 101.97181 49.11933 63.90749
#
# Poissons Ratio (x) = 0.02395 0.07452
# Poissons Ratio (y) = 0.04972 0.11982
# Poissons Ratio (z) = 0.11890 0.09209
#
# Static dielectric constant tensor:
#      x y z
#    x 1.655250 0.000000 0.000000 
#    y 0.000000 1.638940 0.000000 
#    z 0.000000 0.000000 1.663000 
# 
# From -- ./inp_files/37875.got.cif
#   From: 2010.05.17/outbox.cif.g08.bks.cpg/sg53_19_cif.got.tgz:37875.got - 2010.06.03 12:45:16.
