data_PCOD9419568
_publ_section_title
;
Structure prediction by ZEFSAII (Michael W. Deem and Ramdas Pophale) SiO2 
 PCOD9419568
Probable space group: P M N A
;
_chemical_formula_sum "Si O2"
_cell_formula_units_Z 20
_cell_length_a 27.557449
_cell_length_b 6.085230
_cell_length_c 5.076084
_cell_angle_alpha 90.000000
_cell_angle_beta 90.000000
_cell_angle_gamma 90.000000
_cell_volume 851.225863
_symmetry_space_group_name_H-M "P M N A"
_symmetry_group_IT_number 53
_symmetry_cell_setting 'orthorhombic'
loop_
_space_group_symop_operation_xyz
x,y,z
1/2-x,-y,1/2+z
x,-y,-z
1/2-x,y,1/2-z
-x,-y,-z
1/2+x,y,1/2-z
-x,y,z
1/2+x,-y,1/2+z
loop_
_atom_site_type_symbol
_atom_site_label
_atom_site_fract_x
_atom_site_fract_y
_atom_site_fract_z
Si Si1 0.944738 0.346798 0.742705
Si Si2 0.805677 0.657906 0.750349
Si Si3 0.375590 0.000000 0.500000
O O1 0.929259 0.500000 0.500000
O O2 0.000000 0.270019 0.688186
O O3 0.945876 0.500000 0.000000
O O4 0.909388 0.150828 0.817090
O O5 0.813354 0.500000 0.500000
O O6 0.750000 0.740593 0.750000
O O7 0.810917 0.500000 0.000000
O O8 0.842247 0.854546 0.807103
#
# Coordination Sequence:
#
# PCOD9419568 Si02
#       3
#     8   8   4
#     4  10  24  46  70 103 144 181 228 291 353 418
#     4  10  25  47  68 100 145 186 233 293 350 412
#     4  12  25  44  78 106 134 190 243 284 350 422
#
# _framework density 23.495526000000002
#
# number of rings (size 3 to 8) (size 9 to 14) (size 15 to 20)
#    0.000    1.600    0.000    1.800    0.000   17.600 
#    0.000   10.000    0.000    3.600    0.000    0.000 
#    0.000    0.000    0.000    0.000    0.000    0.000 
#
# Total GULP energy -112167.595879 kJ/mol
# GULP energy per Si atom -5608.379794 kJ/mol
# Density = 2.344205 g / cm^3
# Si number density = 23.495526 Si / 1000 Ang^3
#
#
#
# Elastic Constant Matrix: (Units=GPa)
#
#
# Indices 1 2 3 4 5 6 
#
# 1 217.7738 145.6099 68.0033 0.0000 0.0000 0.0000
# 2 145.6099 160.7476 78.4835 0.0000 0.0000 0.0000
# 3 68.0033 78.4835 196.3805 0.0000 0.0000 0.0000
# 4 0.0000 0.0000 0.0000 30.1616 0.0000 0.0000
# 5 0.0000 0.0000 0.0000 0.0000 4.9214 0.0000
# 6 0.0000 0.0000 0.0000 0.0000 0.0000 -47.9356
#
#
#
# Elastic Compliance Matrix: (Units=1/GPa)
#
#
# Indices 1 2 3 4 5 6 
#
# 1 0.011653 -0.010667 0.000228 0.000000 0.000000 0.000000
# 2 -0.010667 0.017493 -0.003297 0.000000 0.000000 0.000000
# 3 0.000228 -0.003297 0.006331 0.000000 0.000000 0.000000
# 4 0.000000 0.000000 0.000000 0.033155 0.000000 0.000000
# 5 0.000000 0.000000 0.000000 0.000000 0.203195 0.000000
# 6 0.000000 0.000000 0.000000 0.000000 0.000000 -0.020861
#
#
# Mechanical properties :
#
#
# Convention : Reuss Voigt Hill
#
# Bulk Modulus (GPa) = 124.93247 128.78836 126.86042
# Shear Modulus (GPa) = 17.78687 16.28315 17.03501
#
# Velocity S-wave (km/s) = 2.75441 2.63541 2.69556
# Velocity P-wave (km/s) = 7.96266 8.01208 7.98741
#
# Compressibility (1/GPa) = 0.00800432
#
# Stress axis : x y z
#
# Youngs Moduli (GPa) = 85.81568 57.16541 157.95049
#
# Poissons Ratio (x) = 0.60977 -0.03597
# Poissons Ratio (y) = 0.91537 0.52083
# Poissons Ratio (z) = -0.01955 0.18850
#
# Static dielectric constant tensor:
#      x y z
#    x 1.953240 0.000000 0.000000 
#    y 0.000000 1.809210 0.000000 
#    z 0.000000 0.000000 1.845290 
# 
# From -- ./inp_files/3964.got.cif
#   From: 2010.05.17/outbox.cif.g08.bks.cpg/sg53_2_cif.got.tgz:3964.got - 2010.06.03 12:45:16.
