data_PCOD9419099
_publ_section_title
;
Structure prediction by ZEFSAII (Michael W. Deem and Ramdas Pophale) SiO2 
 PCOD9419099
Probable space group: P M N A
;
_chemical_formula_sum "Si O2"
_cell_formula_units_Z 64
_cell_length_a 15.403815
_cell_length_b 23.062461
_cell_length_c 10.131946
_cell_angle_alpha 90.000000
_cell_angle_beta 90.000000
_cell_angle_gamma 90.000000
_cell_volume 3599.372628
_symmetry_space_group_name_H-M "P M N A"
_symmetry_group_IT_number 53
_symmetry_cell_setting 'orthorhombic'
loop_
_space_group_symop_operation_xyz
x,y,z
1/2-x,-y,1/2+z
x,-y,-z
1/2-x,y,1/2-z
-x,-y,-z
1/2+x,y,1/2-z
-x,y,z
1/2+x,-y,1/2+z
loop_
_atom_site_type_symbol
_atom_site_label
_atom_site_fract_x
_atom_site_fract_y
_atom_site_fract_z
Si Si1 0.101922 0.554665 0.094544
Si Si2 0.248197 0.777087 0.090546
Si Si3 0.104203 0.954523 0.276815
Si Si4 0.350115 0.086256 0.256143
Si Si5 0.598593 0.860409 0.009947
Si Si6 0.749471 0.355204 0.590686
Si Si7 0.397823 0.444955 0.906680
Si Si8 0.600858 0.131406 0.539082
O O1 0.165119 0.607012 0.055352
O O2 0.117478 0.541372 0.250652
O O3 0.000000 0.569640 0.081641
O O4 0.119323 0.500000 0.000000
O O5 0.250000 0.777795 0.250000
O O6 0.246846 0.710717 0.042487
O O7 0.164323 0.813785 0.046924
O O8 0.333790 0.809991 0.040261
O O9 0.126424 0.916880 0.405331
O O10 0.127466 0.914667 0.151782
O O11 0.000000 0.962897 0.275828
O O12 0.144455 0.017737 0.271032
O O13 0.250000 0.104445 0.250000
O O14 0.398543 0.120708 0.141313
O O15 0.388633 0.100862 0.398251
O O16 0.500000 0.845552 0.050147
O O17 0.750000 0.351611 0.750000
O O18 0.834954 0.392085 0.554928
O O19 0.500000 0.430456 0.920376
O O20 0.379638 0.500000 0.000000
O O21 0.500000 0.146816 0.561875
#
# Coordination Sequence:
#
# PCOD9419099 Si02
#       8
#     8   8   8   8   8   8   8   8
#     4   9  17  31  54  83 114 145 179 219 268 318
#     4  11  22  38  59  84 110 145 198 237 271 326
#     4  10  22  38  58  86 110 139 181 226 284 343
#     4  12  24  36  60  85 111 144 179 229 289 347
#     4  11  23  40  59  81 112 146 183 230 283 337
#     4   9  19  33  53  82 113 143 183 228 266 311
#     4   9  17  31  54  83 114 145 179 219 268 318
#     4  11  23  40  59  81 112 146 183 230 283 337
#
# _framework density 17.780877
#
# number of rings (size 3 to 8) (size 9 to 14) (size 15 to 20)
#    0.000    1.750    2.500    2.250    1.750    4.000 
#    0.000    2.500    5.500    0.000    0.000    0.000 
#    0.000    0.000    0.000    0.000    0.000    0.000 
#
# Total GULP energy -357297.246104 kJ/mol
# GULP energy per Si atom -5582.769470 kJ/mol
# Density = 1.774041 g / cm^3
# Si number density = 17.780877 Si / 1000 Ang^3
#
#
#
# Elastic Constant Matrix: (Units=GPa)
#
#
# Indices 1 2 3 4 5 6 
#
# 1 93.7068 64.0285 7.6466 0.0000 0.0000 0.0000
# 2 64.0285 118.2739 8.8976 0.0000 0.0000 0.0000
# 3 7.6466 8.8976 45.4489 0.0000 0.0000 0.0000
# 4 0.0000 0.0000 0.0000 17.5748 0.0000 0.0000
# 5 0.0000 0.0000 0.0000 0.0000 20.9159 0.0000
# 6 0.0000 0.0000 0.0000 0.0000 0.0000 234.8593
#
#
#
# Elastic Compliance Matrix: (Units=1/GPa)
#
#
# Indices 1 2 3 4 5 6 
#
# 1 0.016988 -0.009116 -0.001074 0.000000 0.000000 0.000000
# 2 -0.009116 0.013473 -0.001104 0.000000 0.000000 0.000000
# 3 -0.001074 -0.001104 0.022399 0.000000 0.000000 0.000000
# 4 0.000000 0.000000 0.000000 0.056900 0.000000 0.000000
# 5 0.000000 0.000000 0.000000 0.000000 0.047811 0.000000
# 6 0.000000 0.000000 0.000000 0.000000 0.000000 0.004258
#
#
# Mechanical properties :
#
#
# Convention : Reuss Voigt Hill
#
# Bulk Modulus (GPa) = 33.03184 46.50831 39.77008
# Shear Modulus (GPa) = 25.70616 66.46044 46.08330
#
# Velocity S-wave (km/s) = 3.80639 6.12035 5.09643
# Velocity P-wave (km/s) = 6.15919 8.72685 7.55293
#
# Compressibility (1/GPa) = 0.03027382
#
# Stress axis : x y z
#
# Youngs Moduli (GPa) = 58.86568 74.22326 44.64389
#
# Poissons Ratio (x) = 0.67660 0.04793
# Poissons Ratio (y) = 0.53660 0.04928
# Poissons Ratio (z) = 0.06319 0.08194
#
# Static dielectric constant tensor:
#      x y z
#    x 1.638600 0.000000 0.000000 
#    y 0.000000 1.572840 0.000000 
#    z 0.000000 0.000000 1.602470 
# 
# From -- ./inp_files/8984.got.cif
#   From: 2010.05.17/outbox.cif.g08.bks.cpg/sg53_5_cif.got.tgz:8984.got - 2010.06.03 12:45:16.
