data_PCOD9419609
_publ_section_title
;
Structure prediction by ZEFSAII (Michael W. Deem and Ramdas Pophale) SiO2 
 PCOD9419609
Probable space group: P M N A
;
_chemical_formula_sum "Si O2"
_cell_formula_units_Z 64
_cell_length_a 19.742684
_cell_length_b 15.472100
_cell_length_c 11.641737
_cell_angle_alpha 90.000000
_cell_angle_beta 90.000000
_cell_angle_gamma 90.000000
_cell_volume 3556.094078
_symmetry_space_group_name_H-M "P M N A"
_symmetry_group_IT_number 53
_symmetry_cell_setting 'orthorhombic'
loop_
_space_group_symop_operation_xyz
x,y,z
1/2-x,-y,1/2+z
x,-y,-z
1/2-x,y,1/2-z
-x,-y,-z
1/2+x,y,1/2-z
-x,y,z
1/2+x,-y,1/2+z
loop_
_atom_site_type_symbol
_atom_site_label
_atom_site_fract_x
_atom_site_fract_y
_atom_site_fract_z
Si Si1 0.670431 0.620269 0.726471
Si Si2 0.826559 0.174785 0.799769
Si Si3 0.355163 0.686141 0.965340
Si Si4 0.579549 0.960773 0.190549
Si Si5 0.921094 0.130034 0.440464
Si Si6 0.305172 0.297638 0.497651
Si Si7 0.575793 0.321706 0.803979
Si Si8 0.611443 0.548053 0.389263
O O1 0.750000 0.615830 0.750000
O O2 0.633930 0.637421 0.845982
O O3 0.663518 0.695265 0.630105
O O4 0.647725 0.530067 0.674591
O O5 0.750000 0.169132 0.750000
O O6 0.869132 0.087541 0.776258
O O7 0.870658 0.248617 0.734889
O O8 0.821478 0.211990 0.929319
O O9 0.377685 0.784273 0.943312
O O10 0.275323 0.688573 0.992728
O O11 0.396996 0.648624 0.072268
O O12 0.500000 0.956687 0.226206
O O13 0.597357 0.059292 0.156192
O O14 0.584234 0.912710 0.066858
O O15 0.000000 0.151701 0.423040
O O16 0.336312 0.381284 0.561017
O O17 0.500000 0.284566 0.815626
O O18 0.573587 0.396190 0.707583
O O19 0.577883 0.500000 0.500000
#
# Coordination Sequence:
#
# PCOD9419609 Si02
#       8
#     8   8   8   8   8   8   8   8
#     4   9  20  34  53  75 106 149 189 228 290 347
#     4  11  18  31  55  83 114 139 185 236 284 332
#     4  11  19  33  54  80 113 145 187 238 280 337
#     4   9  17  30  52  80 110 145 182 222 277 337
#     4   9  17  31  51  77 111 146 179 219 278 345
#     4   9  19  34  53  80 107 143 188 232 281 340
#     4  11  22  33  54  83 112 148 186 237 297 337
#     4   9  20  37  54  76 109 145 190 233 287 347
#
# _framework density 17.997273
#
# number of rings (size 3 to 8) (size 9 to 14) (size 15 to 20)
#    0.000    2.250    2.500    1.500    1.750    0.750 
#    0.000    3.750    0.000    9.750    0.000    1.750 
#    0.000    0.000    0.000    0.000    0.000    0.000 
#
# Total GULP energy -356438.286495 kJ/mol
# GULP energy per Si atom -5569.348226 kJ/mol
# Density = 1.795631 g / cm^3
# Si number density = 17.997273 Si / 1000 Ang^3
#
#
#
# Elastic Constant Matrix: (Units=GPa)
#
#
# Indices 1 2 3 4 5 6 
#
# 1 82.0238 33.4917 43.8677 0.0000 0.0000 0.0000
# 2 33.4917 65.2676 38.2878 0.0000 0.0000 0.0000
# 3 43.8677 38.2878 106.1554 0.0000 0.0000 0.0000
# 4 0.0000 0.0000 0.0000 26.4700 0.0000 0.0000
# 5 0.0000 0.0000 0.0000 0.0000 0.0445 0.0000
# 6 0.0000 0.0000 0.0000 0.0000 0.0000 -3.2422
#
#
#
# Elastic Compliance Matrix: (Units=1/GPa)
#
#
# Indices 1 2 3 4 5 6 
#
# 1 0.017292 -0.005938 -0.005004 0.000000 0.000000 0.000000
# 2 -0.005938 0.021472 -0.005291 0.000000 0.000000 0.000000
# 3 -0.005004 -0.005291 0.013396 0.000000 0.000000 0.000000
# 4 0.000000 0.000000 0.000000 0.037779 0.000000 0.000000
# 5 0.000000 0.000000 0.000000 0.000000 22.451361 0.000000
# 6 0.000000 0.000000 0.000000 0.000000 0.000000 -0.308436
#
#
# Mechanical properties :
#
#
# Convention : Reuss Voigt Hill
#
# Bulk Modulus (GPa) = 50.77372 53.86013 52.31693
# Shear Modulus (GPa) = 0.22450 13.84112 7.03281
#
# Velocity S-wave (km/s) = 0.35357 2.77622 1.97894
# Velocity P-wave (km/s) = 5.33290 6.34573 5.86123
#
# Compressibility (1/GPa) = 0.01969523
#
# Stress axis : x y z
#
# Youngs Moduli (GPa) = 57.82855 46.57176 74.64690
#
# Poissons Ratio (x) = 0.27654 0.37356
# Poissons Ratio (y) = 0.34338 0.39494
# Poissons Ratio (z) = 0.28939 0.24640
#
# Static dielectric constant tensor:
#      x y z
#    x 1.597910 0.000000 0.000000 
#    y 0.000000 1.615100 0.000000 
#    z 0.000000 0.000000 1.664250 
# 
# From -- ./inp_files/17083.got.cif
#   From: 2010.05.17/outbox.cif.g08.bks.cpg/sg53_9_cif.got.tgz:17083.got - 2010.06.03 12:45:16.
