data_PCOD9419827
_publ_section_title
;
Structure prediction by ZEFSAII (Michael W. Deem and Ramdas Pophale) SiO2 
 PCOD9419827
Probable space group: P M N A
;
_chemical_formula_sum "Si O2"
_cell_formula_units_Z 40
_cell_length_a 8.635662
_cell_length_b 25.937637
_cell_length_c 9.321546
_cell_angle_alpha 90.000000
_cell_angle_beta 90.000000
_cell_angle_gamma 90.000000
_cell_volume 2087.920656
_symmetry_space_group_name_H-M "P M N A"
_symmetry_group_IT_number 53
_symmetry_cell_setting 'orthorhombic'
loop_
_space_group_symop_operation_xyz
x,y,z
1/2-x,-y,1/2+z
x,-y,-z
1/2-x,y,1/2-z
-x,-y,-z
1/2+x,y,1/2-z
-x,y,z
1/2+x,-y,1/2+z
loop_
_atom_site_type_symbol
_atom_site_label
_atom_site_fract_x
_atom_site_fract_y
_atom_site_fract_z
Si Si1 0.685499 0.257906 0.909870
Si Si2 0.685545 0.051188 0.090595
Si Si3 0.314653 0.448126 0.910619
Si Si4 0.185158 0.145158 0.908760
Si Si5 0.814935 0.647687 0.910141
O O1 0.750000 0.269166 0.750000
O O2 0.500000 0.258195 0.905813
O O3 0.746175 0.200971 0.949112
O O4 0.747800 0.300531 0.018691
O O5 0.750000 0.045516 0.250000
O O6 0.500000 0.057016 0.093186
O O7 0.760029 0.100808 0.015377
O O8 0.723318 0.000000 0.000000
O O9 0.250000 0.452310 0.750000
O O10 0.500000 0.441126 0.905544
O O11 0.281158 0.500000 0.000000
O O12 0.239557 0.399960 0.992163
O O13 0.250000 0.133154 0.750000
O O14 0.000000 0.148274 0.903169
O O15 0.750000 0.641167 0.750000
O O16 0.000000 0.650029 0.906466
#
# Coordination Sequence:
#
# PCOD9419827 Si02
#       5
#     8   8   8   8   8
#     4  11  22  40  64  91 123 160 203 248 300 358
#     4  11  24  41  62  89 121 158 201 248 300 358
#     4  11  24  42  65  93 125 162 204 250 302 359
#     4  11  22  39  63  91 123 159 201 248 301 358
#     4  12  25  42  63  90 124 161 204 252 304 359
#
# _framework density 19.157817000000001
#
# number of rings (size 3 to 8) (size 9 to 14) (size 15 to 20)
#    0.000    0.800    0.000    9.600    0.000    7.200 
#    0.000    4.000    0.000    0.000    0.000    0.000 
#    0.000    0.000    0.000    0.000    0.000    0.000 
#
# Total GULP energy -223953.998740 kJ/mol
# GULP energy per Si atom -5598.849969 kJ/mol
# Density = 1.911421 g / cm^3
# Si number density = 19.157817 Si / 1000 Ang^3
#
#
#
# Elastic Constant Matrix: (Units=GPa)
#
#
# Indices 1 2 3 4 5 6 
#
# 1 181.5560 91.2604 95.3602 0.0000 0.0000 0.0000
# 2 91.2604 126.3975 118.2281 0.0000 0.0000 0.0000
# 3 95.3602 118.2281 174.5487 0.0000 0.0000 0.0000
# 4 0.0000 0.0000 0.0000 21.8650 0.0000 0.0000
# 5 0.0000 0.0000 0.0000 0.0000 38.0594 0.0000
# 6 0.0000 0.0000 0.0000 0.0000 0.0000 55.4442
#
#
#
# Elastic Compliance Matrix: (Units=1/GPa)
#
#
# Indices 1 2 3 4 5 6 
#
# 1 0.008764 -0.005046 -0.001370 0.000000 0.000000 0.000000
# 2 -0.005046 0.024496 -0.013835 0.000000 0.000000 0.000000
# 3 -0.001370 -0.013835 0.015848 0.000000 0.000000 0.000000
# 4 0.000000 0.000000 0.000000 0.045735 0.000000 0.000000
# 5 0.000000 0.000000 0.000000 0.000000 0.026275 0.000000
# 6 0.000000 0.000000 0.000000 0.000000 0.000000 0.018036
#
#
# Mechanical properties :
#
#
# Convention : Reuss Voigt Hill
#
# Bulk Modulus (GPa) = 116.20077 121.35550 118.77813
# Shear Modulus (GPa) = 27.39342 34.91728 31.15535
#
# Velocity S-wave (km/s) = 3.78548 4.27384 4.03705
# Velocity P-wave (km/s) = 8.93827 9.37214 9.15777
#
# Compressibility (1/GPa) = 0.00860580
#
# Stress axis : x y z
#
# Youngs Moduli (GPa) = 114.10215 40.82320 63.09769
#
# Poissons Ratio (x) = 0.20601 0.08644
# Poissons Ratio (y) = 0.57580 0.87296
# Poissons Ratio (z) = 0.15631 0.56479
#
# Static dielectric constant tensor:
#      x y z
#    x 1.639030 0.000000 0.000000 
#    y 0.000000 1.640690 0.000000 
#    z 0.000000 0.000000 1.632150 
# 
# From -- ./inp_files/6277.got.cif
#   From: 2010.05.17/outbox.cif.g08.bks.cpg/sg53_4_cif.got.tgz:6277.got - 2010.06.03 12:45:16.
