data_PCOD9419644
_publ_section_title
;
Structure prediction by ZEFSAII (Michael W. Deem and Ramdas Pophale) SiO2 
 PCOD9419644
Probable space group: P M N A
;
_chemical_formula_sum "Si O2"
_cell_formula_units_Z 32
_cell_length_a 21.839124
_cell_length_b 9.687546
_cell_length_c 6.749621
_cell_angle_alpha 90.000000
_cell_angle_beta 90.000000
_cell_angle_gamma 90.000000
_cell_volume 1428.000565
_symmetry_space_group_name_H-M "P M N A"
_symmetry_group_IT_number 53
_symmetry_cell_setting 'orthorhombic'
loop_
_space_group_symop_operation_xyz
x,y,z
1/2-x,-y,1/2+z
x,-y,-z
1/2-x,y,1/2-z
-x,-y,-z
1/2+x,y,1/2-z
-x,y,z
1/2+x,-y,1/2+z
loop_
_atom_site_type_symbol
_atom_site_label
_atom_site_fract_x
_atom_site_fract_y
_atom_site_fract_z
Si Si1 0.311486 0.604709 0.329852
Si Si2 0.933697 0.287601 0.169871
Si Si3 0.566309 0.395338 0.784761
Si Si4 0.809169 0.143226 0.109879
O O1 0.334773 0.500000 0.500000
O O2 0.250000 0.537688 0.250000
O O3 0.362997 0.634839 0.164182
O O4 0.294286 0.743973 0.441866
O O5 0.933786 0.437535 0.275440
O O6 0.872595 0.199641 0.208357
O O7 0.000000 0.219739 0.211185
O O8 0.934347 0.327201 0.935835
O O9 0.500000 0.352111 0.868747
O O10 0.750000 0.131196 0.250000
O O11 0.821864 0.000000 0.000000
#
# Coordination Sequence:
#
# PCOD9419644 Si02
#       4
#     8   8   8   8
#     4  11  20  32  53  79 104 135 169 207 249 302
#     4   8  14  27  49  75  98 124 167 212 245 285
#     4   8  13  26  49  76 101 125 161 212 249 280
#     4  11  22  36  52  74 105 136 169 211 258 301
#
# _framework density 22.408954999999999
#
# number of rings (size 3 to 8) (size 9 to 14) (size 15 to 20)
#    0.000    2.500    5.000    3.000    0.000    0.500 
#    0.000    0.000    0.000    3.000    0.000    0.000 
#    0.000    0.000    0.000    0.000    0.000    0.000 
#
# Total GULP energy -178163.575964 kJ/mol
# GULP energy per Si atom -5567.611749 kJ/mol
# Density = 2.235795 g / cm^3
# Si number density = 22.408955 Si / 1000 Ang^3
#
#
#
# Elastic Constant Matrix: (Units=GPa)
#
#
# Indices 1 2 3 4 5 6 
#
# 1 237.1396 14.5466 29.4156 0.0000 0.0000 0.0000
# 2 14.5466 83.5827 12.6927 0.0000 0.0000 0.0000
# 3 29.4156 12.6927 50.2916 0.0000 0.0000 0.0000
# 4 0.0000 0.0000 0.0000 23.0362 0.0000 0.0000
# 5 0.0000 0.0000 0.0000 0.0000 28.0977 0.0000
# 6 0.0000 0.0000 0.0000 0.0000 0.0000 23.1122
#
#
#
# Elastic Compliance Matrix: (Units=1/GPa)
#
#
# Indices 1 2 3 4 5 6 
#
# 1 0.004560 -0.000404 -0.002565 0.000000 0.000000 0.000000
# 2 -0.000404 0.012477 -0.002913 0.000000 0.000000 0.000000
# 3 -0.002565 -0.002913 0.022119 0.000000 0.000000 0.000000
# 4 0.000000 0.000000 0.000000 0.043410 0.000000 0.000000
# 5 0.000000 0.000000 0.000000 0.000000 0.035590 0.000000
# 6 0.000000 0.000000 0.000000 0.000000 0.000000 0.043267
#
#
# Mechanical properties :
#
#
# Convention : Reuss Voigt Hill
#
# Bulk Modulus (GPa) = 36.50613 53.81374 45.15994
# Shear Modulus (GPa) = 27.42463 35.80647 31.61555
#
# Velocity S-wave (km/s) = 3.50212 4.00167 3.76020
# Velocity P-wave (km/s) = 5.71658 6.73926 6.24888
#
# Compressibility (1/GPa) = 0.02739266
#
# Stress axis : x y z
#
# Youngs Moduli (GPa) = 219.30324 80.14859 45.20909
#
# Poissons Ratio (x) = 0.03239 0.11597
# Poissons Ratio (y) = 0.08861 0.13168
# Poissons Ratio (z) = 0.56254 0.23344
#
# Static dielectric constant tensor:
#      x y z
#    x 1.957730 0.000000 0.000000 
#    y 0.000000 1.803010 0.000000 
#    z 0.000000 0.000000 2.012010 
# 
# From -- ./inp_files/10471.got.cif
#   From: 2010.05.17/outbox.cif.g08.bks.cpg/sg53_6_cif.got.tgz:10471.got - 2010.06.03 12:45:16.
