data_PCOD9419498
_publ_section_title
;
Structure prediction by ZEFSAII (Michael W. Deem and Ramdas Pophale) SiO2 
 PCOD9419498
Probable space group: P M N A
;
_chemical_formula_sum "Si O2"
_cell_formula_units_Z 32
_cell_length_a 14.059931
_cell_length_b 12.940281
_cell_length_c 8.118002
_cell_angle_alpha 90.000000
_cell_angle_beta 90.000000
_cell_angle_gamma 90.000000
_cell_volume 1476.984884
_symmetry_space_group_name_H-M "P M N A"
_symmetry_group_IT_number 53
_symmetry_cell_setting 'orthorhombic'
loop_
_space_group_symop_operation_xyz
x,y,z
1/2-x,-y,1/2+z
x,-y,-z
1/2-x,y,1/2-z
-x,-y,-z
1/2+x,y,1/2-z
-x,y,z
1/2+x,-y,1/2+z
loop_
_atom_site_type_symbol
_atom_site_label
_atom_site_fract_x
_atom_site_fract_y
_atom_site_fract_z
Si Si1 0.108237 0.831400 0.817160
Si Si2 0.250000 0.699090 0.250000
Si Si3 0.396267 0.623022 0.484991
Si Si4 0.111251 0.146352 0.577570
Si Si5 0.259690 0.000000 0.500000
O O1 0.120560 0.835356 0.619444
O O2 0.177438 0.907268 0.921842
O O3 0.000000 0.865465 0.852037
O O4 0.115473 0.710867 0.872683
O O5 0.299073 0.634255 0.388722
O O6 0.338232 0.763199 0.176962
O O7 0.404309 0.500000 0.500000
O O8 0.500000 0.653365 0.409147
O O9 0.180885 0.051735 0.620818
O O10 0.000000 0.129463 0.614990
#
# Coordination Sequence:
#
# PCOD9419498 Si02
#       5
#     8   4   8   8   4
#     4  10  23  44  69  97 133 173 219 269 328 396
#     4  12  24  42  68  96 134 176 216 274 330 396
#     4  10  23  44  69  98 131 171 220 273 327 391
#     4  11  26  43  64  98 135 174 220 274 329 395
#     4  12  22  40  68  96 130 172 216 270 330 392
#
# _framework density 21.665759000000001
#
# number of rings (size 3 to 8) (size 9 to 14) (size 15 to 20)
#    0.000    1.250    2.500    2.250    3.500    2.000 
#    0.000    0.000    0.000    7.500    0.000    0.000 
#    0.000    0.000    0.000    0.000    0.000    0.000 
#
# Total GULP energy -178242.777922 kJ/mol
# GULP energy per Si atom -5570.086810 kJ/mol
# Density = 2.161645 g / cm^3
# Si number density = 21.665759 Si / 1000 Ang^3
#
#
#
# Elastic Constant Matrix: (Units=GPa)
#
#
# Indices 1 2 3 4 5 6 
#
# 1 191.6059 62.4363 47.5199 0.0000 0.0000 0.0000
# 2 62.4363 129.8026 33.2319 0.0000 0.0000 0.0000
# 3 47.5199 33.2319 42.5912 0.0000 0.0000 0.0000
# 4 0.0000 0.0000 0.0000 -6.8453 0.0000 0.0000
# 5 0.0000 0.0000 0.0000 0.0000 38.8383 0.0000
# 6 0.0000 0.0000 0.0000 0.0000 0.0000 32.8094
#
#
#
# Elastic Compliance Matrix: (Units=1/GPa)
#
#
# Indices 1 2 3 4 5 6 
#
# 1 0.007553 -0.001844 -0.006988 0.000000 0.000000 0.000000
# 2 -0.001844 0.010077 -0.005806 0.000000 0.000000 0.000000
# 3 -0.006988 -0.005806 0.035806 0.000000 0.000000 0.000000
# 4 0.000000 0.000000 0.000000 -0.146086 0.000000 0.000000
# 5 0.000000 0.000000 0.000000 0.000000 0.025748 0.000000
# 6 0.000000 0.000000 0.000000 0.000000 0.000000 0.030479
#
#
# Mechanical properties :
#
#
# Convention : Reuss Voigt Hill
#
# Bulk Modulus (GPa) = 41.38973 72.26400 56.82687
# Shear Modulus (GPa) = 5516.17990 27.68125 2771.93058
#
# Velocity S-wave (km/s) = 50.51300 3.57830 35.80759
# Velocity P-wave (km/s) = 58.49127 7.10625 41.66370
#
# Compressibility (1/GPa) = 0.02416058
#
# Stress axis : x y z
#
# Youngs Moduli (GPa) = 132.39617 99.23312 27.92835
#
# Poissons Ratio (x) = 0.18298 0.19517
# Poissons Ratio (y) = 0.24413 0.16214
# Poissons Ratio (z) = 0.92524 0.57610
#
# Static dielectric constant tensor:
#      x y z
#    x 1.854530 0.000000 0.000000 
#    y 0.000000 1.836660 0.000000 
#    z 0.000000 0.000000 1.861880 
# 
# From -- ./inp_files/8098.got.cif
#   From: 2010.05.17/outbox.cif.g08.bks.cpg/sg53_5_cif.got.tgz:8098.got - 2010.06.03 12:45:16.
