data_PCOD9419034
_publ_section_title
;
Structure prediction by ZEFSAII (Michael W. Deem and Ramdas Pophale) SiO2 
 PCOD9419034
Probable space group: P M N A
;
_chemical_formula_sum "Si O2"
_cell_formula_units_Z 32
_cell_length_a 14.285368
_cell_length_b 17.927408
_cell_length_c 5.669142
_cell_angle_alpha 90.000000
_cell_angle_beta 90.000000
_cell_angle_gamma 90.000000
_cell_volume 1451.865115
_symmetry_space_group_name_H-M "P M N A"
_symmetry_group_IT_number 53
_symmetry_cell_setting 'orthorhombic'
loop_
_space_group_symop_operation_xyz
x,y,z
1/2-x,-y,1/2+z
x,-y,-z
1/2-x,y,1/2-z
-x,-y,-z
1/2+x,y,1/2-z
-x,y,z
1/2+x,-y,1/2+z
loop_
_atom_site_type_symbol
_atom_site_label
_atom_site_fract_x
_atom_site_fract_y
_atom_site_fract_z
Si Si1 0.750000 0.741066 0.750000
Si Si2 0.147048 0.190164 0.639327
Si Si3 0.250000 0.544008 0.250000
Si Si4 0.894568 0.025064 0.747611
Si Si5 0.106134 0.662495 0.099671
O O1 0.827405 0.795368 0.631682
O O2 0.685165 0.687812 0.589742
O O3 0.250000 0.187642 0.750000
O O4 0.101262 0.114055 0.720303
O O5 0.100477 0.264953 0.733560
O O6 0.247894 0.500000 0.500000
O O7 0.156610 0.595201 0.235769
O O8 0.000000 0.992339 0.746803
O O9 0.849561 0.000000 0.500000
O O10 0.854450 0.000000 0.000000
O O11 0.000000 0.645730 0.015532
#
# Coordination Sequence:
#
# PCOD9419034 Si02
#       5
#     4   8   4   8   8
#     4  10  21  44  68 107 140 180 248 316 349 430
#     4  10  22  40  67  95 133 182 238 300 352 425
#     4  12  27  50  74 107 156 186 234 304 357 448
#     4  10  23  40  59  92 136 179 232 293 352 417
#     4  11  24  45  74 104 141 191 241 297 368 433
#
# _framework density 22.040614999999999
#
# number of rings (size 3 to 8) (size 9 to 14) (size 15 to 20)
#    0.000    1.500    3.750    1.500    7.000    4.000 
#    0.000    0.000    0.000    0.000    0.000    0.000 
#    0.000    0.000    0.000    0.000    0.000    0.000 
#
# Total GULP energy -178262.954630 kJ/mol
# GULP energy per Si atom -5570.717332 kJ/mol
# Density = 2.199045 g / cm^3
# Si number density = 22.040615 Si / 1000 Ang^3
#
#
#
# Elastic Constant Matrix: (Units=GPa)
#
#
# Indices 1 2 3 4 5 6 
#
# 1 143.3198 29.9088 33.6788 0.0000 0.0000 0.0000
# 2 29.9088 135.4245 68.0023 0.0000 0.0000 0.0000
# 3 33.6788 68.0023 149.7267 0.0000 0.0000 0.0000
# 4 0.0000 0.0000 0.0000 27.3843 0.0000 0.0000
# 5 0.0000 0.0000 0.0000 0.0000 -0.2764 0.0000
# 6 0.0000 0.0000 0.0000 0.0000 0.0000 19.2745
#
#
#
# Elastic Compliance Matrix: (Units=1/GPa)
#
#
# Indices 1 2 3 4 5 6 
#
# 1 0.007479 -0.001045 -0.001208 0.000000 0.000000 0.000000
# 2 -0.001045 0.009712 -0.004176 0.000000 0.000000 0.000000
# 3 -0.001208 -0.004176 0.008847 0.000000 0.000000 0.000000
# 4 0.000000 0.000000 0.000000 0.036517 0.000000 0.000000
# 5 0.000000 0.000000 0.000000 0.000000 -3.617629 0.000000
# 6 0.000000 0.000000 0.000000 0.000000 0.000000 0.051882
#
#
# Mechanical properties :
#
#
# Convention : Reuss Voigt Hill
#
# Bulk Modulus (GPa) = 75.86853 76.85010 76.35932
# Shear Modulus (GPa) = -1.43433 29.06855 13.81711
#
# Velocity S-wave (km/s) = -0.80758 3.63555 2.50650
# Velocity P-wave (km/s) = 5.79891 7.25026 6.56481
#
# Compressibility (1/GPa) = 0.01318070
#
# Stress axis : x y z
#
# Youngs Moduli (GPa) = 133.70171 102.96637 113.03293
#
# Poissons Ratio (x) = 0.10765 0.13649
# Poissons Ratio (y) = 0.13978 0.47200
# Poissons Ratio (z) = 0.16145 0.42996
#
# Static dielectric constant tensor:
#      x y z
#    x 1.851940 0.000000 0.000000 
#    y 0.000000 1.810860 0.000000 
#    z 0.000000 0.000000 2.115620 
# 
# From -- ./inp_files/1224.got.cif
#   From: 2010.05.17/outbox.cif.g08.bks.cpg/sg53_1_cif.got.tgz:1224.got - 2010.06.03 12:45:16.
