data_PCOD9419312
_publ_section_title
;
Structure prediction by ZEFSAII (Michael W. Deem and Ramdas Pophale) SiO2 
 PCOD9419312
Probable space group: P M N A
;
_chemical_formula_sum "Si O2"
_cell_formula_units_Z 32
_cell_length_a 12.229175
_cell_length_b 18.943546
_cell_length_c 5.548673
_cell_angle_alpha 90.000000
_cell_angle_beta 90.000000
_cell_angle_gamma 90.000000
_cell_volume 1285.427444
_symmetry_space_group_name_H-M "P M N A"
_symmetry_group_IT_number 53
_symmetry_cell_setting 'orthorhombic'
loop_
_space_group_symop_operation_xyz
x,y,z
1/2-x,-y,1/2+z
x,-y,-z
1/2-x,y,1/2-z
-x,-y,-z
1/2+x,y,1/2-z
-x,y,z
1/2+x,-y,1/2+z
loop_
_atom_site_type_symbol
_atom_site_label
_atom_site_fract_x
_atom_site_fract_y
_atom_site_fract_z
Si Si1 0.000000 0.303398 0.016288
Si Si2 0.500000 0.213129 0.982807
Si Si3 0.817233 0.421162 0.000276
Si Si4 0.259553 0.205231 0.005556
Si Si5 0.871433 0.075494 0.873136
O O1 0.000000 0.261010 0.271921
O O2 0.899126 0.356372 0.005341
O O3 0.000000 0.256309 0.770812
O O4 0.382572 0.174289 0.989856
O O5 0.750000 0.418403 0.250000
O O6 0.868703 0.500000 0.000000
O O7 0.750000 0.416739 0.750000
O O8 0.250000 0.242730 0.750000
O O9 0.164925 0.145897 0.020331
O O10 0.250000 0.247631 0.250000
O O11 0.750000 0.067231 0.750000
O O12 0.000000 0.085114 0.791036
O O13 0.879256 0.000000 0.000000
#
# Coordination Sequence:
#
# PCOD9419312 Si02
#       5
#     4   4   8   8   8
#     4  12  25  44  72 100 141 186 244 296 348 430
#     4  12  28  44  66 102 136 200 246 296 352 430
#     4  10  22  41  69 104 142 181 230 296 366 426
#     4  11  26  45  72  96 144 184 239 301 360 433
#     4  10  23  43  73 110 144 187 241 309 382 450
#
# _framework density 24.894445000000001
#
# number of rings (size 3 to 8) (size 9 to 14) (size 15 to 20)
#    0.000    1.250    0.000    4.125    8.750    6.500 
#    0.000    5.000    0.000    0.000    0.000    0.000 
#    0.000    0.000    0.000    0.000    0.000    0.000 
#
# Total GULP energy -178150.626240 kJ/mol
# GULP energy per Si atom -5567.207070 kJ/mol
# Density = 2.483778 g / cm^3
# Si number density = 24.894445 Si / 1000 Ang^3
#
#
#
# Elastic Constant Matrix: (Units=GPa)
#
#
# Indices 1 2 3 4 5 6 
#
# 1 236.9966 60.8175 70.0878 0.0000 0.0000 0.0000
# 2 60.8175 97.7824 42.6752 0.0000 0.0000 0.0000
# 3 70.0878 42.6752 226.9311 0.0000 0.0000 0.0000
# 4 0.0000 0.0000 0.0000 30.0208 0.0000 0.0000
# 5 0.0000 0.0000 0.0000 0.0000 70.4630 0.0000
# 6 0.0000 0.0000 0.0000 0.0000 0.0000 53.0482
#
#
#
# Elastic Compliance Matrix: (Units=1/GPa)
#
#
# Indices 1 2 3 4 5 6 
#
# 1 0.005261 -0.002792 -0.001100 0.000000 0.000000 0.000000
# 2 -0.002792 0.012623 -0.001511 0.000000 0.000000 0.000000
# 3 -0.001100 -0.001511 0.005031 0.000000 0.000000 0.000000
# 4 0.000000 0.000000 0.000000 0.033310 0.000000 0.000000
# 5 0.000000 0.000000 0.000000 0.000000 0.014192 0.000000
# 6 0.000000 0.000000 0.000000 0.000000 0.000000 0.018851
#
#
# Mechanical properties :
#
#
# Convention : Reuss Voigt Hill
#
# Bulk Modulus (GPa) = 82.59147 100.98567 91.78857
# Shear Modulus (GPa) = 48.02567 56.58171 52.30369
#
# Velocity S-wave (km/s) = 4.39700 4.77263 4.58866
# Velocity P-wave (km/s) = 7.68289 8.42759 8.06384
#
# Compressibility (1/GPa) = 0.01210779
#
# Stress axis : x y z
#
# Youngs Moduli (GPa) = 190.06715 79.21939 198.78591
#
# Poissons Ratio (x) = 0.22121 0.21863
# Poissons Ratio (y) = 0.53074 0.30045
# Poissons Ratio (z) = 0.20904 0.11973
#
# Static dielectric constant tensor:
#      x y z
#    x 2.038050 0.000000 0.000000 
#    y 0.000000 1.977410 0.000000 
#    z 0.000000 0.000000 2.054380 
# 
# From -- ./inp_files/624.got.cif
#   From: 2010.05.17/outbox.cif.g08.bks.cpg/sg53_1_cif.got.tgz:624.got - 2010.06.03 12:45:16.
