data_PCOD9419930
_publ_section_title
;
Structure prediction by ZEFSAII (Michael W. Deem and Ramdas Pophale) SiO2 
 PCOD9419930
Probable space group: P M N A
;
_chemical_formula_sum "Si O2"
_cell_formula_units_Z 24
_cell_length_a 17.450294
_cell_length_b 4.871410
_cell_length_c 12.673532
_cell_angle_alpha 90.000000
_cell_angle_beta 90.000000
_cell_angle_gamma 90.000000
_cell_volume 1077.345737
_symmetry_space_group_name_H-M "P M N A"
_symmetry_group_IT_number 53
_symmetry_cell_setting 'orthorhombic'
loop_
_space_group_symop_operation_xyz
x,y,z
1/2-x,-y,1/2+z
x,-y,-z
1/2-x,y,1/2-z
-x,-y,-z
1/2+x,y,1/2-z
-x,y,z
1/2+x,-y,1/2+z
loop_
_atom_site_type_symbol
_atom_site_label
_atom_site_fract_x
_atom_site_fract_y
_atom_site_fract_z
Si Si1 0.809348 0.750056 0.572793
Si Si2 0.145223 0.049524 0.123566
Si Si3 0.087480 0.530989 0.250357
O O1 0.780868 0.500000 0.500000
O O2 0.734586 0.131659 0.369931
O O3 0.869146 0.609643 0.651485
O O4 0.840411 0.000000 0.500000
O O5 0.128328 0.796049 0.200836
O O6 0.093311 0.299965 0.160928
O O7 0.130738 0.000000 0.000000
O O8 0.000000 0.598078 0.277137
#
# Coordination Sequence:
#
# PCOD9419930 Si02
#       3
#     8   8   8
#     4  11  24  44  70  98 132 178 231 282 330 395
#     4  11  24  43  66  96 134 176 225 275 329 399
#     4  12  26  43  68 101 137 175 217 277 344 401
#
# _framework density 22.276972000000001
#
# number of rings (size 3 to 8) (size 9 to 14) (size 15 to 20)
#    0.000    0.667    0.000    9.000    0.000   10.667 
#    0.000    0.000    0.000    0.000    0.000    0.000 
#    0.000    0.000    0.000    0.000    0.000    0.000 
#
# Total GULP energy -134363.204880 kJ/mol
# GULP energy per Si atom -5598.466870 kJ/mol
# Density = 2.222627 g / cm^3
# Si number density = 22.276972 Si / 1000 Ang^3
#
#
#
# Elastic Constant Matrix: (Units=GPa)
#
#
# Indices 1 2 3 4 5 6 
#
# 1 161.9328 68.9523 83.6610 0.0000 0.0000 0.0000
# 2 68.9523 171.8002 61.9127 0.0000 0.0000 0.0000
# 3 83.6610 61.9127 91.4821 0.0000 0.0000 0.0000
# 4 0.0000 0.0000 0.0000 51.0314 0.0000 0.0000
# 5 0.0000 0.0000 0.0000 0.0000 -74.0771 0.0000
# 6 0.0000 0.0000 0.0000 0.0000 0.0000 55.4737
#
#
#
# Elastic Compliance Matrix: (Units=1/GPa)
#
#
# Indices 1 2 3 4 5 6 
#
# 1 0.011869 -0.001127 -0.010092 0.000000 0.000000 0.000000
# 2 -0.001127 0.007805 -0.004252 0.000000 0.000000 0.000000
# 3 -0.010092 -0.004252 0.023037 0.000000 0.000000 0.000000
# 4 0.000000 0.000000 0.000000 0.019596 0.000000 0.000000
# 5 0.000000 0.000000 0.000000 0.000000 -0.013499 0.000000
# 6 0.000000 0.000000 0.000000 0.000000 0.000000 0.018027
#
#
# Mechanical properties :
#
#
# Convention : Reuss Voigt Hill
#
# Bulk Modulus (GPa) = 84.95435 94.91855 89.93645
# Shear Modulus (GPa) = 49.16472 20.53152 34.84812
#
# Velocity S-wave (km/s) = 4.70294 3.03916 3.95943
# Velocity P-wave (km/s) = 8.22852 7.41729 7.83341
#
# Compressibility (1/GPa) = 0.01177103
#
# Stress axis : x y z
#
# Youngs Moduli (GPa) = 84.25343 128.11882 43.40752
#
# Poissons Ratio (x) = 0.14437 0.43805
# Poissons Ratio (y) = 0.09494 0.18456
# Poissons Ratio (z) = 0.85025 0.54475
#
# Static dielectric constant tensor:
#      x y z
#    x 1.835580 0.000000 0.000000 
#    y 0.000000 1.817710 0.000000 
#    z 0.000000 0.000000 1.857620 
# 
# From -- ./inp_files/16342.got.cif
#   From: 2010.05.17/outbox.cif.g08.bks.cpg/sg53_9_cif.got.tgz:16342.got - 2010.06.03 12:45:16.
