data_PCOD9419077
_publ_section_title
;
Structure prediction by ZEFSAII (Michael W. Deem and Ramdas Pophale) SiO2 
 PCOD9419077
Probable space group: P M N A
;
_chemical_formula_sum "Si O2"
_cell_formula_units_Z 64
_cell_length_a 18.153094
_cell_length_b 10.961312
_cell_length_c 15.004630
_cell_angle_alpha 90.000000
_cell_angle_beta 90.000000
_cell_angle_gamma 90.000000
_cell_volume 2985.647192
_symmetry_space_group_name_H-M "P M N A"
_symmetry_group_IT_number 53
_symmetry_cell_setting 'orthorhombic'
loop_
_space_group_symop_operation_xyz
x,y,z
1/2-x,-y,1/2+z
x,-y,-z
1/2-x,y,1/2-z
-x,-y,-z
1/2+x,y,1/2-z
-x,y,z
1/2+x,-y,1/2+z
loop_
_atom_site_type_symbol
_atom_site_label
_atom_site_fract_x
_atom_site_fract_y
_atom_site_fract_z
Si Si1 0.261119 0.865512 0.460352
Si Si2 0.298961 0.666670 0.913165
Si Si3 0.172613 0.458219 0.704029
Si Si4 0.585378 0.747303 0.280083
Si Si5 0.141116 0.323358 0.164529
Si Si6 0.085286 0.250657 0.980399
Si Si7 0.681825 0.952634 0.206414
Si Si8 0.085984 0.828248 0.680086
O O1 0.225359 0.742064 0.500713
O O2 0.348549 0.847996 0.477733
O O3 0.227023 0.870367 0.362353
O O4 0.242183 0.000000 0.500000
O O5 0.311111 0.523573 0.890768
O O6 0.228131 0.696648 0.850577
O O7 0.373312 0.729895 0.880651
O O8 0.250000 0.422135 0.750000
O O9 0.117618 0.346128 0.708261
O O10 0.137520 0.560074 0.770782
O O11 0.500000 0.773633 0.264697
O O12 0.592301 0.693750 0.380671
O O13 0.632945 0.869819 0.271050
O O14 0.104142 0.212511 0.218251
O O15 0.104430 0.332983 0.066773
O O16 0.000000 0.208571 0.988288
O O17 0.750000 0.025680 0.250000
O O18 0.625917 0.044947 0.161512
O O19 0.000000 0.833037 0.666275
#
# Coordination Sequence:
#
# PCOD9419077 Si02
#       8
#     8   8   8   8   8   8   8   8
#     4  11  22  40  65  90 120 162 205 252 305 363
#     4   9  19  39  61  89 117 153 208 252 295 360
#     4   9  19  37  63  87 115 160 208 249 291 351
#     4  11  24  40  59  87 125 161 200 249 309 369
#     4   9  19  37  61  88 124 162 203 249 300 362
#     4  10  22  37  55  91 131 160 196 244 303 374
#     4  12  23  40  60  84 118 165 204 247 302 379
#     4  11  21  34  57  88 120 157 202 257 312 356
#
# _framework density 21.435887999999998
#
# number of rings (size 3 to 8) (size 9 to 14) (size 15 to 20)
#    0.000    1.750    2.500    3.000    1.750    3.250 
#    0.000    3.750    0.000    0.750    0.000    0.000 
#    0.000    0.000    0.000    0.000    0.000    0.000 
#
# Total GULP energy -356539.815806 kJ/mol
# GULP energy per Si atom -5570.934622 kJ/mol
# Density = 2.138710 g / cm^3
# Si number density = 21.435888 Si / 1000 Ang^3
#
#
#
# Elastic Constant Matrix: (Units=GPa)
#
#
# Indices 1 2 3 4 5 6 
#
# 1 161.5390 27.0549 11.7991 0.0000 0.0000 0.0000
# 2 27.0549 40.3930 -13.1016 0.0000 0.0000 0.0000
# 3 11.7991 -13.1016 22.8676 0.0000 0.0000 0.0000
# 4 0.0000 0.0000 0.0000 11.5937 0.0000 0.0000
# 5 0.0000 0.0000 0.0000 0.0000 22.9360 0.0000
# 6 0.0000 0.0000 0.0000 0.0000 0.0000 10.8043
#
#
#
# Elastic Compliance Matrix: (Units=1/GPa)
#
#
# Indices 1 2 3 4 5 6 
#
# 1 0.008286 -0.008520 -0.009157 0.000000 0.000000 0.000000
# 2 -0.008520 0.039168 0.026837 0.000000 0.000000 0.000000
# 3 -0.009157 0.026837 0.063831 0.000000 0.000000 0.000000
# 4 0.000000 0.000000 0.000000 0.086254 0.000000 0.000000
# 5 0.000000 0.000000 0.000000 0.000000 0.043600 0.000000
# 6 0.000000 0.000000 0.000000 0.000000 0.000000 0.092556
#
#
# Mechanical properties :
#
#
# Convention : Reuss Voigt Hill
#
# Bulk Modulus (GPa) = 7.71575 30.70047 19.20811
# Shear Modulus (GPa) = 13.94403 22.33661 18.14032
#
# Velocity S-wave (km/s) = 2.55326 3.23153 2.91221
# Velocity P-wave (km/s) = 3.50705 5.31760 4.50423
#
# Compressibility (1/GPa) = 0.12960499
#
# Stress axis : x y z
#
# Youngs Moduli (GPa) = 120.68143 25.53088 15.66643
#
# Poissons Ratio (x) = 0.21753 0.14346
# Poissons Ratio (y) = 1.02823 -0.42044
# Poissons Ratio (z) = 1.10508 -0.68517
#
# Static dielectric constant tensor:
#      x y z
#    x 1.733530 0.000000 0.000000 
#    y 0.000000 1.825080 0.000000 
#    z 0.000000 0.000000 1.853630 
# 
# From -- ./inp_files/23896.got.cif
#   From: 2010.05.17/outbox.cif.g08.bks.cpg/sg53_12_cif.got.tgz:23896.got - 2010.06.03 12:45:16.
