data_PCOD9419422
_publ_section_title
;
Structure prediction by ZEFSAII (Michael W. Deem and Ramdas Pophale) SiO2 
 PCOD9419422
Probable space group: P M N A
;
_chemical_formula_sum "Si O2"
_cell_formula_units_Z 32
_cell_length_a 13.856906
_cell_length_b 5.013383
_cell_length_c 19.320505
_cell_angle_alpha 90.000000
_cell_angle_beta 90.000000
_cell_angle_gamma 90.000000
_cell_volume 1342.195037
_symmetry_space_group_name_H-M "P M N A"
_symmetry_group_IT_number 53
_symmetry_cell_setting 'orthorhombic'
loop_
_space_group_symop_operation_xyz
x,y,z
1/2-x,-y,1/2+z
x,-y,-z
1/2-x,y,1/2-z
-x,-y,-z
1/2+x,y,1/2-z
-x,y,z
1/2+x,-y,1/2+z
loop_
_atom_site_type_symbol
_atom_site_label
_atom_site_fract_x
_atom_site_fract_y
_atom_site_fract_z
Si Si1 0.891561 0.803427 0.564822
Si Si2 0.392513 0.817663 0.200007
Si Si3 0.888170 0.963237 0.855000
Si Si4 0.234713 0.449609 0.878158
O O1 0.809604 0.582224 0.569222
O O2 0.000000 0.688906 0.561692
O O3 0.879952 0.000000 0.500000
O O4 0.886429 0.975299 0.636046
O O5 0.500000 0.694416 0.198610
O O6 0.381446 0.954727 0.274161
O O7 0.307265 0.613501 0.185063
O O8 0.821366 0.176870 0.895079
O O9 0.000000 0.977682 0.875696
O O10 0.845504 0.669979 0.862699
#
# Coordination Sequence:
#
# PCOD9419422 Si02
#       4
#     8   8   8   8
#     4  10  23  43  67 100 139 175 215 266 329 404
#     4  10  23  40  64 101 135 169 212 268 333 398
#     4  11  26  42  65  98 137 172 219 276 328 385
#     4  12  23  42  68  96 133 174 221 264 335 391
#
# _framework density 23.841540999999999
#
# number of rings (size 3 to 8) (size 9 to 14) (size 15 to 20)
#    0.000    1.250    2.500    2.250    7.000    1.000 
#    0.000    3.750    0.000    4.500    0.000    0.000 
#    0.000    0.000    0.000    0.000    0.000    0.000 
#
# Total GULP energy -179245.248926 kJ/mol
# GULP energy per Si atom -5601.414029 kJ/mol
# Density = 2.378728 g / cm^3
# Si number density = 23.841541 Si / 1000 Ang^3
#
#
#
# Elastic Constant Matrix: (Units=GPa)
#
#
# Indices 1 2 3 4 5 6 
#
# 1 181.1350 43.6692 10.4423 0.0000 0.0000 0.0000
# 2 43.6692 82.8542 0.1118 0.0000 0.0000 0.0000
# 3 10.4423 0.1118 63.8733 0.0000 0.0000 0.0000
# 4 0.0000 0.0000 0.0000 28.9315 0.0000 0.0000
# 5 0.0000 0.0000 0.0000 0.0000 1.5095 0.0000
# 6 0.0000 0.0000 0.0000 0.0000 0.0000 -50.8789
#
#
#
# Elastic Compliance Matrix: (Units=1/GPa)
#
#
# Indices 1 2 3 4 5 6 
#
# 1 0.006393 -0.003368 -0.001039 0.000000 0.000000 0.000000
# 2 -0.003368 0.013844 0.000526 0.000000 0.000000 0.000000
# 3 -0.001039 0.000526 0.015825 0.000000 0.000000 0.000000
# 4 0.000000 0.000000 0.000000 0.034564 0.000000 0.000000
# 5 0.000000 0.000000 0.000000 0.000000 0.662450 0.000000
# 6 0.000000 0.000000 0.000000 0.000000 0.000000 -0.019655
#
#
# Mechanical properties :
#
#
# Convention : Reuss Voigt Hill
#
# Bulk Modulus (GPa) = 35.33581 48.47880 41.90731
# Shear Modulus (GPa) = 6.84354 14.15505 10.49930
#
# Velocity S-wave (km/s) = 1.69607 2.43927 2.10080
# Velocity P-wave (km/s) = 4.32306 5.32083 4.84768
#
# Compressibility (1/GPa) = 0.02829990
#
# Stress axis : x y z
#
# Youngs Moduli (GPa) = 156.43068 72.23470 63.19127
#
# Poissons Ratio (x) = 0.24328 0.06567
# Poissons Ratio (y) = 0.52684 -0.03326
# Poissons Ratio (z) = 0.16256 -0.03802
#
# Static dielectric constant tensor:
#      x y z
#    x 1.899080 0.000000 0.000000 
#    y 0.000000 1.918710 0.000000 
#    z 0.000000 0.000000 1.920400 
# 
# From -- ./inp_files/32105.got.cif
#   From: 2010.05.17/outbox.cif.g08.bks.cpg/sg53_17_cif.got.tgz:32105.got - 2010.06.03 12:45:16.
