data_PCOD9419838
_publ_section_title
;
Structure prediction by ZEFSAII (Michael W. Deem and Ramdas Pophale) SiO2 
 PCOD9419838
Probable space group: P M N A
;
_chemical_formula_sum "Si O2"
_cell_formula_units_Z 48
_cell_length_a 14.836486
_cell_length_b 13.151898
_cell_length_c 12.219569
_cell_angle_alpha 90.000000
_cell_angle_beta 90.000000
_cell_angle_gamma 90.000000
_cell_volume 2384.379456
_symmetry_space_group_name_H-M "P M N A"
_symmetry_group_IT_number 53
_symmetry_cell_setting 'orthorhombic'
loop_
_space_group_symop_operation_xyz
x,y,z
1/2-x,-y,1/2+z
x,-y,-z
1/2-x,y,1/2-z
-x,-y,-z
1/2+x,y,1/2-z
-x,y,z
1/2+x,-y,1/2+z
loop_
_atom_site_type_symbol
_atom_site_label
_atom_site_fract_x
_atom_site_fract_y
_atom_site_fract_z
Si Si1 0.331295 0.772166 0.828749
Si Si2 0.145526 0.250547 0.734636
Si Si3 0.500000 0.393778 0.869168
Si Si4 0.000000 0.630900 0.632428
Si Si5 0.605145 0.136864 0.560892
Si Si6 0.891432 0.882712 0.468845
Si Si7 0.108159 0.931384 0.834254
O O1 0.250000 0.735365 0.750000
O O2 0.412917 0.691608 0.824062
O O3 0.355743 0.880653 0.773725
O O4 0.332455 0.805536 0.956573
O O5 0.250000 0.271600 0.750000
O O6 0.113164 0.228902 0.857580
O O7 0.127664 0.152166 0.655925
O O8 0.087318 0.338532 0.680181
O O9 0.500000 0.512054 0.838997
O O10 0.500000 0.373393 0.999534
O O11 0.500000 0.111411 0.550498
O O12 0.633354 0.143268 0.435427
O O13 0.645534 0.039027 0.623686
O O14 0.000000 0.868271 0.488607
O O15 0.871929 0.000000 0.500000
O O16 0.000000 0.937861 0.819355
#
# Coordination Sequence:
#
# PCOD9419838 Si02
#       7
#     8   8   4   4   8   8   8
#     4  12  23  38  64  93 127 165 211 265 320 377
#     4  12  23  38  64  93 127 165 211 265 320 377
#     4  11  24  48  73  90 117 159 220 282 334 380
#     4  11  24  48  73  90 117 159 220 282 334 380
#     4   9  18  33  54  83 122 169 205 234 290 370
#     4  11  22  40  64  95 134 177 221 260 303 369
#     4   9  18  33  54  83 122 169 205 234 290 370
#
# _framework density 20.131024
#
# number of rings (size 3 to 8) (size 9 to 14) (size 15 to 20)
#    0.000    1.333    5.000    2.000    2.333    6.000 
#    0.000    0.000    0.000    2.000    0.000    0.000 
#    0.000    0.000    0.000    0.000    0.000    0.000 
#
# Total GULP energy -267666.899649 kJ/mol
# GULP energy per Si atom -5576.393743 kJ/mol
# Density = 2.008520 g / cm^3
# Si number density = 20.131024 Si / 1000 Ang^3
#
#
#
# Elastic Constant Matrix: (Units=GPa)
#
#
# Indices 1 2 3 4 5 6 
#
# 1 104.8038 17.9510 -7.1329 0.0000 0.0000 0.0000
# 2 17.9510 69.9213 -11.2680 0.0000 0.0000 0.0000
# 3 -7.1329 -11.2680 65.0735 0.0000 0.0000 0.0000
# 4 0.0000 0.0000 0.0000 24.5558 0.0000 0.0000
# 5 0.0000 0.0000 0.0000 0.0000 -39.2860 0.0000
# 6 0.0000 0.0000 0.0000 0.0000 0.0000 257.7509
#
#
#
# Elastic Compliance Matrix: (Units=1/GPa)
#
#
# Indices 1 2 3 4 5 6 
#
# 1 0.010009 -0.002461 0.000671 0.000000 0.000000 0.000000
# 2 -0.002461 0.015318 0.002383 0.000000 0.000000 0.000000
# 3 0.000671 0.002383 0.015853 0.000000 0.000000 0.000000
# 4 0.000000 0.000000 0.000000 0.040724 0.000000 0.000000
# 5 0.000000 0.000000 0.000000 0.000000 -0.025454 0.000000
# 6 0.000000 0.000000 0.000000 0.000000 0.000000 0.003880
#
#
# Mechanical properties :
#
#
# Convention : Reuss Voigt Hill
#
# Bulk Modulus (GPa) = 23.60503 26.54433 25.07468
# Shear Modulus (GPa) = 68.24423 64.62071 66.43247
#
# Velocity S-wave (km/s) = 5.82869 5.67184 5.75080
# Velocity P-wave (km/s) = 7.55310 7.49049 7.52186
#
# Compressibility (1/GPa) = 0.04236385
#
# Stress axis : x y z
#
# Youngs Moduli (GPa) = 99.91096 65.28400 63.07820
#
# Poissons Ratio (x) = 0.16070 -0.04232
# Poissons Ratio (y) = 0.24593 -0.15029
# Poissons Ratio (z) = -0.06703 -0.15554
#
# Static dielectric constant tensor:
#      x y z
#    x 1.795570 0.000000 0.000000 
#    y 0.000000 1.701720 0.000000 
#    z 0.000000 0.000000 1.737820 
# 
# From -- ./inp_files/15982.got.cif
#   From: 2010.05.17/outbox.cif.g08.bks.cpg/sg53_8_cif.got.tgz:15982.got - 2010.06.03 12:45:16.
