data_PCOD9419988
_publ_section_title
;
Structure prediction by ZEFSAII (Michael W. Deem and Ramdas Pophale) SiO2 
 PCOD9419988
Probable space group: P M N A
;
_chemical_formula_sum "Si O2"
_cell_formula_units_Z 40
_cell_length_a 20.314983
_cell_length_b 9.327293
_cell_length_c 11.213315
_cell_angle_alpha 90.000000
_cell_angle_beta 90.000000
_cell_angle_gamma 90.000000
_cell_volume 2124.741523
_symmetry_space_group_name_H-M "P M N A"
_symmetry_group_IT_number 53
_symmetry_cell_setting 'orthorhombic'
loop_
_space_group_symop_operation_xyz
x,y,z
1/2-x,-y,1/2+z
x,-y,-z
1/2-x,y,1/2-z
-x,-y,-z
1/2+x,y,1/2-z
-x,y,z
1/2+x,-y,1/2+z
loop_
_atom_site_type_symbol
_atom_site_label
_atom_site_fract_x
_atom_site_fract_y
_atom_site_fract_z
Si Si1 0.684214 0.000000 0.500000
Si Si2 0.750000 0.509725 0.750000
Si Si3 0.722030 0.244001 0.078084
Si Si4 0.642837 0.298584 0.851712
Si Si5 0.000000 0.649426 0.435646
Si Si6 0.000000 0.098231 0.382860
Si Si7 0.637462 0.975435 0.764091
O O1 0.729889 0.858203 0.502213
O O2 0.644391 0.983722 0.622138
O O3 0.743215 0.620903 0.640078
O O4 0.687251 0.408462 0.775798
O O5 0.686875 0.139584 0.174948
O O6 0.667857 0.304755 0.987926
O O7 0.565229 0.328434 0.856593
O O8 0.653134 0.134716 0.810942
O O9 0.000000 0.500000 0.500000
O O10 0.000000 0.751561 0.551245
O O11 0.065047 0.067633 0.307493
O O12 0.000000 0.000000 0.500000
#
# Coordination Sequence:
#
# PCOD9419988 Si02
#       7
#     4   4   8   8   4   4   8
#     4  12  24  37  66  95 134 174 224 278 338 398
#     4  12  26  38  62 100 144 172 220 282 360 414
#     4  12  22  42  65  95 132 178 230 279 338 409
#     4  12  24  42  67 101 135 181 221 284 345 405
#     4  12  24  40  68 102 136 167 225 284 342 400
#     4  12  22  45  72  97 126 172 230 279 327 410
#     4  12  23  42  69  96 133 177 230 281 333 406
#
# _framework density 18.82582
#
# number of rings (size 3 to 8) (size 9 to 14) (size 15 to 20)
#    0.000    0.000    8.000    3.000    0.000    0.400 
#    0.000    0.000    0.000    0.000    0.000    7.000 
#    0.000    0.000    0.000    0.000    0.000    0.000 
#
# Total GULP energy -223516.813142 kJ/mol
# GULP energy per Si atom -5587.920329 kJ/mol
# Density = 1.878297 g / cm^3
# Si number density = 18.825820 Si / 1000 Ang^3
#
#
#
# Elastic Constant Matrix: (Units=GPa)
#
#
# Indices 1 2 3 4 5 6 
#
# 1 150.1013 61.8393 73.2086 0.0000 0.0000 0.0000
# 2 61.8393 149.9120 40.9544 0.0000 0.0000 0.0000
# 3 73.2086 40.9544 114.7083 0.0000 0.0000 0.0000
# 4 0.0000 0.0000 0.0000 42.7150 0.0000 0.0000
# 5 0.0000 0.0000 0.0000 0.0000 25.3101 0.0000
# 6 0.0000 0.0000 0.0000 0.0000 0.0000 20.2570
#
#
#
# Elastic Compliance Matrix: (Units=1/GPa)
#
#
# Indices 1 2 3 4 5 6 
#
# 1 0.010643 -0.002809 -0.005790 0.000000 0.000000 0.000000
# 2 -0.002809 0.008133 -0.001111 0.000000 0.000000 0.000000
# 3 -0.005790 -0.001111 0.012810 0.000000 0.000000 0.000000
# 4 0.000000 0.000000 0.000000 0.023411 0.000000 0.000000
# 5 0.000000 0.000000 0.000000 0.000000 0.039510 0.000000
# 6 0.000000 0.000000 0.000000 0.000000 0.000000 0.049366
#
#
# Mechanical properties :
#
#
# Convention : Reuss Voigt Hill
#
# Bulk Modulus (GPa) = 82.19428 85.19181 83.69305
# Shear Modulus (GPa) = 29.87808 33.57104 31.72456
#
# Velocity S-wave (km/s) = 3.98814 4.22743 4.10953
# Velocity P-wave (km/s) = 8.05991 8.31740 8.18967
#
# Compressibility (1/GPa) = 0.01216630
#
# Stress axis : x y z
#
# Youngs Moduli (GPa) = 93.95720 122.96051 78.06620
#
# Poissons Ratio (x) = 0.34535 0.45199
# Poissons Ratio (y) = 0.26389 0.08674
# Poissons Ratio (z) = 0.54400 0.13662
#
# Static dielectric constant tensor:
#      x y z
#    x 1.635850 0.000000 0.000000 
#    y 0.000000 1.648260 0.000000 
#    z 0.000000 0.000000 1.664240 
# 
# From -- ./inp_files/17701.got.cif
#   From: 2010.05.17/outbox.cif.g08.bks.cpg/sg53_9_cif.got.tgz:17701.got - 2010.06.03 12:45:16.
