data_PCOD9419936
_publ_section_title
;
Structure prediction by ZEFSAII (Michael W. Deem and Ramdas Pophale) SiO2 
 PCOD9419936
Probable space group: P M N A
;
_chemical_formula_sum "Si O2"
_cell_formula_units_Z 32
_cell_length_a 20.442390
_cell_length_b 7.067720
_cell_length_c 9.781210
_cell_angle_alpha 90.000000
_cell_angle_beta 90.000000
_cell_angle_gamma 90.000000
_cell_volume 1413.199869
_symmetry_space_group_name_H-M "P M N A"
_symmetry_group_IT_number 53
_symmetry_cell_setting 'orthorhombic'
loop_
_space_group_symop_operation_xyz
x,y,z
1/2-x,-y,1/2+z
x,-y,-z
1/2-x,y,1/2-z
-x,-y,-z
1/2+x,y,1/2-z
-x,y,z
1/2+x,-y,1/2+z
loop_
_atom_site_type_symbol
_atom_site_label
_atom_site_fract_x
_atom_site_fract_y
_atom_site_fract_z
Si Si1 0.173599 0.300484 0.945242
Si Si2 0.182763 0.924523 0.796152
Si Si3 0.926023 0.365386 0.702671
Si Si4 0.575608 0.792574 0.904336
O O1 0.118091 0.345229 0.835423
O O2 0.206754 0.124739 0.862991
O O3 0.204167 0.500000 0.000000
O O4 0.150731 0.195409 0.081931
O O5 0.250000 0.826497 0.750000
O O6 0.130255 0.913502 0.674843
O O7 0.923643 0.584430 0.661261
O O8 0.000000 0.311843 0.737580
O O9 0.909182 0.251469 0.563520
O O10 0.500000 0.860712 0.891122
#
# Coordination Sequence:
#
# PCOD9419936 Si02
#       4
#     8   8   8   8
#     4  11  24  44  67  96 134 179 227 286 359 412
#     4  11  26  45  66 101 138 179 240 292 347 428
#     4   9  19  38  68 103 140 184 236 285 343 421
#     4   9  19  41  69 101 140 187 236 288 347 409
#
# _framework density 22.643647999999999
#
# number of rings (size 3 to 8) (size 9 to 14) (size 15 to 20)
#    0.000    2.000    2.500    1.500    0.000    8.500 
#    4.500    5.000    0.000    0.000    0.000    0.000 
#    0.000    0.000    0.000    0.000    0.000    0.000 
#
# Total GULP energy -178203.334494 kJ/mol
# GULP energy per Si atom -5568.854203 kJ/mol
# Density = 2.259211 g / cm^3
# Si number density = 22.643648 Si / 1000 Ang^3
#
#
#
# Elastic Constant Matrix: (Units=GPa)
#
#
# Indices 1 2 3 4 5 6 
#
# 1 65.8332 13.6437 69.5088 0.0000 0.0000 0.0000
# 2 13.6437 72.3861 43.0920 0.0000 0.0000 0.0000
# 3 69.5088 43.0920 125.6046 0.0000 0.0000 0.0000
# 4 0.0000 0.0000 0.0000 60.3250 0.0000 0.0000
# 5 0.0000 0.0000 0.0000 0.0000 23.4921 0.0000
# 6 0.0000 0.0000 0.0000 0.0000 0.0000 27.7136
#
#
#
# Elastic Compliance Matrix: (Units=1/GPa)
#
#
# Indices 1 2 3 4 5 6 
#
# 1 0.039123 0.006930 -0.024028 0.000000 0.000000 0.000000
# 2 0.006930 0.018588 -0.010212 0.000000 0.000000 0.000000
# 3 -0.024028 -0.010212 0.024762 0.000000 0.000000 0.000000
# 4 0.000000 0.000000 0.000000 0.016577 0.000000 0.000000
# 5 0.000000 0.000000 0.000000 0.000000 0.042567 0.000000
# 6 0.000000 0.000000 0.000000 0.000000 0.000000 0.036083
#
#
# Mechanical properties :
#
#
# Convention : Reuss Voigt Hill
#
# Bulk Modulus (GPa) = 35.90301 57.36812 46.63557
# Shear Modulus (GPa) = 20.69487 31.47810 26.08648
#
# Velocity S-wave (km/s) = 3.02642 3.73252 3.39786
# Velocity P-wave (km/s) = 5.30117 6.63067 6.00284
#
# Compressibility (1/GPa) = 0.02785282
#
# Stress axis : x y z
#
# Youngs Moduli (GPa) = 25.56018 53.79828 40.38437
#
# Poissons Ratio (x) = -0.37282 0.97036
# Poissons Ratio (y) = -0.17713 0.41241
# Poissons Ratio (z) = 0.61416 0.54939
#
# Static dielectric constant tensor:
#      x y z
#    x 1.780220 0.000000 0.000000 
#    y 0.000000 1.980500 0.000000 
#    z 0.000000 0.000000 1.864710 
# 
# From -- ./inp_files/17386.got.cif
#   From: 2010.05.17/outbox.cif.g08.bks.cpg/sg53_9_cif.got.tgz:17386.got - 2010.06.03 12:45:16.
