data_PCOD9419499
_publ_section_title
;
Structure prediction by ZEFSAII (Michael W. Deem and Ramdas Pophale) SiO2 
 PCOD9419499
Probable space group: P M N A
;
_chemical_formula_sum "Si O2"
_cell_formula_units_Z 30
_cell_length_a 19.366990
_cell_length_b 15.282537
_cell_length_c 5.075144
_cell_angle_alpha 90.000000
_cell_angle_beta 90.000000
_cell_angle_gamma 90.000000
_cell_volume 1502.124583
_symmetry_space_group_name_H-M "P M N A"
_symmetry_group_IT_number 53
_symmetry_cell_setting 'orthorhombic'
loop_
_space_group_symop_operation_xyz
x,y,z
1/2-x,-y,1/2+z
x,-y,-z
1/2-x,y,1/2-z
-x,-y,-z
1/2+x,y,1/2-z
-x,y,z
1/2+x,-y,1/2+z
loop_
_atom_site_type_symbol
_atom_site_label
_atom_site_fract_x
_atom_site_fract_y
_atom_site_fract_z
Si Si1 0.750000 0.439836 0.750000
Si Si2 0.500000 0.500000 0.000000
Si Si3 0.108911 0.345314 0.622910
Si Si4 0.920618 0.231018 0.120583
Si Si5 0.202798 0.895788 0.999554
O O1 0.729427 0.500000 0.500000
O O2 0.686101 0.380801 0.840998
O O3 0.440099 0.575398 0.038594
O O4 0.102697 0.271154 0.399643
O O5 0.084159 0.307175 0.902028
O O6 0.867897 0.157021 0.024183
O O7 0.000000 0.201397 0.140463
O O8 0.250000 0.874788 0.750000
O O9 0.250000 0.873463 0.250000
O O10 0.189312 0.000000 0.000000
#
# Coordination Sequence:
#
# PCOD9419499 Si02
#       5
#     4   2   8   8   8
#     4  12  26  44  62  94 128 172 234 278 336 392
#     4  12  24  50  64  90 134 184 216 278 328 402
#     4  12  27  42  68  94 133 176 224 278 333 389
#     4  12  25  44  65 102 132 172 225 274 331 397
#     4  10  23  44  70 100 134 175 218 270 340 405
#
# _framework density 19.971712
#
# number of rings (size 3 to 8) (size 9 to 14) (size 15 to 20)
#    0.000    0.533    4.000    3.200    5.600    1.600 
#    0.000    0.000    0.000    8.000    0.000    0.000 
#    0.000    0.000    0.000    0.000    0.000    0.000 
#
# Total GULP energy -167357.904760 kJ/mol
# GULP energy per Si atom -5578.596825 kJ/mol
# Density = 1.992626 g / cm^3
# Si number density = 19.971712 Si / 1000 Ang^3
#
#
#
# Elastic Constant Matrix: (Units=GPa)
#
#
# Indices 1 2 3 4 5 6 
#
# 1 225.3910 82.0478 42.0799 0.0000 0.0000 0.0000
# 2 82.0478 55.9753 13.5520 0.0000 0.0000 0.0000
# 3 42.0799 13.5520 113.8052 0.0000 0.0000 0.0000
# 4 0.0000 0.0000 0.0000 20.7229 0.0000 0.0000
# 5 0.0000 0.0000 0.0000 0.0000 204.3176 0.0000
# 6 0.0000 0.0000 0.0000 0.0000 0.0000 119.5003
#
#
#
# Elastic Compliance Matrix: (Units=1/GPa)
#
#
# Indices 1 2 3 4 5 6 
#
# 1 0.009934 -0.014078 -0.001997 0.000000 0.000000 0.000000
# 2 -0.014078 0.038346 0.000639 0.000000 0.000000 0.000000
# 3 -0.001997 0.000639 0.009449 0.000000 0.000000 0.000000
# 4 0.000000 0.000000 0.000000 0.048256 0.000000 0.000000
# 5 0.000000 0.000000 0.000000 0.000000 0.004894 0.000000
# 6 0.000000 0.000000 0.000000 0.000000 0.000000 0.008368
#
#
# Mechanical properties :
#
#
# Convention : Reuss Voigt Hill
#
# Bulk Modulus (GPa) = 37.23309 74.50343 55.86826
# Shear Modulus (GPa) = 31.43231 86.07427 58.75329
#
# Velocity S-wave (km/s) = 3.97147 6.57204 5.42974
# Velocity P-wave (km/s) = 6.30186 9.74548 8.20633
#
# Compressibility (1/GPa) = 0.02685783
#
# Stress axis : x y z
#
# Youngs Moduli (GPa) = 100.66089 26.07839 105.82949
#
# Poissons Ratio (x) = 0.36714 0.21132
# Poissons Ratio (y) = 1.41712 -0.06765
# Poissons Ratio (z) = 0.20100 -0.01667
#
# Static dielectric constant tensor:
#      x y z
#    x 1.732580 0.000000 0.000000 
#    y 0.000000 1.670620 0.000000 
#    z 0.000000 0.000000 1.692860 
# 
# From -- ./inp_files/1927.got.cif
#   From: 2010.05.17/outbox.cif.g08.bks.cpg/sg53_1_cif.got.tgz:1927.got - 2010.06.03 12:45:16.
