data_PCOD9419272
_publ_section_title
;
Structure prediction by ZEFSAII (Michael W. Deem and Ramdas Pophale) SiO2 
 PCOD9419272
Probable space group: P M N A
;
_chemical_formula_sum "Si O2"
_cell_formula_units_Z 40
_cell_length_a 14.671289
_cell_length_b 7.585212
_cell_length_c 16.793181
_cell_angle_alpha 90.000000
_cell_angle_beta 90.000000
_cell_angle_gamma 90.000000
_cell_volume 1868.826417
_symmetry_space_group_name_H-M "P M N A"
_symmetry_group_IT_number 53
_symmetry_cell_setting 'orthorhombic'
loop_
_space_group_symop_operation_xyz
x,y,z
1/2-x,-y,1/2+z
x,-y,-z
1/2-x,y,1/2-z
-x,-y,-z
1/2+x,y,1/2-z
-x,y,z
1/2+x,-y,1/2+z
loop_
_atom_site_type_symbol
_atom_site_label
_atom_site_fract_x
_atom_site_fract_y
_atom_site_fract_z
Si Si1 0.891058 0.785373 0.365302
Si Si2 0.661386 0.394186 0.192967
Si Si3 0.897423 0.843769 0.938232
Si Si4 0.288256 0.699342 0.979837
Si Si5 0.897894 0.946738 0.768896
O O1 0.875188 0.587653 0.330097
O O2 0.835703 0.806322 0.448422
O O3 0.000000 0.809477 0.379930
O O4 0.858378 0.924171 0.298011
O O5 0.750000 0.416040 0.250000
O O6 0.678763 0.287900 0.110778
O O7 0.600029 0.255122 0.239867
O O8 0.820544 0.719325 0.974721
O O9 0.858418 0.929457 0.856969
O O10 0.000000 0.769518 0.924179
O O11 0.906619 0.000000 0.000000
O O12 0.312510 0.500000 0.000000
O O13 0.000000 0.016399 0.781137
#
# Coordination Sequence:
#
# PCOD9419272 Si02
#       5
#     8   8   8   8   8
#     4  10  24  43  66  99 134 173 220 269 329 396
#     4  11  22  38  63  96 129 171 217 268 322 390
#     4  10  22  41  63  91 127 167 217 271 326 389
#     4  10  23  40  63  95 128 170 213 266 334 386
#     4  10  22  41  65  91 124 171 217 272 331 381
#
# _framework density 21.403805999999999
#
# number of rings (size 3 to 8) (size 9 to 14) (size 15 to 20)
#    0.000    1.800    2.000    0.600    2.800    8.800 
#    0.000    2.000    0.000    0.000    0.000    0.000 
#    0.000    0.000    0.000    0.000    0.000    0.000 
#
# Total GULP energy -222783.694149 kJ/mol
# GULP energy per Si atom -5569.592354 kJ/mol
# Density = 2.135509 g / cm^3
# Si number density = 21.403806 Si / 1000 Ang^3
#
#
#
# Elastic Constant Matrix: (Units=GPa)
#
#
# Indices 1 2 3 4 5 6 
#
# 1 81.8467 4.3768 47.6144 0.0000 0.0000 0.0000
# 2 4.3768 65.8909 35.0887 0.0000 0.0000 0.0000
# 3 47.6144 35.0887 159.2297 0.0000 0.0000 0.0000
# 4 0.0000 0.0000 0.0000 19.6654 0.0000 0.0000
# 5 0.0000 0.0000 0.0000 0.0000 25.5323 0.0000
# 6 0.0000 0.0000 0.0000 0.0000 0.0000 27.3628
#
#
#
# Elastic Compliance Matrix: (Units=1/GPa)
#
#
# Indices 1 2 3 4 5 6 
#
# 1 0.014933 0.001570 -0.004811 0.000000 0.000000 0.000000
# 2 0.001570 0.017359 -0.004295 0.000000 0.000000 0.000000
# 3 -0.004811 -0.004295 0.008665 0.000000 0.000000 0.000000
# 4 0.000000 0.000000 0.000000 0.050851 0.000000 0.000000
# 5 0.000000 0.000000 0.000000 0.000000 0.039166 0.000000
# 6 0.000000 0.000000 0.000000 0.000000 0.000000 0.036546
#
#
# Mechanical properties :
#
#
# Convention : Reuss Voigt Hill
#
# Bulk Modulus (GPa) = 38.63134 53.45856 46.04495
# Shear Modulus (GPa) = 26.14767 29.17127 27.65947
#
# Velocity S-wave (km/s) = 3.49898 3.69575 3.59871
# Velocity P-wave (km/s) = 5.86616 6.57586 6.23112
#
# Compressibility (1/GPa) = 0.02588572
#
# Stress axis : x y z
#
# Youngs Moduli (GPa) = 66.96547 57.60538 115.40048
#
# Poissons Ratio (x) = -0.09046 0.55525
# Poissons Ratio (y) = -0.10516 0.49564
# Poissons Ratio (z) = 0.32220 0.24742
#
# Static dielectric constant tensor:
#      x y z
#    x 1.845950 0.000000 0.000000 
#    y 0.000000 1.745900 0.000000 
#    z 0.000000 0.000000 1.834670 
# 
# From -- ./inp_files/22449.got.cif
#   From: 2010.05.17/outbox.cif.g08.bks.cpg/sg53_12_cif.got.tgz:22449.got - 2010.06.03 12:45:16.
