data_PCOD9419691
_publ_section_title
;
Structure prediction by ZEFSAII (Michael W. Deem and Ramdas Pophale) SiO2 
 PCOD9419691
Probable space group: P M N A
;
_chemical_formula_sum "Si O2"
_cell_formula_units_Z 40
_cell_length_a 9.160645
_cell_length_b 14.388807
_cell_length_c 17.903095
_cell_angle_alpha 90.000000
_cell_angle_beta 90.000000
_cell_angle_gamma 90.000000
_cell_volume 2359.820431
_symmetry_space_group_name_H-M "P M N A"
_symmetry_group_IT_number 53
_symmetry_cell_setting 'orthorhombic'
loop_
_space_group_symop_operation_xyz
x,y,z
1/2-x,-y,1/2+z
x,-y,-z
1/2-x,y,1/2-z
-x,-y,-z
1/2+x,y,1/2-z
-x,y,z
1/2+x,-y,1/2+z
loop_
_atom_site_type_symbol
_atom_site_label
_atom_site_fract_x
_atom_site_fract_y
_atom_site_fract_z
Si Si1 0.667085 0.034839 0.586934
Si Si2 0.166253 0.140605 0.370175
Si Si3 0.665684 0.790819 0.043021
Si Si4 0.325735 0.603928 0.971689
Si Si5 0.826213 0.677169 0.824434
O O1 0.500000 0.031245 0.612119
O O2 0.730703 0.138743 0.586670
O O3 0.668919 0.000000 0.500000
O O4 0.767286 0.962167 0.631365
O O5 0.161465 0.170761 0.457637
O O6 0.270714 0.216526 0.333264
O O7 0.000000 0.145690 0.341679
O O8 0.500000 0.795286 0.072160
O O9 0.711655 0.683730 0.032541
O O10 0.500000 0.616050 0.956102
O O11 0.235194 0.625281 0.897369
O O12 0.301916 0.500000 0.000000
O O13 0.750000 0.639180 0.750000
O O14 0.000000 0.672966 0.820171
#
# Coordination Sequence:
#
# PCOD9419691 Si02
#       5
#     8   8   8   8   8
#     4   9  15  22  35  58  87 117 147 179 216 261
#     4   9  16  27  42  61  87 118 151 186 227 275
#     4   8  14  24  39  60  87 119 151 185 229 278
#     4   9  18  33  51  71  97 128 163 206 255 301
#     4  11  21  33  49  70  97 127 161 199 243 296
#
# _framework density 16.950443
#
# number of rings (size 3 to 8) (size 9 to 14) (size 15 to 20)
#    0.000    2.800    0.000    4.200    0.000    7.600 
#    0.000    0.000    0.000    0.000    0.000    1.400 
#    0.000    3.200    0.000    0.000    0.000    0.000 
#
# Total GULP energy -222865.004579 kJ/mol
# GULP energy per Si atom -5571.625114 kJ/mol
# Density = 1.691186 g / cm^3
# Si number density = 16.950443 Si / 1000 Ang^3
#
#
#
# Elastic Constant Matrix: (Units=GPa)
#
#
# Indices 1 2 3 4 5 6 
#
# 1 119.2640 62.9351 33.4762 0.0000 0.0000 0.0000
# 2 62.9351 134.3834 20.6693 0.0000 0.0000 0.0000
# 3 33.4762 20.6693 28.8971 0.0000 0.0000 0.0000
# 4 0.0000 0.0000 0.0000 6.7238 0.0000 0.0000
# 5 0.0000 0.0000 0.0000 0.0000 12.3833 0.0000
# 6 0.0000 0.0000 0.0000 0.0000 0.0000 20.5368
#
#
#
# Elastic Compliance Matrix: (Units=1/GPa)
#
#
# Indices 1 2 3 4 5 6 
#
# 1 0.014755 -0.004810 -0.013653 0.000000 0.000000 0.000000
# 2 -0.004810 0.009929 -0.001530 0.000000 0.000000 0.000000
# 3 -0.013653 -0.001530 0.051516 0.000000 0.000000 0.000000
# 4 0.000000 0.000000 0.000000 0.148726 0.000000 0.000000
# 5 0.000000 0.000000 0.000000 0.000000 0.080754 0.000000
# 6 0.000000 0.000000 0.000000 0.000000 0.000000 0.048693
#
#
# Mechanical properties :
#
#
# Convention : Reuss Voigt Hill
#
# Bulk Modulus (GPa) = 27.61273 57.41175 42.51224
# Shear Modulus (GPa) = 12.30220 18.95970 15.63095
#
# Velocity S-wave (km/s) = 2.69694 3.34808 3.04000
# Velocity P-wave (km/s) = 5.10134 6.99214 6.12020
#
# Compressibility (1/GPa) = 0.03621519
#
# Stress axis : x y z
#
# Youngs Moduli (GPa) = 67.77172 100.71009 19.41141
#
# Poissons Ratio (x) = 0.48446 0.26502
# Poissons Ratio (y) = 0.32601 0.02969
# Poissons Ratio (z) = 0.92528 0.15405
#
# Static dielectric constant tensor:
#      x y z
#    x 1.569850 0.000000 0.000000 
#    y 0.000000 1.581970 0.000000 
#    z 0.000000 0.000000 1.583010 
# 
# From -- ./inp_files/26001.got.cif
#   From: 2010.05.17/outbox.cif.g08.bks.cpg/sg53_14_cif.got.tgz:26001.got - 2010.06.03 12:45:16.
