data_PCOD9419676
_publ_section_title
;
Structure prediction by ZEFSAII (Michael W. Deem and Ramdas Pophale) SiO2 
 PCOD9419676
Probable space group: P M N A
;
_chemical_formula_sum "Si O2"
_cell_formula_units_Z 48
_cell_length_a 14.896186
_cell_length_b 7.209086
_cell_length_c 16.820369
_cell_angle_alpha 90.000000
_cell_angle_beta 90.000000
_cell_angle_gamma 90.000000
_cell_volume 1806.303868
_symmetry_space_group_name_H-M "P M N A"
_symmetry_group_IT_number 53
_symmetry_cell_setting 'orthorhombic'
loop_
_space_group_symop_operation_xyz
x,y,z
1/2-x,-y,1/2+z
x,-y,-z
1/2-x,y,1/2-z
-x,-y,-z
1/2+x,y,1/2-z
-x,y,z
1/2+x,-y,1/2+z
loop_
_atom_site_type_symbol
_atom_site_label
_atom_site_fract_x
_atom_site_fract_y
_atom_site_fract_z
Si Si1 0.895995 0.645493 0.898915
Si Si2 0.891160 0.191811 0.603462
Si Si3 0.846135 0.241970 0.266651
Si Si4 0.898988 0.852579 0.227743
Si Si5 0.392462 0.245718 0.066093
Si Si6 0.394738 0.783831 0.443252
O O1 0.859605 0.633971 0.810156
O O2 0.892795 0.435806 0.927921
O O3 0.000000 0.700383 0.892934
O O4 0.856951 0.788977 0.965879
O O5 0.857180 0.235821 0.692203
O O6 0.858987 0.292614 0.522742
O O7 0.000000 0.216547 0.606524
O O8 0.876199 0.973945 0.582935
O O9 0.750000 0.154437 0.250000
O O10 0.854859 0.333050 0.352915
O O11 0.909385 0.065826 0.254871
O O12 0.855823 0.858111 0.140000
O O13 0.000000 0.771245 0.217487
O O14 0.500000 0.275770 0.066215
O O15 0.500000 0.841738 0.446428
#
# Coordination Sequence:
#
# PCOD9419676 Si02
#       6
#     8   8   8   8   8   8
#     4   9  17  33  53  73  96 127 164 206 249 294
#     4   7  11  21  42  65  85 110 145 183 223 269
#     4  11  21  30  43  69 101 130 160 196 239 291
#     4   9  16  30  50  73  96 121 155 200 244 287
#     4   8  13  25  43  62  83 116 155 191 229 272
#     4   8  16  31  55  78  94 120 164 206 249 297
#
# _framework density 26.573602000000001
#
# number of rings (size 3 to 8) (size 9 to 14) (size 15 to 20)
#    0.000    3.333    0.000    4.500    0.000    0.667 
#    0.000   10.000    0.000    3.000    0.000    5.833 
#    0.000    0.000    0.000    0.000    0.000    0.000 
#
# Total GULP energy -267459.406259 kJ/mol
# GULP energy per Si atom -5572.070964 kJ/mol
# Density = 2.651312 g / cm^3
# Si number density = 26.573602 Si / 1000 Ang^3
#
#
#
# Elastic Constant Matrix: (Units=GPa)
#
#
# Indices 1 2 3 4 5 6 
#
# 1 52.5360 -6.1185 13.0994 0.0000 0.0000 0.0000
# 2 -6.1185 48.1804 41.3466 0.0000 0.0000 0.0000
# 3 13.0994 41.3466 326.5787 0.0000 0.0000 0.0000
# 4 0.0000 0.0000 0.0000 35.7112 0.0000 0.0000
# 5 0.0000 0.0000 0.0000 0.0000 471.4530 0.0000
# 6 0.0000 0.0000 0.0000 0.0000 0.0000 -1.4011
#
#
#
# Elastic Compliance Matrix: (Units=1/GPa)
#
#
# Indices 1 2 3 4 5 6 
#
# 1 0.019762 0.003579 -0.001246 0.000000 0.000000 0.000000
# 2 0.003579 0.023933 -0.003174 0.000000 0.000000 0.000000
# 3 -0.001246 -0.003174 0.003514 0.000000 0.000000 0.000000
# 4 0.000000 0.000000 0.000000 0.028002 0.000000 0.000000
# 5 0.000000 0.000000 0.000000 0.000000 0.002121 0.000000
# 6 0.000000 0.000000 0.000000 0.000000 0.000000 -0.713703
#
#
# Mechanical properties :
#
#
# Convention : Reuss Voigt Hill
#
# Bulk Modulus (GPa) = 21.96471 58.21667 40.09069
# Shear Modulus (GPa) = -8.07086 126.41712 59.17313
#
# Velocity S-wave (km/s) = -1.74464 6.90476 4.72398
# Velocity P-wave (km/s) = 2.05553 9.24786 6.69881
#
# Compressibility (1/GPa) = 0.04552758
#
# Stress axis : x y z
#
# Youngs Moduli (GPa) = 50.60230 41.78282 284.59109
#
# Poissons Ratio (x) = -0.14953 0.35453
# Poissons Ratio (y) = -0.18109 0.90318
# Poissons Ratio (z) = 0.06304 0.13260
#
# Static dielectric constant tensor:
#      x y z
#    x 2.043810 0.000000 0.000000 
#    y 0.000000 2.099120 0.000000 
#    z 0.000000 0.000000 2.303120 
# 
# From -- ./inp_files/24171.got.cif
#   From: 2010.05.17/outbox.cif.g08.bks.cpg/sg53_13_cif.got.tgz:24171.got - 2010.06.03 12:45:16.
