data_PCOD9419095
_publ_section_title
;
Structure prediction by ZEFSAII (Michael W. Deem and Ramdas Pophale) SiO2 
 PCOD9419095
Probable space group: P M N A
;
_chemical_formula_sum "Si O2"
_cell_formula_units_Z 32
_cell_length_a 20.871298
_cell_length_b 8.761458
_cell_length_c 9.645441
_cell_angle_alpha 90.000000
_cell_angle_beta 90.000000
_cell_angle_gamma 90.000000
_cell_volume 1763.794286
_symmetry_space_group_name_H-M "P M N A"
_symmetry_group_IT_number 53
_symmetry_cell_setting 'orthorhombic'
loop_
_space_group_symop_operation_xyz
x,y,z
1/2-x,-y,1/2+z
x,-y,-z
1/2-x,y,1/2-z
-x,-y,-z
1/2+x,y,1/2-z
-x,y,z
1/2+x,-y,1/2+z
loop_
_atom_site_type_symbol
_atom_site_label
_atom_site_fract_x
_atom_site_fract_y
_atom_site_fract_z
Si Si1 0.424817 0.827898 0.333034
Si Si2 0.423538 0.535611 0.154447
Si Si3 0.692777 0.051074 0.347988
Si Si4 0.865683 0.643897 0.911353
O O1 0.500000 0.870555 0.330720
O O2 0.410890 0.706617 0.210494
O O3 0.409633 0.737809 0.477626
O O4 0.375241 0.967359 0.319520
O O5 0.500000 0.520054 0.148776
O O6 0.400221 0.424625 0.276875
O O7 0.398010 0.500000 0.000000
O O8 0.750000 0.003526 0.250000
O O9 0.683620 0.232240 0.354860
O O10 0.711724 0.000000 0.500000
O O11 0.839848 0.500000 0.000000
#
# Coordination Sequence:
#
# PCOD9419095 Si02
#       4
#     8   8   8   8
#     4   9  18  34  57  82 107 140 181 222 265 317
#     4   9  17  30  50  80 113 141 174 221 273 318
#     4  10  22  38  56  79 109 142 178 221 271 324
#     4   9  18  34  54  77 103 138 181 223 266 316
#
# _framework density 18.142707000000001
#
# number of rings (size 3 to 8) (size 9 to 14) (size 15 to 20)
#    0.000    2.750    0.000    0.750    0.000   10.500 
#    0.000   12.500    0.000    5.250    0.000    0.000 
#    0.000    0.000    0.000    0.000    0.000    0.000 
#
# Total GULP energy -178188.954224 kJ/mol
# GULP energy per Si atom -5568.404819 kJ/mol
# Density = 1.810141 g / cm^3
# Si number density = 18.142707 Si / 1000 Ang^3
#
#
#
# Elastic Constant Matrix: (Units=GPa)
#
#
# Indices 1 2 3 4 5 6 
#
# 1 77.0768 45.1990 38.2762 0.0000 0.0000 0.0000
# 2 45.1990 97.4959 37.9878 0.0000 0.0000 0.0000
# 3 38.2762 37.9878 111.3535 0.0000 0.0000 0.0000
# 4 0.0000 0.0000 0.0000 10.3186 0.0000 0.0000
# 5 0.0000 0.0000 0.0000 0.0000 -11.1815 0.0000
# 6 0.0000 0.0000 0.0000 0.0000 0.0000 16.8963
#
#
#
# Elastic Compliance Matrix: (Units=1/GPa)
#
#
# Indices 1 2 3 4 5 6 
#
# 1 0.019342 -0.007354 -0.004140 0.000000 0.000000 0.000000
# 2 -0.007354 0.014625 -0.002461 0.000000 0.000000 0.000000
# 3 -0.004140 -0.002461 0.011243 0.000000 0.000000 0.000000
# 4 0.000000 0.000000 0.000000 0.096912 0.000000 0.000000
# 5 0.000000 0.000000 0.000000 0.000000 -0.089433 0.000000
# 6 0.000000 0.000000 0.000000 0.000000 0.000000 0.059185
#
#
# Mechanical properties :
#
#
# Convention : Reuss Voigt Hill
#
# Bulk Modulus (GPa) = 57.80357 58.76137 58.28247
# Shear Modulus (GPa) = 34.35200 14.17089 24.26145
#
# Velocity S-wave (km/s) = 4.35608 2.79781 3.66082
# Velocity P-wave (km/s) = 7.56507 6.54948 7.07552
#
# Compressibility (1/GPa) = 0.01729997
#
# Stress axis : x y z
#
# Youngs Moduli (GPa) = 51.69969 68.37479 88.94298
#
# Poissons Ratio (x) = 0.50284 0.36821
# Poissons Ratio (y) = 0.38020 0.21893
# Poissons Ratio (z) = 0.21403 0.16830
#
# Static dielectric constant tensor:
#      x y z
#    x 1.605860 0.000000 0.000000 
#    y 0.000000 1.862260 0.000000 
#    z 0.000000 0.000000 1.634500 
# 
# From -- ./inp_files/10426.got.cif
#   From: 2010.05.17/outbox.cif.g08.bks.cpg/sg53_6_cif.got.tgz:10426.got - 2010.06.03 12:45:16.
