data_PCOD9419240
_publ_section_title
;
Structure prediction by ZEFSAII (Michael W. Deem and Ramdas Pophale) SiO2 
 PCOD9419240
Probable space group: P M N A
;
_chemical_formula_sum "Si O2"
_cell_formula_units_Z 48
_cell_length_a 9.651261
_cell_length_b 28.002133
_cell_length_c 8.719372
_cell_angle_alpha 90.000000
_cell_angle_beta 90.000000
_cell_angle_gamma 90.000000
_cell_volume 2356.461676
_symmetry_space_group_name_H-M "P M N A"
_symmetry_group_IT_number 53
_symmetry_cell_setting 'orthorhombic'
loop_
_space_group_symop_operation_xyz
x,y,z
1/2-x,-y,1/2+z
x,-y,-z
1/2-x,y,1/2-z
-x,-y,-z
1/2+x,y,1/2-z
-x,y,z
1/2+x,-y,1/2+z
loop_
_atom_site_type_symbol
_atom_site_label
_atom_site_fract_x
_atom_site_fract_y
_atom_site_fract_z
Si Si1 0.500000 0.413193 0.597770
Si Si2 0.000000 0.699450 0.046287
Si Si3 0.500000 0.273660 0.901775
Si Si4 0.730421 0.548688 0.930612
Si Si5 0.163445 0.862233 0.092099
Si Si6 0.732170 0.235108 0.430802
Si Si7 0.500000 0.386162 0.953806
Si Si8 0.666224 0.049378 0.909768
O O1 0.500000 0.357477 0.549971
O O2 0.631472 0.439898 0.526713
O O3 0.500000 0.408905 0.782258
O O4 0.000000 0.722490 0.217409
O O5 0.132250 0.720450 0.962073
O O6 0.630912 0.246913 0.972576
O O7 0.500000 0.329314 0.948879
O O8 0.750000 0.542404 0.750000
O O9 0.632049 0.593383 0.959859
O O10 0.669472 0.500000 0.000000
O O11 0.250000 0.853894 0.250000
O O12 0.250225 0.905948 0.016529
O O13 0.000000 0.873634 0.117207
O O14 0.170721 0.813994 0.995541
O O15 0.750000 0.230414 0.250000
O O16 0.750000 0.043586 0.750000
O O17 0.500000 0.058865 0.893138
O O18 0.679449 0.000000 0.000000
#
# Coordination Sequence:
#
# PCOD9419240 Si02
#       8
#     4   4   4   8   8   8   4   8
#     4  11  24  42  69  91 128 161 213 264 313 382
#     4  11  23  46  64  93 124 169 216 254 319 394
#     4  11  25  42  70  89 126 171 212 258 319 392
#     4  12  25  42  65  94 129 167 209 259 319 380
#     4  11  23  41  66  93 126 172 223 267 326 397
#     4  12  26  41  62  96 130 164 211 273 324 376
#     4  11  24  44  65  97 122 167 211 262 317 380
#     4  10  22  40  64  97 131 173 223 273 329 390
#
# _framework density 20.369523000000001
#
# number of rings (size 3 to 8) (size 9 to 14) (size 15 to 20)
#    0.000    0.833    0.833    7.500    2.333    8.667 
#    0.000    1.667    0.000    0.000    0.000    0.000 
#    0.000    0.000    0.000    0.000    0.000    0.000 
#
# Total GULP energy -268268.685503 kJ/mol
# GULP energy per Si atom -5588.930948 kJ/mol
# Density = 2.032316 g / cm^3
# Si number density = 20.369523 Si / 1000 Ang^3
#
#
#
# Elastic Constant Matrix: (Units=GPa)
#
#
# Indices 1 2 3 4 5 6 
#
# 1 128.7680 22.1779 8.4838 0.0000 0.0000 0.0000
# 2 22.1779 102.9337 41.6089 0.0000 0.0000 0.0000
# 3 8.4838 41.6089 84.8303 0.0000 0.0000 0.0000
# 4 0.0000 0.0000 0.0000 41.0921 0.0000 0.0000
# 5 0.0000 0.0000 0.0000 0.0000 93.6907 0.0000
# 6 0.0000 0.0000 0.0000 0.0000 0.0000 6.2227
#
#
#
# Elastic Compliance Matrix: (Units=1/GPa)
#
#
# Indices 1 2 3 4 5 6 
#
# 1 0.008065 -0.001761 0.000057 0.000000 0.000000 0.000000
# 2 -0.001761 0.012502 -0.005956 0.000000 0.000000 0.000000
# 3 0.000057 -0.005956 0.014704 0.000000 0.000000 0.000000
# 4 0.000000 0.000000 0.000000 0.024336 0.000000 0.000000
# 5 0.000000 0.000000 0.000000 0.000000 0.010673 0.000000
# 6 0.000000 0.000000 0.000000 0.000000 0.000000 0.160703
#
#
# Mechanical properties :
#
#
# Convention : Reuss Voigt Hill
#
# Bulk Modulus (GPa) = 50.12105 51.23035 50.67570
# Shear Modulus (GPa) = 19.76648 44.48519 32.12584
#
# Velocity S-wave (km/s) = 3.11850 4.67830 3.97565
# Velocity P-wave (km/s) = 6.13400 7.37476 6.78281
#
# Compressibility (1/GPa) = 0.01995170
#
# Stress axis : x y z
#
# Youngs Moduli (GPa) = 123.98617 79.98721 68.00887
#
# Poissons Ratio (x) = 0.14084 -0.00388
# Poissons Ratio (y) = 0.21832 0.40507
# Poissons Ratio (z) = -0.00707 0.47641
#
# Static dielectric constant tensor:
#      x y z
#    x 1.928670 0.000000 0.000000 
#    y 0.000000 1.702540 0.000000 
#    z 0.000000 0.000000 1.699100 
# 
# From -- ./inp_files/6875.got.cif
#   From: 2010.05.17/outbox.cif.g08.bks.cpg/sg53_4_cif.got.tgz:6875.got - 2010.06.03 12:45:16.
