data_PCOD9419599
_publ_section_title
;
Structure prediction by ZEFSAII (Michael W. Deem and Ramdas Pophale) SiO2 
 PCOD9419599
Probable space group: P M N A
;
_chemical_formula_sum "Si O2"
_cell_formula_units_Z 40
_cell_length_a 14.561716
_cell_length_b 8.516588
_cell_length_c 15.134142
_cell_angle_alpha 90.000000
_cell_angle_beta 90.000000
_cell_angle_gamma 90.000000
_cell_volume 1876.877809
_symmetry_space_group_name_H-M "P M N A"
_symmetry_group_IT_number 53
_symmetry_cell_setting 'orthorhombic'
loop_
_space_group_symop_operation_xyz
x,y,z
1/2-x,-y,1/2+z
x,-y,-z
1/2-x,y,1/2-z
-x,-y,-z
1/2+x,y,1/2-z
-x,y,z
1/2+x,-y,1/2+z
loop_
_atom_site_type_symbol
_atom_site_label
_atom_site_fract_x
_atom_site_fract_y
_atom_site_fract_z
Si Si1 0.000000 0.813481 0.740810
Si Si2 0.500000 0.307626 0.495638
Si Si3 0.000000 0.181985 0.470615
Si Si4 0.500000 0.836475 0.315197
Si Si5 0.186086 0.328880 0.833755
Si Si6 0.295016 0.811096 0.997433
Si Si7 0.844204 0.309728 0.135492
O O1 0.000000 0.809484 0.635581
O O2 0.904297 0.738713 0.778616
O O3 0.000000 0.989485 0.778881
O O4 0.500000 0.500000 0.500000
O O5 0.500000 0.202528 0.581308
O O6 0.587883 0.258508 0.441561
O O7 0.901283 0.246398 0.503475
O O8 0.000000 0.000000 0.500000
O O9 0.403483 0.756038 0.293531
O O10 0.250000 0.344956 0.750000
O O11 0.160519 0.503050 0.864572
O O12 0.236390 0.248408 0.917683
O O13 0.251567 0.757457 0.902417
O O14 0.294134 0.000000 0.000000
#
# Coordination Sequence:
#
# PCOD9419599 Si02
#       7
#     4   4   4   4   8   8   8
#     4  11  27  43  75 108 139 186 234 303 355 416
#     4  11  17  38  67  96 138 172 214 296 358 403
#     4  10  27  48  66  96 149 189 233 286 352 428
#     4  12  23  44  72 103 138 176 242 293 348 415
#     4  12  27  43  72 105 145 189 232 293 353 426
#     4  11  24  46  72 102 140 190 237 293 354 420
#     4  11  23  43  68 104 140 178 235 294 357 412
#
# _framework density 21.311990000000002
#
# number of rings (size 3 to 8) (size 9 to 14) (size 15 to 20)
#    0.000    0.800    4.000    2.400    8.400    0.800 
#    0.000    2.000    0.000    0.000    0.000    0.000 
#    0.000    0.000    0.000    0.000    0.000    0.000 
#
# Total GULP energy -222992.467901 kJ/mol
# GULP energy per Si atom -5574.811698 kJ/mol
# Density = 2.126348 g / cm^3
# Si number density = 21.311990 Si / 1000 Ang^3
#
#
#
# Elastic Constant Matrix: (Units=GPa)
#
#
# Indices 1 2 3 4 5 6 
#
# 1 -1556.1016-1188.5030-1977.2204 0.0000 0.0000 0.0000
# 2 -1188.5030 -774.1315-1422.7955 0.0000 0.0000 0.0000
# 3 -1977.2204-1422.7955-2264.0552 0.0000 0.0000 0.0000
# 4 0.0000 0.0000 0.0000 12.1573 0.0000 0.0000
# 5 0.0000 0.0000 0.0000 0.0000********** 0.0000
# 6 0.0000 0.0000 0.0000 0.0000 0.0000 33.1933
#
#
#
# Elastic Compliance Matrix: (Units=1/GPa)
#
#
# Indices 1 2 3 4 5 6 
#
# 1 0.006836 -0.003078 -0.004035 0.000000 0.000000 0.000000
# 2 -0.003078 0.009720 -0.003420 0.000000 0.000000 0.000000
# 3 -0.004035 -0.003420 0.005232 0.000000 0.000000 0.000000
# 4 0.000000 0.000000 0.000000 0.082255 0.000000 0.000000
# 5 0.000000 0.000000 0.000000 0.000000 -0.000080 0.000000
# 6 0.000000 0.000000 0.000000 0.000000 0.000000 0.030127
#
#
# Mechanical properties :
#
#
# Convention : Reuss Voigt Hill
#
# Bulk Modulus (GPa) = 1388.45909 -1530.14733 -70.84412
# Shear Modulus (GPa) = 32.17564 -2500.14850 -1233.98643
#
# Velocity S-wave (km/s) = 3.88976 -34.28797 -24.08874
# Velocity P-wave (km/s) = 25.94378 47.82350 28.40781
#
# Compressibility (1/GPa) = 0.00072022
#
# Stress axis : x y z
#
# Youngs Moduli (GPa) = 146.28809 102.87885 191.14896
#
# Poissons Ratio (x) = 0.31671 0.77133
# Poissons Ratio (y) = 0.45034 0.65373
# Poissons Ratio (z) = 0.59030 0.35185
#
# Static dielectric constant tensor:
#      x y z
#    x 1.856250 0.000000 0.000000 
#    y 0.000000 1.734020 0.000000 
#    z 0.000000 0.000000 1.829820 
# 
# From -- ./inp_files/22525.got.cif
#   From: 2010.05.17/outbox.cif.g08.bks.cpg/sg53_12_cif.got.tgz:22525.got - 2010.06.03 12:45:16.
