data_PCOD9419867
_publ_section_title
;
Structure prediction by ZEFSAII (Michael W. Deem and Ramdas Pophale) SiO2 
 PCOD9419867
Probable space group: P M N A
;
_chemical_formula_sum "Si O2"
_cell_formula_units_Z 48
_cell_length_a 16.985390
_cell_length_b 15.286335
_cell_length_c 7.742759
_cell_angle_alpha 90.000000
_cell_angle_beta 90.000000
_cell_angle_gamma 90.000000
_cell_volume 2010.363718
_symmetry_space_group_name_H-M "P M N A"
_symmetry_group_IT_number 53
_symmetry_cell_setting 'orthorhombic'
loop_
_space_group_symop_operation_xyz
x,y,z
1/2-x,-y,1/2+z
x,-y,-z
1/2-x,y,1/2-z
-x,-y,-z
1/2+x,y,1/2-z
-x,y,z
1/2+x,-y,1/2+z
loop_
_atom_site_type_symbol
_atom_site_label
_atom_site_fract_x
_atom_site_fract_y
_atom_site_fract_z
Si Si1 0.587883 0.547293 0.183492
Si Si2 0.095730 0.788374 0.668262
Si Si3 0.596182 0.079260 0.877323
Si Si4 0.831296 0.292873 0.817274
Si Si5 0.666712 0.386527 0.320323
Si Si6 0.408457 0.130337 0.523699
O O1 0.500000 0.578149 0.219787
O O2 0.640815 0.632835 0.186972
O O3 0.610763 0.469851 0.313083
O O4 0.591662 0.500000 0.000000
O O5 0.118000 0.833847 0.487515
O O6 0.132148 0.693934 0.707592
O O7 0.000000 0.781561 0.673994
O O8 0.121650 0.850338 0.830767
O O9 0.500000 0.078701 0.869345
O O10 0.624079 0.069164 0.678207
O O11 0.620465 0.000000 0.000000
O O12 0.750000 0.252120 0.750000
O O13 0.896169 0.222453 0.875102
O O14 0.818654 0.347399 0.992236
O O15 0.750000 0.417732 0.250000
O O16 0.500000 0.108465 0.500411
#
# Coordination Sequence:
#
# PCOD9419867 Si02
#       6
#     8   8   8   8   8   8
#     4  11  24  39  58  83 113 149 190 235 282 331
#     4   9  19  35  56  83 113 148 190 235 286 341
#     4   9  18  32  56  87 115 145 181 233 291 341
#     4  11  23  38  57  82 112 152 190 235 282 335
#     4  11  23  38  57  82 112 152 190 235 282 335
#     4   9  19  35  56  83 113 148 190 235 286 341
#
# _framework density 23.876276000000001
#
# number of rings (size 3 to 8) (size 9 to 14) (size 15 to 20)
#    0.000    2.000    0.000    3.000    4.667    3.333 
#    0.000    3.333    0.000    1.000    0.000    0.000 
#    0.000    0.000    0.000    0.000    0.000    0.000 
#
# Total GULP energy -268120.548114 kJ/mol
# GULP energy per Si atom -5585.844752 kJ/mol
# Density = 2.382193 g / cm^3
# Si number density = 23.876276 Si / 1000 Ang^3
#
#
#
# Elastic Constant Matrix: (Units=GPa)
#
#
# Indices 1 2 3 4 5 6 
#
# 1 39.6219 6.8212 5.9891 0.0000 0.0000 0.0000
# 2 6.8212 46.2528 -16.9468 0.0000 0.0000 0.0000
# 3 5.9891 -16.9468 115.7333 0.0000 0.0000 0.0000
# 4 0.0000 0.0000 0.0000 27.9033 0.0000 0.0000
# 5 0.0000 0.0000 0.0000 0.0000 11.9634 0.0000
# 6 0.0000 0.0000 0.0000 0.0000 0.0000 -47.5339
#
#
#
# Elastic Compliance Matrix: (Units=1/GPa)
#
#
# Indices 1 2 3 4 5 6 
#
# 1 0.026345 -0.004633 -0.002042 0.000000 0.000000 0.000000
# 2 -0.004633 0.023661 0.003704 0.000000 0.000000 0.000000
# 3 -0.002042 0.003704 0.009289 0.000000 0.000000 0.000000
# 4 0.000000 0.000000 0.000000 0.035838 0.000000 0.000000
# 5 0.000000 0.000000 0.000000 0.000000 0.083588 0.000000
# 6 0.000000 0.000000 0.000000 0.000000 0.000000 -0.021038
#
#
# Mechanical properties :
#
#
# Convention : Reuss Voigt Hill
#
# Bulk Modulus (GPa) = 18.74310 21.48169 20.11239
# Shear Modulus (GPa) = 27.56203 12.18286 19.87245
#
# Velocity S-wave (km/s) = 3.40129 2.26132 2.88811
# Velocity P-wave (km/s) = 4.82619 3.97929 4.42306
#
# Compressibility (1/GPa) = 0.05335297
#
# Stress axis : x y z
#
# Youngs Moduli (GPa) = 37.95802 42.26382 107.65822
#
# Poissons Ratio (x) = 0.19582 0.21982
# Poissons Ratio (y) = 0.17587 -0.39881
# Poissons Ratio (z) = 0.07750 -0.15656
#
# Static dielectric constant tensor:
#      x y z
#    x 1.870550 0.000000 0.000000 
#    y 0.000000 1.918570 0.000000 
#    z 0.000000 0.000000 1.971290 
# 
# From -- ./inp_files/9979.got.cif
#   From: 2010.05.17/outbox.cif.g08.bks.cpg/sg53_5_cif.got.tgz:9979.got - 2010.06.03 12:45:16.
