data_PCOD9420757
_publ_section_title
;
Structure prediction by ZEFSAII (Michael W. Deem and Ramdas Pophale) SiO2 
 PCOD9420757
Probable space group: P C C A
;
_chemical_formula_sum "Si O2"
_cell_formula_units_Z 36
_cell_length_a 14.778593
_cell_length_b 5.982440
_cell_length_c 17.972520
_cell_angle_alpha 90.000000
_cell_angle_beta 90.000000
_cell_angle_gamma 90.000000
_cell_volume 1588.987263
_symmetry_space_group_name_H-M "P C C A"
_symmetry_group_IT_number 54
_symmetry_cell_setting 'orthorhombic'
loop_
_space_group_symop_operation_xyz
x,y,z
1/2-x,-y,z
1/2+x,-y,1/2-z
-x,y,1/2-z
-x,-y,-z
1/2+x,y,-z
1/2-x,y,1/2+z
x,-y,1/2+z
loop_
_atom_site_type_symbol
_atom_site_label
_atom_site_fract_x
_atom_site_fract_y
_atom_site_fract_z
Si Si1 0.250000 0.000000 0.917450
Si Si2 0.612453 0.379383 0.628981
Si Si3 0.344796 0.631673 0.010829
Si Si4 0.836469 0.141815 0.339887
Si Si5 0.000000 0.131870 0.250000
Si Si6 0.750000 0.500000 0.229941
O O1 0.315541 0.175312 0.876960
O O2 0.181852 0.145552 0.966975
O O3 0.597510 0.477144 0.546238
O O4 0.536868 0.287900 0.683518
O O5 0.667275 0.566251 0.675769
O O6 0.250000 0.500000 0.022462
O O7 0.376502 0.717211 0.090891
O O8 0.790620 0.311497 0.282254
O O9 0.915052 0.015506 0.292333
O O10 0.750000 0.000000 0.367592
#
# Coordination Sequence:
#
# PCOD9420757 Si02
#       6
#     4   8   8   8   4   4
#     4  10  18  36  68  92 118 170 218 254 318 378
#     4  10  21  39  62  93 130 166 215 265 320 382
#     4  10  19  37  68  93 116 170 218 264 319 383
#     4  11  23  41  65  91 133 172 215 269 322 386
#     4  10  26  40  58 104 136 164 218 268 324 396
#     4  10  20  34  60  90 120 168 206 262 318 376
#
# _framework density 22.655940000000001
#
# number of rings (size 3 to 8) (size 9 to 14) (size 15 to 20)
#    0.000    1.778    5.556    0.000    6.222    0.889 
#    0.000   11.111    0.000    0.000    0.000    0.000 
#    0.000    0.000    0.000    0.000    0.000    0.000 
#
# Total GULP energy -200473.151980 kJ/mol
# GULP energy per Si atom -5568.698666 kJ/mol
# Density = 2.260437 g / cm^3
# Si number density = 22.655940 Si / 1000 Ang^3
#
#
#
# Elastic Constant Matrix: (Units=GPa)
#
#
# Indices 1 2 3 4 5 6 
#
# 1 76.7570 13.3432 48.4651 0.0000 0.0000 0.0000
# 2 13.3432 52.1602 31.6885 0.0000 0.0000 0.0000
# 3 48.4651 31.6885 165.9102 0.0000 0.0000 0.0000
# 4 0.0000 0.0000 0.0000 26.6765 0.0000 0.0000
# 5 0.0000 0.0000 0.0000 0.0000 43.1775 0.0000
# 6 0.0000 0.0000 0.0000 0.0000 0.0000 13.3513
#
#
#
# Elastic Compliance Matrix: (Units=1/GPa)
#
#
# Indices 1 2 3 4 5 6 
#
# 1 0.016068 -0.001424 -0.004422 0.000000 0.000000 0.000000
# 2 -0.001424 0.021815 -0.003751 0.000000 0.000000 0.000000
# 3 -0.004422 -0.003751 0.008035 0.000000 0.000000 0.000000
# 4 0.000000 0.000000 0.000000 0.037486 0.000000 0.000000
# 5 0.000000 0.000000 0.000000 0.000000 0.023160 0.000000
# 6 0.000000 0.000000 0.000000 0.000000 0.000000 0.074899
#
#
# Mechanical properties :
#
#
# Convention : Reuss Voigt Hill
#
# Bulk Modulus (GPa) = 37.41815 53.53565 45.47690
# Shear Modulus (GPa) = 23.85910 30.06309 26.96110
#
# Velocity S-wave (km/s) = 3.24868 3.64667 3.45341
# Velocity P-wave (km/s) = 5.53386 6.43522 6.00149
#
# Compressibility (1/GPa) = 0.02672500
#
# Stress axis : x y z
#
# Youngs Moduli (GPa) = 62.23734 45.84105 124.45056
#
# Poissons Ratio (x) = 0.06528 0.55027
# Poissons Ratio (y) = 0.08863 0.46676
# Poissons Ratio (z) = 0.27519 0.17193
#
# Static dielectric constant tensor:
#      x y z
#    x 1.967480 0.000000 0.000000 
#    y 0.000000 1.896240 0.000000 
#    z 0.000000 0.000000 1.874960 
# 
# From -- ./inp_files/21388.got.cif
#   From: 2010.05.17/outbox.cif.g08.bks.cpg/sg54_11_cif.got.tgz:21388.got - 2010.06.03 13:09:01.
