data_PCOD9420204
_publ_section_title
;
Structure prediction by ZEFSAII (Michael W. Deem and Ramdas Pophale) SiO2 
 PCOD9420204
Probable space group: P M N A
;
_chemical_formula_sum "Si O2"
_cell_formula_units_Z 64
_cell_length_a 9.000000
_cell_length_b 18.000000
_cell_length_c 21.000000
_cell_angle_alpha 90.000000
_cell_angle_beta 90.000000
_cell_angle_gamma 90.000000
_cell_volume 3402.000000
_symmetry_space_group_name_H-M "P M N A"
_symmetry_group_IT_number 53
_symmetry_cell_setting 'orthorhombic'
loop_
_space_group_symop_operation_xyz
x,y,z
1/2-x,-y,1/2+z
x,-y,-z
1/2-x,y,1/2-z
-x,-y,-z
1/2+x,y,1/2-z
-x,y,z
1/2+x,-y,1/2+z
loop_
_atom_site_type_symbol
_atom_site_label
_atom_site_fract_x
_atom_site_fract_y
_atom_site_fract_z
Si Si1 0.819945 0.800434 0.431890
Si Si2 0.321370 0.029337 0.928682
Si Si3 0.325171 0.704683 0.948531
Si Si4 0.821421 0.694895 0.317193
Si Si5 0.824991 0.776993 0.688557
Si Si6 0.677591 0.061316 0.315063
Si Si7 0.177462 0.479483 0.682544
Si Si8 0.823835 0.550737 0.940119
O O1 0.772796 0.885064 0.424212
O O2 0.780928 0.767270 0.500638
O O3 0.769427 0.746257 0.375326
O O4 0.000000 0.801309 0.429697
O O5 0.500000 0.023933 0.917480
O O6 0.236261 0.982364 0.876047
O O7 0.294592 0.000000 0.000000
O O8 0.500000 0.686707 0.959722
O O9 0.310969 0.732292 0.876448
O O10 0.225232 0.633247 0.957364
O O11 0.750000 0.716780 0.250000
O O12 0.786720 0.607972 0.328609
O O13 0.000000 0.700781 0.312425
O O14 0.750000 0.739371 0.750000
O O15 0.740270 0.854917 0.680178
O O16 0.000000 0.790395 0.700359
O O17 0.750000 0.029965 0.250000
O O18 0.500000 0.060883 0.310851
O O19 0.250000 0.500697 0.750000
O O20 0.241147 0.525364 0.623759
O O21 0.000000 0.487472 0.686175
O O22 0.000000 0.545022 0.930265
O O23 0.781224 0.500000 0.000000
#
# Coordination Sequence:
#
# PCOD9420204 Si02
#       8
#     8   8   8   8   8   8   8   8
#     4   9  18  34  56  80 106 140 184 229 273 327
#     4  10  20  36  58  82 112 149 187 230 280 333
#     4  10  21  38  60  83 108 144 189 232 277 331
#     4   9  18  33  54  79 106 137 175 220 270 325
#     4  10  20  36  59  85 112 144 183 227 279 336
#     4  11  22  37  58  83 114 150 189 232 278 331
#     4  10  20  36  59  83 110 145 184 229 280 336
#     4  11  24  39  56  82 116 151 188 232 279 328
#
# _framework density 18.812463000000001
#
# number of rings (size 3 to 8) (size 9 to 14) (size 15 to 20)
#    0.000    2.000    0.000    4.500    0.000    6.750 
#    0.000    4.375    0.000    0.000    0.000    0.000 
#    0.000    0.000    0.000    0.000    0.000    0.000 
#
# Total GULP energy -357393.280284 kJ/mol
# GULP energy per Si atom -5584.270004 kJ/mol
# Density = 1.876965 g / cm^3
# Si number density = 18.812463 Si / 1000 Ang^3
#
#
#
# Elastic Constant Matrix: (Units=GPa)
#
#
# Indices 1 2 3 4 5 6 
#
# 1 58.3646 13.0038 26.8542 0.0000 0.0000 0.0000
# 2 13.0038 24.8051 -8.3309 0.0000 0.0000 0.0000
# 3 26.8542 -8.3309 41.5544 0.0000 0.0000 0.0000
# 4 0.0000 0.0000 0.0000 35.0367 0.0000 0.0000
# 5 0.0000 0.0000 0.0000 0.0000 16.4189 0.0000
# 6 0.0000 0.0000 0.0000 0.0000 0.0000 32.5031
#
#
#
# Elastic Compliance Matrix: (Units=1/GPa)
#
#
# Indices 1 2 3 4 5 6 
#
# 1 0.037885 -0.030111 -0.030519 0.000000 0.000000 0.000000
# 2 -0.030111 0.067156 0.032922 0.000000 0.000000 0.000000
# 3 -0.030519 0.032922 0.050388 0.000000 0.000000 0.000000
# 4 0.000000 0.000000 0.000000 0.028541 0.000000 0.000000
# 5 0.000000 0.000000 0.000000 0.000000 0.060905 0.000000
# 6 0.000000 0.000000 0.000000 0.000000 0.000000 0.030766
#
#
# Mechanical properties :
#
#
# Convention : Reuss Voigt Hill
#
# Bulk Modulus (GPa) = 9.99859 20.86427 15.43143
# Shear Modulus (GPa) = 13.72135 23.00488 18.36311
#
# Velocity S-wave (km/s) = 2.70363 3.50073 3.12767
# Velocity P-wave (km/s) = 3.88234 5.23974 4.61126
#
# Compressibility (1/GPa) = 0.10001405
#
# Stress axis : x y z
#
# Youngs Moduli (GPa) = 26.39585 14.89059 19.84599
#
# Poissons Ratio (x) = 0.44837 0.60569
# Poissons Ratio (y) = 0.79480 -0.65338
# Poissons Ratio (z) = 0.80558 -0.49023
#
# Static dielectric constant tensor:
#      x y z
#    x 1.627050 0.000000 0.000000 
#    y 0.000000 1.650140 0.000000 
#    z 0.000000 0.000000 1.636700 
# 
# From -- ./inp_files/31118.got.cif
#   From: 2010.05.17/outbox.ucp.g08.bks.cvg/sg53_16_cif.got.tgz:31118.got - 2010.06.11 16:32:34.
