data_PCOD9420306
_publ_section_title
;
Structure prediction by ZEFSAII (Michael W. Deem and Ramdas Pophale) SiO2 
 PCOD9420306
Probable space group: P C C A
;
_chemical_formula_sum "Si O2"
_cell_formula_units_Z 48
_cell_length_a 19.458362
_cell_length_b 24.696241
_cell_length_c 5.272456
_cell_angle_alpha 90.000000
_cell_angle_beta 90.000000
_cell_angle_gamma 90.000000
_cell_volume 2533.670281
_symmetry_space_group_name_H-M "P C C A"
_symmetry_group_IT_number 54
_symmetry_cell_setting 'orthorhombic'
loop_
_space_group_symop_operation_xyz
x,y,z
1/2-x,-y,z
1/2+x,-y,1/2-z
-x,y,1/2-z
-x,-y,-z
1/2+x,y,-z
1/2-x,y,1/2+z
x,-y,1/2+z
loop_
_atom_site_type_symbol
_atom_site_label
_atom_site_fract_x
_atom_site_fract_y
_atom_site_fract_z
Si Si1 0.329553 0.976516 0.216946
Si Si2 0.278388 0.439873 0.163086
Si Si3 0.927072 0.414325 0.698293
Si Si4 0.292970 0.855685 0.201304
Si Si5 0.702906 0.265285 0.731298
Si Si6 0.574411 0.656285 0.199268
O O1 0.330276 0.912262 0.250457
O O2 0.250000 0.000000 0.201932
O O3 0.361902 0.006197 0.454075
O O4 0.250000 0.500000 0.120879
O O5 0.237168 0.412227 0.393672
O O6 0.357334 0.445255 0.239342
O O7 0.923067 0.391290 0.413141
O O8 0.000000 0.443206 0.750000
O O9 0.926134 0.367025 0.913007
O O10 0.231362 0.857237 0.408993
O O11 0.324506 0.796839 0.253271
O O12 0.746495 0.272263 0.472471
O O13 0.638911 0.305375 0.739095
O O14 0.500000 0.682965 0.250000
#
# Coordination Sequence:
#
# PCOD9420306 Si02
#       6
#     8   8   8   8   8   8
#     4  10  14  20  34  52  77 118 156 186 237 294
#     4  10  21  37  55  82 112 139 169 207 254 302
#     4  10  21  37  58  79 103 136 176 214 247 291
#     4  10  16  25  36  57  89 122 152 197 244 303
#     4  10  21  32  48  73 104 133 162 210 266 303
#     4  10  21  37  55  77 103 136 177 214 249 301
#
# _framework density 18.944846999999999
#
# number of rings (size 3 to 8) (size 9 to 14) (size 15 to 20)
#    0.000    2.000    3.333    2.000    0.000    4.000 
#    0.000    3.333    0.000    0.000    0.000    0.000 
#    0.000    1.333    0.000    0.000    0.000    6.667 
#
# Total GULP energy -267510.634678 kJ/mol
# GULP energy per Si atom -5573.138222 kJ/mol
# Density = 1.890173 g / cm^3
# Si number density = 18.944847 Si / 1000 Ang^3
#
#
#
# Elastic Constant Matrix: (Units=GPa)
#
#
# Indices 1 2 3 4 5 6 
#
# 1 202.0587 164.1890 331.1592 0.0000 0.0000 0.0000
# 2 164.1890 201.6976 383.9214 0.0000 0.0000 0.0000
# 3 331.1592 383.9214 1060.7050 0.0000 0.0000 0.0000
# 4 0.0000 0.0000 0.0000 15.4156 0.0000 0.0000
# 5 0.0000 0.0000 0.0000 0.0000 17.2201 0.0000
# 6 0.0000 0.0000 0.0000 0.0000 0.0000 0.1334
#
#
#
# Elastic Compliance Matrix: (Units=1/GPa)
#
#
# Indices 1 2 3 4 5 6 
#
# 1 0.014848 -0.010490 -0.000839 0.000000 0.000000 0.000000
# 2 -0.010490 0.023351 -0.005177 0.000000 0.000000 0.000000
# 3 -0.000839 -0.005177 0.003078 0.000000 0.000000 0.000000
# 4 0.000000 0.000000 0.000000 0.064869 0.000000 0.000000
# 5 0.000000 0.000000 0.000000 0.000000 0.058072 0.000000
# 6 0.000000 0.000000 0.000000 0.000000 0.000000 7.494087
#
#
# Mechanical properties :
#
#
# Convention : Reuss Voigt Hill
#
# Bulk Modulus (GPa) = 120.98117 358.11118 239.54617
# Shear Modulus (GPa) = 0.64985 45.56661 23.10823
#
# Velocity S-wave (km/s) = 0.58632 4.90963 3.49630
# Velocity P-wave (km/s) = 8.02849 14.88549 11.95898
#
# Compressibility (1/GPa) = 0.00826575
#
# Stress axis : x y z
#
# Youngs Moduli (GPa) = 67.35061 42.82427 324.85358
#
# Poissons Ratio (x) = 0.44924 0.27241
# Poissons Ratio (y) = 0.70653 1.68170
# Poissons Ratio (z) = 0.05648 0.22169
#
# Static dielectric constant tensor:
#      x y z
#    x 1.647850 0.000000 0.000000 
#    y 0.000000 1.755740 0.000000 
#    z 0.000000 0.000000 2.469770 
# 
# From -- ./inp_files/604.got.cif
#   From: 2010.05.17/outbox.cif.g08.bks.cpg/sg54_1_cif.got.tgz:604.got - 2010.06.03 13:09:01.
