data_PCOD9420043
_publ_section_title
;
Structure prediction by ZEFSAII (Michael W. Deem and Ramdas Pophale) SiO2 
 PCOD9420043
Probable space group: P M N A
;
_chemical_formula_sum "Si O2"
_cell_formula_units_Z 56
_cell_length_a 11.173507
_cell_length_b 13.796162
_cell_length_c 14.854370
_cell_angle_alpha 90.000000
_cell_angle_beta 90.000000
_cell_angle_gamma 90.000000
_cell_volume 2289.823605
_symmetry_space_group_name_H-M "P M N A"
_symmetry_group_IT_number 53
_symmetry_cell_setting 'orthorhombic'
loop_
_space_group_symop_operation_xyz
x,y,z
1/2-x,-y,1/2+z
x,-y,-z
1/2-x,y,1/2-z
-x,-y,-z
1/2+x,y,1/2-z
-x,y,z
1/2+x,-y,1/2+z
loop_
_atom_site_type_symbol
_atom_site_label
_atom_site_fract_x
_atom_site_fract_y
_atom_site_fract_z
Si Si1 0.125388 0.756709 0.741027
Si Si2 0.364116 0.952150 0.187168
Si Si3 0.632429 0.879841 0.944358
Si Si4 0.130643 0.789598 0.939345
Si Si5 0.368448 0.440951 0.406773
Si Si6 0.367240 0.723916 0.192225
Si Si7 0.870193 0.469570 0.603780
O O1 0.250000 0.701571 0.750000
O O2 0.126469 0.817560 0.649831
O O3 0.125636 0.819828 0.833073
O O4 0.000000 0.702468 0.741817
O O5 0.250000 0.976475 0.250000
O O6 0.500000 0.974003 0.222653
O O7 0.360091 0.837262 0.171033
O O8 0.354251 0.011828 0.094629
O O9 0.500000 0.866316 0.986203
O O10 0.755794 0.839431 0.984861
O O11 0.143570 0.672996 0.931747
O O12 0.000000 0.811165 0.979846
O O13 0.371885 0.500000 0.500000
O O14 0.500000 0.456962 0.365231
O O15 0.250069 0.481810 0.359017
O O16 0.250000 0.700990 0.250000
O O17 0.500000 0.709641 0.235703
O O18 0.362385 0.646703 0.111805
O O19 0.874518 0.500000 0.500000
O O20 0.000000 0.497553 0.643272
#
# Coordination Sequence:
#
# PCOD9420043 Si02
#       7
#     8   8   8   8   8   8   8
#     4   8  13  21  33  51  78 112 145 174 210 261
#     4   9  16  26  42  66  98 136 171 201 241 297
#     4   9  16  25  39  62  94 129 161 193 231 286
#     4   9  16  26  41  61  87 118 152 193 240 289
#     4   9  18  32  49  69  91 118 159 212 265 312
#     4   9  18  32  50  75 108 141 172 213 265 316
#     4   9  18  34  55  76  98 130 176 225 269 316
#
# _framework density 24.456033000000001
#
# number of rings (size 3 to 8) (size 9 to 14) (size 15 to 20)
#    0.000    3.143    0.000    1.286    0.000    2.857 
#    0.000    2.143    0.000    8.571    0.000    4.000 
#    0.000   29.714    0.000    0.000    0.000    0.000 
#
# Total GULP energy -312190.652657 kJ/mol
# GULP energy per Si atom -5574.833083 kJ/mol
# Density = 2.440037 g / cm^3
# Si number density = 24.456033 Si / 1000 Ang^3
#
#
#
# Elastic Constant Matrix: (Units=GPa)
#
#
# Indices 1 2 3 4 5 6 
#
# 1 321.2238 67.1340 20.8430 0.0000 0.0000 0.0000
# 2 67.1340 95.2634 8.4186 0.0000 0.0000 0.0000
# 3 20.8430 8.4186 57.4613 0.0000 0.0000 0.0000
# 4 0.0000 0.0000 0.0000 20.4404 0.0000 0.0000
# 5 0.0000 0.0000 0.0000 0.0000 10.8177 0.0000
# 6 0.0000 0.0000 0.0000 0.0000 0.0000 11.1205
#
#
#
# Elastic Compliance Matrix: (Units=1/GPa)
#
#
# Indices 1 2 3 4 5 6 
#
# 1 0.003704 -0.002524 -0.000974 0.000000 0.000000 0.000000
# 2 -0.002524 0.012355 -0.000895 0.000000 0.000000 0.000000
# 3 -0.000974 -0.000895 0.017887 0.000000 0.000000 0.000000
# 4 0.000000 0.000000 0.000000 0.048923 0.000000 0.000000
# 5 0.000000 0.000000 0.000000 0.000000 0.092441 0.000000
# 6 0.000000 0.000000 0.000000 0.000000 0.000000 0.089924
#
#
# Mechanical properties :
#
#
# Convention : Reuss Voigt Hill
#
# Bulk Modulus (GPa) = 39.74337 74.08221 56.91279
# Shear Modulus (GPa) = 17.70501 33.64590 25.67545
#
# Velocity S-wave (km/s) = 2.69356 3.71316 3.24367
# Velocity P-wave (km/s) = 5.09508 6.98149 6.11151
#
# Compressibility (1/GPa) = 0.02516143
#
# Stress axis : x y z
#
# Youngs Moduli (GPa) = 269.99341 80.93865 55.90567
#
# Poissons Ratio (x) = 0.20430 0.05443
# Poissons Ratio (y) = 0.68149 0.05001
# Poissons Ratio (z) = 0.26289 0.07240
#
# Static dielectric constant tensor:
#      x y z
#    x 2.046230 0.000000 0.000000 
#    y 0.000000 1.936290 0.000000 
#    z 0.000000 0.000000 1.952290 
# 
# From -- ./inp_files/31953.got.cif
#   From: 2010.05.17/outbox.cif.g08.bks.cpg/sg53_16_cif.got.tgz:31953.got - 2010.06.03 12:45:16.
