data_PCOD9420936
_publ_section_title
;
Structure prediction by ZEFSAII (Michael W. Deem and Ramdas Pophale) SiO2 
 PCOD9420936
Probable space group: P C C A
;
_chemical_formula_sum "Si O2"
_cell_formula_units_Z 60
_cell_length_a 17.835728
_cell_length_b 5.234942
_cell_length_c 30.214186
_cell_angle_alpha 90.000000
_cell_angle_beta 90.000000
_cell_angle_gamma 90.000000
_cell_volume 2821.068381
_symmetry_space_group_name_H-M "P C C A"
_symmetry_group_IT_number 54
_symmetry_cell_setting 'orthorhombic'
loop_
_space_group_symop_operation_xyz
x,y,z
1/2-x,-y,z
1/2+x,-y,1/2-z
-x,y,1/2-z
-x,-y,-z
1/2+x,y,-z
1/2-x,y,1/2+z
x,-y,1/2+z
loop_
_atom_site_type_symbol
_atom_site_label
_atom_site_fract_x
_atom_site_fract_y
_atom_site_fract_z
Si Si1 0.176725 0.594250 0.556061
Si Si2 0.535967 0.841981 0.444675
Si Si3 0.124064 0.596702 0.732436
Si Si4 0.534874 0.632110 0.182711
Si Si5 0.605270 0.792761 0.013466
Si Si6 0.172046 0.103048 0.683624
Si Si7 0.012495 0.851649 0.136519
Si Si8 0.750000 0.000000 0.011881
O O1 0.250000 0.500000 0.582708
O O2 0.105857 0.713384 0.580938
O O3 0.134667 0.385807 0.525874
O O4 0.215400 0.789277 0.521450
O O5 0.462969 0.683057 0.458343
O O6 0.572241 0.957079 0.489053
O O7 0.508314 0.070316 0.414265
O O8 0.104829 0.593060 0.784480
O O9 0.172402 0.363836 0.712442
O O10 0.041874 0.578816 0.709829
O O11 0.153732 0.870771 0.717009
O O12 0.528345 0.413822 0.145873
O O13 0.526715 0.917762 0.163916
O O14 0.681025 0.877561 0.038120
O O15 0.100681 0.144797 0.651113
O O16 0.250000 0.000000 0.662149
#
# Coordination Sequence:
#
# PCOD9420936 Si02
#       8
#     8   8   8   8   8   8   8   4
#     4   9  17  32  50  71 101 134 182 233 276 331
#     4  10  20  32  49  78 105 145 184 236 276 329
#     4   9  17  32  57  75 101 137 180 216 253 307
#     4   9  18  34  53  78 101 135 177 224 259 315
#     4   9  18  33  53  73 102 134 197 234 274 327
#     4  10  19  33  50  81 111 143 175 212 265 334
#     4  10  21  34  50  78 119 141 178 220 282 329
#     4   8  16  32  50  76  92 124 176 240 282 330
#
# _framework density 21.268536999999998
#
# number of rings (size 3 to 8) (size 9 to 14) (size 15 to 20)
#    0.000    2.667    0.000    1.600    1.867    3.200 
#    7.200    0.000    0.000    0.000   10.400    0.000 
#    0.000    0.000    0.000    0.000    0.000    0.000 
#
# Total GULP energy -334152.918836 kJ/mol
# GULP energy per Si atom -5569.215314 kJ/mol
# Density = 2.122013 g / cm^3
# Si number density = 21.268537 Si / 1000 Ang^3
#
#
#
# Elastic Constant Matrix: (Units=GPa)
#
#
# Indices 1 2 3 4 5 6 
#
# 1 49.9257 7.4915 5.3065 0.0000 0.0000 0.0000
# 2 7.4915 55.2607 -12.6271 0.0000 0.0000 0.0000
# 3 5.3065 -12.6271 31.1248 0.0000 0.0000 0.0000
# 4 0.0000 0.0000 0.0000 -2.6605 0.0000 0.0000
# 5 0.0000 0.0000 0.0000 0.0000 0.3017 0.0000
# 6 0.0000 0.0000 0.0000 0.0000 0.0000 19.6355
#
#
#
# Elastic Compliance Matrix: (Units=1/GPa)
#
#
# Indices 1 2 3 4 5 6 
#
# 1 0.021202 -0.004078 -0.005269 0.000000 0.000000 0.000000
# 2 -0.004078 0.020729 0.009105 0.000000 0.000000 0.000000
# 3 -0.005269 0.009105 0.036721 0.000000 0.000000 0.000000
# 4 0.000000 0.000000 0.000000 -0.375875 0.000000 0.000000
# 5 0.000000 0.000000 0.000000 0.000000 3.314543 0.000000
# 6 0.000000 0.000000 0.000000 0.000000 0.000000 0.050928
#
#
# Mechanical properties :
#
#
# Convention : Reuss Voigt Hill
#
# Bulk Modulus (GPa) = 12.79307 15.18365 13.98836
# Shear Modulus (GPa) = 1.61562 12.53137 7.07350
#
# Velocity S-wave (km/s) = 0.87251 2.42997 1.82566
# Velocity P-wave (km/s) = 2.65389 3.87654 3.32195
#
# Compressibility (1/GPa) = 0.07816730
#
# Stress axis : x y z
#
# Youngs Moduli (GPa) = 47.16586 48.24061 27.23245
#
# Poissons Ratio (x) = 0.19674 0.14349
# Poissons Ratio (y) = 0.19235 -0.24795
# Poissons Ratio (z) = 0.24853 -0.43923
#
# Static dielectric constant tensor:
#      x y z
#    x 1.884990 0.000000 0.000000 
#    y 0.000000 1.871910 0.000000 
#    z 0.000000 0.000000 1.759310 
# 
# From -- ./inp_files/28327.got.cif
#   From: 2010.05.17/outbox.cif.g08.bks.cpg/sg54_15_cif.got.tgz:28327.got - 2010.06.03 13:09:01.
