data_PCOD9420380
_publ_section_title
;
Structure prediction by ZEFSAII (Michael W. Deem and Ramdas Pophale) SiO2 
 PCOD9420380
Probable space group: P C C A
;
_chemical_formula_sum "Si O2"
_cell_formula_units_Z 60
_cell_length_a 18.728534
_cell_length_b 12.390656
_cell_length_c 11.710087
_cell_angle_alpha 90.000000
_cell_angle_beta 90.000000
_cell_angle_gamma 90.000000
_cell_volume 2717.428997
_symmetry_space_group_name_H-M "P C C A"
_symmetry_group_IT_number 54
_symmetry_cell_setting 'orthorhombic'
loop_
_space_group_symop_operation_xyz
x,y,z
1/2-x,-y,z
1/2+x,-y,1/2-z
-x,y,1/2-z
-x,-y,-z
1/2+x,y,-z
1/2-x,y,1/2+z
x,-y,1/2+z
loop_
_atom_site_type_symbol
_atom_site_label
_atom_site_fract_x
_atom_site_fract_y
_atom_site_fract_z
Si Si1 0.923512 0.869888 0.219490
Si Si2 0.359178 0.871832 0.534814
Si Si3 0.995743 0.576479 0.885296
Si Si4 0.750000 0.500000 0.481882
Si Si5 0.652071 0.668052 0.097091
Si Si6 0.013794 0.901010 0.867295
Si Si7 0.862348 0.891026 0.988442
Si Si8 0.839990 0.316478 0.360390
O O1 0.875120 0.867429 0.331150
O O2 0.000000 0.816099 0.250000
O O3 0.946537 0.991142 0.179691
O O4 0.880867 0.833868 0.108382
O O5 0.323317 0.765335 0.484838
O O6 0.434640 0.863966 0.466941
O O7 0.328817 0.989821 0.503093
O O8 0.067357 0.645863 0.901858
O O9 0.000000 0.533240 0.750000
O O10 0.921626 0.644228 0.888302
O O11 0.000000 0.500000 0.000000
O O12 0.808612 0.560062 0.558050
O O13 0.789291 0.409924 0.407103
O O14 0.670346 0.695453 0.226147
O O15 0.000000 0.835621 0.750000
O O16 0.937639 0.917362 0.925142
O O17 0.825653 0.800769 0.913160
#
# Coordination Sequence:
#
# PCOD9420380 Si02
#       8
#     8   8   8   4   8   8   8   8
#     4  10  17  30  48  92 145 185 214 260 326 416
#     4  11  20  35  58  96 139 180 224 275 341 415
#     4  10  21  44  70 107 139 177 235 305 358 413
#     4  12  26  54  76  96 126 182 254 296 358 424
#     4  11  25  45  76 101 139 184 230 293 361 419
#     4  10  16  27  53  87 142 186 212 263 334 414
#     4  11  20  34  59  96 140 182 224 274 342 415
#     4  11  25  46  75 103 139 182 232 294 357 425
#
# _framework density 22.079692999999999
#
# number of rings (size 3 to 8) (size 9 to 14) (size 15 to 20)
#    0.000    1.333    5.333    2.800    1.867    1.067 
#    7.200    0.667    0.000    1.600    0.000    0.000 
#    0.000    0.000    0.000    0.000    0.000    0.000 
#
# Total GULP energy -334714.750934 kJ/mol
# GULP energy per Si atom -5578.579182 kJ/mol
# Density = 2.202944 g / cm^3
# Si number density = 22.079693 Si / 1000 Ang^3
#
#
#
# Elastic Constant Matrix: (Units=GPa)
#
#
# Indices 1 2 3 4 5 6 
#
# 1 80.4957 22.7401 20.7197 0.0000 0.0000 0.0000
# 2 22.7401 120.9207 54.1989 0.0000 0.0000 0.0000
# 3 20.7197 54.1989 185.0533 0.0000 0.0000 0.0000
# 4 0.0000 0.0000 0.0000 29.4233 0.0000 0.0000
# 5 0.0000 0.0000 0.0000 0.0000 -7.0050 0.0000
# 6 0.0000 0.0000 0.0000 0.0000 0.0000 36.7849
#
#
#
# Elastic Compliance Matrix: (Units=1/GPa)
#
#
# Indices 1 2 3 4 5 6 
#
# 1 0.013240 -0.002101 -0.000867 0.000000 0.000000 0.000000
# 2 -0.002101 0.009853 -0.002651 0.000000 0.000000 0.000000
# 3 -0.000867 -0.002651 0.006277 0.000000 0.000000 0.000000
# 4 0.000000 0.000000 0.000000 0.033987 0.000000 0.000000
# 5 0.000000 0.000000 0.000000 0.000000 -0.142754 0.000000
# 6 0.000000 0.000000 0.000000 0.000000 0.000000 0.027185
#
#
# Mechanical properties :
#
#
# Convention : Reuss Voigt Hill
#
# Bulk Modulus (GPa) = 55.14948 64.64301 59.89624
# Shear Modulus (GPa) = -143.14001 31.09471 -56.02265
#
# Velocity S-wave (km/s) = -8.06037 3.75680 -5.04262
# Velocity P-wave (km/s) = 7.84821 6.93965 2.59188
#
# Compressibility (1/GPa) = 0.01813254
#
# Stress axis : x y z
#
# Youngs Moduli (GPa) = 75.52993 101.49146 159.30637
#
# Poissons Ratio (x) = 0.21326 0.13812
# Poissons Ratio (y) = 0.15871 0.42224
# Poissons Ratio (z) = 0.06548 0.26900
#
# Static dielectric constant tensor:
#      x y z
#    x 1.860740 0.000000 0.000000 
#    y 0.000000 1.915690 0.000000 
#    z 0.000000 0.000000 1.848800 
# 
# From -- ./inp_files/9610.got.cif
#   From: 2010.05.17/outbox.cif.g08.bks.cpg/sg54_5_cif.got.tgz:9610.got - 2010.06.03 13:09:01.
