data_PCOD9420007
_publ_section_title
;
Structure prediction by ZEFSAII (Michael W. Deem and Ramdas Pophale) SiO2 
 PCOD9420007
Probable space group: P M N A
;
_chemical_formula_sum "Si O2"
_cell_formula_units_Z 20
_cell_length_a 29.918134
_cell_length_b 5.232755
_cell_length_c 5.361556
_cell_angle_alpha 90.000000
_cell_angle_beta 90.000000
_cell_angle_gamma 90.000000
_cell_volume 839.374460
_symmetry_space_group_name_H-M "P M N A"
_symmetry_group_IT_number 53
_symmetry_cell_setting 'orthorhombic'
loop_
_space_group_symop_operation_xyz
x,y,z
1/2-x,-y,1/2+z
x,-y,-z
1/2-x,y,1/2-z
-x,-y,-z
1/2+x,y,1/2-z
-x,y,z
1/2+x,-y,1/2+z
loop_
_atom_site_type_symbol
_atom_site_label
_atom_site_fract_x
_atom_site_fract_y
_atom_site_fract_z
Si Si1 0.599786 0.650585 0.244609
Si Si2 0.221268 0.500000 0.000000
Si Si3 0.660832 0.000000 0.500000
Si Si4 0.000000 0.833537 0.251929
O O1 0.608592 0.500000 0.500000
O O2 0.546441 0.684001 0.238976
O O3 0.626871 0.913261 0.280686
O O4 0.614479 0.500000 0.000000
O O5 0.250000 0.456252 0.750000
O O6 0.192156 0.244320 0.046232
O O7 0.000000 0.000000 0.500000
O O8 0.000000 0.000000 0.000000
#
# Coordination Sequence:
#
# PCOD9420007 Si02
#       4
#     8   4   4   4
#     4  12  27  47  76 113 161 211 264 321 384 466
#     4  12  30  54  82 115 156 201 256 332 418 490
#     4  12  28  53  84 118 156 204 266 331 398 484
#     4  12  24  44  72 109 163 215 261 317 382 453
#
# _framework density 23.827268
#
# number of rings (size 3 to 8) (size 9 to 14) (size 15 to 20)
#    0.000    0.000    4.000    4.800    2.800    3.200 
#    0.000    0.000    0.000    0.000    0.000    0.000 
#    0.000    0.000    0.000    0.000    0.000    0.000 
#
# Total GULP energy -112048.907802 kJ/mol
# GULP energy per Si atom -5602.445390 kJ/mol
# Density = 2.377304 g / cm^3
# Si number density = 23.827268 Si / 1000 Ang^3
#
#
#
# Elastic Constant Matrix: (Units=GPa)
#
#
# Indices 1 2 3 4 5 6 
#
# 1 160.4342 79.2208 54.2723 0.0000 0.0000 0.0000
# 2 79.2208 161.3038 79.7514 0.0000 0.0000 0.0000
# 3 54.2723 79.7514 224.9516 0.0000 0.0000 0.0000
# 4 0.0000 0.0000 0.0000 61.3855 0.0000 0.0000
# 5 0.0000 0.0000 0.0000 0.0000 -76.9621 0.0000
# 6 0.0000 0.0000 0.0000 0.0000 0.0000 72.0329
#
#
#
# Elastic Compliance Matrix: (Units=1/GPa)
#
#
# Indices 1 2 3 4 5 6 
#
# 1 0.008313 -0.003748 -0.000677 0.000000 0.000000 0.000000
# 2 -0.003748 0.009207 -0.002360 0.000000 0.000000 0.000000
# 3 -0.000677 -0.002360 0.005445 0.000000 0.000000 0.000000
# 4 0.000000 0.000000 0.000000 0.016291 0.000000 0.000000
# 5 0.000000 0.000000 0.000000 0.000000 -0.012993 0.000000
# 6 0.000000 0.000000 0.000000 0.000000 0.000000 0.013883
#
#
# Mechanical properties :
#
#
# Convention : Reuss Voigt Hill
#
# Bulk Modulus (GPa) = 106.43124 108.13095 107.28109
# Shear Modulus (GPa) = 87.95695 33.52092 60.73893
#
# Velocity S-wave (km/s) = 6.08231 3.75484 5.05437
# Velocity P-wave (km/s) = 9.70004 8.01737 8.89857
#
# Compressibility (1/GPa) = 0.00939574
#
# Stress axis : x y z
#
# Youngs Moduli (GPa) = 120.29698 108.61300 183.64393
#
# Poissons Ratio (x) = 0.40708 0.12429
# Poissons Ratio (y) = 0.45088 0.43338
# Poissons Ratio (z) = 0.08141 0.25631
#
# Static dielectric constant tensor:
#      x y z
#    x 1.999840 0.000000 0.000000 
#    y 0.000000 1.968610 0.000000 
#    z 0.000000 0.000000 1.632390 
# 
# From -- ./inp_files/3991.got.cif
#   From: 2010.05.17/outbox.cif.g08.bks.cpg/sg53_2_cif.got.tgz:3991.got - 2010.06.03 12:45:16.
