data_PCOD9420552
_publ_section_title
;
Structure prediction by ZEFSAII (Michael W. Deem and Ramdas Pophale) SiO2 
 PCOD9420552
Probable space group: P C C A
;
_chemical_formula_sum "Si O2"
_cell_formula_units_Z 40
_cell_length_a 5.753468
_cell_length_b 11.857548
_cell_length_c 32.773258
_cell_angle_alpha 90.000000
_cell_angle_beta 90.000000
_cell_angle_gamma 90.000000
_cell_volume 2235.857960
_symmetry_space_group_name_H-M "P C C A"
_symmetry_group_IT_number 54
_symmetry_cell_setting 'orthorhombic'
loop_
_space_group_symop_operation_xyz
x,y,z
1/2-x,-y,z
1/2+x,-y,1/2-z
-x,y,1/2-z
-x,-y,-z
1/2+x,y,-z
1/2-x,y,1/2+z
x,-y,1/2+z
loop_
_atom_site_type_symbol
_atom_site_label
_atom_site_fract_x
_atom_site_fract_y
_atom_site_fract_z
Si Si1 0.498561 0.867770 0.984598
Si Si2 0.500000 0.224339 0.250000
Si Si3 0.863080 0.391843 0.209973
Si Si4 0.396770 0.889750 0.606880
Si Si5 0.631771 0.179468 0.816086
Si Si6 0.250000 0.000000 0.332430
O O1 0.506953 0.848843 0.935950
O O2 0.748342 0.822443 0.000347
O O3 0.500000 0.000000 0.000000
O O4 0.662347 0.306429 0.223768
O O5 0.332656 0.160137 0.218022
O O6 0.750000 0.500000 0.188630
O O7 0.000000 0.436369 0.250000
O O8 0.040551 0.306426 0.189062
O O9 0.224813 0.826571 0.637768
O O10 0.603150 0.921948 0.637234
O O11 0.250000 0.000000 0.594852
O O12 0.431211 0.084138 0.810155
#
# Coordination Sequence:
#
# PCOD9420552 Si02
#       6
#     8   4   8   8   8   4
#     4  10  18  29  49  81 104 143 190 238 277 338
#     4  10  20  38  56  80 102 140 190 238 284 332
#     4  10  19  35  61  79  99 130 183 243 296 329
#     4  10  19  32  52  72 109 148 184 226 284 325
#     4  10  22  34  58  77 109 149 189 233 274 344
#     4  10  20  36  54  74 108 160 184 224 270 332
#
# _framework density 17.890224
#
# number of rings (size 3 to 8) (size 9 to 14) (size 15 to 20)
#    0.000    2.000    3.000    2.400    2.800    0.000 
#    0.000    0.000  158.400    0.000    0.000    0.000 
#    0.000    1.600    0.000    0.400    0.000    0.000 
#
# Total GULP energy -222684.993621 kJ/mol
# GULP energy per Si atom -5567.124841 kJ/mol
# Density = 1.784950 g / cm^3
# Si number density = 17.890224 Si / 1000 Ang^3
#
#
#
# Elastic Constant Matrix: (Units=GPa)
#
#
# Indices 1 2 3 4 5 6 
#
# 1 113.9247 24.8476 31.4090 0.0000 0.0000 0.0000
# 2 24.8476 56.3308 36.6728 0.0000 0.0000 0.0000
# 3 31.4090 36.6728 80.7213 0.0000 0.0000 0.0000
# 4 0.0000 0.0000 0.0000 325.9091 0.0000 0.0000
# 5 0.0000 0.0000 0.0000 0.0000 -14.4050 0.0000
# 6 0.0000 0.0000 0.0000 0.0000 0.0000 25.3914
#
#
#
# Elastic Compliance Matrix: (Units=1/GPa)
#
#
# Indices 1 2 3 4 5 6 
#
# 1 0.010113 -0.002697 -0.002710 0.000000 0.000000 0.000000
# 2 -0.002697 0.025927 -0.010730 0.000000 0.000000 0.000000
# 3 -0.002710 -0.010730 0.018317 0.000000 0.000000 0.000000
# 4 0.000000 0.000000 0.000000 0.003068 0.000000 0.000000
# 5 0.000000 0.000000 0.000000 0.000000 -0.069421 0.000000
# 6 0.000000 0.000000 0.000000 0.000000 0.000000 0.039383
#
#
# Mechanical properties :
#
#
# Convention : Reuss Voigt Hill
#
# Bulk Modulus (GPa) = 45.27976 48.53728 46.90852
# Shear Modulus (GPa) = 74.60136 77.91562 76.25849
#
# Velocity S-wave (km/s) = 6.46452 6.60656 6.53593
# Velocity P-wave (km/s) = 9.00471 9.24040 9.12332
#
# Compressibility (1/GPa) = 0.02208492
#
# Stress axis : x y z
#
# Youngs Moduli (GPa) = 98.88267 38.56968 54.59291
#
# Poissons Ratio (x) = 0.10401 0.14794
# Poissons Ratio (y) = 0.26665 0.58577
# Poissons Ratio (z) = 0.26796 0.41384
#
# Static dielectric constant tensor:
#      x y z
#    x 1.720110 0.000000 0.000000 
#    y 0.000000 1.598830 0.000000 
#    z 0.000000 0.000000 1.621080 
# 
# From -- ./inp_files/27090.got.cif
#   From: 2010.05.17/outbox.cif.g08.bks.cpg/sg54_14_cif.got.tgz:27090.got - 2010.06.03 13:09:01.
