data_PCOD9420694
_publ_section_title
;
Structure prediction by ZEFSAII (Michael W. Deem and Ramdas Pophale) SiO2 
 PCOD9420694
Probable space group: P C C A
;
_chemical_formula_sum "Si O2"
_cell_formula_units_Z 60
_cell_length_a 9.365689
_cell_length_b 12.127704
_cell_length_c 24.554676
_cell_angle_alpha 90.000000
_cell_angle_beta 90.000000
_cell_angle_gamma 90.000000
_cell_volume 2789.025782
_symmetry_space_group_name_H-M "P C C A"
_symmetry_group_IT_number 54
_symmetry_cell_setting 'orthorhombic'
loop_
_space_group_symop_operation_xyz
x,y,z
1/2-x,-y,z
1/2+x,-y,1/2-z
-x,y,1/2-z
-x,-y,-z
1/2+x,y,-z
1/2-x,y,1/2+z
x,-y,1/2+z
loop_
_atom_site_type_symbol
_atom_site_label
_atom_site_fract_x
_atom_site_fract_y
_atom_site_fract_z
Si Si1 0.351951 0.579429 0.221061
Si Si2 0.250000 0.500000 0.026266
Si Si3 0.893060 0.299242 0.109444
Si Si4 0.917234 0.776915 0.100004
Si Si5 0.130462 0.731214 0.520327
Si Si6 0.900906 0.194675 0.300297
Si Si7 0.290991 0.883279 0.606153
Si Si8 0.510114 0.471476 0.383586
O O1 0.250000 0.500000 0.254486
O O2 0.500000 0.594104 0.250000
O O3 0.296361 0.703407 0.216028
O O4 0.392453 0.511365 0.166823
O O5 0.298347 0.615374 0.999894
O O6 0.387223 0.476845 0.063929
O O7 0.749938 0.228270 0.114864
O O8 0.890401 0.432701 0.113037
O O9 0.984408 0.281582 0.054396
O O10 0.992465 0.255713 0.157982
O O11 0.964382 0.654392 0.119025
O O12 0.042444 0.859905 0.118637
O O13 0.908850 0.792402 0.034758
O O14 0.236896 0.789007 0.563667
O O15 0.804700 0.119142 0.338765
O O16 0.000000 0.153752 0.250000
O O17 0.250000 0.000000 0.579827
#
# Coordination Sequence:
#
# PCOD9420694 Si02
#       8
#     8   4   8   8   8   8   8   8
#     4  10  19  32  55  83 118 161 200 242 306 380
#     4  10  18  34  60  84 120 166 206 248 310 382
#     4   9  21  34  55  91 126 154 196 253 318 373
#     4  12  22  36  58  90 125 159 210 262 304 370
#     4  10  22  38  60  89 125 171 206 248 318 377
#     4   9  20  43  65  82 117 161 204 253 319 381
#     4  11  24  44  65  89 121 166 216 263 313 377
#     4  10  19  32  54  82 123 161 200 248 312 376
#
# _framework density 21.512889000000001
#
# number of rings (size 3 to 8) (size 9 to 14) (size 15 to 20)
#    0.000    1.867    2.000    2.800    1.867    4.800 
#    0.000    4.667    0.000    0.000    0.000    0.000 
#    0.000    0.000    0.000    0.000    0.000    0.000 
#
# Total GULP energy -334247.272999 kJ/mol
# GULP energy per Si atom -5570.787883 kJ/mol
# Density = 2.146392 g / cm^3
# Si number density = 21.512889 Si / 1000 Ang^3
#
#
#
# Elastic Constant Matrix: (Units=GPa)
#
#
# Indices 1 2 3 4 5 6 
#
# 1 104.1112 30.7977 7.0641 0.0000 0.0000 0.0000
# 2 30.7977 60.9481 -3.5343 0.0000 0.0000 0.0000
# 3 7.0641 -3.5343 57.5096 0.0000 0.0000 0.0000
# 4 0.0000 0.0000 0.0000 9.1589 0.0000 0.0000
# 5 0.0000 0.0000 0.0000 0.0000 5.8120 0.0000
# 6 0.0000 0.0000 0.0000 0.0000 0.0000 23.5090
#
#
#
# Elastic Compliance Matrix: (Units=1/GPa)
#
#
# Indices 1 2 3 4 5 6 
#
# 1 0.011470 -0.005899 -0.001771 0.000000 0.000000 0.000000
# 2 -0.005899 0.019500 0.001923 0.000000 0.000000 0.000000
# 3 -0.001771 0.001923 0.017724 0.000000 0.000000 0.000000
# 4 0.000000 0.000000 0.000000 0.109183 0.000000 0.000000
# 5 0.000000 0.000000 0.000000 0.000000 0.172056 0.000000
# 6 0.000000 0.000000 0.000000 0.000000 0.000000 0.042537
#
#
# Mechanical properties :
#
#
# Convention : Reuss Voigt Hill
#
# Bulk Modulus (GPa) = 26.88209 32.35821 29.62015
# Shear Modulus (GPa) = 12.61464 20.24543 16.43003
#
# Velocity S-wave (km/s) = 2.42415 3.07104 2.76656
# Velocity P-wave (km/s) = 4.51201 5.25823 4.89935
#
# Compressibility (1/GPa) = 0.03719949
#
# Stress axis : x y z
#
# Youngs Moduli (GPa) = 87.18199 51.28306 56.42014
#
# Poissons Ratio (x) = 0.30251 0.09994
# Poissons Ratio (y) = 0.51427 -0.10849
# Poissons Ratio (z) = 0.15444 -0.09861
#
# Static dielectric constant tensor:
#      x y z
#    x 1.875280 0.000000 0.000000 
#    y 0.000000 2.386250 0.000000 
#    z 0.000000 0.000000 1.830500 
# 
# From -- ./inp_files/25949.got.cif
#   From: 2010.05.17/outbox.cif.g08.bks.cpg/sg54_13_cif.got.tgz:25949.got - 2010.06.03 13:09:01.
