data_PCOD9420205
_publ_section_title
;
Structure prediction by ZEFSAII (Michael W. Deem and Ramdas Pophale) SiO2 
 PCOD9420205
Probable space group: P M N A
;
_chemical_formula_sum "Si O2"
_cell_formula_units_Z 64
_cell_length_a 9.000000
_cell_length_b 15.000000
_cell_length_c 24.000000
_cell_angle_alpha 90.000000
_cell_angle_beta 90.000000
_cell_angle_gamma 90.000000
_cell_volume 3240.000000
_symmetry_space_group_name_H-M "P M N A"
_symmetry_group_IT_number 53
_symmetry_cell_setting 'orthorhombic'
loop_
_space_group_symop_operation_xyz
x,y,z
1/2-x,-y,1/2+z
x,-y,-z
1/2-x,y,1/2-z
-x,-y,-z
1/2+x,y,1/2-z
-x,y,z
1/2+x,-y,1/2+z
loop_
_atom_site_type_symbol
_atom_site_label
_atom_site_fract_x
_atom_site_fract_y
_atom_site_fract_z
Si Si1 0.827743 0.810797 0.307350
Si Si2 0.164798 0.729009 0.419480
Si Si3 0.676168 0.966389 0.377522
Si Si4 0.676803 0.289687 0.195875
Si Si5 0.328936 0.476388 0.935796
Si Si6 0.673421 0.858719 0.894355
Si Si7 0.680525 0.516597 0.688314
Si Si8 0.173162 0.131002 0.987467
O O1 0.750000 0.789569 0.250000
O O2 0.814239 0.733303 0.353127
O O3 0.754628 0.895207 0.338025
O O4 0.000000 0.829044 0.297130
O O5 0.161705 0.629587 0.439357
O O6 0.293585 0.782772 0.449654
O O7 0.000000 0.770978 0.430227
O O8 0.500000 0.957655 0.372417
O O9 0.713567 0.946115 0.442839
O O10 0.733481 0.064016 0.364666
O O11 0.750000 0.243022 0.250000
O O12 0.500000 0.306341 0.204618
O O13 0.692045 0.231482 0.140260
O O14 0.769356 0.380240 0.189946
O O15 0.500000 0.512834 0.930092
O O16 0.243502 0.491012 0.875187
O O17 0.274674 0.500000 0.000000
O O18 0.500000 0.882427 0.894193
O O19 0.732101 0.855569 0.957305
O O20 0.750000 0.482001 0.750000
O O21 0.500000 0.504611 0.689685
O O22 0.000000 0.121328 0.002121
#
# Coordination Sequence:
#
# PCOD9420205 Si02
#       8
#     8   8   8   8   8   8   8   8
#     4  10  20  36  58  82 112 149 193 237 286 345
#     4   9  20  38  58  84 116 154 193 234 289 350
#     4  10  21  37  55  80 114 149 190 238 289 340
#     4  10  22  40  60  83 112 147 191 238 289 346
#     4  10  22  40  63  92 128 163 200 250 307 364
#     4  11  23  36  56  83 112 150 192 236 289 347
#     4  11  23  41  65  90 121 160 204 249 301 363
#     4  10  21  36  56  82 114 151 191 238 288 341
#
# _framework density 19.753086
#
# number of rings (size 3 to 8) (size 9 to 14) (size 15 to 20)
#    0.000    1.875    0.000    4.125    1.750    7.250 
#    0.000    2.500    0.000    0.000    0.000    0.000 
#    0.000    0.000    0.000    0.000    0.000    0.000 
#
# Total GULP energy -356445.548132 kJ/mol
# GULP energy per Si atom -5569.461690 kJ/mol
# Density = 1.970813 g / cm^3
# Si number density = 19.753086 Si / 1000 Ang^3
#
#
#
# Elastic Constant Matrix: (Units=GPa)
#
#
# Indices 1 2 3 4 5 6 
#
# 1 84.3469 8.3545 40.8043 0.0000 0.0000 0.0000
# 2 8.3545 30.9054 14.7408 0.0000 0.0000 0.0000
# 3 40.8043 14.7408 106.6632 0.0000 0.0000 0.0000
# 4 0.0000 0.0000 0.0000 16.5651 0.0000 0.0000
# 5 0.0000 0.0000 0.0000 0.0000 42.5346 0.0000
# 6 0.0000 0.0000 0.0000 0.0000 0.0000 20.0599
#
#
#
# Elastic Compliance Matrix: (Units=1/GPa)
#
#
# Indices 1 2 3 4 5 6 
#
# 1 0.014602 -0.001374 -0.005396 0.000000 0.000000 0.000000
# 2 -0.001374 0.034769 -0.004280 0.000000 0.000000 0.000000
# 3 -0.005396 -0.004280 0.012031 0.000000 0.000000 0.000000
# 4 0.000000 0.000000 0.000000 0.060368 0.000000 0.000000
# 5 0.000000 0.000000 0.000000 0.000000 0.023510 0.000000
# 6 0.000000 0.000000 0.000000 0.000000 0.000000 0.049851
#
#
# Mechanical properties :
#
#
# Convention : Reuss Voigt Hill
#
# Bulk Modulus (GPa) = 25.44284 38.85720 32.15002
# Shear Modulus (GPa) = 21.70776 26.36630 24.03703
#
# Velocity S-wave (km/s) = 3.31865 3.65745 3.49216
# Velocity P-wave (km/s) = 5.25290 6.12781 5.70714
#
# Compressibility (1/GPa) = 0.03930379
#
# Stress axis : x y z
#
# Youngs Moduli (GPa) = 68.48171 28.76096 83.11751
#
# Poissons Ratio (x) = 0.03950 0.44853
# Poissons Ratio (y) = 0.09406 0.35572
# Poissons Ratio (z) = 0.36955 0.12309
#
# Static dielectric constant tensor:
#      x y z
#    x 1.693180 0.000000 0.000000 
#    y 0.000000 1.721760 0.000000 
#    z 0.000000 0.000000 1.730940 
# 
# From -- ./inp_files/34223.got.cif
#   From: 2010.05.17/outbox.ucp.g08.bks.cvg/sg53_18_cif.got.tgz:34223.got - 2010.06.11 16:32:34.
