data_PCOD9420883
_publ_section_title
;
Structure prediction by ZEFSAII (Michael W. Deem and Ramdas Pophale) SiO2 
 PCOD9420883
Probable space group: P C C A
;
_chemical_formula_sum "Si O2"
_cell_formula_units_Z 48
_cell_length_a 17.688793
_cell_length_b 20.858710
_cell_length_c 5.514415
_cell_angle_alpha 90.000000
_cell_angle_beta 90.000000
_cell_angle_gamma 90.000000
_cell_volume 2034.628355
_symmetry_space_group_name_H-M "P C C A"
_symmetry_group_IT_number 54
_symmetry_cell_setting 'orthorhombic'
loop_
_space_group_symop_operation_xyz
x,y,z
1/2-x,-y,z
1/2+x,-y,1/2-z
-x,y,1/2-z
-x,-y,-z
1/2+x,y,-z
1/2-x,y,1/2+z
x,-y,1/2+z
loop_
_atom_site_type_symbol
_atom_site_label
_atom_site_fract_x
_atom_site_fract_y
_atom_site_fract_z
Si Si1 0.114980 0.664751 0.374892
Si Si2 0.663840 0.475114 0.028701
Si Si3 0.098305 0.704210 0.876364
Si Si4 0.244060 0.766779 0.354539
Si Si5 0.543942 0.845772 0.003884
Si Si6 0.591590 0.972270 0.795788
O O1 0.161320 0.600295 0.421140
O O2 0.078919 0.662116 0.110037
O O3 0.166127 0.728471 0.351898
O O4 0.070086 0.678149 0.620240
O O5 0.750000 0.500000 0.010135
O O6 0.628783 0.491216 0.766535
O O7 0.190506 0.711670 0.855525
O O8 0.075685 0.777725 0.914618
O O9 0.252067 0.803915 0.105153
O O10 0.500000 0.832791 0.750000
O O11 0.599616 0.901841 0.915252
O O12 0.500000 0.868831 0.250000
O O13 0.500000 0.978883 0.750000
O O14 0.619498 0.982551 0.518749
#
# Coordination Sequence:
#
# PCOD9420883 Si02
#       6
#     8   8   8   8   8   8
#     4  10  19  32  47  68 101 131 154 192 241 294
#     4  10  21  27  44  69 100 132 149 179 236 307
#     4  10  20  31  48  66  95 135 164 190 238 287
#     4   8  16  26  45  60  88 122 154 180 231 274
#     4  11  21  33  49  72 104 129 165 208 234 277
#     4   9  16  28  47  70  95 128 155 187 247 301
#
# _framework density 23.591531
#
# number of rings (size 3 to 8) (size 9 to 14) (size 15 to 20)
#    0.000    2.333    0.000    4.500   14.000    0.000 
#    0.000    0.000    0.000    0.000    0.000    0.000 
#    0.000   82.667    0.000    0.000    0.000    2.833 
#
# Total GULP energy -267465.474992 kJ/mol
# GULP energy per Si atom -5572.197396 kJ/mol
# Density = 2.353784 g / cm^3
# Si number density = 23.591531 Si / 1000 Ang^3
#
#
#
# Elastic Constant Matrix: (Units=GPa)
#
#
# Indices 1 2 3 4 5 6 
#
# 1 35.6541 3.7542 20.7102 0.0000 0.0000 0.0000
# 2 3.7542 88.6432 15.5951 0.0000 0.0000 0.0000
# 3 20.7102 15.5951 248.3476 0.0000 0.0000 0.0000
# 4 0.0000 0.0000 0.0000 35.2475 0.0000 0.0000
# 5 0.0000 0.0000 0.0000 0.0000 18.8417 0.0000
# 6 0.0000 0.0000 0.0000 0.0000 0.0000 27.9118
#
#
#
# Elastic Compliance Matrix: (Units=1/GPa)
#
#
# Indices 1 2 3 4 5 6 
#
# 1 0.029535 -0.000827 -0.002411 0.000000 0.000000 0.000000
# 2 -0.000827 0.011430 -0.000649 0.000000 0.000000 0.000000
# 3 -0.002411 -0.000649 0.004268 0.000000 0.000000 0.000000
# 4 0.000000 0.000000 0.000000 0.028371 0.000000 0.000000
# 5 0.000000 0.000000 0.000000 0.000000 0.053074 0.000000
# 6 0.000000 0.000000 0.000000 0.000000 0.000000 0.035827
#
#
# Mechanical properties :
#
#
# Convention : Reuss Voigt Hill
#
# Bulk Modulus (GPa) = 26.69483 50.30709 38.50096
# Shear Modulus (GPa) = 27.35753 38.57258 32.96506
#
# Velocity S-wave (km/s) = 3.40903 4.04792 3.74214
# Velocity P-wave (km/s) = 5.18028 6.57405 5.91834
#
# Compressibility (1/GPa) = 0.03746043
#
# Stress axis : x y z
#
# Youngs Moduli (GPa) = 33.85840 87.48643 234.27866
#
# Poissons Ratio (x) = 0.07232 0.56486
# Poissons Ratio (y) = 0.02799 0.15201
# Poissons Ratio (z) = 0.08163 0.05676
#
# Static dielectric constant tensor:
#      x y z
#    x 1.969220 0.000000 0.000000 
#    y 0.000000 1.847760 0.000000 
#    z 0.000000 0.000000 2.059210 
# 
# From -- ./inp_files/1651.got.cif
#   From: 2010.05.17/outbox.cif.g08.bks.cpg/sg54_1_cif.got.tgz:1651.got - 2010.06.03 13:09:01.
