data_PCOD9420788
_publ_section_title
;
Structure prediction by ZEFSAII (Michael W. Deem and Ramdas Pophale) SiO2 
 PCOD9420788
Probable space group: P C C A
;
_chemical_formula_sum "Si O2"
_cell_formula_units_Z 40
_cell_length_a 5.354093
_cell_length_b 11.651755
_cell_length_c 29.069158
_cell_angle_alpha 90.000000
_cell_angle_beta 90.000000
_cell_angle_gamma 90.000000
_cell_volume 1813.467209
_symmetry_space_group_name_H-M "P C C A"
_symmetry_group_IT_number 54
_symmetry_cell_setting 'orthorhombic'
loop_
_space_group_symop_operation_xyz
x,y,z
1/2-x,-y,z
1/2+x,-y,1/2-z
-x,y,1/2-z
-x,-y,-z
1/2+x,y,-z
1/2-x,y,1/2+z
x,-y,1/2+z
loop_
_atom_site_type_symbol
_atom_site_label
_atom_site_fract_x
_atom_site_fract_y
_atom_site_fract_z
Si Si1 0.860149 0.645823 0.526922
Si Si2 0.080396 0.825925 0.846993
Si Si3 0.993869 0.569257 0.629104
Si Si4 0.000000 0.930288 0.750000
Si Si5 0.750000 0.000000 0.906608
Si Si6 0.154652 0.871325 0.434167
O O1 0.584843 0.617850 0.507712
O O2 0.937191 0.591409 0.575237
O O3 0.813496 0.780775 0.537788
O O4 0.980453 0.696772 0.850326
O O5 0.096340 0.860036 0.794173
O O6 0.322765 0.830167 0.880476
O O7 0.923474 0.925524 0.872648
O O8 0.750000 0.500000 0.647101
O O9 0.250000 0.500000 0.634661
O O10 0.250000 0.000000 0.735605
O O11 0.636750 0.898810 0.938648
O O12 0.250000 0.000000 0.441188
#
# Coordination Sequence:
#
# PCOD9420788 Si02
#       6
#     8   8   8   4   4   8
#     4  11  25  40  62  93 127 162 220 288 337 384
#     4  10  23  40  66  99 135 171 221 266 325 396
#     4  11  26  45  70  91 127 180 227 271 327 393
#     4  12  24  40  68 110 142 170 206 268 332 384
#     4  10  18  38  66  90 128 174 216 260 328 400
#     4   9  21  36  59  89 129 177 213 260 329 408
#
# _framework density 22.057192000000001
#
# number of rings (size 3 to 8) (size 9 to 14) (size 15 to 20)
#    0.000    1.600    1.000    3.000   14.000    3.200 
#    0.000    1.000    0.000    0.000    0.000    0.000 
#    0.000    0.000    0.000    0.000    0.000    0.000 
#
# Total GULP energy -222962.533693 kJ/mol
# GULP energy per Si atom -5574.063342 kJ/mol
# Density = 2.200699 g / cm^3
# Si number density = 22.057192 Si / 1000 Ang^3
#
#
#
# Elastic Constant Matrix: (Units=GPa)
#
#
# Indices 1 2 3 4 5 6 
#
# 1 118.5120 50.4089 14.3084 0.0000 0.0000 0.0000
# 2 50.4089 122.6968 15.2794 0.0000 0.0000 0.0000
# 3 14.3084 15.2794 72.4260 0.0000 0.0000 0.0000
# 4 0.0000 0.0000 0.0000 18.0843 0.0000 0.0000
# 5 0.0000 0.0000 0.0000 0.0000 12.1879 0.0000
# 6 0.0000 0.0000 0.0000 0.0000 0.0000 24.5931
#
#
#
# Elastic Compliance Matrix: (Units=1/GPa)
#
#
# Indices 1 2 3 4 5 6 
#
# 1 0.010321 -0.004094 -0.001175 0.000000 0.000000 0.000000
# 2 -0.004094 0.009994 -0.001300 0.000000 0.000000 0.000000
# 3 -0.001175 -0.001300 0.014314 0.000000 0.000000 0.000000
# 4 0.000000 0.000000 0.000000 0.055297 0.000000 0.000000
# 5 0.000000 0.000000 0.000000 0.000000 0.082049 0.000000
# 6 0.000000 0.000000 0.000000 0.000000 0.000000 0.040662
#
#
# Mechanical properties :
#
#
# Convention : Reuss Voigt Hill
#
# Bulk Modulus (GPa) = 46.53133 52.62534 49.57834
# Shear Modulus (GPa) = 21.46499 26.54894 24.00697
#
# Velocity S-wave (km/s) = 3.12292 3.47312 3.30266
# Velocity P-wave (km/s) = 5.84338 6.32406 6.08847
#
# Compressibility (1/GPa) = 0.02149090
#
# Stress axis : x y z
#
# Youngs Moduli (GPa) = 96.88741 100.05998 69.86383
#
# Poissons Ratio (x) = 0.40965 0.08211
# Poissons Ratio (y) = 0.39666 0.09079
# Poissons Ratio (z) = 0.11388 0.13004
#
# Static dielectric constant tensor:
#      x y z
#    x 2.229170 0.000000 0.000000 
#    y 0.000000 1.866330 0.000000 
#    z 0.000000 0.000000 1.808050 
# 
# From -- ./inp_files/27094.got.cif
#   From: 2010.05.17/outbox.cif.g08.bks.cpg/sg54_14_cif.got.tgz:27094.got - 2010.06.03 13:09:01.
