data_PCOD9420741
_publ_section_title
;
Structure prediction by ZEFSAII (Michael W. Deem and Ramdas Pophale) SiO2 
 PCOD9420741
Probable space group: P C C A
;
_chemical_formula_sum "Si O2"
_cell_formula_units_Z 48
_cell_length_a 8.705451
_cell_length_b 13.282651
_cell_length_c 16.545303
_cell_angle_alpha 90.000000
_cell_angle_beta 90.000000
_cell_angle_gamma 90.000000
_cell_volume 1913.157665
_symmetry_space_group_name_H-M "P C C A"
_symmetry_group_IT_number 54
_symmetry_cell_setting 'orthorhombic'
loop_
_space_group_symop_operation_xyz
x,y,z
1/2-x,-y,z
1/2+x,-y,1/2-z
-x,y,1/2-z
-x,-y,-z
1/2+x,y,-z
1/2-x,y,1/2+z
x,-y,1/2+z
loop_
_atom_site_type_symbol
_atom_site_label
_atom_site_fract_x
_atom_site_fract_y
_atom_site_fract_z
Si Si1 0.750000 0.500000 0.611261
Si Si2 0.197137 0.162512 0.383714
Si Si3 0.257057 0.740051 0.644103
Si Si4 0.863072 0.930665 0.458574
Si Si5 0.435172 0.679857 0.849350
Si Si6 0.997810 0.651365 0.541593
Si Si7 0.500000 0.851517 0.250000
O O1 0.828647 0.415449 0.665347
O O2 0.614369 0.442333 0.561506
O O3 0.235218 0.103211 0.463286
O O4 0.340686 0.216519 0.344062
O O5 0.095823 0.097450 0.321446
O O6 0.091900 0.252429 0.420484
O O7 0.350828 0.828256 0.595180
O O8 0.396272 0.684154 0.687870
O O9 0.163000 0.663726 0.585960
O O10 0.130046 0.785654 0.704397
O O11 0.750000 0.000000 0.406777
O O12 0.000000 0.000000 0.500000
O O13 0.468703 0.663735 0.947128
#
# Coordination Sequence:
#
# PCOD9420741 Si02
#       7
#     4   8   8   8   8   8   4
#     4  10  22  30  56 100 132 166 208 288 338 382
#     4  10  21  40  61  91 132 174 218 271 329 392
#     4  11  22  40  66  94 137 176 218 275 332 404
#     4  12  22  38  68 102 127 169 222 269 328 397
#     4  11  19  36  61  90 129 166 225 268 330 392
#     4  10  18  36  59  92 133 168 218 272 336 390
#     4  10  24  42  64  90 130 184 220 264 344 404
#
# _framework density 25.089410999999998
#
# number of rings (size 3 to 8) (size 9 to 14) (size 15 to 20)
#    0.000    1.333    3.333    4.500    0.000    1.333 
#    0.000    2.500    0.000   54.000    0.000    1.167 
#    0.000    0.000    0.000    0.000    0.000    0.000 
#
# Total GULP energy -267441.859575 kJ/mol
# GULP energy per Si atom -5571.705408 kJ/mol
# Density = 2.503231 g / cm^3
# Si number density = 25.089411 Si / 1000 Ang^3
#
#
#
# Elastic Constant Matrix: (Units=GPa)
#
#
# Indices 1 2 3 4 5 6 
#
# 1 164.9224 51.0935 17.9041 0.0000 0.0000 0.0000
# 2 51.0935 89.0374 9.3139 0.0000 0.0000 0.0000
# 3 17.9041 9.3139 67.1578 0.0000 0.0000 0.0000
# 4 0.0000 0.0000 0.0000 17.4516 0.0000 0.0000
# 5 0.0000 0.0000 0.0000 0.0000 52.6631 0.0000
# 6 0.0000 0.0000 0.0000 0.0000 0.0000 40.6817
#
#
#
# Elastic Compliance Matrix: (Units=1/GPa)
#
#
# Indices 1 2 3 4 5 6 
#
# 1 0.007506 -0.004158 -0.001424 0.000000 0.000000 0.000000
# 2 -0.004158 0.013700 -0.000791 0.000000 0.000000 0.000000
# 3 -0.001424 -0.000791 0.015380 0.000000 0.000000 0.000000
# 4 0.000000 0.000000 0.000000 0.057301 0.000000 0.000000
# 5 0.000000 0.000000 0.000000 0.000000 0.018989 0.000000
# 6 0.000000 0.000000 0.000000 0.000000 0.000000 0.024581
#
#
# Mechanical properties :
#
#
# Convention : Reuss Voigt Hill
#
# Bulk Modulus (GPa) = 41.95011 53.08229 47.51620
# Shear Modulus (GPa) = 31.61512 38.34635 34.98073
#
# Velocity S-wave (km/s) = 3.55364 3.91370 3.73801
# Velocity P-wave (km/s) = 5.79606 6.45182 6.13271
#
# Compressibility (1/GPa) = 0.02383784
#
# Stress axis : x y z
#
# Youngs Moduli (GPa) = 133.21936 72.99089 65.02027
#
# Poissons Ratio (x) = 0.30353 0.09262
# Poissons Ratio (y) = 0.55399 0.05146
# Poissons Ratio (z) = 0.18977 0.05777
#
# Static dielectric constant tensor:
#      x y z
#    x 2.050410 0.000000 0.000000 
#    y 0.000000 2.077280 0.000000 
#    z 0.000000 0.000000 2.232240 
# 
# From -- ./inp_files/16699.got.cif
#   From: 2010.05.17/outbox.cif.g08.bks.cpg/sg54_9_cif.got.tgz:16699.got - 2010.06.03 13:09:01.
