data_PCOD9420244
_publ_section_title
;
Structure prediction by ZEFSAII (Michael W. Deem and Ramdas Pophale) SiO2 
 PCOD9420244
Probable space group: P M N A
;
_chemical_formula_sum "Si O2"
_cell_formula_units_Z 56
_cell_length_a 15.000000
_cell_length_b 15.000000
_cell_length_c 12.000000
_cell_angle_alpha 90.000000
_cell_angle_beta 90.000000
_cell_angle_gamma 90.000000
_cell_volume 2700.000000
_symmetry_space_group_name_H-M "P M N A"
_symmetry_group_IT_number 53
_symmetry_cell_setting 'orthorhombic'
loop_
_space_group_symop_operation_xyz
x,y,z
1/2-x,-y,1/2+z
x,-y,-z
1/2-x,y,1/2-z
-x,-y,-z
1/2+x,y,1/2-z
-x,y,z
1/2+x,-y,1/2+z
loop_
_atom_site_type_symbol
_atom_site_label
_atom_site_fract_x
_atom_site_fract_y
_atom_site_fract_z
Si Si1 0.605395 0.244867 0.676729
Si Si2 0.245383 0.359781 0.971317
Si Si3 0.391378 0.907996 0.155319
Si Si4 0.106801 0.896791 0.600075
Si Si5 0.898979 0.417471 0.681071
Si Si6 0.105147 0.295631 0.353161
Si Si7 0.897556 0.572635 0.855541
O O1 0.500000 0.237836 0.633567
O O2 0.682647 0.286885 0.595587
O O3 0.634602 0.153790 0.739879
O O4 0.599033 0.316448 0.776556
O O5 0.309169 0.421375 0.892541
O O6 0.322553 0.322101 0.053990
O O7 0.173333 0.409504 0.048703
O O8 0.500000 0.903549 0.157975
O O9 0.361338 0.011470 0.155591
O O10 0.363601 0.880277 0.028710
O O11 0.122237 0.808247 0.670079
O O12 0.000000 0.908277 0.590921
O O13 0.888649 0.479544 0.789800
O O14 0.000000 0.438908 0.634606
O O15 0.115053 0.354866 0.243104
O O16 0.000000 0.304942 0.390150
O O17 0.000000 0.579365 0.897184
#
# Coordination Sequence:
#
# PCOD9420244 Si02
#       7
#     8   8   8   8   8   8   8
#     4  10  21  36  57  89 126 160 199 249 302 359
#     4  12  23  38  63  89 120 163 203 251 312 367
#     4   8  14  28  53  85 116 150 196 245 296 355
#     4   8  14  28  55  85 113 151 196 243 297 354
#     4  10  23  42  62  87 118 153 198 249 298 356
#     4  10  21  37  59  88 120 156 203 255 303 362
#     4  10  24  44  62  85 119 159 204 250 301 368
#
# _framework density 20.740741
#
# number of rings (size 3 to 8) (size 9 to 14) (size 15 to 20)
#    0.000    2.286    0.000    3.429    0.000    6.857 
#    0.000    4.286    0.000   15.429    0.000    5.000 
#    0.000    2.286    0.000    6.286    0.000    0.571 
#
# Total GULP energy -312439.106272 kJ/mol
# GULP energy per Si atom -5579.269755 kJ/mol
# Density = 2.069353 g / cm^3
# Si number density = 20.740741 Si / 1000 Ang^3
#
#
#
# Elastic Constant Matrix: (Units=GPa)
#
#
# Indices 1 2 3 4 5 6 
#
# 1 150.8080 29.5596 62.7168 0.0000 0.0000 0.0000
# 2 29.5596 94.8445 39.7246 0.0000 0.0000 0.0000
# 3 62.7168 39.7246 82.1296 0.0000 0.0000 0.0000
# 4 0.0000 0.0000 0.0000 31.7693 0.0000 0.0000
# 5 0.0000 0.0000 0.0000 0.0000 38.5811 0.0000
# 6 0.0000 0.0000 0.0000 0.0000 0.0000 13.1423
#
#
#
# Elastic Compliance Matrix: (Units=1/GPa)
#
#
# Indices 1 2 3 4 5 6 
#
# 1 0.009717 0.000100 -0.007469 0.000000 0.000000 0.000000
# 2 0.000100 0.013223 -0.006472 0.000000 0.000000 0.000000
# 3 -0.007469 -0.006472 0.021010 0.000000 0.000000 0.000000
# 4 0.000000 0.000000 0.000000 0.031477 0.000000 0.000000
# 5 0.000000 0.000000 0.000000 0.000000 0.025919 0.000000
# 6 0.000000 0.000000 0.000000 0.000000 0.000000 0.076090
#
#
# Mechanical properties :
#
#
# Convention : Reuss Voigt Hill
#
# Bulk Modulus (GPa) = 61.46958 65.75379 63.61168
# Shear Modulus (GPa) = 23.74825 29.75060 26.74943
#
# Velocity S-wave (km/s) = 3.38746 3.79146 3.59514
# Velocity P-wave (km/s) = 6.70830 7.13712 6.92603
#
# Compressibility (1/GPa) = 0.01626821
#
# Stress axis : x y z
#
# Youngs Moduli (GPa) = 102.90752 75.62460 47.59730
#
# Poissons Ratio (x) = -0.00753 0.35549
# Poissons Ratio (y) = -0.01025 0.30805
# Poissons Ratio (z) = 0.76859 0.48944
#
# Static dielectric constant tensor:
#      x y z
#    x 1.767270 0.000000 0.000000 
#    y 0.000000 1.800850 0.000000 
#    z 0.000000 0.000000 1.754850 
# 
# From -- ./inp_files/16034.got.cif
#   From: 2010.05.17/outbox.ucp.g08.bks.cvg/sg53_9_cif.got.tgz:16034.got - 2010.06.11 16:32:34.
