data_PCOD9420314
_publ_section_title
;
Structure prediction by ZEFSAII (Michael W. Deem and Ramdas Pophale) SiO2 
 PCOD9420314
Probable space group: P C C A
;
_chemical_formula_sum "Si O2"
_cell_formula_units_Z 48
_cell_length_a 14.043193
_cell_length_b 27.900702
_cell_length_c 5.363225
_cell_angle_alpha 90.000000
_cell_angle_beta 90.000000
_cell_angle_gamma 90.000000
_cell_volume 2101.391698
_symmetry_space_group_name_H-M "P C C A"
_symmetry_group_IT_number 54
_symmetry_cell_setting 'orthorhombic'
loop_
_space_group_symop_operation_xyz
x,y,z
1/2-x,-y,z
1/2+x,-y,1/2-z
-x,y,1/2-z
-x,-y,-z
1/2+x,y,-z
1/2-x,y,1/2+z
x,-y,1/2+z
loop_
_atom_site_type_symbol
_atom_site_label
_atom_site_fract_x
_atom_site_fract_y
_atom_site_fract_z
Si Si1 0.612114 0.126454 0.275312
Si Si2 0.811207 0.373033 0.293215
Si Si3 0.360366 0.520091 0.123482
Si Si4 0.611731 0.830572 0.274766
Si Si5 0.811920 0.728832 0.898484
Si Si6 0.390231 0.981644 0.532419
O O1 0.500000 0.138114 0.250000
O O2 0.651221 0.159551 0.498116
O O3 0.616753 0.071975 0.366590
O O4 0.649948 0.135870 0.997808
O O5 0.729829 0.373234 0.511356
O O6 0.862837 0.423253 0.332749
O O7 0.862116 0.322466 0.349119
O O8 0.250000 0.500000 0.108967
O O9 0.402293 0.493627 0.360022
O O10 0.500000 0.841539 0.250000
O O11 0.626584 0.776070 0.356792
O O12 0.732209 0.729951 0.676854
O O13 0.500000 0.000000 0.500000
O O14 0.349873 0.985531 0.254218
#
# Coordination Sequence:
#
# PCOD9420314 Si02
#       6
#     8   8   8   8   8   8
#     4  10  18  29  46  70 101 138 153 195 249 306
#     4  10  16  25  39  61  86 124 150 195 242 294
#     4  10  14  20  34  55  88 114 144 179 245 302
#     4  10  21  34  51  72 101 134 169 208 250 295
#     4  10  21  35  52  70  99 132 174 213 249 291
#     4  10  17  24  41  66 104 133 147 182 252 311
#
# _framework density 22.842003999999999
#
# number of rings (size 3 to 8) (size 9 to 14) (size 15 to 20)
#    0.000    2.000    5.000    2.000    4.667    0.000 
#    0.000    0.000    0.000    0.000    0.000    0.000 
#    0.000   48.000    0.000    0.000    0.000    6.667 
#
# Total GULP energy -267824.813115 kJ/mol
# GULP energy per Si atom -5579.683607 kJ/mol
# Density = 2.279001 g / cm^3
# Si number density = 22.842004 Si / 1000 Ang^3
#
#
#
# Elastic Constant Matrix: (Units=GPa)
#
#
# Indices 1 2 3 4 5 6 
#
# 1 60.7661 -9.0875 11.2121 0.0000 0.0000 0.0000
# 2 -9.0875 135.0779 45.3702 0.0000 0.0000 0.0000
# 3 11.2121 45.3702 150.4909 0.0000 0.0000 0.0000
# 4 0.0000 0.0000 0.0000 40.4246 0.0000 0.0000
# 5 0.0000 0.0000 0.0000 0.0000 -4.0594 0.0000
# 6 0.0000 0.0000 0.0000 0.0000 0.0000 5.2491
#
#
#
# Elastic Compliance Matrix: (Units=1/GPa)
#
#
# Indices 1 2 3 4 5 6 
#
# 1 0.017050 0.001751 -0.001798 0.000000 0.000000 0.000000
# 2 0.001751 0.008417 -0.002668 0.000000 0.000000 0.000000
# 3 -0.001798 -0.002668 0.007583 0.000000 0.000000 0.000000
# 4 0.000000 0.000000 0.000000 0.024737 0.000000 0.000000
# 5 0.000000 0.000000 0.000000 0.000000 -0.246339 0.000000
# 6 0.000000 0.000000 0.000000 0.000000 0.000000 0.190510
#
#
# Mechanical properties :
#
#
# Convention : Reuss Voigt Hill
#
# Bulk Modulus (GPa) = 36.20550 49.03607 42.62078
# Shear Modulus (GPa) = 301.29270 28.24552 164.76911
#
# Velocity S-wave (km/s) = 11.49736 3.52029 8.50240
# Velocity P-wave (km/s) = 13.86136 6.16744 10.72787
#
# Compressibility (1/GPa) = 0.02762012
#
# Stress axis : x y z
#
# Youngs Moduli (GPa) = 58.65038 118.80593 131.86934
#
# Poissons Ratio (x) = -0.20803 0.23713
# Poissons Ratio (y) = -0.10270 0.35183
# Poissons Ratio (z) = 0.10547 0.31698
#
# Static dielectric constant tensor:
#      x y z
#    x 1.717860 0.000000 0.000000 
#    y 0.000000 1.911630 0.000000 
#    z 0.000000 0.000000 1.901500 
# 
# From -- ./inp_files/1335.got.cif
#   From: 2010.05.17/outbox.cif.g08.bks.cpg/sg54_1_cif.got.tgz:1335.got - 2010.06.03 13:09:01.
