data_PCOD9420108
_publ_section_title
;
Structure prediction by ZEFSAII (Michael W. Deem and Ramdas Pophale) SiO2 
 PCOD9420108
Probable space group: P M N A
;
_chemical_formula_sum "Si O2"
_cell_formula_units_Z 64
_cell_length_a 9.000000
_cell_length_b 18.000000
_cell_length_c 24.000000
_cell_angle_alpha 90.000000
_cell_angle_beta 90.000000
_cell_angle_gamma 90.000000
_cell_volume 3888.000000
_symmetry_space_group_name_H-M "P M N A"
_symmetry_group_IT_number 53
_symmetry_cell_setting 'orthorhombic'
loop_
_space_group_symop_operation_xyz
x,y,z
1/2-x,-y,1/2+z
x,-y,-z
1/2-x,y,1/2-z
-x,-y,-z
1/2+x,y,1/2-z
-x,y,z
1/2+x,-y,1/2+z
loop_
_atom_site_type_symbol
_atom_site_label
_atom_site_fract_x
_atom_site_fract_y
_atom_site_fract_z
Si Si1 0.322762 0.132301 0.873470
Si Si2 0.172547 0.001429 0.807264
Si Si3 0.326184 0.137493 0.388963
Si Si4 0.177092 0.716120 0.311142
Si Si5 0.177366 0.741456 0.688376
Si Si6 0.322781 0.430755 0.688450
Si Si7 0.677735 0.911342 0.001926
Si Si8 0.177871 0.592657 0.811549
O O1 0.500000 0.119016 0.871546
O O2 0.293574 0.214315 0.850724
O O3 0.276031 0.118424 0.937276
O O4 0.246131 0.075001 0.831792
O O5 0.250000 0.977427 0.750000
O O6 0.185662 0.939448 0.854914
O O7 0.000000 0.014343 0.795416
O O8 0.500000 0.159078 0.389841
O O9 0.230792 0.195078 0.353159
O O10 0.263223 0.125898 0.450735
O O11 0.250000 0.728137 0.250000
O O12 0.247367 0.641542 0.337019
O O13 0.000000 0.707560 0.304015
O O14 0.250000 0.752352 0.750000
O O15 0.241702 0.664152 0.663992
O O16 0.000000 0.739028 0.694275
O O17 0.250000 0.433329 0.750000
O O18 0.500000 0.421236 0.693390
O O19 0.295589 0.511690 0.662001
O O20 0.500000 0.899523 0.995326
O O21 0.703914 0.000000 0.000000
O O22 0.250000 0.588637 0.750000
O O23 0.000000 0.603951 0.807391
#
# Coordination Sequence:
#
# PCOD9420108 Si02
#       8
#     8   8   8   8   8   8   8   8
#     4  10  21  36  53  74  99 130 168 208 255 301
#     4  11  23  35  51  73  99 131 165 202 247 300
#     4  11  23  37  53  75 101 131 169 212 255 301
#     4  10  19  30  46  70 102 134 166 204 245 296
#     4  11  21  33  51  75 105 138 170 206 251 302
#     4   9  16  26  43  67  97 133 168 200 240 291
#     4  10  20  37  59  76  95 128 168 215 260 303
#     4   9  16  27  44  68  99 133 167 202 241 291
#
# _framework density 16.460905
#
# number of rings (size 3 to 8) (size 9 to 14) (size 15 to 20)
#    0.000    1.875    1.250    5.250    0.000    6.750 
#    0.000    0.000    0.000    0.000    0.000    0.875 
#    0.000    7.000    0.000    0.000    0.000    0.000 
#
# Total GULP energy -356873.801644 kJ/mol
# GULP energy per Si atom -5576.153151 kJ/mol
# Density = 1.642344 g / cm^3
# Si number density = 16.460905 Si / 1000 Ang^3
#
#
#
# Elastic Constant Matrix: (Units=GPa)
#
#
# Indices 1 2 3 4 5 6 
#
# 1 79.9719 48.4449 17.3849 0.0000 0.0000 0.0000
# 2 48.4449 85.2958 9.2423 0.0000 0.0000 0.0000
# 3 17.3849 9.2423 48.0765 0.0000 0.0000 0.0000
# 4 0.0000 0.0000 0.0000 -4.5354 0.0000 0.0000
# 5 0.0000 0.0000 0.0000 0.0000 23.6888 0.0000
# 6 0.0000 0.0000 0.0000 0.0000 0.0000 -13.5736
#
#
#
# Elastic Compliance Matrix: (Units=1/GPa)
#
#
# Indices 1 2 3 4 5 6 
#
# 1 0.020272 -0.010948 -0.005226 0.000000 0.000000 0.000000
# 2 -0.010948 0.017885 0.000520 0.000000 0.000000 0.000000
# 3 -0.005226 0.000520 0.022590 0.000000 0.000000 0.000000
# 4 0.000000 0.000000 0.000000 -0.220486 0.000000 0.000000
# 5 0.000000 0.000000 0.000000 0.000000 0.042214 0.000000
# 6 0.000000 0.000000 0.000000 0.000000 0.000000 -0.073673
#
#
# Mechanical properties :
#
#
# Convention : Reuss Voigt Hill
#
# Bulk Modulus (GPa) = 33.96612 40.38759 37.17686
# Shear Modulus (GPa) = -33.31623 10.33411 -11.49106
#
# Velocity S-wave (km/s) = -4.50373 2.50831 -2.64499
# Velocity P-wave (km/s) = 2.52300 5.74261 3.64774
#
# Compressibility (1/GPa) = 0.02944110
#
# Stress axis : x y z
#
# Youngs Moduli (GPa) = 49.32852 55.91166 44.26754
#
# Poissons Ratio (x) = 0.61210 0.23134
# Poissons Ratio (y) = 0.54003 -0.02304
# Poissons Ratio (z) = 0.25779 -0.02910
#
# Static dielectric constant tensor:
#      x y z
#    x 1.551130 0.000000 0.000000 
#    y 0.000000 1.607520 0.000000 
#    z 0.000000 0.000000 1.513530 
# 
# From -- ./inp_files/34509.got.cif
#   From: 2010.05.17/outbox.ucp.g08.bks.cvg/sg53_18_cif.got.tgz:34509.got - 2010.06.11 16:32:34.
