data_PCOD9420395
_publ_section_title
;
Structure prediction by ZEFSAII (Michael W. Deem and Ramdas Pophale) SiO2 
 PCOD9420395
Probable space group: P C C A
;
_chemical_formula_sum "Si O2"
_cell_formula_units_Z 40
_cell_length_a 5.262584
_cell_length_b 19.139382
_cell_length_c 19.201679
_cell_angle_alpha 90.000000
_cell_angle_beta 90.000000
_cell_angle_gamma 90.000000
_cell_volume 1934.043139
_symmetry_space_group_name_H-M "P C C A"
_symmetry_group_IT_number 54
_symmetry_cell_setting 'orthorhombic'
loop_
_space_group_symop_operation_xyz
x,y,z
1/2-x,-y,z
1/2+x,-y,1/2-z
-x,y,1/2-z
-x,-y,-z
1/2+x,y,-z
1/2-x,y,1/2+z
x,-y,1/2+z
loop_
_atom_site_type_symbol
_atom_site_label
_atom_site_fract_x
_atom_site_fract_y
_atom_site_fract_z
Si Si1 0.535985 0.700936 0.826675
Si Si2 0.514679 0.194514 0.046407
Si Si3 0.153233 0.423629 0.026918
Si Si4 0.499441 0.031192 0.420936
Si Si5 0.035002 0.390434 0.325887
O O1 0.500000 0.732992 0.750000
O O2 0.494473 0.754850 0.887941
O O3 0.821677 0.670498 0.827489
O O4 0.319675 0.639962 0.831336
O O5 0.505675 0.114059 0.071778
O O6 0.270567 0.205618 0.997473
O O7 0.250000 0.500000 0.001960
O O8 0.046508 0.431428 0.104904
O O9 0.428808 0.387084 0.017202
O O10 0.750000 0.000000 0.386841
O O11 0.500000 0.000000 0.500000
O O12 0.250000 0.000000 0.386353
O O13 0.000000 0.425778 0.250000
#
# Coordination Sequence:
#
# PCOD9420395 Si02
#       5
#     8   8   8   8   8
#     4  10  23  39  54  77 115 150 179 228 287 325
#     4  12  21  32  55  85 103 136 189 230 269 332
#     4  10  21  37  59  87 118 147 178 229 286 323
#     4  10  16  30  48  73 104 135 165 224 277 322
#     4  10  21  40  59  78 110 155 191 223 270 331
#
# _framework density 20.68206
#
# number of rings (size 3 to 8) (size 9 to 14) (size 15 to 20)
#    0.000    1.600    4.000    2.400    0.000    4.800 
#    0.000    6.000    0.000    1.200    0.000    0.000 
#    0.000    0.000    0.000    0.000    0.000    0.000 
#
# Total GULP energy -223167.982894 kJ/mol
# GULP energy per Si atom -5579.199572 kJ/mol
# Density = 2.063499 g / cm^3
# Si number density = 20.682060 Si / 1000 Ang^3
#
#
#
# Elastic Constant Matrix: (Units=GPa)
#
#
# Indices 1 2 3 4 5 6 
#
# 1 143.4050 -2.5177 19.1450 0.0000 0.0000 0.0000
# 2 -2.5177 37.1975 28.4721 0.0000 0.0000 0.0000
# 3 19.1450 28.4721 113.3606 0.0000 0.0000 0.0000
# 4 0.0000 0.0000 0.0000 -2.0835 0.0000 0.0000
# 5 0.0000 0.0000 0.0000 0.0000 21.2789 0.0000
# 6 0.0000 0.0000 0.0000 0.0000 0.0000 3.9227
#
#
#
# Elastic Compliance Matrix: (Units=1/GPa)
#
#
# Indices 1 2 3 4 5 6 
#
# 1 0.007226 0.001762 -0.001663 0.000000 0.000000 0.000000
# 2 0.001762 0.033712 -0.008765 0.000000 0.000000 0.000000
# 3 -0.001663 -0.008765 0.011304 0.000000 0.000000 0.000000
# 4 0.000000 0.000000 0.000000 -0.479951 0.000000 0.000000
# 5 0.000000 0.000000 0.000000 0.000000 0.046995 0.000000
# 6 0.000000 0.000000 0.000000 0.000000 0.000000 0.254924
#
#
# Mechanical properties :
#
#
# Convention : Reuss Voigt Hill
#
# Bulk Modulus (GPa) = 28.64506 42.68465 35.66485
# Shear Modulus (GPa) = -51.64114 21.21454 -15.21330
#
# Velocity S-wave (km/s) = -5.00233 3.20620 -2.71510
# Velocity P-wave (km/s) = 4.41408 5.86426 2.72997
#
# Compressibility (1/GPa) = 0.03491004
#
# Stress axis : x y z
#
# Youngs Moduli (GPa) = 138.38530 29.66345 88.46721
#
# Poissons Ratio (x) = -0.05227 0.14712
# Poissons Ratio (y) = -0.24383 0.77539
# Poissons Ratio (z) = 0.23013 0.25999
#
# Static dielectric constant tensor:
#      x y z
#    x 1.854610 0.000000 0.000000 
#    y 0.000000 1.772270 0.000000 
#    z 0.000000 0.000000 1.738130 
# 
# From -- ./inp_files/15788.got.cif
#   From: 2010.05.17/outbox.cif.g08.bks.cpg/sg54_8_cif.got.tgz:15788.got - 2010.06.03 13:09:01.
