data_PCOD9420011
_publ_section_title
;
Structure prediction by ZEFSAII (Michael W. Deem and Ramdas Pophale) SiO2 
 PCOD9420011
Probable space group: P M N A
;
_chemical_formula_sum "Si O2"
_cell_formula_units_Z 20
_cell_length_a 28.028668
_cell_length_b 5.292200
_cell_length_c 5.200060
_cell_angle_alpha 90.000000
_cell_angle_beta 90.000000
_cell_angle_gamma 90.000000
_cell_volume 771.342147
_symmetry_space_group_name_H-M "P M N A"
_symmetry_group_IT_number 53
_symmetry_cell_setting 'orthorhombic'
loop_
_space_group_symop_operation_xyz
x,y,z
1/2-x,-y,1/2+z
x,-y,-z
1/2-x,y,1/2-z
-x,-y,-z
1/2+x,y,1/2-z
-x,y,z
1/2+x,-y,1/2+z
loop_
_atom_site_type_symbol
_atom_site_label
_atom_site_fract_x
_atom_site_fract_y
_atom_site_fract_z
Si Si1 0.250000 0.852683 0.750000
Si Si2 0.893884 0.156489 0.253588
Si Si3 0.000000 0.674249 0.749746
Si Si4 0.831284 0.500000 0.000000
O O1 0.207982 0.697154 0.887763
O O2 0.229921 0.000000 0.500000
O O3 0.951001 0.172486 0.251958
O O4 0.871010 0.434338 0.220290
O O5 0.878607 0.000000 0.500000
O O6 0.878472 0.000000 0.000000
O O7 0.000000 0.500000 0.500000
O O8 0.000000 0.500000 0.000000
#
# Coordination Sequence:
#
# PCOD9420011 Si02
#       4
#     4   8   4   4
#     4  12  28  52  78 112 150 200 258 328 404 466
#     4  12  27  47  78 116 157 206 258 312 386 463
#     4  12  24  48  76 111 163 206 248 315 382 455
#     4  12  28  51  82 110 158 195 266 324 392 462
#
# _framework density 25.928827999999999
#
# number of rings (size 3 to 8) (size 9 to 14) (size 15 to 20)
#    0.000    0.000    2.000    7.200    0.000    6.400 
#    0.000    0.000    0.000    0.000    0.000    0.000 
#    0.000    0.000    0.000    0.000    0.000    0.000 
#
# Total GULP energy -111548.593945 kJ/mol
# GULP energy per Si atom -5577.429697 kJ/mol
# Density = 2.586981 g / cm^3
# Si number density = 25.928828 Si / 1000 Ang^3
#
#
#
# Elastic Constant Matrix: (Units=GPa)
#
#
# Indices 1 2 3 4 5 6 
#
# 1 219.6289 47.1235 42.2110 0.0000 0.0000 0.0000
# 2 47.1235 88.7631 106.2112 0.0000 0.0000 0.0000
# 3 42.2110 106.2112 283.9220 0.0000 0.0000 0.0000
# 4 0.0000 0.0000 0.0000 48.0338 0.0000 0.0000
# 5 0.0000 0.0000 0.0000 0.0000 -32.5665 0.0000
# 6 0.0000 0.0000 0.0000 0.0000 0.0000 -142.7297
#
#
#
# Elastic Compliance Matrix: (Units=1/GPa)
#
#
# Indices 1 2 3 4 5 6 
#
# 1 0.005172 -0.003305 0.000468 0.000000 0.000000 0.000000
# 2 -0.003305 0.022508 -0.007928 0.000000 0.000000 0.000000
# 3 0.000468 -0.007928 0.006418 0.000000 0.000000 0.000000
# 4 0.000000 0.000000 0.000000 0.020819 0.000000 0.000000
# 5 0.000000 0.000000 0.000000 0.000000 -0.030706 0.000000
# 6 0.000000 0.000000 0.000000 0.000000 0.000000 -0.007006
#
#
# Mechanical properties :
#
#
# Convention : Reuss Voigt Hill
#
# Bulk Modulus (GPa) = 79.57981 109.26726 94.42353
# Shear Modulus (GPa) = 116.47997 0.99874 58.73935
#
# Velocity S-wave (km/s) = 6.70973 0.62131 4.76479
# Velocity P-wave (km/s) = 9.52815 6.53815 8.17108
#
# Compressibility (1/GPa) = 0.01256600
#
# Stress axis : x y z
#
# Youngs Moduli (GPa) = 193.33013 44.42945 155.80042
#
# Poissons Ratio (x) = 0.14686 -0.07284
# Poissons Ratio (y) = 0.63904 1.23524
# Poissons Ratio (z) = -0.09039 0.35225
#
# Static dielectric constant tensor:
#      x y z
#    x 2.009980 0.000000 0.000000 
#    y 0.000000 7.827960 0.000000 
#    z 0.000000 0.000000 2.034510 
# 
# From -- ./inp_files/4011.got.cif
#   From: 2010.05.17/outbox.cif.g08.bks.cpg/sg53_3_cif.got.tgz:4011.got - 2010.06.03 12:45:16.
