data_PCOD9420382
_publ_section_title
;
Structure prediction by ZEFSAII (Michael W. Deem and Ramdas Pophale) SiO2 
 PCOD9420382
Probable space group: P C C A
;
_chemical_formula_sum "Si O2"
_cell_formula_units_Z 52
_cell_length_a 18.046924
_cell_length_b 23.403736
_cell_length_c 5.748441
_cell_angle_alpha 90.000000
_cell_angle_beta 90.000000
_cell_angle_gamma 90.000000
_cell_volume 2427.942840
_symmetry_space_group_name_H-M "P C C A"
_symmetry_group_IT_number 54
_symmetry_cell_setting 'orthorhombic'
loop_
_space_group_symop_operation_xyz
x,y,z
1/2-x,-y,z
1/2+x,-y,1/2-z
-x,y,1/2-z
-x,-y,-z
1/2+x,y,-z
1/2-x,y,1/2+z
x,-y,1/2+z
loop_
_atom_site_type_symbol
_atom_site_label
_atom_site_fract_x
_atom_site_fract_y
_atom_site_fract_z
Si Si1 0.195192 0.647630 0.425942
Si Si2 0.500000 0.443598 0.750000
Si Si3 0.844422 0.471890 0.403034
Si Si4 0.707447 0.852407 0.205664
Si Si5 0.570081 0.646675 0.911784
Si Si6 0.342092 0.723008 0.294295
Si Si7 0.336954 0.021445 0.792714
O O1 0.194761 0.590676 0.583248
O O2 0.145326 0.626984 0.212504
O O3 0.267548 0.685505 0.361438
O O4 0.142589 0.695575 0.544799
O O5 0.435009 0.471677 0.597100
O O6 0.548610 0.401591 0.592101
O O7 0.826198 0.502233 0.649102
O O8 0.750583 0.855377 0.454694
O O9 0.672232 0.789542 0.206753
O O10 0.659806 0.910034 0.207086
O O11 0.500000 0.652822 0.750000
O O12 0.592983 0.704911 0.036234
O O13 0.250000 0.000000 0.792724
O O14 0.367407 0.000034 0.542674
#
# Coordination Sequence:
#
# PCOD9420382 Si02
#       7
#     8   4   8   8   8   8   8
#     4  12  24  43  70  91 128 172 207 272 343 402
#     4  12  24  42  74  94 124 160 210 278 334 412
#     4  12  27  45  68  97 124 161 213 270 333 412
#     4  12  20  33  56  89 122 177 224 263 328 396
#     4  12  23  44  72  98 126 173 222 269 345 404
#     4  12  25  42  65  95 134 175 221 274 331 410
#     4  10  16  28  47  77 124 172 212 267 318 379
#
# _framework density 21.417307999999998
#
# number of rings (size 3 to 8) (size 9 to 14) (size 15 to 20)
#    0.000    0.308    9.231    1.385    0.000    0.000 
#    0.000    2.308    0.000    0.000    0.000    0.000 
#    0.000    1.231    0.000    0.000    0.000    0.000 
#
# Total GULP energy -290061.413313 kJ/mol
# GULP energy per Si atom -5578.104102 kJ/mol
# Density = 2.136856 g / cm^3
# Si number density = 21.417308 Si / 1000 Ang^3
#
#
#
# Elastic Constant Matrix: (Units=GPa)
#
#
# Indices 1 2 3 4 5 6 
#
# 1 69.2153 24.0552 11.5143 0.0000 0.0000 0.0000
# 2 24.0552 189.3992 62.3642 0.0000 0.0000 0.0000
# 3 11.5143 62.3642 149.8644 0.0000 0.0000 0.0000
# 4 0.0000 0.0000 0.0000 2.0536 0.0000 0.0000
# 5 0.0000 0.0000 0.0000 0.0000 7.5924 0.0000
# 6 0.0000 0.0000 0.0000 0.0000 0.0000 14.8271
#
#
#
# Elastic Compliance Matrix: (Units=1/GPa)
#
#
# Indices 1 2 3 4 5 6 
#
# 1 0.015138 -0.001784 -0.000421 0.000000 0.000000 0.000000
# 2 -0.001784 0.006328 -0.002496 0.000000 0.000000 0.000000
# 3 -0.000421 -0.002496 0.007744 0.000000 0.000000 0.000000
# 4 0.000000 0.000000 0.000000 0.486946 0.000000 0.000000
# 5 0.000000 0.000000 0.000000 0.000000 0.131711 0.000000
# 6 0.000000 0.000000 0.000000 0.000000 0.000000 0.067444
#
#
# Mechanical properties :
#
#
# Convention : Reuss Voigt Hill
#
# Bulk Modulus (GPa) = 50.48540 67.14958 58.81749
# Shear Modulus (GPa) = 6.83699 25.59763 16.21731
#
# Velocity S-wave (km/s) = 1.78863 3.46089 2.75472
# Velocity P-wave (km/s) = 5.28101 6.88414 6.13516
#
# Compressibility (1/GPa) = 0.01980771
#
# Stress axis : x y z
#
# Youngs Moduli (GPa) = 66.06028 158.01634 129.13430
#
# Poissons Ratio (x) = 0.28192 0.05432
# Poissons Ratio (y) = 0.11786 0.32238
# Poissons Ratio (z) = 0.02779 0.39448
#
# Static dielectric constant tensor:
#      x y z
#    x 1.766310 0.000000 0.000000 
#    y 0.000000 1.752550 0.000000 
#    z 0.000000 0.000000 2.235040 
# 
# From -- ./inp_files/1380.got.cif
#   From: 2010.05.17/outbox.cif.g08.bks.cpg/sg54_1_cif.got.tgz:1380.got - 2010.06.03 13:09:01.
