data_PCOD9420732
_publ_section_title
;
Structure prediction by ZEFSAII (Michael W. Deem and Ramdas Pophale) SiO2 
 PCOD9420732
Probable space group: P C C A
;
_chemical_formula_sum "Si O2"
_cell_formula_units_Z 40
_cell_length_a 13.448478
_cell_length_b 9.263412
_cell_length_c 14.756155
_cell_angle_alpha 90.000000
_cell_angle_beta 90.000000
_cell_angle_gamma 90.000000
_cell_volume 1838.303972
_symmetry_space_group_name_H-M "P C C A"
_symmetry_group_IT_number 54
_symmetry_cell_setting 'orthorhombic'
loop_
_space_group_symop_operation_xyz
x,y,z
1/2-x,-y,z
1/2+x,-y,1/2-z
-x,y,1/2-z
-x,-y,-z
1/2+x,y,-z
1/2-x,y,1/2+z
x,-y,1/2+z
loop_
_atom_site_type_symbol
_atom_site_label
_atom_site_fract_x
_atom_site_fract_y
_atom_site_fract_z
Si Si1 0.419294 0.961126 0.817187
Si Si2 0.371365 0.830942 0.523879
Si Si3 0.729942 0.337486 0.852567
Si Si4 0.272747 0.789064 0.333362
Si Si5 0.930911 0.857027 0.944687
O O1 0.500000 0.894898 0.750000
O O2 0.340193 0.841709 0.848141
O O3 0.340603 0.084915 0.786486
O O4 0.507037 0.060242 0.622447
O O5 0.318847 0.764535 0.610920
O O6 0.319182 0.768500 0.433126
O O7 0.489568 0.799742 0.518118
O O8 0.364102 0.006584 0.523588
O O9 0.750000 0.500000 0.882947
O O10 0.723972 0.331136 0.743716
O O11 0.632775 0.266555 0.898611
#
# Coordination Sequence:
#
# PCOD9420732 Si02
#       5
#     8   8   8   8   8
#     4  10  18  35  66  99 124 159 217 292 329 381
#     4  10  24  41  71 100 129 172 234 294 327 393
#     4  12  26  43  65  98 146 185 214 268 347 429
#     4  10  23  39  65  99 128 169 227 278 341 386
#     4  10  22  40  70 101 131 168 233 286 340 382
#
# _framework density 21.759184999999999
#
# number of rings (size 3 to 8) (size 9 to 14) (size 15 to 20)
#    0.000    1.600    2.000    1.800   16.800    1.600 
#    0.000    0.000   26.400    0.000    0.000    0.000 
#    0.000    0.000    0.000    0.000    0.000    0.000 
#
# Total GULP energy -222868.282773 kJ/mol
# GULP energy per Si atom -5571.707069 kJ/mol
# Density = 2.170966 g / cm^3
# Si number density = 21.759185 Si / 1000 Ang^3
#
#
#
# Elastic Constant Matrix: (Units=GPa)
#
#
# Indices 1 2 3 4 5 6 
#
# 1 154.6772 33.7505 35.4263 0.0000 0.0000 0.0000
# 2 33.7505 77.6895 23.6669 0.0000 0.0000 0.0000
# 3 35.4263 23.6669 60.2116 0.0000 0.0000 0.0000
# 4 0.0000 0.0000 0.0000 20.0908 0.0000 0.0000
# 5 0.0000 0.0000 0.0000 0.0000 45.2391 0.0000
# 6 0.0000 0.0000 0.0000 0.0000 0.0000 10.9574
#
#
#
# Elastic Compliance Matrix: (Units=1/GPa)
#
#
# Indices 1 2 3 4 5 6 
#
# 1 0.007807 -0.002263 -0.003704 0.000000 0.000000 0.000000
# 2 -0.002263 0.015279 -0.004674 0.000000 0.000000 0.000000
# 3 -0.003704 -0.004674 0.020624 0.000000 0.000000 0.000000
# 4 0.000000 0.000000 0.000000 0.049774 0.000000 0.000000
# 5 0.000000 0.000000 0.000000 0.000000 0.022105 0.000000
# 6 0.000000 0.000000 0.000000 0.000000 0.000000 0.091262
#
#
# Mechanical properties :
#
#
# Convention : Reuss Voigt Hill
#
# Bulk Modulus (GPa) = 44.58639 53.14062 48.86351
# Shear Modulus (GPa) = 21.22150 28.57310 24.89730
#
# Velocity S-wave (km/s) = 3.12635 3.62767 3.38630
# Velocity P-wave (km/s) = 5.79374 6.48243 6.14773
#
# Compressibility (1/GPa) = 0.02242837
#
# Stress axis : x y z
#
# Youngs Moduli (GPa) = 128.08613 65.45001 48.48623
#
# Poissons Ratio (x) = 0.14814 0.17959
# Poissons Ratio (y) = 0.28991 0.22662
# Poissons Ratio (z) = 0.47441 0.30590
#
# Static dielectric constant tensor:
#      x y z
#    x 1.847890 0.000000 0.000000 
#    y 0.000000 1.763260 0.000000 
#    z 0.000000 0.000000 1.998070 
# 
# From -- ./inp_files/13206.got.cif
#   From: 2010.05.17/outbox.cif.g08.bks.cpg/sg54_7_cif.got.tgz:13206.got - 2010.06.03 13:09:01.
