data_PCOD9420402
_publ_section_title
;
Structure prediction by ZEFSAII (Michael W. Deem and Ramdas Pophale) SiO2 
 PCOD9420402
Probable space group: P C C A
;
_chemical_formula_sum "Si O2"
_cell_formula_units_Z 40
_cell_length_a 25.864093
_cell_length_b 13.037072
_cell_length_c 5.417581
_cell_angle_alpha 90.000000
_cell_angle_beta 90.000000
_cell_angle_gamma 90.000000
_cell_volume 1826.765204
_symmetry_space_group_name_H-M "P C C A"
_symmetry_group_IT_number 54
_symmetry_cell_setting 'orthorhombic'
loop_
_space_group_symop_operation_xyz
x,y,z
1/2-x,-y,z
1/2+x,-y,1/2-z
-x,y,1/2-z
-x,-y,-z
1/2+x,y,-z
1/2-x,y,1/2+z
x,-y,1/2+z
loop_
_atom_site_type_symbol
_atom_site_label
_atom_site_fract_x
_atom_site_fract_y
_atom_site_fract_z
Si Si1 0.054241 0.600906 0.816623
Si Si2 0.271160 0.116751 0.226074
Si Si3 0.341822 0.537821 0.810719
Si Si4 0.918309 0.291982 0.687299
Si Si5 0.608728 0.064450 0.226982
O O1 0.103018 0.524903 0.824398
O O2 0.063429 0.676193 0.585118
O O3 0.000000 0.548636 0.750000
O O4 0.053270 0.659294 0.076187
O O5 0.243391 0.165914 0.463370
O O6 0.331483 0.101277 0.270466
O O7 0.250000 0.000000 0.202157
O O8 0.315646 0.495017 0.565176
O O9 0.360462 0.655747 0.796342
O O10 0.921432 0.170806 0.714976
O O11 0.599813 0.002658 0.480929
#
# Coordination Sequence:
#
# PCOD9420402 Si02
#       5
#     8   8   8   8   8
#     4  10  19  34  55  75  96 123 162 219 264 288
#     4  10  16  30  49  74  96 122 155 205 244 280
#     4   8  16  29  47  71  99 117 150 204 256 300
#     4  10  21  32  47  77 101 126 168 199 253 306
#     4  12  21  33  52  71 105 141 159 198 247 286
#
# _framework density 21.896626999999999
#
# number of rings (size 3 to 8) (size 9 to 14) (size 15 to 20)
#    0.000    2.000    4.000    1.800    0.000    7.200 
#    0.000    0.000    0.000   12.000    0.000    0.000 
#    0.000   43.200    0.000    0.000    0.000    0.000 
#
# Total GULP energy -223192.275479 kJ/mol
# GULP energy per Si atom -5579.806887 kJ/mol
# Density = 2.184679 g / cm^3
# Si number density = 21.896627 Si / 1000 Ang^3
#
#
#
# Elastic Constant Matrix: (Units=GPa)
#
#
# Indices 1 2 3 4 5 6 
#
# 1 21.2650 5.4156 -2.3246 0.0000 0.0000 0.0000
# 2 5.4156 115.7994 55.4041 0.0000 0.0000 0.0000
# 3 -2.3246 55.4041 215.3193 0.0000 0.0000 0.0000
# 4 0.0000 0.0000 0.0000 17.5994 0.0000 0.0000
# 5 0.0000 0.0000 0.0000 0.0000 7.1795 0.0000
# 6 0.0000 0.0000 0.0000 0.0000 0.0000 268.4685
#
#
#
# Elastic Compliance Matrix: (Units=1/GPa)
#
#
# Indices 1 2 3 4 5 6 
#
# 1 0.047884 -0.002836 0.001247 0.000000 0.000000 0.000000
# 2 -0.002836 0.010016 -0.002608 0.000000 0.000000 0.000000
# 3 0.001247 -0.002608 0.005329 0.000000 0.000000 0.000000
# 4 0.000000 0.000000 0.000000 0.056820 0.000000 0.000000
# 5 0.000000 0.000000 0.000000 0.000000 0.139285 0.000000
# 6 0.000000 0.000000 0.000000 0.000000 0.000000 0.003725
#
#
# Mechanical properties :
#
#
# Convention : Reuss Voigt Hill
#
# Bulk Modulus (GPa) = 18.23661 52.15267 35.19464
# Shear Modulus (GPa) = 17.25740 78.24206 47.74973
#
# Velocity S-wave (km/s) = 2.81041 5.98415 4.67485
# Velocity P-wave (km/s) = 4.34486 8.46263 6.72659
#
# Compressibility (1/GPa) = 0.05483476
#
# Stress axis : x y z
#
# Youngs Moduli (GPa) = 20.88375 99.84059 187.66126
#
# Poissons Ratio (x) = 0.28313 -0.23395
# Poissons Ratio (y) = 0.05922 0.48939
# Poissons Ratio (z) = -0.02603 0.26037
#
# Static dielectric constant tensor:
#      x y z
#    x 1.835900 0.000000 0.000000 
#    y 0.000000 1.781300 0.000000 
#    z 0.000000 0.000000 1.908530 
# 
# From -- ./inp_files/1822.got.cif
#   From: 2010.05.17/outbox.cif.g08.bks.cpg/sg54_1_cif.got.tgz:1822.got - 2010.06.03 13:09:01.
