data_PCOD9420089
_publ_section_title
;
Structure prediction by ZEFSAII (Michael W. Deem and Ramdas Pophale) SiO2 
 PCOD9420089
Probable space group: P M N A
;
_chemical_formula_sum "Si O2"
_cell_formula_units_Z 64
_cell_length_a 9.000000
_cell_length_b 15.000000
_cell_length_c 30.000000
_cell_angle_alpha 90.000000
_cell_angle_beta 90.000000
_cell_angle_gamma 90.000000
_cell_volume 4050.000000
_symmetry_space_group_name_H-M "P M N A"
_symmetry_group_IT_number 53
_symmetry_cell_setting 'orthorhombic'
loop_
_space_group_symop_operation_xyz
x,y,z
1/2-x,-y,1/2+z
x,-y,-z
1/2-x,y,1/2-z
-x,-y,-z
1/2+x,y,1/2-z
-x,y,z
1/2+x,-y,1/2+z
loop_
_atom_site_type_symbol
_atom_site_label
_atom_site_fract_x
_atom_site_fract_y
_atom_site_fract_z
Si Si1 0.178605 0.042278 0.951572
Si Si2 0.669674 0.255516 0.066879
Si Si3 0.679010 0.574554 0.611103
Si Si4 0.819532 0.434988 0.959636
Si Si5 0.821476 0.764648 0.024479
Si Si6 0.822420 0.643308 0.796175
Si Si7 0.176048 0.150092 0.203602
Si Si8 0.168969 0.076484 0.377536
O O1 0.223863 0.146181 0.949912
O O2 0.000000 0.035698 0.946174
O O3 0.261134 0.987604 0.913942
O O4 0.213761 0.000000 0.000000
O O5 0.500000 0.273160 0.053126
O O6 0.744106 0.343826 0.086019
O O7 0.668619 0.175942 0.102047
O O8 0.766607 0.223171 0.025638
O O9 0.500000 0.586527 0.607664
O O10 0.718561 0.484126 0.586089
O O11 0.721528 0.582308 0.662474
O O12 0.766135 0.333455 0.961752
O O13 0.000000 0.431851 0.963101
O O14 0.769578 0.500000 0.000000
O O15 0.000000 0.762690 0.025384
O O16 0.750000 0.616881 0.750000
O O17 0.780206 0.746415 0.806043
O O18 0.000000 0.641136 0.791825
O O19 0.250000 0.126748 0.250000
O O20 0.232662 0.084345 0.166065
O O21 0.000000 0.148442 0.206828
O O22 0.000000 0.051590 0.367313
#
# Coordination Sequence:
#
# PCOD9420089 Si02
#       8
#     8   8   8   8   8   8   8   8
#     4  10  20  32  49  70  93 124 165 207 245 289
#     4  11  21  29  43  68  97 128 159 197 236 277
#     4  10  18  31  48  68  92 126 163 190 228 278
#     4   9  16  27  49  72  91 120 159 199 232 276
#     4  10  19  33  49  67  93 126 163 202 240 282
#     4   9  18  29  45  67  93 123 153 189 227 274
#     4  10  19  32  50  72  99 127 159 195 238 287
#     4  11  22  33  47  69  98 131 166 199 240 287
#
# _framework density 15.802469
#
# number of rings (size 3 to 8) (size 9 to 14) (size 15 to 20)
#    0.000    2.000    3.750    1.125    0.000    2.750 
#    0.000    1.250    0.000    0.000    0.000    0.875 
#    0.000    2.000    0.000    0.000    0.000    0.000 
#
# Total GULP energy -356600.566112 kJ/mol
# GULP energy per Si atom -5571.883846 kJ/mol
# Density = 1.576650 g / cm^3
# Si number density = 15.802469 Si / 1000 Ang^3
#
#
#
# Elastic Constant Matrix: (Units=GPa)
#
#
# Indices 1 2 3 4 5 6 
#
# 1 -12.9830 51.7488 27.8725 0.0000 0.0000 0.0000
# 2 51.7488 56.7872 37.5030 0.0000 0.0000 0.0000
# 3 27.8725 37.5030 83.1604 0.0000 0.0000 0.0000
# 4 0.0000 0.0000 0.0000 21.4361 0.0000 0.0000
# 5 0.0000 0.0000 0.0000 0.0000 18.0501 0.0000
# 6 0.0000 0.0000 0.0000 0.0000 0.0000 10.0807
#
#
#
# Elastic Compliance Matrix: (Units=1/GPa)
#
#
# Indices 1 2 3 4 5 6 
#
# 1 -0.016442 0.016155 -0.001775 0.000000 0.000000 0.000000
# 2 0.016155 0.009205 -0.009566 0.000000 0.000000 0.000000
# 3 -0.001775 -0.009566 0.016934 0.000000 0.000000 0.000000
# 4 0.000000 0.000000 0.000000 0.046650 0.000000 0.000000
# 5 0.000000 0.000000 0.000000 0.000000 0.055401 0.000000
# 6 0.000000 0.000000 0.000000 0.000000 0.000000 0.099200
#
#
# Mechanical properties :
#
#
# Convention : Reuss Voigt Hill
#
# Bulk Modulus (GPa) = 51.74370 40.13480 45.93925
# Shear Modulus (GPa) = 24.06599 10.56940 17.31769
#
# Velocity S-wave (km/s) = 3.90670 2.58901 3.31401
# Velocity P-wave (km/s) = 7.29143 5.86432 6.61646
#
# Compressibility (1/GPa) = 0.01932602
#
# Stress axis : x y z
#
# Youngs Moduli (GPa) = -60.82087 108.63171 59.05357
#
# Poissons Ratio (x) = -1.75495 0.10481
# Poissons Ratio (y) = 0.98256 0.56491
# Poissons Ratio (z) = -0.10794 1.03917
#
# Static dielectric constant tensor:
#      x y z
#    x 1.529340 0.000000 0.000000 
#    y 0.000000 1.474160 0.000000 
#    z 0.000000 0.000000 1.525310 
# 
# From -- ./inp_files/38498.got.cif
#   From: 2010.05.17/outbox.ucp.g08.bks.cvg/sg53_20_cif.got.tgz:38498.got - 2010.06.11 16:32:34.
