data_PCOD9420726
_publ_section_title
;
Structure prediction by ZEFSAII (Michael W. Deem and Ramdas Pophale) SiO2 
 PCOD9420726
Probable space group: P C C A
;
_chemical_formula_sum "Si O2"
_cell_formula_units_Z 64
_cell_length_a 8.523762
_cell_length_b 24.787924
_cell_length_c 14.390252
_cell_angle_alpha 90.000000
_cell_angle_beta 90.000000
_cell_angle_gamma 90.000000
_cell_volume 3040.464031
_symmetry_space_group_name_H-M "P C C A"
_symmetry_group_IT_number 54
_symmetry_cell_setting 'orthorhombic'
loop_
_space_group_symop_operation_xyz
x,y,z
1/2-x,-y,z
1/2+x,-y,1/2-z
-x,y,1/2-z
-x,-y,-z
1/2+x,y,-z
1/2-x,y,1/2+z
x,-y,1/2+z
loop_
_atom_site_type_symbol
_atom_site_label
_atom_site_fract_x
_atom_site_fract_y
_atom_site_fract_z
Si Si1 0.788078 0.563897 0.611528
Si Si2 0.557143 0.260974 0.441140
Si Si3 0.519002 0.615214 0.968969
Si Si4 0.165993 0.553079 0.197163
Si Si5 0.654912 0.112880 0.935756
Si Si6 0.874684 0.961116 0.546515
Si Si7 0.753131 0.199848 0.583969
Si Si8 0.821860 0.812107 0.286070
O O1 0.750000 0.500000 0.599119
O O2 0.655661 0.600679 0.563279
O O3 0.945785 0.581723 0.561823
O O4 0.776160 0.574848 0.720876
O O5 0.560939 0.322126 0.474019
O O6 0.609621 0.220780 0.523237
O O7 0.378508 0.248086 0.417327
O O8 0.654983 0.241843 0.349757
O O9 0.625736 0.591972 0.885906
O O10 0.250000 0.500000 0.160091
O O11 0.000000 0.540303 0.250000
O O12 0.483668 0.087549 0.913099
O O13 0.737137 0.145932 0.853896
O O14 0.771707 0.065353 0.965430
O O15 0.663080 0.150475 0.029005
O O16 0.750000 0.000000 0.601327
O O17 0.000000 0.000000 0.500000
O O18 0.722619 0.190486 0.691761
O O19 0.000000 0.826340 0.250000
#
# Coordination Sequence:
#
# PCOD9420726 Si02
#       8
#     8   8   8   8   8   8   8   8
#     4  10  21  36  54  77 102 138 183 221 270 337
#     4  10  21  35  54  82 109 140 183 229 286 340
#     4  11  21  35  56  78 107 141 174 226 284 335
#     4   9  20  36  54  76 103 138 179 218 264 328
#     4  10  18  35  59  85 114 158 203 226 278 343
#     4   9  18  32  57  88 122 158 189 234 284 326
#     4  10  20  37  57  80 111 145 189 239 274 329
#     4   9  19  34  57  82 109 150 197 239 277 336
#
# _framework density 21.049416999999998
#
# number of rings (size 3 to 8) (size 9 to 14) (size 15 to 20)
#    0.000    2.250    0.000    3.750    0.000    7.500 
#    0.000    5.625    0.000   20.250    0.000    0.000 
#    0.000    0.000    0.000    0.000    0.000    0.000 
#
# Total GULP energy -356839.256770 kJ/mol
# GULP energy per Si atom -5575.613387 kJ/mol
# Density = 2.100151 g / cm^3
# Si number density = 21.049417 Si / 1000 Ang^3
#
#
#
# Elastic Constant Matrix: (Units=GPa)
#
#
# Indices 1 2 3 4 5 6 
#
# 1 48.4550 15.8048 7.8982 0.0000 0.0000 0.0000
# 2 15.8048 65.4474 -0.4606 0.0000 0.0000 0.0000
# 3 7.8982 -0.4606 76.3428 0.0000 0.0000 0.0000
# 4 0.0000 0.0000 0.0000 16.9833 0.0000 0.0000
# 5 0.0000 0.0000 0.0000 0.0000 38.8656 0.0000
# 6 0.0000 0.0000 0.0000 0.0000 0.0000 34.7306
#
#
#
# Elastic Compliance Matrix: (Units=1/GPa)
#
#
# Indices 1 2 3 4 5 6 
#
# 1 0.022832 -0.005531 -0.002396 0.000000 0.000000 0.000000
# 2 -0.005531 0.016620 0.000672 0.000000 0.000000 0.000000
# 3 -0.002396 0.000672 0.013351 0.000000 0.000000 0.000000
# 4 0.000000 0.000000 0.000000 0.058881 0.000000 0.000000
# 5 0.000000 0.000000 0.000000 0.000000 0.025730 0.000000
# 6 0.000000 0.000000 0.000000 0.000000 0.000000 0.028793
#
#
# Mechanical properties :
#
#
# Convention : Reuss Voigt Hill
#
# Bulk Modulus (GPa) = 26.11287 26.30335 26.20811
# Shear Modulus (GPa) = 25.84259 29.24943 27.54601
#
# Velocity S-wave (km/s) = 3.50767 3.73172 3.62143
# Velocity P-wave (km/s) = 5.37005 5.57591 5.47395
#
# Compressibility (1/GPa) = 0.03829530
#
# Stress axis : x y z
#
# Youngs Moduli (GPa) = 43.79802 60.16939 74.90245
#
# Poissons Ratio (x) = 0.33277 0.17943
# Poissons Ratio (y) = 0.24223 -0.05037
# Poissons Ratio (z) = 0.10492 -0.04046
#
# Static dielectric constant tensor:
#      x y z
#    x 1.827590 0.000000 0.000000 
#    y 0.000000 1.789170 0.000000 
#    z 0.000000 0.000000 1.760120 
# 
# From -- ./inp_files/11937.got.cif
#   From: 2010.05.17/outbox.cif.g08.bks.cpg/sg54_6_cif.got.tgz:11937.got - 2010.06.03 13:09:01.
