data_PCOD9420921
_publ_section_title
;
Structure prediction by ZEFSAII (Michael W. Deem and Ramdas Pophale) SiO2 
 PCOD9420921
Probable space group: P C C A
;
_chemical_formula_sum "Si O2"
_cell_formula_units_Z 48
_cell_length_a 13.299461
_cell_length_b 31.810928
_cell_length_c 5.256109
_cell_angle_alpha 90.000000
_cell_angle_beta 90.000000
_cell_angle_gamma 90.000000
_cell_volume 2223.692554
_symmetry_space_group_name_H-M "P C C A"
_symmetry_group_IT_number 54
_symmetry_cell_setting 'orthorhombic'
loop_
_space_group_symop_operation_xyz
x,y,z
1/2-x,-y,z
1/2+x,-y,1/2-z
-x,y,1/2-z
-x,-y,-z
1/2+x,y,-z
1/2-x,y,1/2+z
x,-y,1/2+z
loop_
_atom_site_type_symbol
_atom_site_label
_atom_site_fract_x
_atom_site_fract_y
_atom_site_fract_z
Si Si1 0.000000 0.850869 0.250000
Si Si2 0.364739 0.982916 0.332005
Si Si3 0.319301 0.785659 0.775010
Si Si4 0.111526 0.483160 0.947355
Si Si5 0.316863 0.395587 0.277336
Si Si6 0.000000 0.092523 0.250000
Si Si7 0.816159 0.694333 0.129496
O O1 0.903136 0.821172 0.218001
O O2 0.991471 0.879407 0.499993
O O3 0.400401 0.937391 0.236603
O O4 0.250000 0.000000 0.363409
O O5 0.405787 0.986547 0.615176
O O6 0.258990 0.788906 0.509543
O O7 0.366736 0.738905 0.810531
O O8 0.155670 0.485917 0.231673
O O9 0.118154 0.436551 0.837419
O O10 0.000000 0.500000 0.000000
O O11 0.229310 0.396712 0.494383
O O12 0.368847 0.350264 0.320292
O O13 0.725215 0.694172 0.339953
#
# Coordination Sequence:
#
# PCOD9420921 Si02
#       7
#     4   8   8   8   8   4   8
#     4  12  26  43  64 104 134 174 216 255 322 396
#     4  10  21  41  65  92 123 171 216 265 321 364
#     4  10  21  43  66  92 132 171 208 260 325 384
#     4  10  21  35  48  67 105 148 176 224 290 351
#     4  10  19  32  54  83 104 135 195 244 286 350
#     4  12  24  43  64  96 138 164 216 279 304 370
#     4   8  16  32  58  83 110 146 186 244 301 353
#
# _framework density 21.585719000000001
#
# number of rings (size 3 to 8) (size 9 to 14) (size 15 to 20)
#    0.000    2.000    0.000    3.500    0.000    2.000 
#   18.000    1.667    0.000    8.000    0.000    0.000 
#    0.000    0.000    0.000    0.000    0.000    0.000 
#
# Total GULP energy -267449.387650 kJ/mol
# GULP energy per Si atom -5571.862243 kJ/mol
# Density = 2.153659 g / cm^3
# Si number density = 21.585719 Si / 1000 Ang^3
#
#
#
# Elastic Constant Matrix: (Units=GPa)
#
#
# Indices 1 2 3 4 5 6 
#
# 1 79.4397 37.8631 5.3695 0.0000 0.0000 0.0000
# 2 37.8631 173.9276 25.9431 0.0000 0.0000 0.0000
# 3 5.3695 25.9431 152.1118 0.0000 0.0000 0.0000
# 4 0.0000 0.0000 0.0000 39.3773 0.0000 0.0000
# 5 0.0000 0.0000 0.0000 0.0000 12.0459 0.0000
# 6 0.0000 0.0000 0.0000 0.0000 0.0000 -9.7782
#
#
#
# Elastic Compliance Matrix: (Units=1/GPa)
#
#
# Indices 1 2 3 4 5 6 
#
# 1 0.014046 -0.003062 0.000026 0.000000 0.000000 0.000000
# 2 -0.003062 0.006567 -0.001012 0.000000 0.000000 0.000000
# 3 0.000026 -0.001012 0.006746 0.000000 0.000000 0.000000
# 4 0.000000 0.000000 0.000000 0.025395 0.000000 0.000000
# 5 0.000000 0.000000 0.000000 0.000000 0.083016 0.000000
# 6 0.000000 0.000000 0.000000 0.000000 0.000000 -0.102268
#
#
# Mechanical properties :
#
#
# Convention : Reuss Voigt Hill
#
# Bulk Modulus (GPa) = 51.91029 60.42562 56.16795
# Shear Modulus (GPa) = 104.12935 30.74922 67.43928
#
# Velocity S-wave (km/s) = 6.95303 3.77837 5.59557
# Velocity P-wave (km/s) = 9.41064 6.86213 8.23557
#
# Compressibility (1/GPa) = 0.01926400
#
# Stress axis : x y z
#
# Youngs Moduli (GPa) = 71.19652 152.27763 148.24102
#
# Poissons Ratio (x) = 0.46621 -0.00391
# Poissons Ratio (y) = 0.21797 0.15001
# Poissons Ratio (z) = -0.00188 0.15410
#
# Static dielectric constant tensor:
#      x y z
#    x 1.802910 0.000000 0.000000 
#    y 0.000000 1.817080 0.000000 
#    z 0.000000 0.000000 1.839970 
# 
# From -- ./inp_files/649.got.cif
#   From: 2010.05.17/outbox.cif.g08.bks.cpg/sg54_1_cif.got.tgz:649.got - 2010.06.03 13:09:01.
