data_PCOD9420891
_publ_section_title
;
Structure prediction by ZEFSAII (Michael W. Deem and Ramdas Pophale) SiO2 
 PCOD9420891
Probable space group: P C C A
;
_chemical_formula_sum "Si O2"
_cell_formula_units_Z 40
_cell_length_a 5.137129
_cell_length_b 26.009281
_cell_length_c 16.599576
_cell_angle_alpha 90.000000
_cell_angle_beta 90.000000
_cell_angle_gamma 90.000000
_cell_volume 2217.919674
_symmetry_space_group_name_H-M "P C C A"
_symmetry_group_IT_number 54
_symmetry_cell_setting 'orthorhombic'
loop_
_space_group_symop_operation_xyz
x,y,z
1/2-x,-y,z
1/2+x,-y,1/2-z
-x,y,1/2-z
-x,-y,-z
1/2+x,y,-z
1/2-x,y,1/2+z
x,-y,1/2+z
loop_
_atom_site_type_symbol
_atom_site_label
_atom_site_fract_x
_atom_site_fract_y
_atom_site_fract_z
Si Si1 0.384434 0.865949 0.054445
Si Si2 0.998403 0.033226 0.346889
Si Si3 0.563267 0.247840 0.946084
Si Si4 0.251345 0.558963 0.193299
Si Si5 0.786499 0.644763 0.942390
O O1 0.464931 0.911187 0.113993
O O2 0.403980 0.808516 0.091330
O O3 0.593967 0.869864 0.981527
O O4 0.000000 0.038136 0.250000
O O5 0.750000 0.000000 0.371371
O O6 0.250000 0.000000 0.371293
O O7 0.653227 0.299562 0.901177
O O8 0.266944 0.249482 0.978217
O O9 0.250000 0.500000 0.162372
O O10 0.500000 0.564160 0.250000
O O11 0.275935 0.599579 0.121942
O O12 0.000000 0.566923 0.250000
O O13 0.519777 0.641841 0.992745
#
# Coordination Sequence:
#
# PCOD9420891 Si02
#       5
#     8   8   8   8   8
#     4  10  19  32  52  74  96 124 162 202 239 289
#     4  10  21  35  49  68  98 130 157 195 247 291
#     4   8  16  30  48  72  99 125 155 201 253 286
#     4  10  21  36  52  74 108 142 169 209 265 309
#     4  10  19  33  55  78 101 133 175 214 249 302
#
# _framework density 18.034918000000001
#
# number of rings (size 3 to 8) (size 9 to 14) (size 15 to 20)
#    0.000    2.400    0.000    2.400    0.000    3.200 
#    0.000    1.000    0.000    3.600    0.000    0.000 
#    0.000    0.000    0.000    0.000    0.000    0.000 
#
# Total GULP energy -222840.956174 kJ/mol
# GULP energy per Si atom -5571.023904 kJ/mol
# Density = 1.799387 g / cm^3
# Si number density = 18.034918 Si / 1000 Ang^3
#
#
#
# Elastic Constant Matrix: (Units=GPa)
#
#
# Indices 1 2 3 4 5 6 
#
# 1 120.3712 35.3679 12.9582 0.0000 0.0000 0.0000
# 2 35.3679 195.8222 59.1410 0.0000 0.0000 0.0000
# 3 12.9582 59.1410 23.5891 0.0000 0.0000 0.0000
# 4 0.0000 0.0000 0.0000 -27.2937 0.0000 0.0000
# 5 0.0000 0.0000 0.0000 0.0000 -2.1128 0.0000
# 6 0.0000 0.0000 0.0000 0.0000 0.0000 27.1822
#
#
#
# Elastic Compliance Matrix: (Units=1/GPa)
#
#
# Indices 1 2 3 4 5 6 
#
# 1 0.008843 -0.000536 -0.003515 0.000000 0.000000 0.000000
# 2 -0.000536 0.021064 -0.052515 0.000000 0.000000 0.000000
# 3 -0.003515 -0.052515 0.175986 0.000000 0.000000 0.000000
# 4 0.000000 0.000000 0.000000 -0.036638 0.000000 0.000000
# 5 0.000000 0.000000 0.000000 0.000000 -0.473300 0.000000
# 6 0.000000 0.000000 0.000000 0.000000 0.000000 0.036789
#
#
# Mechanical properties :
#
#
# Convention : Reuss Voigt Hill
#
# Bulk Modulus (GPa) = 10.78035 61.63518 36.20776
# Shear Modulus (GPa) = -40.58303 15.04283 -12.77010
#
# Velocity S-wave (km/s) = -4.74882 2.89120 -2.66386
# Velocity P-wave (km/s) = 4.90693 6.73759 3.26474
#
# Compressibility (1/GPa) = 0.09276135
#
# Stress axis : x y z
#
# Youngs Moduli (GPa) = 113.07843 47.47487 5.68226
#
# Poissons Ratio (x) = 0.02543 0.01997
# Poissons Ratio (y) = 0.06057 0.29841
# Poissons Ratio (z) = 0.39747 2.49316
#
# Static dielectric constant tensor:
#      x y z
#    x 1.610270 0.000000 0.000000 
#    y 0.000000 1.624570 0.000000 
#    z 0.000000 0.000000 1.566580 
# 
# From -- ./inp_files/10838.got.cif
#   From: 2010.05.17/outbox.cif.g08.bks.cpg/sg54_6_cif.got.tgz:10838.got - 2010.06.03 13:09:01.
