data_PCOD9420668
_publ_section_title
;
Structure prediction by ZEFSAII (Michael W. Deem and Ramdas Pophale) SiO2 
 PCOD9420668
Probable space group: P C C A
;
_chemical_formula_sum "Si O2"
_cell_formula_units_Z 64
_cell_length_a 25.422589
_cell_length_b 10.281166
_cell_length_c 12.878249
_cell_angle_alpha 90.000000
_cell_angle_beta 90.000000
_cell_angle_gamma 90.000000
_cell_volume 3366.037621
_symmetry_space_group_name_H-M "P C C A"
_symmetry_group_IT_number 54
_symmetry_cell_setting 'orthorhombic'
loop_
_space_group_symop_operation_xyz
x,y,z
1/2-x,-y,z
1/2+x,-y,1/2-z
-x,y,1/2-z
-x,-y,-z
1/2+x,y,-z
1/2-x,y,1/2+z
x,-y,1/2+z
loop_
_atom_site_type_symbol
_atom_site_label
_atom_site_fract_x
_atom_site_fract_y
_atom_site_fract_z
Si Si1 0.560090 0.846066 0.000458
Si Si2 0.908800 0.292696 0.634058
Si Si3 0.093391 0.459064 0.221395
Si Si4 0.479303 0.368751 0.553869
Si Si5 0.703335 0.319649 0.209778
Si Si6 0.849245 0.333574 0.922132
Si Si7 0.471615 0.044981 0.346322
Si Si8 0.685409 0.623560 0.155490
O O1 0.527701 0.729283 0.052937
O O2 0.567617 0.954946 0.088130
O O3 0.609861 0.782393 0.944800
O O4 0.519724 0.909091 0.918866
O O5 0.919189 0.427779 0.695177
O O6 0.932952 0.310243 0.519711
O O7 0.846490 0.264316 0.645364
O O8 0.940959 0.175455 0.686129
O O9 0.044206 0.395679 0.166019
O O10 0.121332 0.541425 0.127911
O O11 0.132582 0.356757 0.276704
O O12 0.500000 0.500000 0.500000
O O13 0.691405 0.296239 0.331164
O O14 0.697366 0.474071 0.186742
O O15 0.763512 0.290479 0.181830
O O16 0.825263 0.369074 0.033216
O O17 0.500000 0.977498 0.250000
#
# Coordination Sequence:
#
# PCOD9420668 Si02
#       8
#     8   8   8   8   8   8   8   8
#     4  10  22  35  52  79 106 144 184 220 274 314
#     4   9  20  34  53  76 103 147 187 218 268 326
#     4  10  19  32  51  81 112 147 179 212 278 342
#     4  11  21  32  49  80 115 146 171 220 274 337
#     4   9  19  32  52  79 102 145 179 212 273 324
#     4  10  18  34  49  73 110 136 176 221 263 318
#     4  10  20  37  55  73 103 144 192 226 254 318
#     4   9  19  31  50  79 108 138 172 220 270 324
#
# _framework density 19.013453999999999
#
# number of rings (size 3 to 8) (size 9 to 14) (size 15 to 20)
#    0.000    2.500    1.250    3.000    1.750    6.000 
#    0.000    0.000    0.000    0.750    0.000    3.500 
#    0.000    0.000    0.000    0.000    0.000    0.000 
#
# Total GULP energy -356682.682807 kJ/mol
# GULP energy per Si atom -5573.166919 kJ/mol
# Density = 1.897018 g / cm^3
# Si number density = 19.013454 Si / 1000 Ang^3
#
#
#
# Elastic Constant Matrix: (Units=GPa)
#
#
# Indices 1 2 3 4 5 6 
#
# 1 76.9565 15.5066 65.1449 0.0000 0.0000 0.0000
# 2 15.5066 29.6531 19.8715 0.0000 0.0000 0.0000
# 3 65.1449 19.8715 84.0126 0.0000 0.0000 0.0000
# 4 0.0000 0.0000 0.0000 13.9374 0.0000 0.0000
# 5 0.0000 0.0000 0.0000 0.0000 19.1157 0.0000
# 6 0.0000 0.0000 0.0000 0.0000 0.0000 9.7618
#
#
#
# Elastic Compliance Matrix: (Units=1/GPa)
#
#
# Indices 1 2 3 4 5 6 
#
# 1 0.037819 -0.000148 -0.029290 0.000000 0.000000 0.000000
# 2 -0.000148 0.040076 -0.009364 0.000000 0.000000 0.000000
# 3 -0.029290 -0.009364 0.036830 0.000000 0.000000 0.000000
# 4 0.000000 0.000000 0.000000 0.071750 0.000000 0.000000
# 5 0.000000 0.000000 0.000000 0.000000 0.052313 0.000000
# 6 0.000000 0.000000 0.000000 0.000000 0.000000 0.102440
#
#
# Mechanical properties :
#
#
# Convention : Reuss Voigt Hill
#
# Bulk Modulus (GPa) = 26.94008 43.51867 35.22938
# Shear Modulus (GPa) = 11.59534 14.56958 13.08246
#
# Velocity S-wave (km/s) = 2.47219 2.77117 2.62594
# Velocity P-wave (km/s) = 4.72744 5.75997 5.26906
#
# Compressibility (1/GPa) = 0.03711942
#
# Stress axis : x y z
#
# Youngs Moduli (GPa) = 26.44165 24.95251 27.15162
#
# Poissons Ratio (x) = 0.00370 0.79528
# Poissons Ratio (y) = 0.00393 0.25425
# Poissons Ratio (z) = 0.77449 0.23366
#
# Static dielectric constant tensor:
#      x y z
#    x 1.742700 0.000000 0.000000 
#    y 0.000000 1.667790 0.000000 
#    z 0.000000 0.000000 1.690570 
# 
# From -- ./inp_files/10394.got.cif
#   From: 2010.05.17/outbox.cif.g08.bks.cpg/sg54_6_cif.got.tgz:10394.got - 2010.06.03 13:09:01.
