data_PCOD9420261
_publ_section_title
;
Structure prediction by ZEFSAII (Michael W. Deem and Ramdas Pophale) SiO2 
 PCOD9420261
Probable space group: P M N A
;
_chemical_formula_sum "Si O2"
_cell_formula_units_Z 40
_cell_length_a 9.000000
_cell_length_b 24.000000
_cell_length_c 9.000000
_cell_angle_alpha 90.000000
_cell_angle_beta 90.000000
_cell_angle_gamma 90.000000
_cell_volume 1944.000000
_symmetry_space_group_name_H-M "P M N A"
_symmetry_group_IT_number 53
_symmetry_cell_setting 'orthorhombic'
loop_
_space_group_symop_operation_xyz
x,y,z
1/2-x,-y,1/2+z
x,-y,-z
1/2-x,y,1/2-z
-x,-y,-z
1/2+x,y,1/2-z
-x,y,z
1/2+x,-y,1/2+z
loop_
_atom_site_type_symbol
_atom_site_label
_atom_site_fract_x
_atom_site_fract_y
_atom_site_fract_z
Si Si1 0.323744 0.353080 0.093924
Si Si2 0.663338 0.051336 0.110315
Si Si3 0.172714 0.265395 0.905584
Si Si4 0.331013 0.445466 0.600268
Si Si5 0.170468 0.132201 0.903076
O O1 0.250000 0.367184 0.250000
O O2 0.500000 0.353457 0.104197
O O3 0.262031 0.294187 0.037134
O O4 0.263785 0.397559 0.976672
O O5 0.750000 0.029850 0.250000
O O6 0.500000 0.070240 0.153152
O O7 0.748922 0.101937 0.036232
O O8 0.654574 0.000000 0.000000
O O9 0.250000 0.281296 0.750000
O O10 0.178379 0.198780 0.917862
O O11 0.000000 0.282429 0.906578
O O12 0.335377 0.500000 0.500000
O O13 0.250000 0.461309 0.750000
O O14 0.500000 0.426236 0.625581
O O15 0.250000 0.116830 0.750000
O O16 0.000000 0.114851 0.895826
#
# Coordination Sequence:
#
# PCOD9420261 Si02
#       5
#     8   8   8   8   8
#     4  12  25  41  62  88 121 159 200 247 297 350
#     4  11  24  40  60  86 117 154 195 241 293 350
#     4  10  21  39  62  89 120 156 198 242 293 350
#     4  11  24  42  65  92 123 159 199 244 295 351
#     4  10  21  38  62  89 119 155 195 242 293 349
#
# _framework density 20.576132000000001
#
# number of rings (size 3 to 8) (size 9 to 14) (size 15 to 20)
#    0.000    1.200    0.000    6.000    0.000    9.600 
#    0.000    0.000    0.000    0.000    0.000    0.000 
#    0.000    0.000    0.000    0.000    0.000    0.000 
#
# Total GULP energy -223573.888004 kJ/mol
# GULP energy per Si atom -5589.347200 kJ/mol
# Density = 2.052930 g / cm^3
# Si number density = 20.576132 Si / 1000 Ang^3
#
#
#
# Elastic Constant Matrix: (Units=GPa)
#
#
# Indices 1 2 3 4 5 6 
#
# 1 211.5722 44.3178 64.9150 0.0000 0.0000 0.0000
# 2 44.3178 28.8093 21.4487 0.0000 0.0000 0.0000
# 3 64.9150 21.4487 89.7300 0.0000 0.0000 0.0000
# 4 0.0000 0.0000 0.0000 3.4782 0.0000 0.0000
# 5 0.0000 0.0000 0.0000 0.0000 22.1281 0.0000
# 6 0.0000 0.0000 0.0000 0.0000 0.0000 -48.6363
#
#
#
# Elastic Compliance Matrix: (Units=1/GPa)
#
#
# Indices 1 2 3 4 5 6 
#
# 1 0.007717 -0.009385 -0.003340 0.000000 0.000000 0.000000
# 2 -0.009385 0.053639 -0.006032 0.000000 0.000000 0.000000
# 3 -0.003340 -0.006032 0.015002 0.000000 0.000000 0.000000
# 4 0.000000 0.000000 0.000000 0.287507 0.000000 0.000000
# 5 0.000000 0.000000 0.000000 0.000000 0.045191 0.000000
# 6 0.000000 0.000000 0.000000 0.000000 0.000000 -0.020561
#
#
# Mechanical properties :
#
#
# Convention : Reuss Voigt Hill
#
# Bulk Modulus (GPa) = 25.74321 65.71939 45.73130
# Shear Modulus (GPa) = 11.39062 8.68933 10.03997
#
# Velocity S-wave (km/s) = 2.35539 2.05723 2.21134
# Velocity P-wave (km/s) = 4.46492 6.13611 5.36597
#
# Compressibility (1/GPa) = 0.03884520
#
# Stress axis : x y z
#
# Youngs Moduli (GPa) = 129.58390 18.64321 66.65596
#
# Poissons Ratio (x) = 0.17496 0.22260
# Poissons Ratio (y) = 1.21613 0.40208
# Poissons Ratio (z) = 0.43275 0.11246
#
# Static dielectric constant tensor:
#      x y z
#    x 1.393950 0.000000 0.000000 
#    y 0.000000 1.710060 0.000000 
#    z 0.000000 0.000000 1.672360 
# 
# From -- ./inp_files/6282.got.cif
#   From: 2010.05.17/outbox.ucp.g08.bks.cvg/sg53_4_cif.got.tgz:6282.got - 2010.06.11 16:32:34.
