data_PCOD9420781
_publ_section_title
;
Structure prediction by ZEFSAII (Michael W. Deem and Ramdas Pophale) SiO2 
 PCOD9420781
Probable space group: P C C A
;
_chemical_formula_sum "Si O2"
_cell_formula_units_Z 48
_cell_length_a 29.319899
_cell_length_b 5.511607
_cell_length_c 13.463641
_cell_angle_alpha 90.000000
_cell_angle_beta 90.000000
_cell_angle_gamma 90.000000
_cell_volume 2175.721162
_symmetry_space_group_name_H-M "P C C A"
_symmetry_group_IT_number 54
_symmetry_cell_setting 'orthorhombic'
loop_
_space_group_symop_operation_xyz
x,y,z
1/2-x,-y,z
1/2+x,-y,1/2-z
-x,y,1/2-z
-x,-y,-z
1/2+x,y,-z
1/2-x,y,1/2+z
x,-y,1/2+z
loop_
_atom_site_type_symbol
_atom_site_label
_atom_site_fract_x
_atom_site_fract_y
_atom_site_fract_z
Si Si1 0.525777 0.254353 0.026049
Si Si2 0.152844 0.405795 0.235403
Si Si3 0.582282 0.794440 0.713696
Si Si4 0.849734 0.894524 0.574199
Si Si5 0.250000 0.500000 0.264650
Si Si6 0.750000 0.000000 0.108407
Si Si7 0.600781 0.058742 0.895220
O O1 0.541291 0.263369 0.140579
O O2 0.500000 0.500000 0.000000
O O3 0.571657 0.242733 0.960534
O O4 0.500000 0.000000 0.000000
O O5 0.109129 0.576746 0.234164
O O6 0.155204 0.333179 0.352363
O O7 0.202112 0.507182 0.206992
O O8 0.142086 0.183154 0.163439
O O9 0.620516 0.924796 0.644036
O O10 0.569310 0.960777 0.806672
O O11 0.798714 0.989838 0.553120
O O12 0.878409 0.867721 0.473706
O O13 0.250789 0.247670 0.326630
#
# Coordination Sequence:
#
# PCOD9420781 Si02
#       7
#     8   8   8   8   4   4   8
#     4  11  28  49  73 100 136 176 225 285 348 418
#     4  10  21  40  69  97 136 188 221 279 336 402
#     4  10  22  43  70  94 135 178 219 278 349 395
#     4   9  20  39  62  92 137 179 225 266 337 388
#     4  10  20  38  66  96 138 176 232 266 326 392
#     4  10  18  38  62  94 130 186 222 270 320 394
#     4  10  24  43  67 101 134 177 227 285 337 412
#
# _framework density 22.06165
#
# number of rings (size 3 to 8) (size 9 to 14) (size 15 to 20)
#    0.000    2.000    1.667    0.000    9.333    2.000 
#    3.000    0.000    0.000    0.000    0.000    0.000 
#    0.000    0.000    0.000    0.000    0.000    0.000 
#
# Total GULP energy -267605.179970 kJ/mol
# GULP energy per Si atom -5575.107916 kJ/mol
# Density = 2.201144 g / cm^3
# Si number density = 22.061650 Si / 1000 Ang^3
#
#
#
# Elastic Constant Matrix: (Units=GPa)
#
#
# Indices 1 2 3 4 5 6 
#
# 1 68.3880 8.6542 22.9565 0.0000 0.0000 0.0000
# 2 8.6542 67.7402 11.3569 0.0000 0.0000 0.0000
# 3 22.9565 11.3569 112.9215 0.0000 0.0000 0.0000
# 4 0.0000 0.0000 0.0000 11.0182 0.0000 0.0000
# 5 0.0000 0.0000 0.0000 0.0000 18.8095 0.0000
# 6 0.0000 0.0000 0.0000 0.0000 0.0000 30.9843
#
#
#
# Elastic Compliance Matrix: (Units=1/GPa)
#
#
# Indices 1 2 3 4 5 6 
#
# 1 0.015844 -0.001510 -0.003069 0.000000 0.000000 0.000000
# 2 -0.001510 0.015159 -0.001218 0.000000 0.000000 0.000000
# 3 -0.003069 -0.001218 0.009602 0.000000 0.000000 0.000000
# 4 0.000000 0.000000 0.000000 0.090759 0.000000 0.000000
# 5 0.000000 0.000000 0.000000 0.000000 0.053165 0.000000
# 6 0.000000 0.000000 0.000000 0.000000 0.000000 0.032274
#
#
# Mechanical properties :
#
#
# Convention : Reuss Voigt Hill
#
# Bulk Modulus (GPa) = 34.46821 37.22056 35.84439
# Shear Modulus (GPa) = 21.00254 25.90121 23.45188
#
# Velocity S-wave (km/s) = 3.08879 3.43014 3.26393
# Velocity P-wave (km/s) = 5.32713 5.70926 5.52150
#
# Compressibility (1/GPa) = 0.02901224
#
# Stress axis : x y z
#
# Youngs Moduli (GPa) = 63.11642 65.96611 104.14354
#
# Poissons Ratio (x) = 0.09958 0.31963
# Poissons Ratio (y) = 0.09528 0.12682
# Poissons Ratio (z) = 0.19371 0.08033
#
# Static dielectric constant tensor:
#      x y z
#    x 2.642000 0.000000 0.000000 
#    y 0.000000 1.743750 0.000000 
#    z 0.000000 0.000000 1.768100 
# 
# From -- ./inp_files/15204.got.cif
#   From: 2010.05.17/outbox.cif.g08.bks.cpg/sg54_8_cif.got.tgz:15204.got - 2010.06.03 13:09:01.
