data_PCOD9420104
_publ_section_title
;
Structure prediction by ZEFSAII (Michael W. Deem and Ramdas Pophale) SiO2 
 PCOD9420104
Probable space group: P M N A
;
_chemical_formula_sum "Si O2"
_cell_formula_units_Z 56
_cell_length_a 15.000000
_cell_length_b 15.000000
_cell_length_c 12.000000
_cell_angle_alpha 90.000000
_cell_angle_beta 90.000000
_cell_angle_gamma 90.000000
_cell_volume 2700.000000
_symmetry_space_group_name_H-M "P M N A"
_symmetry_group_IT_number 53
_symmetry_cell_setting 'orthorhombic'
loop_
_space_group_symop_operation_xyz
x,y,z
1/2-x,-y,1/2+z
x,-y,-z
1/2-x,y,1/2-z
-x,-y,-z
1/2+x,y,1/2-z
-x,y,z
1/2+x,-y,1/2+z
loop_
_atom_site_type_symbol
_atom_site_label
_atom_site_fract_x
_atom_site_fract_y
_atom_site_fract_z
Si Si1 0.600075 0.874149 0.339007
Si Si2 0.105107 0.800093 0.556637
Si Si3 0.891749 0.342653 0.248669
Si Si4 0.897718 0.795783 0.929846
Si Si5 0.340088 0.272504 0.822571
Si Si6 0.853259 0.065824 0.258574
Si Si7 0.607815 0.522279 0.127797
O O1 0.500000 0.902478 0.368599
O O2 0.641744 0.838569 0.456344
O O3 0.599096 0.790615 0.255160
O O4 0.637337 0.961528 0.274463
O O5 0.127786 0.725435 0.649899
O O6 0.157454 0.775482 0.443864
O O7 0.117572 0.895223 0.620424
O O8 0.000000 0.790813 0.529905
O O9 0.859167 0.291893 0.135318
O O10 0.862797 0.442009 0.287791
O O11 0.000000 0.345540 0.239220
O O12 0.898708 0.873293 0.836389
O O13 0.000000 0.771591 0.958625
O O14 0.250000 0.270335 0.750000
O O15 0.365311 0.376676 0.839647
O O16 0.750000 0.087999 0.250000
O O17 0.500000 0.520051 0.127608
O O18 0.636560 0.500000 0.000000
#
# Coordination Sequence:
#
# PCOD9420104 Si02
#       7
#     8   8   8   8   8   8   8
#     4  11  23  42  64  87 124 172 215 257 317 397
#     4  10  20  40  67  93 122 167 226 271 315 388
#     4   8  15  32  64  97 116 148 214 273 304 365
#     4   9  19  38  64  90 122 165 211 252 310 394
#     4  12  26  40  58  90 134 168 209 275 341 385
#     4  11  23  38  63  96 128 162 210 273 328 381
#     4  10  18  36  67  94 117 160 221 273 320 387
#
# _framework density 20.740741
#
# number of rings (size 3 to 8) (size 9 to 14) (size 15 to 20)
#    0.000    1.857    1.429    4.286    2.000    1.714 
#    2.571    6.429    0.000    3.429    0.000    0.000 
#    0.000    0.000    0.000    0.000    0.000    0.000 
#
# Total GULP energy -312216.486816 kJ/mol
# GULP energy per Si atom -5575.294407 kJ/mol
# Density = 2.069353 g / cm^3
# Si number density = 20.740741 Si / 1000 Ang^3
#
#
#
# Elastic Constant Matrix: (Units=GPa)
#
#
# Indices 1 2 3 4 5 6 
#
# 1 71.3432 17.8549 13.4193 0.0000 0.0000 0.0000
# 2 17.8549 156.6803 83.7867 0.0000 0.0000 0.0000
# 3 13.4193 83.7867 146.4802 0.0000 0.0000 0.0000
# 4 0.0000 0.0000 0.0000 42.0599 0.0000 0.0000
# 5 0.0000 0.0000 0.0000 0.0000 22.6623 0.0000
# 6 0.0000 0.0000 0.0000 0.0000 0.0000 -34.0523
#
#
#
# Elastic Compliance Matrix: (Units=1/GPa)
#
#
# Indices 1 2 3 4 5 6 
#
# 1 0.014459 -0.001353 -0.000551 0.000000 0.000000 0.000000
# 2 -0.001353 0.009322 -0.005208 0.000000 0.000000 0.000000
# 3 -0.000551 -0.005208 0.009856 0.000000 0.000000 0.000000
# 4 0.000000 0.000000 0.000000 0.023776 0.000000 0.000000
# 5 0.000000 0.000000 0.000000 0.000000 0.044126 0.000000
# 6 0.000000 0.000000 0.000000 0.000000 0.000000 -0.029367
#
#
# Mechanical properties :
#
#
# Convention : Reuss Voigt Hill
#
# Bulk Modulus (GPa) = 51.51121 67.18061 59.34591
# Shear Modulus (GPa) = 53.84053 23.43020 38.63537
#
# Velocity S-wave (km/s) = 5.10051 3.36470 4.32067
# Velocity P-wave (km/s) = 7.71859 6.89608 7.31890
#
# Compressibility (1/GPa) = 0.01941325
#
# Stress axis : x y z
#
# Youngs Moduli (GPa) = 69.16116 107.27654 101.45804
#
# Poissons Ratio (x) = 0.14518 0.05585
# Poissons Ratio (y) = 0.09360 0.52840
# Poissons Ratio (z) = 0.03807 0.55870
#
# Static dielectric constant tensor:
#      x y z
#    x 1.805720 0.000000 0.000000 
#    y 0.000000 1.737660 0.000000 
#    z 0.000000 0.000000 1.759880 
# 
# From -- ./inp_files/16025.got.cif
#   From: 2010.05.17/outbox.ucp.g08.bks.cvg/sg53_9_cif.got.tgz:16025.got - 2010.06.11 16:32:34.
