data_PCOD9420473
_publ_section_title
;
Structure prediction by ZEFSAII (Michael W. Deem and Ramdas Pophale) SiO2 
 PCOD9420473
Probable space group: P C C A
;
_chemical_formula_sum "Si O2"
_cell_formula_units_Z 56
_cell_length_a 17.750359
_cell_length_b 17.244058
_cell_length_c 8.688040
_cell_angle_alpha 90.000000
_cell_angle_beta 90.000000
_cell_angle_gamma 90.000000
_cell_volume 2659.306700
_symmetry_space_group_name_H-M "P C C A"
_symmetry_group_IT_number 54
_symmetry_cell_setting 'orthorhombic'
loop_
_space_group_symop_operation_xyz
x,y,z
1/2-x,-y,z
1/2+x,-y,1/2-z
-x,y,1/2-z
-x,-y,-z
1/2+x,y,-z
1/2-x,y,1/2+z
x,-y,1/2+z
loop_
_atom_site_type_symbol
_atom_site_label
_atom_site_fract_x
_atom_site_fract_y
_atom_site_fract_z
Si Si1 0.626667 0.494522 0.047819
Si Si2 0.708397 0.601056 0.287366
Si Si3 0.350997 0.218570 0.174356
Si Si4 0.391293 0.386964 0.195022
Si Si5 0.686943 0.229992 0.687373
Si Si6 0.083054 0.063927 0.817646
Si Si7 0.084751 0.905491 0.684242
O O1 0.673139 0.438141 0.936637
O O2 0.585076 0.560964 0.950202
O O3 0.682306 0.544608 0.152887
O O4 0.582394 0.435827 0.158106
O O5 0.798425 0.608948 0.303848
O O6 0.671685 0.683690 0.249346
O O7 0.403283 0.294876 0.199561
O O8 0.275313 0.221687 0.276357
O O9 0.386553 0.137823 0.225682
O O10 0.328911 0.221914 0.994191
O O11 0.637317 0.167298 0.777108
O O12 0.000000 0.053689 0.750000
O O13 0.118829 0.981153 0.771508
O O14 0.082471 0.078090 0.000920
O O15 0.000000 0.890581 0.750000
#
# Coordination Sequence:
#
# PCOD9420473 Si02
#       7
#     8   8   8   8   8   8   8
#     4  10  17  28  44  72 107 158 197 242 287 342
#     4  10  18  27  46  72 114 153 199 238 291 339
#     4  11  23  37  56  89 128 160 196 245 301 351
#     4  10  18  27  46  72 114 153 199 238 291 339
#     4  11  23  37  56  89 128 160 196 245 301 351
#     4  11  23  43  69  92 117 151 196 241 288 353
#     4  11  23  43  69  92 117 151 196 241 288 353
#
# _framework density 21.058119000000001
#
# number of rings (size 3 to 8) (size 9 to 14) (size 15 to 20)
#    0.000    1.429    1.429    7.714    8.000    0.571 
#    0.000    2.857    0.000    0.000    0.000    6.000 
#    0.000    0.000    0.000    0.000    0.000    0.000 
#
# Total GULP energy -312723.198067 kJ/mol
# GULP energy per Si atom -5584.342823 kJ/mol
# Density = 2.101019 g / cm^3
# Si number density = 21.058119 Si / 1000 Ang^3
#
#
#
# Elastic Constant Matrix: (Units=GPa)
#
#
# Indices 1 2 3 4 5 6 
#
# 1 19.8272 22.1574 6.2321 0.0000 0.0000 0.0000
# 2 22.1574 179.2174 50.9575 0.0000 0.0000 0.0000
# 3 6.2321 50.9575 131.1137 0.0000 0.0000 0.0000
# 4 0.0000 0.0000 0.0000 28.7223 0.0000 0.0000
# 5 0.0000 0.0000 0.0000 0.0000 9.6662 0.0000
# 6 0.0000 0.0000 0.0000 0.0000 0.0000 139.9559
#
#
#
# Elastic Compliance Matrix: (Units=1/GPa)
#
#
# Indices 1 2 3 4 5 6 
#
# 1 0.058521 -0.007245 0.000034 0.000000 0.000000 0.000000
# 2 -0.007245 0.007170 -0.002442 0.000000 0.000000 0.000000
# 3 0.000034 -0.002442 0.008575 0.000000 0.000000 0.000000
# 4 0.000000 0.000000 0.000000 0.034816 0.000000 0.000000
# 5 0.000000 0.000000 0.000000 0.000000 0.103453 0.000000
# 6 0.000000 0.000000 0.000000 0.000000 0.000000 0.007145
#
#
# Mechanical properties :
#
#
# Convention : Reuss Voigt Hill
#
# Bulk Modulus (GPa) = 18.19513 54.31693 36.25603
# Shear Modulus (GPa) = 19.43209 52.38965 35.91087
#
# Velocity S-wave (km/s) = 3.04103 4.99326 4.13403
# Velocity P-wave (km/s) = 4.58145 7.68722 6.32783
#
# Compressibility (1/GPa) = 0.05495975
#
# Stress axis : x y z
#
# Youngs Moduli (GPa) = 17.08775 139.47105 116.62456
#
# Poissons Ratio (x) = 1.01046 -0.00398
# Poissons Ratio (y) = 0.12380 0.28483
# Poissons Ratio (z) = -0.00058 0.34062
#
# Static dielectric constant tensor:
#      x y z
#    x 1.811660 0.000000 0.000000 
#    y 0.000000 1.823250 0.000000 
#    z 0.000000 0.000000 1.794370 
# 
# From -- ./inp_files/4824.got.cif
#   From: 2010.05.17/outbox.cif.g08.bks.cpg/sg54_3_cif.got.tgz:4824.got - 2010.06.03 13:09:01.
