data_PCOD9420196
_publ_section_title
;
Structure prediction by ZEFSAII (Michael W. Deem and Ramdas Pophale) SiO2 
 PCOD9420196
Probable space group: P M N A
;
_chemical_formula_sum "Si O2"
_cell_formula_units_Z 64
_cell_length_a 9.000000
_cell_length_b 12.000000
_cell_length_c 30.000000
_cell_angle_alpha 90.000000
_cell_angle_beta 90.000000
_cell_angle_gamma 90.000000
_cell_volume 3240.000000
_symmetry_space_group_name_H-M "P M N A"
_symmetry_group_IT_number 53
_symmetry_cell_setting 'orthorhombic'
loop_
_space_group_symop_operation_xyz
x,y,z
1/2-x,-y,1/2+z
x,-y,-z
1/2-x,y,1/2-z
-x,-y,-z
1/2+x,y,1/2-z
-x,y,z
1/2+x,-y,1/2+z
loop_
_atom_site_type_symbol
_atom_site_label
_atom_site_fract_x
_atom_site_fract_y
_atom_site_fract_z
Si Si1 0.328553 0.369276 0.112966
Si Si2 0.822046 0.984943 0.113496
Si Si3 0.320705 0.882057 0.298640
Si Si4 0.169829 0.840948 0.549999
Si Si5 0.178823 0.457151 0.950386
Si Si6 0.322269 0.361478 0.701755
Si Si7 0.322268 0.798193 0.457070
Si Si8 0.821029 0.614055 0.799174
O O1 0.500000 0.391569 0.124838
O O2 0.325717 0.279500 0.073107
O O3 0.251348 0.474216 0.089413
O O4 0.245228 0.324756 0.157466
O O5 0.771520 0.970188 0.164350
O O6 0.787897 0.874840 0.084852
O O7 0.000000 0.998138 0.114173
O O8 0.750019 0.081855 0.085536
O O9 0.250000 0.896017 0.250000
O O10 0.500000 0.887094 0.294091
O O11 0.284122 0.758478 0.318651
O O12 0.248652 0.840789 0.502383
O O13 0.000000 0.875862 0.544276
O O14 0.222238 0.328456 0.948169
O O15 0.000000 0.466953 0.946141
O O16 0.218913 0.500000 0.000000
O O17 0.250000 0.352663 0.750000
O O18 0.500000 0.363877 0.704551
O O19 0.280399 0.485534 0.687338
O O20 0.500000 0.799730 0.463802
O O21 0.750000 0.636174 0.750000
O O22 0.000000 0.625709 0.796314
#
# Coordination Sequence:
#
# PCOD9420196 Si02
#       8
#     8   8   8   8   8   8   8   8
#     4  11  24  39  57  83 119 159 198 242 293 347
#     4  10  22  38  60  86 114 150 195 241 287 345
#     4   9  18  34  55  81 113 147 183 229 281 336
#     4  11  24  41  59  81 115 154 195 245 294 342
#     4  10  20  36  61  90 117 151 192 235 288 355
#     4   8  15  28  49  75 107 142 176 218 273 330
#     4  10  21  38  62  89 118 150 191 239 291 351
#     4  10  20  35  58  85 117 155 196 243 291 348
#
# _framework density 19.753086
#
# number of rings (size 3 to 8) (size 9 to 14) (size 15 to 20)
#    0.000    2.125    1.250    1.500    1.750    5.250 
#    0.000    0.625    0.000    1.500    0.000    0.000 
#    0.000    0.000    0.000    0.000    0.000    0.000 
#
# Total GULP energy -356717.730471 kJ/mol
# GULP energy per Si atom -5573.714539 kJ/mol
# Density = 1.970813 g / cm^3
# Si number density = 19.753086 Si / 1000 Ang^3
#
#
#
# Elastic Constant Matrix: (Units=GPa)
#
#
# Indices 1 2 3 4 5 6 
#
# 1 11.5294 7.8668 39.5031 0.0000 0.0000 0.0000
# 2 7.8668 32.9699 3.9086 0.0000 0.0000 0.0000
# 3 39.5031 3.9086 88.4259 0.0000 0.0000 0.0000
# 4 0.0000 0.0000 0.0000 13.3237 0.0000 0.0000
# 5 0.0000 0.0000 0.0000 0.0000 28.9543 0.0000
# 6 0.0000 0.0000 0.0000 0.0000 0.0000 16.9697
#
#
#
# Elastic Compliance Matrix: (Units=1/GPa)
#
#
# Indices 1 2 3 4 5 6 
#
# 1 -0.137734 0.025704 0.060395 0.000000 0.000000 0.000000
# 2 0.025704 0.025693 -0.012619 0.000000 0.000000 0.000000
# 3 0.060395 -0.012619 -0.015114 0.000000 0.000000 0.000000
# 4 0.000000 0.000000 0.000000 0.075054 0.000000 0.000000
# 5 0.000000 0.000000 0.000000 0.000000 0.034537 0.000000
# 6 0.000000 0.000000 0.000000 0.000000 0.000000 0.058929
#
#
# Mechanical properties :
#
#
# Convention : Reuss Voigt Hill
#
# Bulk Modulus (GPa) = 50.48955 26.16468 38.32711
# Shear Modulus (GPa) = -50.50882 17.29263 -16.60809
#
# Velocity S-wave (km/s) = -5.06217 2.96199 -2.90277
# Velocity P-wave (km/s) = 2.92432 4.99725 2.86538
#
# Compressibility (1/GPa) = 0.01980608
#
# Stress axis : x y z
#
# Youngs Moduli (GPa) = -7.26037 38.92044 -66.16439
#
# Poissons Ratio (x) = -1.00042 3.99598
# Poissons Ratio (y) = 0.18662 -0.83491
# Poissons Ratio (z) = 0.43849 0.49113
#
# Static dielectric constant tensor:
#      x y z
#    x 1.676740 0.000000 0.000000 
#    y 0.000000 1.794160 0.000000 
#    z 0.000000 0.000000 1.659980 
# 
# From -- ./inp_files/38262.got.cif
#   From: 2010.05.17/outbox.ucp.g08.bks.cvg/sg53_20_cif.got.tgz:38262.got - 2010.06.11 16:32:34.
