data_PCOD9420888
_publ_section_title
;
Structure prediction by ZEFSAII (Michael W. Deem and Ramdas Pophale) SiO2 
 PCOD9420888
Probable space group: P C C A
;
_chemical_formula_sum "Si O2"
_cell_formula_units_Z 64
_cell_length_a 5.291560
_cell_length_b 32.372352
_cell_length_c 18.343033
_cell_angle_alpha 90.000000
_cell_angle_beta 90.000000
_cell_angle_gamma 90.000000
_cell_volume 3142.166009
_symmetry_space_group_name_H-M "P C C A"
_symmetry_group_IT_number 54
_symmetry_cell_setting 'orthorhombic'
loop_
_space_group_symop_operation_xyz
x,y,z
1/2-x,-y,z
1/2+x,-y,1/2-z
-x,y,1/2-z
-x,-y,-z
1/2+x,y,-z
1/2-x,y,1/2+z
x,-y,1/2+z
loop_
_atom_site_type_symbol
_atom_site_label
_atom_site_fract_x
_atom_site_fract_y
_atom_site_fract_z
Si Si1 0.998011 0.669674 0.662191
Si Si2 0.254895 0.871273 0.702665
Si Si3 0.995989 0.380738 0.838321
Si Si4 0.143539 0.267273 0.043136
Si Si5 0.601703 0.961308 0.327228
Si Si6 0.501179 0.475393 0.160919
Si Si7 0.936676 0.046735 0.027767
Si Si8 0.670354 0.832126 0.455556
O O1 0.228023 0.639091 0.642337
O O2 0.059144 0.711063 0.617884
O O3 0.000000 0.676103 0.750000
O O4 0.733532 0.647998 0.641142
O O5 0.500000 0.859278 0.750000
O O6 0.262130 0.920452 0.686538
O O7 0.225670 0.849420 0.624866
O O8 0.000000 0.864736 0.750000
O O9 0.012361 0.427953 0.864186
O O10 0.000000 0.382311 0.750000
O O11 0.155401 0.217791 0.050515
O O12 0.422191 0.279115 0.014334
O O13 0.500000 0.974964 0.250000
O O14 0.385596 0.952017 0.386413
O O15 0.750000 0.000000 0.358946
O O16 0.250000 0.500000 0.138469
O O17 0.500000 0.474618 0.250000
O O18 0.750000 0.500000 0.138082
O O19 0.708625 0.066750 0.984967
O O20 0.000000 0.000000 0.000000
O O21 0.399988 0.843820 0.490209
#
# Coordination Sequence:
#
# PCOD9420888 Si02
#       8
#     8   8   8   8   8   8   8   8
#     4  10  19  32  51  78 112 148 181 226 293 350
#     4  11  25  44  64  95 127 162 205 251 299 357
#     4   9  17  28  43  69 109 146 184 236 289 344
#     4  10  21  38  60  86 117 147 188 232 283 351
#     4  11  24  39  63  89 123 163 196 240 295 347
#     4   9  15  23  37  59  93 142 190 229 281 341
#     4  10  21  38  55  82 113 145 193 240 280 330
#     4  10  22  43  68  93 120 161 199 245 302 356
#
# _framework density 20.368113999999998
#
# number of rings (size 3 to 8) (size 9 to 14) (size 15 to 20)
#    0.000    2.000    1.250    2.625    1.750    6.500 
#    0.000    1.875    0.000    0.000    0.000    0.000 
#    0.000   35.000    0.000    0.000    0.000    0.000 
#
# Total GULP energy -357262.412445 kJ/mol
# GULP energy per Si atom -5582.225194 kJ/mol
# Density = 2.032176 g / cm^3
# Si number density = 20.368114 Si / 1000 Ang^3
#
#
#
# Elastic Constant Matrix: (Units=GPa)
#
#
# Indices 1 2 3 4 5 6 
#
# 1 159.3841 43.4703 44.2956 0.0000 0.0000 0.0000
# 2 43.4703 74.9363 29.8928 0.0000 0.0000 0.0000
# 3 44.2956 29.8928 100.9284 0.0000 0.0000 0.0000
# 4 0.0000 0.0000 0.0000 1.8155 0.0000 0.0000
# 5 0.0000 0.0000 0.0000 0.0000 24.8456 0.0000
# 6 0.0000 0.0000 0.0000 0.0000 0.0000 23.0131
#
#
#
# Elastic Compliance Matrix: (Units=1/GPa)
#
#
# Indices 1 2 3 4 5 6 
#
# 1 0.007936 -0.003645 -0.002404 0.000000 0.000000 0.000000
# 2 -0.003645 0.016807 -0.003378 0.000000 0.000000 0.000000
# 3 -0.002404 -0.003378 0.011963 0.000000 0.000000 0.000000
# 4 0.000000 0.000000 0.000000 0.550813 0.000000 0.000000
# 5 0.000000 0.000000 0.000000 0.000000 0.040249 0.000000
# 6 0.000000 0.000000 0.000000 0.000000 0.000000 0.043453
#
#
# Mechanical properties :
#
#
# Convention : Reuss Voigt Hill
#
# Bulk Modulus (GPa) = 56.01245 63.39625 59.70435
# Shear Modulus (GPa) = 7.18365 24.44085 15.81225
#
# Velocity S-wave (km/s) = 1.88004 3.46780 2.78928
# Velocity P-wave (km/s) = 5.68089 6.87219 6.30474
#
# Compressibility (1/GPa) = 0.01785317
#
# Stress axis : x y z
#
# Youngs Moduli (GPa) = 126.00385 59.50023 83.58849
#
# Poissons Ratio (x) = 0.21688 0.20091
# Poissons Ratio (y) = 0.45929 0.28236
# Poissons Ratio (z) = 0.30285 0.20099
#
# Static dielectric constant tensor:
#      x y z
#    x 1.805940 0.000000 0.000000 
#    y 0.000000 1.952370 0.000000 
#    z 0.000000 0.000000 1.700750 
# 
# From -- ./inp_files/16007.got.cif
#   From: 2010.05.17/outbox.cif.g08.bks.cpg/sg54_9_cif.got.tgz:16007.got - 2010.06.03 13:09:01.
