data_PCOD9420715
_publ_section_title
;
Structure prediction by ZEFSAII (Michael W. Deem and Ramdas Pophale) SiO2 
 PCOD9420715
Probable space group: P C C A
;
_chemical_formula_sum "Si O2"
_cell_formula_units_Z 32
_cell_length_a 5.542919
_cell_length_b 13.786593
_cell_length_c 18.786584
_cell_angle_alpha 90.000000
_cell_angle_beta 90.000000
_cell_angle_gamma 90.000000
_cell_volume 1435.632580
_symmetry_space_group_name_H-M "P C C A"
_symmetry_group_IT_number 54
_symmetry_cell_setting 'orthorhombic'
loop_
_space_group_symop_operation_xyz
x,y,z
1/2-x,-y,z
1/2+x,-y,1/2-z
-x,y,1/2-z
-x,-y,-z
1/2+x,y,-z
1/2-x,y,1/2+z
x,-y,1/2+z
loop_
_atom_site_type_symbol
_atom_site_label
_atom_site_fract_x
_atom_site_fract_y
_atom_site_fract_z
Si Si1 0.743927 0.384235 0.166784
Si Si2 0.398887 0.093608 0.172142
Si Si3 0.053092 0.110728 0.973983
Si Si4 0.739569 0.693007 0.330373
O O1 0.750000 0.500000 0.164634
O O2 0.751349 0.350241 0.249800
O O3 0.492697 0.342955 0.136506
O O4 0.992690 0.343355 0.134974
O O5 0.500000 0.075524 0.250000
O O6 0.595449 0.109680 0.110640
O O7 0.244166 0.191352 0.175906
O O8 0.250000 0.000000 0.149607
O O9 0.787572 0.155267 0.988661
O O10 0.000000 0.000000 0.000000
#
# Coordination Sequence:
#
# PCOD9420715 Si02
#       4
#     8   8   8   8
#     4  10  18  35  55  76 123 161 188 246 323 380
#     4  12  26  37  62  94 132 175 202 268 315 363
#     4  10  22  45  60  81 114 175 223 253 295 374
#     4  10  20  34  49  87 115 155 204 240 297 382
#
# _framework density 22.289825
#
# number of rings (size 3 to 8) (size 9 to 14) (size 15 to 20)
#    0.000    1.500    5.000    3.750    7.000    2.000 
#    0.000    0.000    0.000    0.000    0.000    0.000 
#    0.000   34.000    0.000    0.000    0.000    0.000 
#
# Total GULP energy -178670.439938 kJ/mol
# GULP energy per Si atom -5583.451248 kJ/mol
# Density = 2.223909 g / cm^3
# Si number density = 22.289825 Si / 1000 Ang^3
#
#
#
# Elastic Constant Matrix: (Units=GPa)
#
#
# Indices 1 2 3 4 5 6 
#
# 1 198.8448 33.4159 2.2348 0.0000 0.0000 0.0000
# 2 33.4159 139.3955 -31.1807 0.0000 0.0000 0.0000
# 3 2.2348 -31.1807 81.7436 0.0000 0.0000 0.0000
# 4 0.0000 0.0000 0.0000 -4.9845 0.0000 0.0000
# 5 0.0000 0.0000 0.0000 0.0000 19.4602 0.0000
# 6 0.0000 0.0000 0.0000 0.0000 0.0000 42.4285
#
#
#
# Elastic Compliance Matrix: (Units=1/GPa)
#
#
# Indices 1 2 3 4 5 6 
#
# 1 0.005275 -0.001418 -0.000685 0.000000 0.000000 0.000000
# 2 -0.001418 0.008224 0.003176 0.000000 0.000000 0.000000
# 3 -0.000685 0.003176 0.013463 0.000000 0.000000 0.000000
# 4 0.000000 0.000000 0.000000 -0.200622 0.000000 0.000000
# 5 0.000000 0.000000 0.000000 0.000000 0.051387 0.000000
# 6 0.000000 0.000000 0.000000 0.000000 0.000000 0.023569
#
#
# Mechanical properties :
#
#
# Convention : Reuss Voigt Hill
#
# Bulk Modulus (GPa) = 34.35407 47.65821 41.00614
# Shear Modulus (GPa) = -54.85702 39.08176 -7.88763
#
# Velocity S-wave (km/s) = -4.96631 4.19184 -1.88318
# Velocity P-wave (km/s) = 4.17609 6.69748 3.70247
#
# Compressibility (1/GPa) = 0.02910863
#
# Stress axis : x y z
#
# Youngs Moduli (GPa) = 189.57343 121.59426 74.27497
#
# Poissons Ratio (x) = 0.17239 0.05088
# Poissons Ratio (y) = 0.26877 -0.23588
# Poissons Ratio (z) = 0.12986 -0.38616
#
# Static dielectric constant tensor:
#      x y z
#    x 1.963190 0.000000 0.000000 
#    y 0.000000 1.799350 0.000000 
#    z 0.000000 0.000000 1.807270 
# 
# From -- ./inp_files/19564.got.cif
#   From: 2010.05.17/outbox.cif.g08.bks.cpg/sg54_10_cif.got.tgz:19564.got - 2010.06.03 13:09:01.
