data_PCOD9420439
_publ_section_title
;
Structure prediction by ZEFSAII (Michael W. Deem and Ramdas Pophale) SiO2 
 PCOD9420439
Probable space group: P C C A
;
_chemical_formula_sum "Si O2"
_cell_formula_units_Z 44
_cell_length_a 17.832047
_cell_length_b 8.221094
_cell_length_c 15.469176
_cell_angle_alpha 90.000000
_cell_angle_beta 90.000000
_cell_angle_gamma 90.000000
_cell_volume 2267.764721
_symmetry_space_group_name_H-M "P C C A"
_symmetry_group_IT_number 54
_symmetry_cell_setting 'orthorhombic'
loop_
_space_group_symop_operation_xyz
x,y,z
1/2-x,-y,z
1/2+x,-y,1/2-z
-x,y,1/2-z
-x,-y,-z
1/2+x,y,-z
1/2-x,y,1/2+z
x,-y,1/2+z
loop_
_atom_site_type_symbol
_atom_site_label
_atom_site_fract_x
_atom_site_fract_y
_atom_site_fract_z
Si Si1 0.140201 0.245233 0.173562
Si Si2 0.502256 0.129593 0.078183
Si Si3 0.081163 0.586089 0.497076
Si Si4 0.250000 0.500000 0.681527
Si Si5 0.342659 0.708073 0.543016
Si Si6 0.500000 0.924698 0.250000
Si Si7 0.250000 0.000000 0.074844
O O1 0.105293 0.337815 0.089591
O O2 0.191829 0.375891 0.223763
O O3 0.072948 0.181969 0.231217
O O4 0.189563 0.095993 0.134654
O O5 0.422332 0.222102 0.075046
O O6 0.511562 0.034845 0.166362
O O7 0.568342 0.260293 0.064239
O O8 0.500000 0.000000 0.000000
O O9 0.138850 0.439708 0.477849
O O10 0.000000 0.500000 0.500000
O O11 0.297965 0.621027 0.620486
O O12 0.292496 0.863026 0.518954
#
# Coordination Sequence:
#
# PCOD9420439 Si02
#       7
#     8   8   8   4   8   4   4
#     4  10  19  35  60  92 119 167 207 260 307 386
#     4  11  20  36  58  88 127 153 203 267 314 372
#     4   9  18  34  56  86 122 147 195 260 320 356
#     4   8  18  34  58  88 118 162 212 244 310 390
#     4   9  17  31  58  86 112 162 200 244 312 373
#     4  12  22  34  62 100 116 164 222 254 336 366
#     4  10  16  32  58  88 118 160 220 232 308 396
#
# _framework density 19.402365
#
# number of rings (size 3 to 8) (size 9 to 14) (size 15 to 20)
#    0.000    2.182    3.636    0.000    0.000    0.000 
#    0.000    8.182    0.000    9.818    0.000    0.000 
#    0.000    0.000    0.000    0.000    0.000    0.000 
#
# Total GULP energy -245046.999683 kJ/mol
# GULP energy per Si atom -5569.249993 kJ/mol
# Density = 1.935820 g / cm^3
# Si number density = 19.402365 Si / 1000 Ang^3
#
#
#
# Elastic Constant Matrix: (Units=GPa)
#
#
# Indices 1 2 3 4 5 6 
#
# 1 109.0786 74.2367 31.5867 0.0000 0.0000 0.0000
# 2 74.2367 162.1681 47.0656 0.0000 0.0000 0.0000
# 3 31.5867 47.0656 66.0175 0.0000 0.0000 0.0000
# 4 0.0000 0.0000 0.0000 11.7240 0.0000 0.0000
# 5 0.0000 0.0000 0.0000 0.0000 19.9861 0.0000
# 6 0.0000 0.0000 0.0000 0.0000 0.0000 78.6377
#
#
#
# Elastic Compliance Matrix: (Units=1/GPa)
#
#
# Indices 1 2 3 4 5 6 
#
# 1 0.013667 -0.005496 -0.002621 0.000000 0.000000 0.000000
# 2 -0.005496 0.009985 -0.004489 0.000000 0.000000 0.000000
# 3 -0.002621 -0.004489 0.019602 0.000000 0.000000 0.000000
# 4 0.000000 0.000000 0.000000 0.085295 0.000000 0.000000
# 5 0.000000 0.000000 0.000000 0.000000 0.050035 0.000000
# 6 0.000000 0.000000 0.000000 0.000000 0.000000 0.012717
#
#
# Mechanical properties :
#
#
# Convention : Reuss Voigt Hill
#
# Bulk Modulus (GPa) = 55.42558 71.44916 63.43737
# Shear Modulus (GPa) = 22.46919 34.36121 28.41520
#
# Velocity S-wave (km/s) = 3.40673 4.21287 3.83106
# Velocity P-wave (km/s) = 6.64099 7.78263 7.23436
#
# Compressibility (1/GPa) = 0.01804221
#
# Stress axis : x y z
#
# Youngs Moduli (GPa) = 73.16903 100.14884 51.01515
#
# Poissons Ratio (x) = 0.55039 0.13371
# Poissons Ratio (y) = 0.40212 0.22902
# Poissons Ratio (z) = 0.19178 0.44959
#
# Static dielectric constant tensor:
#      x y z
#    x 1.735740 0.000000 0.000000 
#    y 0.000000 1.740250 0.000000 
#    z 0.000000 0.000000 1.622510 
# 
# From -- ./inp_files/14056.got.cif
#   From: 2010.05.17/outbox.cif.g08.bks.cpg/sg54_8_cif.got.tgz:14056.got - 2010.06.03 13:09:01.
