data_PCOD9420077
_publ_section_title
;
Structure prediction by ZEFSAII (Michael W. Deem and Ramdas Pophale) SiO2 
 PCOD9420077
Probable space group: P M N A
;
_chemical_formula_sum "Si O2"
_cell_formula_units_Z 40
_cell_length_a 15.000000
_cell_length_b 9.000000
_cell_length_c 15.000000
_cell_angle_alpha 90.000000
_cell_angle_beta 90.000000
_cell_angle_gamma 90.000000
_cell_volume 2025.000000
_symmetry_space_group_name_H-M "P M N A"
_symmetry_group_IT_number 53
_symmetry_cell_setting 'orthorhombic'
loop_
_space_group_symop_operation_xyz
x,y,z
1/2-x,-y,1/2+z
x,-y,-z
1/2-x,y,1/2-z
-x,-y,-z
1/2+x,y,1/2-z
-x,y,z
1/2+x,-y,1/2+z
loop_
_atom_site_type_symbol
_atom_site_label
_atom_site_fract_x
_atom_site_fract_y
_atom_site_fract_z
Si Si1 0.100084 0.305975 0.687867
Si Si2 0.331595 0.357097 0.437198
Si Si3 0.750000 0.531058 0.750000
Si Si4 0.500000 0.114575 0.084223
Si Si5 0.500000 0.139441 0.432450
Si Si6 0.000000 0.066824 0.765622
Si Si7 0.667061 0.825201 0.003747
O O1 0.172057 0.426778 0.711370
O O2 0.084097 0.179833 0.763785
O O3 0.127794 0.220454 0.598825
O O4 0.000000 0.369096 0.675250
O O5 0.351505 0.500000 0.500000
O O6 0.296583 0.389248 0.335728
O O7 0.414985 0.246421 0.438319
O O8 0.251059 0.273452 0.484725
O O9 0.590383 0.203988 0.069928
O O10 0.500000 0.019859 0.172558
O O11 0.500000 0.000000 0.000000
O O12 0.500000 0.000000 0.500000
O O13 0.500000 0.055092 0.339198
O O14 0.689476 0.000000 0.000000
#
# Coordination Sequence:
#
# PCOD9420077 Si02
#       7
#     8   8   4   4   4   4   8
#     4  10  21  42  72 103 139 183 224 286 368 419
#     4  12  29  48  68 101 141 189 237 290 349 429
#     4  12  28  44  68 106 144 188 232 284 362 428
#     4  10  16  36  65 108 140 155 203 294 364 408
#     4  12  31  52  70  97 140 199 249 285 333 402
#     4  10  22  42  72 103 133 178 230 287 348 414
#     4  11  19  41  73 104 139 172 226 293 360 417
#
# _framework density 19.753086
#
# number of rings (size 3 to 8) (size 9 to 14) (size 15 to 20)
#    0.600    0.400    7.000    0.900    7.000    1.600 
#    1.800    1.500    0.000    0.000    0.000    0.000 
#    0.000    0.000    0.000    0.000    0.000    0.000 
#
# Total GULP energy -223005.082803 kJ/mol
# GULP energy per Si atom -5575.127070 kJ/mol
# Density = 1.970813 g / cm^3
# Si number density = 19.753086 Si / 1000 Ang^3
#
#
#
# Elastic Constant Matrix: (Units=GPa)
#
#
# Indices 1 2 3 4 5 6 
#
# 1 144.3087 83.2803 46.8042 0.0000 0.0000 0.0000
# 2 83.2803 110.1909 57.6705 0.0000 0.0000 0.0000
# 3 46.8042 57.6705 102.6478 0.0000 0.0000 0.0000
# 4 0.0000 0.0000 0.0000 40.8009 0.0000 0.0000
# 5 0.0000 0.0000 0.0000 0.0000 22.9158 0.0000
# 6 0.0000 0.0000 0.0000 0.0000 0.0000 54.5258
#
#
#
# Elastic Compliance Matrix: (Units=1/GPa)
#
#
# Indices 1 2 3 4 5 6 
#
# 1 0.012312 -0.009019 -0.000547 0.000000 0.000000 0.000000
# 2 -0.009019 0.019462 -0.006822 0.000000 0.000000 0.000000
# 3 -0.000547 -0.006822 0.013824 0.000000 0.000000 0.000000
# 4 0.000000 0.000000 0.000000 0.024509 0.000000 0.000000
# 5 0.000000 0.000000 0.000000 0.000000 0.043638 0.000000
# 6 0.000000 0.000000 0.000000 0.000000 0.000000 0.018340
#
#
# Mechanical properties :
#
#
# Convention : Reuss Voigt Hill
#
# Bulk Modulus (GPa) = 77.98675 81.40637 79.69656
# Shear Modulus (GPa) = 29.56241 34.94132 32.25187
#
# Velocity S-wave (km/s) = 3.87278 4.21040 4.04511
# Velocity P-wave (km/s) = 7.71780 8.05841 7.88995
#
# Compressibility (1/GPa) = 0.01282269
#
# Stress axis : x y z
#
# Youngs Moduli (GPa) = 81.22410 51.38287 72.33764
#
# Poissons Ratio (x) = 0.46341 0.03955
# Poissons Ratio (y) = 0.73254 0.49348
# Poissons Ratio (z) = 0.04441 0.35053
#
# Static dielectric constant tensor:
#      x y z
#    x 1.741590 0.000000 0.000000 
#    y 0.000000 1.695660 0.000000 
#    z 0.000000 0.000000 1.702430 
# 
# From -- ./inp_files/22513.got.cif
#   From: 2010.05.17/outbox.ucp.g08.bks.cvg/sg53_12_cif.got.tgz:22513.got - 2010.06.11 16:32:34.
