data_PCOD9420687
_publ_section_title
;
Structure prediction by ZEFSAII (Michael W. Deem and Ramdas Pophale) SiO2 
 PCOD9420687
Probable space group: P C C A
;
_chemical_formula_sum "Si O2"
_cell_formula_units_Z 56
_cell_length_a 11.335415
_cell_length_b 14.525620
_cell_length_c 16.568470
_cell_angle_alpha 90.000000
_cell_angle_beta 90.000000
_cell_angle_gamma 90.000000
_cell_volume 2728.063713
_symmetry_space_group_name_H-M "P C C A"
_symmetry_group_IT_number 54
_symmetry_cell_setting 'orthorhombic'
loop_
_space_group_symop_operation_xyz
x,y,z
1/2-x,-y,z
1/2+x,-y,1/2-z
-x,y,1/2-z
-x,-y,-z
1/2+x,y,-z
1/2-x,y,1/2+z
x,-y,1/2+z
loop_
_atom_site_type_symbol
_atom_site_label
_atom_site_fract_x
_atom_site_fract_y
_atom_site_fract_z
Si Si1 0.483715 0.152699 0.971231
Si Si2 0.916021 0.239821 0.868635
Si Si3 0.869793 0.550163 0.348602
Si Si4 0.916515 0.264395 0.175107
Si Si5 0.872980 0.035631 0.577385
Si Si6 0.340328 0.180684 0.300034
Si Si7 0.621776 0.481963 0.663773
O O1 0.483303 0.231571 0.905329
O O2 0.451954 0.055086 0.929520
O O3 0.404121 0.188235 0.046217
O O4 0.597821 0.121811 0.020439
O O5 0.866275 0.342510 0.869117
O O6 0.854072 0.186286 0.795668
O O7 0.054456 0.242269 0.839833
O O8 0.750000 0.500000 0.377591
O O9 0.871551 0.533345 0.251106
O O10 0.998561 0.513409 0.376722
O O11 0.789839 0.213828 0.176374
O O12 0.891847 0.373073 0.177934
O O13 0.000000 0.239906 0.250000
O O14 0.865176 0.079157 0.665744
O O15 0.750000 0.000000 0.548946
O O16 0.750000 0.500000 0.623895
#
# Coordination Sequence:
#
# PCOD9420687 Si02
#       7
#     8   8   8   8   8   8   8
#     4  10  24  42  64  96 134 167 213 280 339 394
#     4  10  21  40  67  97 123 176 223 268 331 395
#     4  10  18  34  58  91 128 166 217 272 313 385
#     4  12  23  40  62  98 134 171 222 270 333 400
#     4  10  20  44  64  88 130 167 213 276 329 389
#     4  10  20  39  67  92 122 169 229 266 315 411
#     4  10  19  35  60  88 129 177 212 266 327 385
#
# _framework density 20.527380000000001
#
# number of rings (size 3 to 8) (size 9 to 14) (size 15 to 20)
#    0.000    1.714    2.857    4.286    0.000    1.143 
#    7.714    2.143    0.000    0.000    0.000    0.000 
#    0.000    0.000    0.000    0.000    0.000    0.000 
#
# Total GULP energy -312008.791344 kJ/mol
# GULP energy per Si atom -5571.585560 kJ/mol
# Density = 2.048066 g / cm^3
# Si number density = 20.527380 Si / 1000 Ang^3
#
#
#
# Elastic Constant Matrix: (Units=GPa)
#
#
# Indices 1 2 3 4 5 6 
#
# 1 96.5820 27.8807 8.9743 0.0000 0.0000 0.0000
# 2 27.8807 110.1726 57.3798 0.0000 0.0000 0.0000
# 3 8.9743 57.3798 82.0425 0.0000 0.0000 0.0000
# 4 0.0000 0.0000 0.0000 26.5581 0.0000 0.0000
# 5 0.0000 0.0000 0.0000 0.0000 6.1098 0.0000
# 6 0.0000 0.0000 0.0000 0.0000 0.0000 11.5160
#
#
#
# Elastic Compliance Matrix: (Units=1/GPa)
#
#
# Indices 1 2 3 4 5 6 
#
# 1 0.011244 -0.003468 0.001196 0.000000 0.000000 0.000000
# 2 -0.003468 0.015347 -0.010354 0.000000 0.000000 0.000000
# 3 0.001196 -0.010354 0.019300 0.000000 0.000000 0.000000
# 4 0.000000 0.000000 0.000000 0.037653 0.000000 0.000000
# 5 0.000000 0.000000 0.000000 0.000000 0.163671 0.000000
# 6 0.000000 0.000000 0.000000 0.000000 0.000000 0.086835
#
#
# Mechanical properties :
#
#
# Convention : Reuss Voigt Hill
#
# Bulk Modulus (GPa) = 48.45611 53.02963 50.74287
# Shear Modulus (GPa) = 13.65440 21.80763 17.73101
#
# Velocity S-wave (km/s) = 2.58191 3.26293 2.94219
# Velocity P-wave (km/s) = 5.70484 6.33130 6.02621
#
# Compressibility (1/GPa) = 0.02063723
#
# Stress axis : x y z
#
# Youngs Moduli (GPa) = 88.93666 65.15955 51.81451
#
# Poissons Ratio (x) = 0.22598 -0.06195
# Poissons Ratio (y) = 0.30845 0.53649
# Poissons Ratio (z) = -0.10634 0.67467
#
# Static dielectric constant tensor:
#      x y z
#    x 1.682450 0.000000 0.000000 
#    y 0.000000 1.770440 0.000000 
#    z 0.000000 0.000000 1.732280 
# 
# From -- ./inp_files/12688.got.cif
#   From: 2010.05.17/outbox.cif.g08.bks.cpg/sg54_7_cif.got.tgz:12688.got - 2010.06.03 13:09:01.
