data_PCOD9420751
_publ_section_title
;
Structure prediction by ZEFSAII (Michael W. Deem and Ramdas Pophale) SiO2 
 PCOD9420751
Probable space group: P C C A
;
_chemical_formula_sum "Si O2"
_cell_formula_units_Z 48
_cell_length_a 7.861017
_cell_length_b 18.105427
_cell_length_c 14.366386
_cell_angle_alpha 90.000000
_cell_angle_beta 90.000000
_cell_angle_gamma 90.000000
_cell_volume 2044.725618
_symmetry_space_group_name_H-M "P C C A"
_symmetry_group_IT_number 54
_symmetry_cell_setting 'orthorhombic'
loop_
_space_group_symop_operation_xyz
x,y,z
1/2-x,-y,z
1/2+x,-y,1/2-z
-x,y,1/2-z
-x,-y,-z
1/2+x,y,-z
1/2-x,y,1/2+z
x,-y,1/2+z
loop_
_atom_site_type_symbol
_atom_site_label
_atom_site_fract_x
_atom_site_fract_y
_atom_site_fract_z
Si Si1 0.840380 0.661675 0.150779
Si Si2 0.829741 0.424505 0.313015
Si Si3 0.508111 0.670284 0.027800
Si Si4 0.706094 0.799917 0.257138
Si Si5 0.311339 0.916730 0.386981
Si Si6 0.128963 0.832986 0.551489
O O1 0.801457 0.608351 0.236670
O O2 0.689824 0.657852 0.074417
O O3 0.814862 0.741209 0.199670
O O4 0.995146 0.647030 0.080555
O O5 0.750000 0.500000 0.349764
O O6 0.885852 0.371046 0.397439
O O7 0.000000 0.436639 0.250000
O O8 0.470793 0.757965 0.028135
O O9 0.500000 0.779254 0.250000
O O10 0.727116 0.879498 0.211324
O O11 0.750355 0.806831 0.364760
O O12 0.217545 0.867711 0.463911
O O13 0.507820 0.897221 0.407068
O O14 0.250000 0.000000 0.392880
#
# Coordination Sequence:
#
# PCOD9420751 Si02
#       6
#     8   8   8   8   8   8
#     4  11  20  38  64  90 118 159 213 252 305 365
#     4  10  23  41  63  90 127 164 205 256 318 368
#     4  11  20  37  66  91 116 165 209 249 302 378
#     4  10  18  36  63  83 113 165 208 241 304 372
#     4  11  23  37  59  92 124 157 201 257 311 357
#     4  11  20  39  64  84 122 163 203 248 303 370
#
# _framework density 23.475033
#
# number of rings (size 3 to 8) (size 9 to 14) (size 15 to 20)
#    0.000    1.333    6.667    1.000    0.000    2.667 
#    0.000    5.833    0.000    0.000    0.000    0.000 
#    0.000    0.000    0.000    0.000    0.000    0.000 
#
# Total GULP energy -268389.733840 kJ/mol
# GULP energy per Si atom -5591.452788 kJ/mol
# Density = 2.342160 g / cm^3
# Si number density = 23.475033 Si / 1000 Ang^3
#
#
#
# Elastic Constant Matrix: (Units=GPa)
#
#
# Indices 1 2 3 4 5 6 
#
# 1 63.1773 30.2231 26.7811 0.0000 0.0000 0.0000
# 2 30.2231 117.8383 30.3480 0.0000 0.0000 0.0000
# 3 26.7811 30.3480 104.3482 0.0000 0.0000 0.0000
# 4 0.0000 0.0000 0.0000 27.3339 0.0000 0.0000
# 5 0.0000 0.0000 0.0000 0.0000 41.9412 0.0000
# 6 0.0000 0.0000 0.0000 0.0000 0.0000 22.3635
#
#
#
# Elastic Compliance Matrix: (Units=1/GPa)
#
#
# Indices 1 2 3 4 5 6 
#
# 1 0.019347 -0.003982 -0.003808 0.000000 0.000000 0.000000
# 2 -0.003982 0.009993 -0.001884 0.000000 0.000000 0.000000
# 3 -0.003808 -0.001884 0.011109 0.000000 0.000000 0.000000
# 4 0.000000 0.000000 0.000000 0.036585 0.000000 0.000000
# 5 0.000000 0.000000 0.000000 0.000000 0.023843 0.000000
# 6 0.000000 0.000000 0.000000 0.000000 0.000000 0.044716
#
#
# Mechanical properties :
#
#
# Convention : Reuss Voigt Hill
#
# Bulk Modulus (GPa) = 47.38979 51.11867 49.25423
# Shear Modulus (GPa) = 29.07445 31.52850 30.30147
#
# Velocity S-wave (km/s) = 3.52309 3.66876 3.59666
# Velocity P-wave (km/s) = 6.06471 6.30630 6.18668
#
# Compressibility (1/GPa) = 0.02110159
#
# Stress axis : x y z
#
# Youngs Moduli (GPa) = 51.68706 100.07324 90.02096
#
# Poissons Ratio (x) = 0.39845 0.34275
# Poissons Ratio (y) = 0.20580 0.16963
# Poissons Ratio (z) = 0.19680 0.18857
#
# Static dielectric constant tensor:
#      x y z
#    x 2.011570 0.000000 0.000000 
#    y 0.000000 1.835300 0.000000 
#    z 0.000000 0.000000 1.865030 
# 
# From -- ./inp_files/11706.got.cif
#   From: 2010.05.17/outbox.cif.g08.bks.cpg/sg54_6_cif.got.tgz:11706.got - 2010.06.03 13:09:01.
