data_PCOD9420326
_publ_section_title
;
Structure prediction by ZEFSAII (Michael W. Deem and Ramdas Pophale) SiO2 
 PCOD9420326
Probable space group: P C C A
;
_chemical_formula_sum "Si O2"
_cell_formula_units_Z 48
_cell_length_a 13.495325
_cell_length_b 27.721965
_cell_length_c 5.426433
_cell_angle_alpha 90.000000
_cell_angle_beta 90.000000
_cell_angle_gamma 90.000000
_cell_volume 2030.120440
_symmetry_space_group_name_H-M "P C C A"
_symmetry_group_IT_number 54
_symmetry_cell_setting 'orthorhombic'
loop_
_space_group_symop_operation_xyz
x,y,z
1/2-x,-y,z
1/2+x,-y,1/2-z
-x,y,1/2-z
-x,-y,-z
1/2+x,y,-z
1/2-x,y,1/2+z
x,-y,1/2+z
loop_
_atom_site_type_symbol
_atom_site_label
_atom_site_fract_x
_atom_site_fract_y
_atom_site_fract_z
Si Si1 0.112230 0.481486 0.198106
Si Si2 0.129094 0.829219 0.616917
Si Si3 0.813973 0.618628 0.956321
Si Si4 0.362419 0.019459 0.111936
Si Si5 0.641988 0.867569 0.884213
Si Si6 0.315160 0.724758 0.077682
O O1 0.154402 0.485195 0.477115
O O2 0.118251 0.427545 0.093079
O O3 0.000000 0.496869 0.250000
O O4 0.247017 0.844556 0.638017
O O5 0.096045 0.860008 0.383666
O O6 0.119917 0.772676 0.561946
O O7 0.091473 0.840825 0.888213
O O8 0.735353 0.616272 0.727958
O O9 0.862854 0.671619 0.935641
O O10 0.355437 0.075996 0.056800
O O11 0.250000 0.000000 0.139722
O O12 0.406344 0.009205 0.380836
O O13 0.258112 0.727409 0.340547
#
# Coordination Sequence:
#
# PCOD9420326 Si02
#       6
#     8   8   8   8   8   8
#     4  10  21  37  55  74  99 131 163 192 227 276
#     4  10  14  22  31  44  60  85 117 153 195 257
#     4  10  21  32  50  75 100 125 154 194 241 281
#     4  10  16  22  26  35  53  75 108 158 208 240
#     4  10  16  20  31  42  55  84 121 154 202 256
#     4  10  16  27  38  56  81 104 129 167 218 265
#
# _framework density 23.643916999999998
#
# number of rings (size 3 to 8) (size 9 to 14) (size 15 to 20)
#    0.000    2.000    3.333    6.000    0.000    2.000 
#    0.000    0.000    0.000    0.000    0.000    0.000 
#    0.000    0.000    0.000    0.000    0.000    0.000 
#
# Total GULP energy -267988.059219 kJ/mol
# GULP energy per Si atom -5583.084567 kJ/mol
# Density = 2.359010 g / cm^3
# Si number density = 23.643917 Si / 1000 Ang^3
#
#
#
# Elastic Constant Matrix: (Units=GPa)
#
#
# Indices 1 2 3 4 5 6 
#
# 1 43.5596 -27.3499 -2.0508 0.0000 0.0000 0.0000
# 2 -27.3499 146.8391 -12.3611 0.0000 0.0000 0.0000
# 3 -2.0508 -12.3611 150.0161 0.0000 0.0000 0.0000
# 4 0.0000 0.0000 0.0000 43.4082 0.0000 0.0000
# 5 0.0000 0.0000 0.0000 0.0000 -59.6303 0.0000
# 6 0.0000 0.0000 0.0000 0.0000 0.0000 -6.8589
#
#
#
# Elastic Compliance Matrix: (Units=1/GPa)
#
#
# Indices 1 2 3 4 5 6 
#
# 1 0.026084 0.004922 0.000762 0.000000 0.000000 0.000000
# 2 0.004922 0.007787 0.000709 0.000000 0.000000 0.000000
# 3 0.000762 0.000709 0.006735 0.000000 0.000000 0.000000
# 4 0.000000 0.000000 0.000000 0.023037 0.000000 0.000000
# 5 0.000000 0.000000 0.000000 0.000000 -0.016770 0.000000
# 6 0.000000 0.000000 0.000000 0.000000 0.000000 -0.145796
#
#
# Mechanical properties :
#
#
# Convention : Reuss Voigt Hill
#
# Bulk Modulus (GPa) = 18.72935 28.54345 23.63640
# Shear Modulus (GPa) = -53.24024 20.86224 -16.18900
#
# Velocity S-wave (km/s) = -4.75041 2.97366 -2.61952
# Velocity P-wave (km/s) = 4.70637 4.88760 0.93240
#
# Compressibility (1/GPa) = 0.05339213
#
# Stress axis : x y z
#
# Youngs Moduli (GPa) = 38.33825 128.42421 148.48285
#
# Poissons Ratio (x) = -0.63216 -0.11317
# Poissons Ratio (y) = -0.18872 -0.10526
# Poissons Ratio (z) = -0.02922 -0.09104
#
# Static dielectric constant tensor:
#      x y z
#    x 1.892410 0.000000 0.000000 
#    y 0.000000 1.834780 0.000000 
#    z 0.000000 0.000000 1.952820 
# 
# From -- ./inp_files/1013.got.cif
#   From: 2010.05.17/outbox.cif.g08.bks.cpg/sg54_1_cif.got.tgz:1013.got - 2010.06.03 13:09:01.
