data_PCOD9420882
_publ_section_title
;
Structure prediction by ZEFSAII (Michael W. Deem and Ramdas Pophale) SiO2 
 PCOD9420882
Probable space group: P C C A
;
_chemical_formula_sum "Si O2"
_cell_formula_units_Z 48
_cell_length_a 5.422659
_cell_length_b 19.067986
_cell_length_c 31.906757
_cell_angle_alpha 90.000000
_cell_angle_beta 90.000000
_cell_angle_gamma 90.000000
_cell_volume 3299.132698
_symmetry_space_group_name_H-M "P C C A"
_symmetry_group_IT_number 54
_symmetry_cell_setting 'orthorhombic'
loop_
_space_group_symop_operation_xyz
x,y,z
1/2-x,-y,z
1/2+x,-y,1/2-z
-x,y,1/2-z
-x,-y,-z
1/2+x,y,-z
1/2-x,y,1/2+z
x,-y,1/2+z
loop_
_atom_site_type_symbol
_atom_site_label
_atom_site_fract_x
_atom_site_fract_y
_atom_site_fract_z
Si Si1 0.738481 0.915456 0.978434
Si Si2 0.220127 0.915126 0.120817
Si Si3 0.254813 0.341498 0.201505
Si Si4 0.745420 0.717546 0.201606
Si Si5 0.750000 0.500000 0.276778
Si Si6 0.250000 0.000000 0.273748
Si Si7 0.710429 0.871315 0.166587
O O1 0.707931 0.903691 0.929038
O O2 0.750000 0.000000 0.984114
O O3 0.498637 0.888855 0.003403
O O4 0.464538 0.876101 0.138115
O O5 0.966687 0.887679 0.142054
O O6 0.250000 0.000000 0.128149
O O7 0.500501 0.309557 0.182263
O O8 0.250253 0.310340 0.249793
O O9 0.269620 0.425261 0.200780
O O10 0.998912 0.316466 0.182462
O O11 0.729041 0.800000 0.193355
O O12 0.500000 0.505664 0.250000
O O13 0.175215 0.065521 0.301447
O O14 0.500000 0.020634 0.250000
#
# Coordination Sequence:
#
# PCOD9420882 Si02
#       7
#     8   8   8   8   4   4   8
#     4   9  17  29  49  73  90 106 131 176 233 285
#     4  11  20  36  50  66  90 115 149 190 238 294
#     4  10  19  32  45  66  82 111 140 200 230 275
#     4  10  20  30  44  59  84 109 148 182 237 264
#     4  12  16  30  48  68  88 104 138 184 250 286
#     4  12  26  36  46  60  74 112 168 212 242 264
#     4  12  23  36  47  62  87 121 157 200 244 281
#
# _framework density 14.549277999999999
#
# number of rings (size 3 to 8) (size 9 to 14) (size 15 to 20)
#    0.000    1.333    5.000    3.000    4.667    2.667 
#    0.000    0.000    0.000    0.000    0.000    0.000 
#    0.000    0.000    0.000    0.000    0.000    0.000 
#
# Total GULP energy -267318.210247 kJ/mol
# GULP energy per Si atom -5569.129380 kJ/mol
# Density = 1.451616 g / cm^3
# Si number density = 14.549278 Si / 1000 Ang^3
#
#
#
# Elastic Constant Matrix: (Units=GPa)
#
#
# Indices 1 2 3 4 5 6 
#
# 1 103.8297 -4.4330 7.4096 0.0000 0.0000 0.0000
# 2 -4.4330 84.7058 2.4368 0.0000 0.0000 0.0000
# 3 7.4096 2.4368 30.6129 0.0000 0.0000 0.0000
# 4 0.0000 0.0000 0.0000 -8.2644 0.0000 0.0000
# 5 0.0000 0.0000 0.0000 0.0000 27.4843 0.0000
# 6 0.0000 0.0000 0.0000 0.0000 0.0000 23.2790
#
#
#
# Elastic Compliance Matrix: (Units=1/GPa)
#
#
# Indices 1 2 3 4 5 6 
#
# 1 0.009829 0.000584 -0.002426 0.000000 0.000000 0.000000
# 2 0.000584 0.011867 -0.001086 0.000000 0.000000 0.000000
# 3 -0.002426 -0.001086 0.033340 0.000000 0.000000 0.000000
# 4 0.000000 0.000000 0.000000 -0.121001 0.000000 0.000000
# 5 0.000000 0.000000 0.000000 0.000000 0.036384 0.000000
# 6 0.000000 0.000000 0.000000 0.000000 0.000000 0.042957
#
#
# Mechanical properties :
#
#
# Convention : Reuss Voigt Hill
#
# Bulk Modulus (GPa) = 20.33297 25.55281 22.94289
# Shear Modulus (GPa) = 140.35110 22.74879 81.54994
#
# Velocity S-wave (km/s) = 9.83237 3.95849 7.49483
# Velocity P-wave (km/s) = 11.95434 6.20435 9.52366
#
# Compressibility (1/GPa) = 0.04918122
#
# Stress axis : x y z
#
# Youngs Moduli (GPa) = 101.73779 84.26459 29.99443
#
# Poissons Ratio (x) = -0.04923 0.07275
# Poissons Ratio (y) = -0.05943 0.03258
# Poissons Ratio (z) = 0.24677 0.09151
#
# Static dielectric constant tensor:
#      x y z
#    x 1.465270 0.000000 0.000000 
#    y 0.000000 1.471740 0.000000 
#    z 0.000000 0.000000 1.450620 
# 
# From -- ./inp_files/25435.got.cif
#   From: 2010.05.17/outbox.cif.g08.bks.cpg/sg54_13_cif.got.tgz:25435.got - 2010.06.03 13:09:01.
