data_PCOD9420035
_publ_section_title
;
Structure prediction by ZEFSAII (Michael W. Deem and Ramdas Pophale) SiO2 
 PCOD9420035
Probable space group: P M N A
;
_chemical_formula_sum "Si O2"
_cell_formula_units_Z 48
_cell_length_a 15.845055
_cell_length_b 17.190640
_cell_length_c 7.215256
_cell_angle_alpha 90.000000
_cell_angle_beta 90.000000
_cell_angle_gamma 90.000000
_cell_volume 1965.339312
_symmetry_space_group_name_H-M "P M N A"
_symmetry_group_IT_number 53
_symmetry_cell_setting 'orthorhombic'
loop_
_space_group_symop_operation_xyz
x,y,z
1/2-x,-y,1/2+z
x,-y,-z
1/2-x,y,1/2-z
-x,-y,-z
1/2+x,y,1/2-z
-x,y,z
1/2+x,-y,1/2+z
loop_
_atom_site_type_symbol
_atom_site_label
_atom_site_fract_x
_atom_site_fract_y
_atom_site_fract_z
Si Si1 0.900568 0.833866 0.292648
Si Si2 0.100466 0.999374 0.275129
Si Si3 0.348450 0.665656 0.213507
Si Si4 0.350517 0.499951 0.220304
Si Si5 0.601233 0.166545 0.238202
Si Si6 0.899301 0.332472 0.283303
O O1 0.877109 0.749675 0.216382
O O2 0.887744 0.831587 0.514835
O O3 0.000000 0.840552 0.263552
O O4 0.862966 0.915250 0.219268
O O5 0.135875 0.081867 0.204011
O O6 0.000000 0.000153 0.229678
O O7 0.104562 0.000000 0.500000
O O8 0.250000 0.662009 0.250000
O O9 0.385766 0.583600 0.285850
O O10 0.364937 0.665402 0.993161
O O11 0.250000 0.500537 0.250000
O O12 0.379295 0.417013 0.298765
O O13 0.368891 0.500000 0.000000
O O14 0.500000 0.164421 0.275671
O O15 0.633734 0.251106 0.303026
O O16 0.000000 0.325530 0.294376
#
# Coordination Sequence:
#
# PCOD9420035 Si02
#       6
#     8   8   8   8   8   8
#     4   8  12  18  30  48  71 100 133 166 200 244
#     4   7   9  14  26  45  69  96 124 157 201 248
#     4   9  16  24  34  53  82 110 135 169 216 260
#     4   9  18  30  44  62  86 116 147 178 219 268
#     4   7  10  17  30  51  75  94 121 166 211 243
#     4   9  16  26  43  64  81 103 144 188 214 247
#
# _framework density 24.423261
#
# number of rings (size 3 to 8) (size 9 to 14) (size 15 to 20)
#    0.000    3.833    0.000    3.500    0.000    3.667 
#    0.000    0.000    0.000    1.500    0.000    7.000 
#    0.000    0.000    0.000    0.000    0.000  210.833 
#
# Total GULP energy -267280.394044 kJ/mol
# GULP energy per Si atom -5568.341543 kJ/mol
# Density = 2.436767 g / cm^3
# Si number density = 24.423261 Si / 1000 Ang^3
#
#
#
# Elastic Constant Matrix: (Units=GPa)
#
#
# Indices 1 2 3 4 5 6 
#
# 1 16.3861 18.9600 -5.2633 0.0000 0.0000 0.0000
# 2 18.9600 372.1279 19.7427 0.0000 0.0000 0.0000
# 3 -5.2633 19.7427 112.4172 0.0000 0.0000 0.0000
# 4 0.0000 0.0000 0.0000 -37.9731 0.0000 0.0000
# 5 0.0000 0.0000 0.0000 0.0000 -33.0330 0.0000
# 6 0.0000 0.0000 0.0000 0.0000 0.0000 48.1946
#
#
#
# Elastic Compliance Matrix: (Units=1/GPa)
#
#
# Indices 1 2 3 4 5 6 
#
# 1 0.066369 -0.003580 0.003736 0.000000 0.000000 0.000000
# 2 -0.003580 0.002906 -0.000678 0.000000 0.000000 0.000000
# 3 0.003736 -0.000678 0.009189 0.000000 0.000000 0.000000
# 4 0.000000 0.000000 0.000000 -0.026334 0.000000 0.000000
# 5 0.000000 0.000000 0.000000 0.000000 -0.030273 0.000000
# 6 0.000000 0.000000 0.000000 0.000000 0.000000 0.020749
#
#
# Mechanical properties :
#
#
# Convention : Reuss Voigt Hill
#
# Bulk Modulus (GPa) = 12.91636 63.09001 38.00319
# Shear Modulus (GPa) = 71.98739 26.60383 49.29561
#
# Velocity S-wave (km/s) = 5.43497 3.30401 4.49752
# Velocity P-wave (km/s) = 6.68470 6.35951 6.52413
#
# Compressibility (1/GPa) = 0.07742117
#
# Stress axis : x y z
#
# Youngs Moduli (GPa) = 15.06719 344.16293 108.82104
#
# Poissons Ratio (x) = 1.23201 -0.40656
# Poissons Ratio (y) = 0.05394 0.07377
# Poissons Ratio (z) = -0.05629 0.23330
#
# Static dielectric constant tensor:
#      x y z
#    x 1.865100 0.000000 0.000000 
#    y 0.000000 2.122520 0.000000 
#    z 0.000000 0.000000 1.930920 
# 
# From -- ./inp_files/16131.got.cif
#   From: 2010.05.17/outbox.cif.g08.bks.cpg/sg53_9_cif.got.tgz:16131.got - 2010.06.03 12:45:16.
