data_PCOD9420497
_publ_section_title
;
Structure prediction by ZEFSAII (Michael W. Deem and Ramdas Pophale) SiO2 
 PCOD9420497
Probable space group: P C C A
;
_chemical_formula_sum "Si O2"
_cell_formula_units_Z 36
_cell_length_a 5.544831
_cell_length_b 16.340242
_cell_length_c 18.659026
_cell_angle_alpha 90.000000
_cell_angle_beta 90.000000
_cell_angle_gamma 90.000000
_cell_volume 1690.580160
_symmetry_space_group_name_H-M "P C C A"
_symmetry_group_IT_number 54
_symmetry_cell_setting 'orthorhombic'
loop_
_space_group_symop_operation_xyz
x,y,z
1/2-x,-y,z
1/2+x,-y,1/2-z
-x,y,1/2-z
-x,-y,-z
1/2+x,y,-z
1/2-x,y,1/2+z
x,-y,1/2+z
loop_
_atom_site_type_symbol
_atom_site_label
_atom_site_fract_x
_atom_site_fract_y
_atom_site_fract_z
Si Si1 0.375011 0.866517 0.498777
Si Si2 0.500000 0.044424 0.250000
Si Si3 0.127596 0.193929 0.657337
Si Si4 0.867929 0.255912 0.138205
Si Si5 0.240615 0.403118 0.458375
O O1 0.624993 0.913492 0.499475
O O2 0.376031 0.811619 0.570684
O O3 0.373283 0.806753 0.430031
O O4 0.609862 0.102309 0.312122
O O5 0.750000 0.000000 0.224173
O O6 0.375326 0.240038 0.674782
O O7 0.873440 0.232471 0.680312
O O8 0.822928 0.346360 0.108611
O O9 0.250000 0.500000 0.443174
O O10 0.510044 0.385351 0.489178
#
# Coordination Sequence:
#
# PCOD9420497 Si02
#       5
#     8   4   8   8   8
#     4   8  14  25  47  73  97 124 164 205 243 293
#     4  12  26  44  60  78 106 132 170 236 302 348
#     4  10  20  34  56  77  99 139 180 218 269 330
#     4  10  17  31  54  80 109 142 183 220 252 312
#     4  10  18  27  44  79 125 159 179 212 266 315
#
# _framework density 21.294464000000001
#
# number of rings (size 3 to 8) (size 9 to 14) (size 15 to 20)
#    0.000    2.222    0.000    6.667    0.000    0.000 
#    0.000    0.000    0.000   36.000    0.000    3.111 
#    0.000    0.000    0.000    0.000    0.000    0.000 
#
# Total GULP energy -200484.733778 kJ/mol
# GULP energy per Si atom -5569.020383 kJ/mol
# Density = 2.124600 g / cm^3
# Si number density = 21.294464 Si / 1000 Ang^3
#
#
#
# Elastic Constant Matrix: (Units=GPa)
#
#
# Indices 1 2 3 4 5 6 
#
# 1 273.9821 58.9474 32.8456 0.0000 0.0000 0.0000
# 2 58.9474 77.3080 13.5955 0.0000 0.0000 0.0000
# 3 32.8456 13.5955 54.1970 0.0000 0.0000 0.0000
# 4 0.0000 0.0000 0.0000 19.0445 0.0000 0.0000
# 5 0.0000 0.0000 0.0000 0.0000 36.5080 0.0000
# 6 0.0000 0.0000 0.0000 0.0000 0.0000 31.6242
#
#
#
# Elastic Compliance Matrix: (Units=1/GPa)
#
#
# Indices 1 2 3 4 5 6 
#
# 1 0.004560 -0.003129 -0.001979 0.000000 0.000000 0.000000
# 2 -0.003129 0.015680 -0.002037 0.000000 0.000000 0.000000
# 3 -0.001979 -0.002037 0.020161 0.000000 0.000000 0.000000
# 4 0.000000 0.000000 0.000000 0.052509 0.000000 0.000000
# 5 0.000000 0.000000 0.000000 0.000000 0.027391 0.000000
# 6 0.000000 0.000000 0.000000 0.000000 0.000000 0.031621
#
#
# Mechanical properties :
#
#
# Convention : Reuss Voigt Hill
#
# Bulk Modulus (GPa) = 38.29721 68.47379 53.38550
# Shear Modulus (GPa) = 28.58512 37.44190 33.01351
#
# Velocity S-wave (km/s) = 3.66782 4.19775 3.94170
# Velocity P-wave (km/s) = 5.99673 7.46460 6.77056
#
# Compressibility (1/GPa) = 0.02611156
#
# Stress axis : x y z
#
# Youngs Moduli (GPa) = 219.28080 63.77736 49.59987
#
# Poissons Ratio (x) = 0.19958 0.09815
# Poissons Ratio (y) = 0.68619 0.10102
# Poissons Ratio (z) = 0.43391 0.12990
#
# Static dielectric constant tensor:
#      x y z
#    x 1.928880 0.000000 0.000000 
#    y 0.000000 1.745930 0.000000 
#    z 0.000000 0.000000 1.920790 
# 
# From -- ./inp_files/19590.got.cif
#   From: 2010.05.17/outbox.cif.g08.bks.cpg/sg54_10_cif.got.tgz:19590.got - 2010.06.03 13:09:01.
