data_PCOD9420966
_publ_section_title
;
Structure prediction by ZEFSAII (Michael W. Deem and Ramdas Pophale) SiO2 
 PCOD9420966
Probable space group: P C C A
;
_chemical_formula_sum "Si O2"
_cell_formula_units_Z 48
_cell_length_a 10.338934
_cell_length_b 13.996874
_cell_length_c 14.338072
_cell_angle_alpha 90.000000
_cell_angle_beta 90.000000
_cell_angle_gamma 90.000000
_cell_volume 2074.901922
_symmetry_space_group_name_H-M "P C C A"
_symmetry_group_IT_number 54
_symmetry_cell_setting 'orthorhombic'
loop_
_space_group_symop_operation_xyz
x,y,z
1/2-x,-y,z
1/2+x,-y,1/2-z
-x,y,1/2-z
-x,-y,-z
1/2+x,y,-z
1/2-x,y,1/2+z
x,-y,1/2+z
loop_
_atom_site_type_symbol
_atom_site_label
_atom_site_fract_x
_atom_site_fract_y
_atom_site_fract_z
Si Si1 0.546809 0.905684 0.385231
Si Si2 0.853415 0.423781 0.365700
Si Si3 0.205713 0.206469 0.380949
Si Si4 0.470629 0.881976 0.887980
Si Si5 0.279442 0.780867 0.604559
Si Si6 0.353635 0.575759 0.354007
O O1 0.426987 0.842655 0.350309
O O2 0.542483 0.894188 0.498913
O O3 0.683144 0.861532 0.356856
O O4 0.523609 0.014895 0.358853
O O5 0.750000 0.500000 0.403532
O O6 0.788107 0.320148 0.377321
O O7 0.867099 0.445401 0.255813
O O8 0.002887 0.425235 0.400177
O O9 0.331478 0.148210 0.350023
O O10 0.211292 0.205406 0.493336
O O11 0.203248 0.317555 0.356708
O O12 0.574758 0.800430 0.863658
O O13 0.250000 0.500000 0.391728
#
# Coordination Sequence:
#
# PCOD9420966 Si02
#       6
#     8   8   8   8   8   8
#     4   9  16  32  50  77 114 144 179 211 258 313
#     4  10  22  40  59  77 103 142 182 220 268 325
#     4  10  19  33  54  83 110 138 178 221 266 308
#     4   9  18  28  52  81 110 146 173 215 258 315
#     4  10  19  33  54  83 110 138 178 221 266 308
#     4  10  22  40  59  77 103 142 182 220 268 325
#
# _framework density 23.133623
#
# number of rings (size 3 to 8) (size 9 to 14) (size 15 to 20)
#    0.000    2.333    1.667    1.000    2.333    4.667 
#    0.000    1.667    0.000    6.000    0.000    0.000 
#    0.000    0.000    0.000    0.000    0.000    0.000 
#
# Total GULP energy -268213.813729 kJ/mol
# GULP energy per Si atom -5587.787786 kJ/mol
# Density = 2.308097 g / cm^3
# Si number density = 23.133623 Si / 1000 Ang^3
#
#
#
# Elastic Constant Matrix: (Units=GPa)
#
#
# Indices 1 2 3 4 5 6 
#
# 1 149.6465 57.4216 3.0707 0.0000 0.0000 0.0000
# 2 57.4216 120.7248 -23.8074 0.0000 0.0000 0.0000
# 3 3.0707 -23.8074 69.0416 0.0000 0.0000 0.0000
# 4 0.0000 0.0000 0.0000 22.9947 0.0000 0.0000
# 5 0.0000 0.0000 0.0000 0.0000 14.0069 0.0000
# 6 0.0000 0.0000 0.0000 0.0000 0.0000 38.9922
#
#
#
# Elastic Compliance Matrix: (Units=1/GPa)
#
#
# Indices 1 2 3 4 5 6 
#
# 1 0.008395 -0.004363 -0.001878 0.000000 0.000000 0.000000
# 2 -0.004363 0.011156 0.004041 0.000000 0.000000 0.000000
# 3 -0.001878 0.004041 0.015961 0.000000 0.000000 0.000000
# 4 0.000000 0.000000 0.000000 0.043488 0.000000 0.000000
# 5 0.000000 0.000000 0.000000 0.000000 0.071393 0.000000
# 6 0.000000 0.000000 0.000000 0.000000 0.000000 0.025646
#
#
# Mechanical properties :
#
#
# Convention : Reuss Voigt Hill
#
# Bulk Modulus (GPa) = 32.14357 45.86474 39.00415
# Shear Modulus (GPa) = 26.20391 35.38062 30.79227
#
# Velocity S-wave (km/s) = 3.36924 3.91500 3.65233
# Velocity P-wave (km/s) = 5.39079 6.34865 5.88923
#
# Compressibility (1/GPa) = 0.03111043
#
# Stress axis : x y z
#
# Youngs Moduli (GPa) = 119.11442 89.64090 62.65301
#
# Poissons Ratio (x) = 0.39115 0.11766
# Poissons Ratio (y) = 0.51975 -0.25317
# Poissons Ratio (z) = 0.22370 -0.36222
#
# Static dielectric constant tensor:
#      x y z
#    x 1.852260 0.000000 0.000000 
#    y 0.000000 1.808340 0.000000 
#    z 0.000000 0.000000 2.060190 
# 
# From -- ./inp_files/4219.got.cif
#   From: 2010.05.17/outbox.cif.g08.bks.cpg/sg54_3_cif.got.tgz:4219.got - 2010.06.03 13:09:01.
