data_PCOD9420845
_publ_section_title
;
Structure prediction by ZEFSAII (Michael W. Deem and Ramdas Pophale) SiO2 
 PCOD9420845
Probable space group: P C C A
;
_chemical_formula_sum "Si O2"
_cell_formula_units_Z 40
_cell_length_a 5.030207
_cell_length_b 18.537775
_cell_length_c 28.664736
_cell_angle_alpha 90.000000
_cell_angle_beta 90.000000
_cell_angle_gamma 90.000000
_cell_volume 2672.953541
_symmetry_space_group_name_H-M "P C C A"
_symmetry_group_IT_number 54
_symmetry_cell_setting 'orthorhombic'
loop_
_space_group_symop_operation_xyz
x,y,z
1/2-x,-y,z
1/2+x,-y,1/2-z
-x,y,1/2-z
-x,-y,-z
1/2+x,y,-z
1/2-x,y,1/2+z
x,-y,1/2+z
loop_
_atom_site_type_symbol
_atom_site_label
_atom_site_fract_x
_atom_site_fract_y
_atom_site_fract_z
Si Si1 0.754833 0.365437 0.397367
Si Si2 0.805195 0.076638 0.468198
Si Si3 0.755221 0.586644 0.155538
Si Si4 0.684592 0.766629 0.965842
Si Si5 0.750000 0.500000 0.966480
Si Si6 0.500000 0.548741 0.250000
O O1 0.543871 0.382124 0.356261
O O2 0.706254 0.292399 0.425628
O O3 0.728403 0.430370 0.434075
O O4 0.049836 0.372076 0.377361
O O5 0.606540 0.076564 0.513220
O O6 0.730282 0.152686 0.445412
O O7 0.750000 0.000000 0.443762
O O8 0.750000 0.500000 0.145336
O O9 0.639832 0.591159 0.207954
O O10 0.410637 0.758822 0.994246
O O11 0.500000 0.500000 0.000000
O O12 0.750000 0.500000 0.268578
#
# Coordination Sequence:
#
# PCOD9420845 Si02
#       6
#     8   8   8   8   4   4
#     4  12  21  32  46  62  87 116 150 188 217 255
#     4   8  14  25  42  60  79 107 145 184 217 251
#     4  11  20  35  48  66  83 107 143 186 229 274
#     4  10  19  31  43  61  88 119 154 184 215 252
#     4  12  22  32  42  56  82 120 158 184 208 236
#     4  10  20  34  54  70  82 102 138 188 242 284
#
# _framework density 14.964719000000001
#
# number of rings (size 3 to 8) (size 9 to 14) (size 15 to 20)
#    0.000    1.600    2.000    6.000    0.000    0.000 
#    0.000    0.000    0.000    0.000    0.000    0.000 
#    0.000    0.000    0.000    3.600    0.000    7.400 
#
# Total GULP energy -222959.019820 kJ/mol
# GULP energy per Si atom -5573.975495 kJ/mol
# Density = 1.493066 g / cm^3
# Si number density = 14.964719 Si / 1000 Ang^3
#
#
#
# Elastic Constant Matrix: (Units=GPa)
#
#
# Indices 1 2 3 4 5 6 
#
# 1 72.4089 -4.0360 3.5979 0.0000 0.0000 0.0000
# 2 -4.0360 113.2641 25.2291 0.0000 0.0000 0.0000
# 3 3.5979 25.2291 49.4977 0.0000 0.0000 0.0000
# 4 0.0000 0.0000 0.0000 -7.6536 0.0000 0.0000
# 5 0.0000 0.0000 0.0000 0.0000 27.0562 0.0000
# 6 0.0000 0.0000 0.0000 0.0000 0.0000 16.5943
#
#
#
# Elastic Compliance Matrix: (Units=1/GPa)
#
#
# Indices 1 2 3 4 5 6 
#
# 1 0.013927 0.000814 -0.001427 0.000000 0.000000 0.000000
# 2 0.000814 0.010007 -0.005160 0.000000 0.000000 0.000000
# 3 -0.001427 -0.005160 0.022937 0.000000 0.000000 0.000000
# 4 0.000000 0.000000 0.000000 -0.130657 0.000000 0.000000
# 5 0.000000 0.000000 0.000000 0.000000 0.036960 0.000000
# 6 0.000000 0.000000 0.000000 0.000000 0.000000 0.060262
#
#
# Mechanical properties :
#
#
# Convention : Reuss Voigt Hill
#
# Bulk Modulus (GPa) = 28.30879 31.63917 29.97398
# Shear Modulus (GPa) = 136.03094 21.22471 78.62782
#
# Velocity S-wave (km/s) = 9.54455 3.77014 7.25646
# Velocity P-wave (km/s) = 11.85001 6.33564 9.50166
#
# Compressibility (1/GPa) = 0.03532472
#
# Stress axis : x y z
#
# Youngs Moduli (GPa) = 71.80419 99.92725 43.59826
#
# Poissons Ratio (x) = -0.08136 0.06223
# Poissons Ratio (y) = -0.05846 0.22496
# Poissons Ratio (z) = 0.10249 0.51562
#
# Static dielectric constant tensor:
#      x y z
#    x 1.525190 0.000000 0.000000 
#    y 0.000000 1.525440 0.000000 
#    z 0.000000 0.000000 1.475410 
# 
# From -- ./inp_files/25413.got.cif
#   From: 2010.05.17/outbox.cif.g08.bks.cpg/sg54_13_cif.got.tgz:25413.got - 2010.06.03 13:09:01.
