data_PCOD9420562
_publ_section_title
;
Structure prediction by ZEFSAII (Michael W. Deem and Ramdas Pophale) SiO2 
 PCOD9420562
Probable space group: P C C A
;
_chemical_formula_sum "Si O2"
_cell_formula_units_Z 60
_cell_length_a 10.889019
_cell_length_b 15.871435
_cell_length_c 18.569494
_cell_angle_alpha 90.000000
_cell_angle_beta 90.000000
_cell_angle_gamma 90.000000
_cell_volume 3209.260865
_symmetry_space_group_name_H-M "P C C A"
_symmetry_group_IT_number 54
_symmetry_cell_setting 'orthorhombic'
loop_
_space_group_symop_operation_xyz
x,y,z
1/2-x,-y,z
1/2+x,-y,1/2-z
-x,y,1/2-z
-x,-y,-z
1/2+x,y,-z
1/2-x,y,1/2+z
x,-y,1/2+z
loop_
_atom_site_type_symbol
_atom_site_label
_atom_site_fract_x
_atom_site_fract_y
_atom_site_fract_z
Si Si1 0.750000 0.500000 0.477034
Si Si2 0.746301 0.187846 0.083084
Si Si3 0.631749 0.445624 0.744943
Si Si4 0.856530 0.366566 0.087624
Si Si5 0.742459 0.820913 0.412437
Si Si6 0.001778 0.898408 0.087137
Si Si7 0.009174 0.904901 0.911418
Si Si8 0.870854 0.646905 0.888606
O O1 0.673894 0.435904 0.527521
O O2 0.667796 0.560558 0.427592
O O3 0.764201 0.288100 0.087012
O O4 0.617268 0.153767 0.112076
O O5 0.867651 0.142430 0.114171
O O6 0.744241 0.165248 0.998387
O O7 0.750000 0.500000 0.763896
O O8 0.500000 0.492371 0.750000
O O9 0.648659 0.411632 0.664735
O O10 0.620371 0.371990 0.803902
O O11 0.994882 0.330382 0.080228
O O12 0.870303 0.859152 0.385445
O O13 0.618231 0.864690 0.384080
O O14 0.724963 0.721365 0.401273
O O15 0.987797 0.996392 0.106246
O O16 0.006364 0.896358 0.999116
#
# Coordination Sequence:
#
# PCOD9420562 Si02
#       8
#     4   8   8   8   8   8   8   8
#     4  12  22  34  60  82 114 140 188 240 282 328
#     4  10  18  30  50  76 111 141 179 229 270 327
#     4  10  22  42  60  78 109 149 196 230 275 337
#     4  11  22  38  56  83 111 151 188 228 282 335
#     4  10  18  30  50  76 111 141 179 229 270 327
#     4   9  18  28  46  79 106 145 177 218 280 329
#     4   9  16  30  48  71 112 145 177 218 278 335
#     4  11  22  38  56  83 111 151 188 228 282 335
#
# _framework density 18.695895
#
# number of rings (size 3 to 8) (size 9 to 14) (size 15 to 20)
#    0.000    1.867    4.000    1.200    0.000    3.200 
#    4.800    0.000    0.000    0.000    0.000    5.600 
#    0.000    0.000    0.000    0.000    0.000    0.000 
#
# Total GULP energy -334507.903004 kJ/mol
# GULP energy per Si atom -5575.131717 kJ/mol
# Density = 1.865334 g / cm^3
# Si number density = 18.695895 Si / 1000 Ang^3
#
#
#
# Elastic Constant Matrix: (Units=GPa)
#
#
# Indices 1 2 3 4 5 6 
#
# 1 129.6489 53.2815 6.8768 0.0000 0.0000 0.0000
# 2 53.2815 99.8138 -1.8459 0.0000 0.0000 0.0000
# 3 6.8768 -1.8459 34.8582 0.0000 0.0000 0.0000
# 4 0.0000 0.0000 0.0000 7.9935 0.0000 0.0000
# 5 0.0000 0.0000 0.0000 0.0000 10.1208 0.0000
# 6 0.0000 0.0000 0.0000 0.0000 0.0000 40.6967
#
#
#
# Elastic Compliance Matrix: (Units=1/GPa)
#
#
# Indices 1 2 3 4 5 6 
#
# 1 0.010057 -0.005411 -0.002271 0.000000 0.000000 0.000000
# 2 -0.005411 0.012939 0.001753 0.000000 0.000000 0.000000
# 3 -0.002271 0.001753 0.029228 0.000000 0.000000 0.000000
# 4 0.000000 0.000000 0.000000 0.125102 0.000000 0.000000
# 5 0.000000 0.000000 0.000000 0.000000 0.098806 0.000000
# 6 0.000000 0.000000 0.000000 0.000000 0.000000 0.024572
#
#
# Mechanical properties :
#
#
# Convention : Reuss Voigt Hill
#
# Bulk Modulus (GPa) = 24.77231 42.32731 33.54981
# Shear Modulus (GPa) = 15.33658 25.49611 20.41634
#
# Velocity S-wave (km/s) = 2.86723 3.69687 3.30816
# Velocity P-wave (km/s) = 4.92344 6.39621 5.70753
#
# Compressibility (1/GPa) = 0.04036765
#
# Stress axis : x y z
#
# Youngs Moduli (GPa) = 99.43172 77.28405 34.21332
#
# Poissons Ratio (x) = 0.41815 0.07768
# Poissons Ratio (y) = 0.53798 -0.05996
# Poissons Ratio (z) = 0.22577 -0.13545
#
# Static dielectric constant tensor:
#      x y z
#    x 1.816440 0.000000 0.000000 
#    y 0.000000 1.630550 0.000000 
#    z 0.000000 0.000000 1.619130 
# 
# From -- ./inp_files/21268.got.cif
#   From: 2010.05.17/outbox.cif.g08.bks.cpg/sg54_11_cif.got.tgz:21268.got - 2010.06.03 13:09:01.
