data_PCOD9420009
_publ_section_title
;
Structure prediction by ZEFSAII (Michael W. Deem and Ramdas Pophale) SiO2 
 PCOD9420009
Probable space group: P M N A
;
_chemical_formula_sum "Si O2"
_cell_formula_units_Z 22
_cell_length_a 14.933791
_cell_length_b 13.409519
_cell_length_c 5.034900
_cell_angle_alpha 90.000000
_cell_angle_beta 90.000000
_cell_angle_gamma 90.000000
_cell_volume 1008.263669
_symmetry_space_group_name_H-M "P M N A"
_symmetry_group_IT_number 53
_symmetry_cell_setting 'orthorhombic'
loop_
_space_group_symop_operation_xyz
x,y,z
1/2-x,-y,1/2+z
x,-y,-z
1/2-x,y,1/2-z
-x,-y,-z
1/2+x,y,1/2-z
-x,y,z
1/2+x,-y,1/2+z
loop_
_atom_site_type_symbol
_atom_site_label
_atom_site_fract_x
_atom_site_fract_y
_atom_site_fract_z
Si Si1 0.106467 0.239835 0.214886
Si Si2 0.500000 0.500000 0.500000
Si Si3 0.750000 0.929035 0.750000
Si Si4 0.351568 0.629287 0.216373
O O1 0.164696 0.143433 0.282688
O O2 0.129886 0.326407 0.425728
O O3 0.000000 0.223460 0.222329
O O4 0.133666 0.279497 0.924676
O O5 0.422327 0.548198 0.307363
O O6 0.737548 0.000000 0.500000
O O7 0.250000 0.594366 0.250000
#
# Coordination Sequence:
#
# PCOD9420009 Si02
#       4
#     8   2   4   8
#     4  12  24  47  75 102 149 195 238 304 384 431
#     4  12  28  46  76 116 144 190 272 294 344 452
#     4  12  26  44  76 110 142 186 254 306 364 460
#     4  12  25  46  73 107 149 200 242 304 371 435
#
# _framework density 21.819686999999998
#
# number of rings (size 3 to 8) (size 9 to 14) (size 15 to 20)
#    0.000    0.000    7.273    2.182    0.000    7.273 
#    0.000    0.000    0.000    0.000    0.000    0.000 
#    0.000    0.000    0.000    0.000    0.000    0.000 
#
# Total GULP energy -122807.252201 kJ/mol
# GULP energy per Si atom -5582.147827 kJ/mol
# Density = 2.177002 g / cm^3
# Si number density = 21.819687 Si / 1000 Ang^3
#
#
#
# Elastic Constant Matrix: (Units=GPa)
#
#
# Indices 1 2 3 4 5 6 
#
# 1 255.1505 42.8322 4.3339 0.0000 0.0000 0.0000
# 2 42.8322 88.8491 28.3906 0.0000 0.0000 0.0000
# 3 4.3339 28.3906 51.8254 0.0000 0.0000 0.0000
# 4 0.0000 0.0000 0.0000 48.3251 0.0000 0.0000
# 5 0.0000 0.0000 0.0000 0.0000 61.1667 0.0000
# 6 0.0000 0.0000 0.0000 0.0000 0.0000 -99.9847
#
#
#
# Elastic Compliance Matrix: (Units=1/GPa)
#
#
# Indices 1 2 3 4 5 6 
#
# 1 0.004302 -0.002375 0.000941 0.000000 0.000000 0.000000
# 2 -0.002375 0.014954 -0.007993 0.000000 0.000000 0.000000
# 3 0.000941 -0.007993 0.023596 0.000000 0.000000 0.000000
# 4 0.000000 0.000000 0.000000 0.020693 0.000000 0.000000
# 5 0.000000 0.000000 0.000000 0.000000 0.016349 0.000000
# 6 0.000000 0.000000 0.000000 0.000000 0.000000 -0.010002
#
#
# Mechanical properties :
#
#
# Convention : Reuss Voigt Hill
#
# Bulk Modulus (GPa) = 41.67045 60.77093 51.22069
# Shear Modulus (GPa) = 51.68223 23.25263 37.46743
#
# Velocity S-wave (km/s) = 4.87211 3.26800 4.14833
# Velocity P-wave (km/s) = 7.12664 6.49243 6.81692
#
# Compressibility (1/GPa) = 0.02399782
#
# Stress axis : x y z
#
# Youngs Moduli (GPa) = 232.45614 66.87202 42.38050
#
# Poissons Ratio (x) = 0.15879 -0.03988
# Poissons Ratio (y) = 0.55198 0.33876
# Poissons Ratio (z) = -0.21876 0.53453
#
# Static dielectric constant tensor:
#      x y z
#    x 1.752400 0.000000 0.000000 
#    y 0.000000 1.796310 0.000000 
#    z 0.000000 0.000000 1.784900 
# 
# From -- ./inp_files/1001.got.cif
#   From: 2010.05.17/outbox.cif.g08.bks.cpg/sg53_1_cif.got.tgz:1001.got - 2010.06.03 12:45:16.
