data_PCOD9420496
_publ_section_title
;
Structure prediction by ZEFSAII (Michael W. Deem and Ramdas Pophale) SiO2 
 PCOD9420496
Probable space group: P C C A
;
_chemical_formula_sum "Si O2"
_cell_formula_units_Z 40
_cell_length_a 13.281475
_cell_length_b 6.767710
_cell_length_c 17.353515
_cell_angle_alpha 90.000000
_cell_angle_beta 90.000000
_cell_angle_gamma 90.000000
_cell_volume 1559.823666
_symmetry_space_group_name_H-M "P C C A"
_symmetry_group_IT_number 54
_symmetry_cell_setting 'orthorhombic'
loop_
_space_group_symop_operation_xyz
x,y,z
1/2-x,-y,z
1/2+x,-y,1/2-z
-x,y,1/2-z
-x,-y,-z
1/2+x,y,-z
1/2-x,y,1/2+z
x,-y,1/2+z
loop_
_atom_site_type_symbol
_atom_site_label
_atom_site_fract_x
_atom_site_fract_y
_atom_site_fract_z
Si Si1 0.829947 0.223734 0.224008
Si Si2 0.047347 0.750171 0.924703
Si Si3 0.883740 0.317366 0.757535
Si Si4 0.159258 0.865446 0.598999
Si Si5 0.620388 0.566245 0.923882
O O1 0.708830 0.212091 0.214233
O O2 0.865066 0.452206 0.237088
O O3 0.854245 0.130854 0.307680
O O4 0.888893 0.170857 0.146891
O O5 0.951782 0.894095 0.935402
O O6 0.990320 0.538891 0.906717
O O7 0.110532 0.690877 0.999091
O O8 0.859093 0.307400 0.848172
O O9 0.000000 0.258543 0.750000
O O10 0.181747 0.639218 0.572858
O O11 0.250000 0.000000 0.573350
#
# Coordination Sequence:
#
# PCOD9420496 Si02
#       5
#     8   8   8   8   8
#     4  10  18  30  55  83 118 165 206 266 342 405
#     4   9  16  33  54  88 122 164 219 268 343 419
#     4  10  17  31  50  81 119 150 207 279 338 383
#     4   9  17  31  54  86 124 169 219 262 339 421
#     4   8  17  31  55  85 124 163 212 275 339 405
#
# _framework density 25.643923999999998
#
# number of rings (size 3 to 8) (size 9 to 14) (size 15 to 20)
#    1.200    1.600    2.000    0.600    0.000    0.000 
#    0.000   12.000    0.000    1.200    0.000   23.800 
#    0.000    1.600    0.000    0.000    0.000    0.000 
#
# Total GULP energy -223512.158480 kJ/mol
# GULP energy per Si atom -5587.803962 kJ/mol
# Density = 2.558556 g / cm^3
# Si number density = 25.643924 Si / 1000 Ang^3
#
#
#
# Elastic Constant Matrix: (Units=GPa)
#
#
# Indices 1 2 3 4 5 6 
#
# 1 205.5875 70.0549 82.5946 0.0000 0.0000 0.0000
# 2 70.0549 100.7908 61.7023 0.0000 0.0000 0.0000
# 3 82.5946 61.7023 109.0414 0.0000 0.0000 0.0000
# 4 0.0000 0.0000 0.0000 24.5680 0.0000 0.0000
# 5 0.0000 0.0000 0.0000 0.0000 45.5727 0.0000
# 6 0.0000 0.0000 0.0000 0.0000 0.0000 45.9417
#
#
#
# Elastic Compliance Matrix: (Units=1/GPa)
#
#
# Indices 1 2 3 4 5 6 
#
# 1 0.007420 -0.002626 -0.004134 0.000000 0.000000 0.000000
# 2 -0.002626 0.016110 -0.007126 0.000000 0.000000 0.000000
# 3 -0.004134 -0.007126 0.016335 0.000000 0.000000 0.000000
# 4 0.000000 0.000000 0.000000 0.040703 0.000000 0.000000
# 5 0.000000 0.000000 0.000000 0.000000 0.021943 0.000000
# 6 0.000000 0.000000 0.000000 0.000000 0.000000 0.021767
#
#
# Mechanical properties :
#
#
# Convention : Reuss Voigt Hill
#
# Bulk Modulus (GPa) = 82.70947 93.79148 88.25048
# Shear Modulus (GPa) = 32.03448 36.62099 34.32773
#
# Velocity S-wave (km/s) = 3.53824 3.78306 3.66270
# Velocity P-wave (km/s) = 7.00109 7.46566 7.23710
#
# Compressibility (1/GPa) = 0.01209051
#
# Stress axis : x y z
#
# Youngs Moduli (GPa) = 134.77159 62.07435 61.21880
#
# Poissons Ratio (x) = 0.16303 0.25309
# Poissons Ratio (y) = 0.35397 0.43627
# Poissons Ratio (z) = 0.55716 0.44237
#
# Static dielectric constant tensor:
#      x y z
#    x 2.167050 0.000000 0.000000 
#    y 0.000000 2.163790 0.000000 
#    z 0.000000 0.000000 1.930590 
# 
# From -- ./inp_files/17815.got.cif
#   From: 2010.05.17/outbox.cif.g08.bks.cpg/sg54_9_cif.got.tgz:17815.got - 2010.06.03 13:09:01.
