data_PCOD9420466
_publ_section_title
;
Structure prediction by ZEFSAII (Michael W. Deem and Ramdas Pophale) SiO2 
 PCOD9420466
Probable space group: P C C A
;
_chemical_formula_sum "Si O2"
_cell_formula_units_Z 48
_cell_length_a 8.524521
_cell_length_b 16.327376
_cell_length_c 19.016010
_cell_angle_alpha 90.000000
_cell_angle_beta 90.000000
_cell_angle_gamma 90.000000
_cell_volume 2646.706453
_symmetry_space_group_name_H-M "P C C A"
_symmetry_group_IT_number 54
_symmetry_cell_setting 'orthorhombic'
loop_
_space_group_symop_operation_xyz
x,y,z
1/2-x,-y,z
1/2+x,-y,1/2-z
-x,y,1/2-z
-x,-y,-z
1/2+x,y,-z
1/2-x,y,1/2+z
x,-y,1/2+z
loop_
_atom_site_type_symbol
_atom_site_label
_atom_site_fract_x
_atom_site_fract_y
_atom_site_fract_z
Si Si1 0.189739 0.912726 0.826702
Si Si2 0.322232 0.245189 0.573715
Si Si3 0.176375 0.584329 0.069797
Si Si4 0.312010 0.087726 0.664293
Si Si5 0.198902 0.755630 0.914722
Si Si6 0.695300 0.584317 0.589818
O O1 0.241062 0.903851 0.745404
O O2 0.244779 0.835227 0.870835
O O3 0.001029 0.914386 0.831917
O O4 0.250000 0.000000 0.853259
O O5 0.249581 0.331638 0.599108
O O6 0.266969 0.166133 0.617708
O O7 0.510575 0.249050 0.578404
O O8 0.272306 0.237197 0.492389
O O9 0.250000 0.500000 0.098425
O O10 0.990312 0.582800 0.078109
O O11 0.218650 0.585074 0.986542
O O12 0.250000 0.000000 0.637526
O O13 0.256731 0.671548 0.878775
O O14 0.750000 0.500000 0.625619
#
# Coordination Sequence:
#
# PCOD9420466 Si02
#       6
#     8   8   8   8   8   8
#     4   9  19  35  53  71  93 125 162 198 237 283
#     4  10  19  31  48  72 100 126 157 197 239 281
#     4  10  17  27  44  67  96 127 159 193 233 280
#     4   9  19  35  53  71  93 125 162 198 237 283
#     4  10  19  31  48  72 100 126 157 197 239 281
#     4  10  17  27  44  67  96 127 159 193 233 280
#
# _framework density 18.135748
#
# number of rings (size 3 to 8) (size 9 to 14) (size 15 to 20)
#    0.000    2.333    0.000    7.000    0.000    3.333 
#    0.000    3.333    0.000    1.000    0.000    0.000 
#    0.000    0.000    0.000    0.000    0.000    0.000 
#
# Total GULP energy -267611.821344 kJ/mol
# GULP energy per Si atom -5575.246278 kJ/mol
# Density = 1.809447 g / cm^3
# Si number density = 18.135748 Si / 1000 Ang^3
#
#
#
# Elastic Constant Matrix: (Units=GPa)
#
#
# Indices 1 2 3 4 5 6 
#
# 1 45.7026 25.2990 4.1198 0.0000 0.0000 0.0000
# 2 25.2990 213.3048 49.8641 0.0000 0.0000 0.0000
# 3 4.1198 49.8641 25.0898 0.0000 0.0000 0.0000
# 4 0.0000 0.0000 0.0000 -11.1109 0.0000 0.0000
# 5 0.0000 0.0000 0.0000 0.0000 11.0920 0.0000
# 6 0.0000 0.0000 0.0000 0.0000 0.0000 35.4801
#
#
#
# Elastic Compliance Matrix: (Units=1/GPa)
#
#
# Indices 1 2 3 4 5 6 
#
# 1 0.023550 -0.003529 0.003146 0.000000 0.000000 0.000000
# 2 -0.003529 0.009285 -0.017874 0.000000 0.000000 0.000000
# 3 0.003146 -0.017874 0.074863 0.000000 0.000000 0.000000
# 4 0.000000 0.000000 0.000000 -0.090002 0.000000 0.000000
# 5 0.000000 0.000000 0.000000 0.000000 0.090155 0.000000
# 6 0.000000 0.000000 0.000000 0.000000 0.000000 0.028185
#
#
# Mechanical properties :
#
#
# Convention : Reuss Voigt Hill
#
# Bulk Modulus (GPa) = 14.04790 49.18478 31.61634
# Shear Modulus (GPa) = 25.47411 20.74653 23.11032
#
# Velocity S-wave (km/s) = 3.75191 3.38591 3.57360
# Velocity P-wave (km/s) = 5.15091 6.51653 5.87354
#
# Compressibility (1/GPa) = 0.07118501
#
# Stress axis : x y z
#
# Youngs Moduli (GPa) = 42.46235 107.70110 13.35776
#
# Poissons Ratio (x) = 0.38003 -0.04202
# Poissons Ratio (y) = 0.14983 0.23875
# Poissons Ratio (z) = -0.13358 1.92502
#
# Static dielectric constant tensor:
#      x y z
#    x 1.615140 0.000000 0.000000 
#    y 0.000000 1.677240 0.000000 
#    z 0.000000 0.000000 1.605460 
# 
# From -- ./inp_files/20385.got.cif
#   From: 2010.05.17/outbox.cif.g08.bks.cpg/sg54_11_cif.got.tgz:20385.got - 2010.06.03 13:09:01.
