data_PCOD9420836
_publ_section_title
;
Structure prediction by ZEFSAII (Michael W. Deem and Ramdas Pophale) SiO2 
 PCOD9420836
Probable space group: P C C A
;
_chemical_formula_sum "Si O2"
_cell_formula_units_Z 40
_cell_length_a 5.246181
_cell_length_b 15.855193
_cell_length_c 31.710521
_cell_angle_alpha 90.000000
_cell_angle_beta 90.000000
_cell_angle_gamma 90.000000
_cell_volume 2637.656157
_symmetry_space_group_name_H-M "P C C A"
_symmetry_group_IT_number 54
_symmetry_cell_setting 'orthorhombic'
loop_
_space_group_symop_operation_xyz
x,y,z
1/2-x,-y,z
1/2+x,-y,1/2-z
-x,y,1/2-z
-x,-y,-z
1/2+x,y,-z
1/2-x,y,1/2+z
x,-y,1/2+z
loop_
_atom_site_type_symbol
_atom_site_label
_atom_site_fract_x
_atom_site_fract_y
_atom_site_fract_z
Si Si1 0.223727 0.598442 0.886505
Si Si2 0.250000 0.000000 0.720909
Si Si3 0.250612 0.813836 0.720204
Si Si4 0.215997 0.344887 0.659838
Si Si5 0.250000 0.500000 0.722536
Si Si6 0.947386 0.404089 0.016768
O O1 0.250000 0.500000 0.874054
O O2 0.481665 0.645099 0.872638
O O3 0.160233 0.598094 0.936179
O O4 0.982679 0.637975 0.863109
O O5 0.257247 0.092075 0.699808
O O6 0.500000 0.998686 0.750000
O O7 0.500000 0.808383 0.750000
O O8 0.271964 0.742201 0.685103
O O9 0.000000 0.802889 0.750000
O O10 0.184324 0.419809 0.693822
O O11 0.500000 0.480063 0.750000
O O12 0.727581 0.365023 0.987545
O O13 0.000000 0.500000 0.000000
#
# Coordination Sequence:
#
# PCOD9420836 Si02
#       6
#     8   4   8   8   4   8
#     4  12  21  34  46  66  92 125 162 188 230 278
#     4   8  16  30  54  74  86 110 152 204 246 288
#     4  10  19  35  52  70  92 121 162 201 243 279
#     4  12  23  33  46  64  95 127 156 198 231 273
#     4  12  22  32  42  56  80 124 168 190 210 248
#     4  10  19  30  50  66  83 114 161 192 231 267
#
# _framework density 15.164979000000001
#
# number of rings (size 3 to 8) (size 9 to 14) (size 15 to 20)
#    0.000    1.200    4.000    4.800    2.800    0.000 
#    0.000    0.000    0.000    0.000    0.000    0.000 
#    0.000    0.000    0.000   18.000    0.000    0.000 
#
# Total GULP energy -222985.022598 kJ/mol
# GULP energy per Si atom -5574.625565 kJ/mol
# Density = 1.513046 g / cm^3
# Si number density = 15.164979 Si / 1000 Ang^3
#
#
#
# Elastic Constant Matrix: (Units=GPa)
#
#
# Indices 1 2 3 4 5 6 
#
# 1 139.4260 25.9035 34.3170 0.0000 0.0000 0.0000
# 2 25.9035 115.2753 46.4219 0.0000 0.0000 0.0000
# 3 34.3170 46.4219 72.9660 0.0000 0.0000 0.0000
# 4 0.0000 0.0000 0.0000 14.0666 0.0000 0.0000
# 5 0.0000 0.0000 0.0000 0.0000 45.3994 0.0000
# 6 0.0000 0.0000 0.0000 0.0000 0.0000 13.9664
#
#
#
# Elastic Compliance Matrix: (Units=1/GPa)
#
#
# Indices 1 2 3 4 5 6 
#
# 1 0.008124 -0.000386 -0.003575 0.000000 0.000000 0.000000
# 2 -0.000386 0.011681 -0.007250 0.000000 0.000000 0.000000
# 3 -0.003575 -0.007250 0.019999 0.000000 0.000000 0.000000
# 4 0.000000 0.000000 0.000000 0.071090 0.000000 0.000000
# 5 0.000000 0.000000 0.000000 0.000000 0.022027 0.000000
# 6 0.000000 0.000000 0.000000 0.000000 0.000000 0.071600
#
#
# Mechanical properties :
#
#
# Convention : Reuss Voigt Hill
#
# Bulk Modulus (GPa) = 57.53208 60.10577 58.81893
# Shear Modulus (GPa) = 21.48331 29.42148 25.45239
#
# Velocity S-wave (km/s) = 3.76791 4.40943 4.10123
# Velocity P-wave (km/s) = 7.54648 8.10214 7.82924
#
# Compressibility (1/GPa) = 0.01738161
#
# Stress axis : x y z
#
# Youngs Moduli (GPa) = 123.09297 85.60672 50.00147
#
# Poissons Ratio (x) = 0.03302 0.17878
# Poissons Ratio (y) = 0.04747 0.36253
# Poissons Ratio (z) = 0.44011 0.62068
#
# Static dielectric constant tensor:
#      x y z
#    x 1.578210 0.000000 0.000000 
#    y 0.000000 1.525300 0.000000 
#    z 0.000000 0.000000 1.505620 
# 
# From -- ./inp_files/25282.got.cif
#   From: 2010.05.17/outbox.cif.g08.bks.cpg/sg54_13_cif.got.tgz:25282.got - 2010.06.03 13:09:01.
