data_PCOD9420013
_publ_section_title
;
Structure prediction by ZEFSAII (Michael W. Deem and Ramdas Pophale) SiO2 
 PCOD9420013
Probable space group: P M N A
;
_chemical_formula_sum "Si O2"
_cell_formula_units_Z 20
_cell_length_a 28.027373
_cell_length_b 5.290326
_cell_length_c 5.007347
_cell_angle_alpha 90.000000
_cell_angle_beta 90.000000
_cell_angle_gamma 90.000000
_cell_volume 742.459069
_symmetry_space_group_name_H-M "P M N A"
_symmetry_group_IT_number 53
_symmetry_cell_setting 'orthorhombic'
loop_
_space_group_symop_operation_xyz
x,y,z
1/2-x,-y,1/2+z
x,-y,-z
1/2-x,y,1/2-z
-x,-y,-z
1/2+x,y,1/2-z
-x,y,z
1/2+x,-y,1/2+z
loop_
_atom_site_type_symbol
_atom_site_label
_atom_site_fract_x
_atom_site_fract_y
_atom_site_fract_z
Si Si1 0.106269 0.244132 0.345956
Si Si2 0.666799 0.500000 0.500000
Si Si3 0.500000 0.751024 0.679219
Si Si4 0.250000 0.190669 0.250000
O O1 0.121098 0.500000 0.500000
O O2 0.049126 0.243554 0.340150
O O3 0.124309 0.000000 0.500000
O O4 0.127257 0.277939 0.048181
O O5 0.705402 0.622868 0.704107
O O6 0.500000 0.500000 0.500000
O O7 0.500000 0.000000 0.500000
O O8 0.245436 0.000000 0.500000
#
# Coordination Sequence:
#
# PCOD9420013 Si02
#       4
#     8   4   4   4
#     4  12  28  49  83 120 166 219 278 344 424 511
#     4  12  30  51  82 120 160 219 288 358 438 512
#     4  12  24  48  78 119 169 220 270 341 417 507
#     4  12  30  54  86 118 170 222 294 372 448 520
#
# _framework density 26.937508000000001
#
# number of rings (size 3 to 8) (size 9 to 14) (size 15 to 20)
#    0.000    0.000    2.000    6.000   14.000    0.000 
#    0.000    0.000    0.000    0.000    0.000    0.000 
#    0.000    0.000    0.000    0.000    0.000    0.000 
#
# Total GULP energy -111711.675227 kJ/mol
# GULP energy per Si atom -5585.583761 kJ/mol
# Density = 2.687620 g / cm^3
# Si number density = 26.937508 Si / 1000 Ang^3
#
#
#
# Elastic Constant Matrix: (Units=GPa)
#
#
# Indices 1 2 3 4 5 6 
#
# 1 199.2131 41.9662 27.4729 0.0000 0.0000 0.0000
# 2 41.9662 262.7919 110.3527 0.0000 0.0000 0.0000
# 3 27.4729 110.3527 150.3114 0.0000 0.0000 0.0000
# 4 0.0000 0.0000 0.0000 92.6083 0.0000 0.0000
# 5 0.0000 0.0000 0.0000 0.0000 -8.7807 0.0000
# 6 0.0000 0.0000 0.0000 0.0000 0.0000 -75.0780
#
#
#
# Elastic Compliance Matrix: (Units=1/GPa)
#
#
# Indices 1 2 3 4 5 6 
#
# 1 0.005220 -0.000626 -0.000495 0.000000 0.000000 0.000000
# 2 -0.000626 0.005576 -0.003980 0.000000 0.000000 0.000000
# 3 -0.000495 -0.003980 0.009665 0.000000 0.000000 0.000000
# 4 0.000000 0.000000 0.000000 0.010798 0.000000 0.000000
# 5 0.000000 0.000000 0.000000 0.000000 -0.113886 0.000000
# 6 0.000000 0.000000 0.000000 0.000000 0.000000 -0.013319
#
#
# Mechanical properties :
#
#
# Convention : Reuss Voigt Hill
#
# Bulk Modulus (GPa) = 97.45568 107.98891 102.72229
# Shear Modulus (GPa) = -60.73429 30.58489 -15.07470
#
# Velocity S-wave (km/s) = -4.75345 3.37323 -2.36819
# Velocity P-wave (km/s) = 2.47586 7.43957 5.54424
#
# Compressibility (1/GPa) = 0.01026107
#
# Stress axis : x y z
#
# Youngs Moduli (GPa) = 191.57810 179.32877 103.46761
#
# Poissons Ratio (x) = 0.11224 0.05117
# Poissons Ratio (y) = 0.11991 0.41175
# Poissons Ratio (z) = 0.09474 0.71365
#
# Static dielectric constant tensor:
#      x y z
#    x 2.063880 0.000000 0.000000 
#    y 0.000000 2.023870 0.000000 
#    z 0.000000 0.000000 2.023470 
# 
# From -- ./inp_files/4740.got.cif
#   From: 2010.05.17/outbox.cif.g08.bks.cpg/sg53_3_cif.got.tgz:4740.got - 2010.06.03 12:45:16.
