data_PCOD9420534
_publ_section_title
;
Structure prediction by ZEFSAII (Michael W. Deem and Ramdas Pophale) SiO2 
 PCOD9420534
Probable space group: P C C A
;
_chemical_formula_sum "Si O2"
_cell_formula_units_Z 64
_cell_length_a 17.829481
_cell_length_b 11.189672
_cell_length_c 14.354792
_cell_angle_alpha 90.000000
_cell_angle_beta 90.000000
_cell_angle_gamma 90.000000
_cell_volume 2863.867769
_symmetry_space_group_name_H-M "P C C A"
_symmetry_group_IT_number 54
_symmetry_cell_setting 'orthorhombic'
loop_
_space_group_symop_operation_xyz
x,y,z
1/2-x,-y,z
1/2+x,-y,1/2-z
-x,y,1/2-z
-x,-y,-z
1/2+x,y,-z
1/2-x,y,1/2+z
x,-y,1/2+z
loop_
_atom_site_type_symbol
_atom_site_label
_atom_site_fract_x
_atom_site_fract_y
_atom_site_fract_z
Si Si1 0.186885 0.579337 0.076929
Si Si2 0.873501 0.223320 0.824099
Si Si3 0.587950 0.268057 0.130442
Si Si4 0.632470 0.791828 0.150445
Si Si5 0.465435 0.868925 0.514634
Si Si6 0.266456 0.807819 0.980687
Si Si7 0.215250 0.123920 0.183575
Si Si8 0.339375 0.485883 0.877607
O O1 0.250000 0.500000 0.126791
O O2 0.123241 0.641789 0.136772
O O3 0.230247 0.687678 0.024858
O O4 0.154048 0.507294 0.990404
O O5 0.918488 0.204526 0.730440
O O6 0.897550 0.136518 0.908570
O O7 0.785248 0.212932 0.798997
O O8 0.521990 0.225836 0.062619
O O9 0.662776 0.222172 0.080889
O O10 0.606648 0.406623 0.153357
O O11 0.701566 0.849014 0.089930
O O12 0.644289 0.840387 0.254643
O O13 0.639175 0.647838 0.152969
O O14 0.562383 0.825377 0.086265
O O15 0.500000 0.000000 0.500000
O O16 0.293458 0.879053 0.071831
O O17 0.250000 0.000000 0.215325
O O18 0.250000 0.500000 0.856326
#
# Coordination Sequence:
#
# PCOD9420534 Si02
#       8
#     8   8   8   8   8   8   8   8
#     4   9  16  35  66 100 143 174 223 307 351 410
#     4  11  23  45  63 107 137 187 248 290 361 437
#     4  12  24  41  73 104 140 195 234 291 376 441
#     4  11  22  46  67 106 140 183 236 296 363 427
#     4  12  29  47  67  94 148 200 236 294 364 445
#     4  10  20  39  65  99 136 169 239 287 350 412
#     4  11  24  38  73 101 132 172 244 317 343 413
#     4  10  17  39  71 106 141 173 234 306 362 426
#
# _framework density 22.347398999999999
#
# number of rings (size 3 to 8) (size 9 to 14) (size 15 to 20)
#    0.000    1.250    8.750    0.375    3.500    3.500 
#    0.000    0.625    0.000    0.000    0.000    0.000 
#    0.000    0.000    0.000    0.000    0.000    0.000 
#
# Total GULP energy -356903.599217 kJ/mol
# GULP energy per Si atom -5576.618738 kJ/mol
# Density = 2.229654 g / cm^3
# Si number density = 22.347399 Si / 1000 Ang^3
#
#
#
# Elastic Constant Matrix: (Units=GPa)
#
#
# Indices 1 2 3 4 5 6 
#
# 1 38.7636 0.4404 10.4369 0.0000 0.0000 0.0000
# 2 0.4404 84.2481 22.7966 0.0000 0.0000 0.0000
# 3 10.4369 22.7966 105.7602 0.0000 0.0000 0.0000
# 4 0.0000 0.0000 0.0000 10.0611 0.0000 0.0000
# 5 0.0000 0.0000 0.0000 0.0000 30.8445 0.0000
# 6 0.0000 0.0000 0.0000 0.0000 0.0000 31.1735
#
#
#
# Elastic Compliance Matrix: (Units=1/GPa)
#
#
# Indices 1 2 3 4 5 6 
#
# 1 0.026531 0.000605 -0.002749 0.000000 0.000000 0.000000
# 2 0.000605 0.012619 -0.002780 0.000000 0.000000 0.000000
# 3 -0.002749 -0.002780 0.010326 0.000000 0.000000 0.000000
# 4 0.000000 0.000000 0.000000 0.099392 0.000000 0.000000
# 5 0.000000 0.000000 0.000000 0.000000 0.032421 0.000000
# 6 0.000000 0.000000 0.000000 0.000000 0.000000 0.032079
#
#
# Mechanical properties :
#
#
# Convention : Reuss Voigt Hill
#
# Bulk Modulus (GPa) = 25.23427 32.90218 29.06822
# Shear Modulus (GPa) = 21.14857 27.42236 24.28546
#
# Velocity S-wave (km/s) = 3.07963 3.50679 3.30013
# Velocity P-wave (km/s) = 4.89508 5.58138 5.24946
#
# Compressibility (1/GPa) = 0.03962865
#
# Stress axis : x y z
#
# Youngs Moduli (GPa) = 37.69237 79.24750 96.84527
#
# Poissons Ratio (x) = -0.04795 0.26619
# Poissons Ratio (y) = -0.02281 0.26920
# Poissons Ratio (z) = 0.10360 0.22028
#
# Static dielectric constant tensor:
#      x y z
#    x 1.962250 0.000000 0.000000 
#    y 0.000000 1.912920 0.000000 
#    z 0.000000 0.000000 1.878320 
# 
# From -- ./inp_files/14325.got.cif
#   From: 2010.05.17/outbox.cif.g08.bks.cpg/sg54_8_cif.got.tgz:14325.got - 2010.06.03 13:09:01.
