data_PCOD9420507
_publ_section_title
;
Structure prediction by ZEFSAII (Michael W. Deem and Ramdas Pophale) SiO2 
 PCOD9420507
Probable space group: P C C A
;
_chemical_formula_sum "Si O2"
_cell_formula_units_Z 32
_cell_length_a 4.898509
_cell_length_b 23.111332
_cell_length_c 12.529539
_cell_angle_alpha 90.000000
_cell_angle_beta 90.000000
_cell_angle_gamma 90.000000
_cell_volume 1418.482489
_symmetry_space_group_name_H-M "P C C A"
_symmetry_group_IT_number 54
_symmetry_cell_setting 'orthorhombic'
loop_
_space_group_symop_operation_xyz
x,y,z
1/2-x,-y,z
1/2+x,-y,1/2-z
-x,y,1/2-z
-x,-y,-z
1/2+x,y,-z
1/2-x,y,1/2+z
x,-y,1/2+z
loop_
_atom_site_type_symbol
_atom_site_label
_atom_site_fract_x
_atom_site_fract_y
_atom_site_fract_z
Si Si1 0.207617 0.263278 0.563850
Si Si2 0.250000 0.500000 0.081770
Si Si3 0.000000 0.410508 0.750000
Si Si4 0.265929 0.851142 0.176537
Si Si5 0.000000 0.665385 0.750000
Si Si6 0.500000 0.960331 0.250000
O O1 0.397988 0.277342 0.463253
O O2 0.216907 0.194060 0.583962
O O3 0.337118 0.296688 0.662969
O O4 0.340849 0.448704 0.162156
O O5 0.500000 0.500000 0.000000
O O6 0.252505 0.373460 0.797615
O O7 0.500000 0.823171 0.250000
O O8 0.385641 0.915652 0.160018
O O9 0.000000 0.857279 0.250000
O O10 0.750000 0.000000 0.214351
#
# Coordination Sequence:
#
# PCOD9420507 Si02
#       6
#     8   4   4   8   4   4
#     4  12  26  42  68 100 134 183 226 271 345 412
#     4  12  26  48  76 104 140 186 240 278 338 418
#     4  12  27  46  75 105 140 187 228 288 348 388
#     4  10  20  37  63  89 127 173 220 269 334 404
#     4  12  26  46  68 104 148 174 226 292 336 408
#     4  10  17  32  61  97 118 169 226 270 346 402
#
# _framework density 22.559318000000001
#
# number of rings (size 3 to 8) (size 9 to 14) (size 15 to 20)
#    0.750    0.000    2.500    6.000    1.750    6.000 
#    0.000    0.000    0.000    4.500    0.000    0.000 
#    0.000    0.000    0.000    0.000    0.000    0.000 
#
# Total GULP energy -178422.615584 kJ/mol
# GULP energy per Si atom -5575.706737 kJ/mol
# Density = 2.250797 g / cm^3
# Si number density = 22.559318 Si / 1000 Ang^3
#
#
#
# Elastic Constant Matrix: (Units=GPa)
#
#
# Indices 1 2 3 4 5 6 
#
# 1 166.1588 55.9134 26.3436 0.0000 0.0000 0.0000
# 2 55.9134 126.9885 47.9674 0.0000 0.0000 0.0000
# 3 26.3436 47.9674 66.0817 0.0000 0.0000 0.0000
# 4 0.0000 0.0000 0.0000 -0.0209 0.0000 0.0000
# 5 0.0000 0.0000 0.0000 0.0000 41.0986 0.0000
# 6 0.0000 0.0000 0.0000 0.0000 0.0000 196.9849
#
#
#
# Elastic Compliance Matrix: (Units=1/GPa)
#
#
# Indices 1 2 3 4 5 6 
#
# 1 0.007094 -0.002832 -0.000773 0.000000 0.000000 0.000000
# 2 -0.002832 0.011980 -0.007567 0.000000 0.000000 0.000000
# 3 -0.000773 -0.007567 0.020934 0.000000 0.000000 0.000000
# 4 0.000000 0.000000 0.000000-47.786378 0.000000 0.000000
# 5 0.000000 0.000000 0.000000 0.000000 0.024332 0.000000
# 6 0.000000 0.000000 0.000000 0.000000 0.000000 0.005077
#
#
# Mechanical properties :
#
#
# Convention : Reuss Voigt Hill
#
# Bulk Modulus (GPa) = 56.61025 68.85310 62.73167
# Shear Modulus (GPa) = -0.10485 62.87949 31.38732
#
# Velocity S-wave (km/s) = -0.21582 5.28521 3.73409
# Velocity P-wave (km/s) = 5.00863 8.23601 6.81609
#
# Compressibility (1/GPa) = 0.01766465
#
# Stress axis : x y z
#
# Youngs Moduli (GPa) = 140.97113 83.47392 47.77019
#
# Poissons Ratio (x) = 0.23636 0.03690
# Poissons Ratio (y) = 0.39917 0.36148
# Poissons Ratio (z) = 0.10891 0.63166
#
# Static dielectric constant tensor:
#      x y z
#    x 1.795860 0.000000 0.000000 
#    y 0.000000 1.898770 0.000000 
#    z 0.000000 0.000000 1.544370 
# 
# From -- ./inp_files/10787.got.cif
#   From: 2010.05.17/outbox.cif.g08.bks.cpg/sg54_6_cif.got.tgz:10787.got - 2010.06.03 13:09:01.
