data_PCOD9420090
_publ_section_title
;
Structure prediction by ZEFSAII (Michael W. Deem and Ramdas Pophale) SiO2 
 PCOD9420090
Probable space group: P M N A
;
_chemical_formula_sum "Si O2"
_cell_formula_units_Z 48
_cell_length_a 9.000000
_cell_length_b 18.000000
_cell_length_c 15.000000
_cell_angle_alpha 90.000000
_cell_angle_beta 90.000000
_cell_angle_gamma 90.000000
_cell_volume 2430.000000
_symmetry_space_group_name_H-M "P M N A"
_symmetry_group_IT_number 53
_symmetry_cell_setting 'orthorhombic'
loop_
_space_group_symop_operation_xyz
x,y,z
1/2-x,-y,1/2+z
x,-y,-z
1/2-x,y,1/2-z
-x,-y,-z
1/2+x,y,1/2-z
-x,y,z
1/2+x,-y,1/2+z
loop_
_atom_site_type_symbol
_atom_site_label
_atom_site_fract_x
_atom_site_fract_y
_atom_site_fract_z
Si Si1 0.672024 0.004757 0.891016
Si Si2 0.678825 0.841638 0.898685
Si Si3 0.177352 0.689976 0.837846
Si Si4 0.319472 0.584125 0.499293
Si Si5 0.821948 0.686758 0.160768
Si Si6 0.177186 0.152008 0.906254
O O1 0.500000 0.017838 0.867316
O O2 0.719128 0.922848 0.859824
O O3 0.770271 0.074684 0.863590
O O4 0.678121 0.000000 0.000000
O O5 0.500000 0.836465 0.897989
O O6 0.752510 0.770976 0.853409
O O7 0.739850 0.841304 0.999376
O O8 0.250000 0.658382 0.750000
O O9 0.000000 0.697334 0.832424
O O10 0.216485 0.633290 0.915600
O O11 0.263938 0.500000 0.500000
O O12 0.500000 0.580707 0.494760
O O13 0.267944 0.633769 0.417368
O O14 0.750000 0.659391 0.250000
O O15 0.782766 0.772985 0.145212
O O16 0.000000 0.683607 0.164062
O O17 0.000000 0.150765 0.920477
#
# Coordination Sequence:
#
# PCOD9420090 Si02
#       6
#     8   8   8   8   8   8
#     4   8  16  29  47  76 110 147 192 238 287 338
#     4  10  19  33  54  80 113 153 195 239 288 339
#     4  11  22  38  60  88 119 152 193 237 286 346
#     4   9  19  39  64  86 115 152 185 228 288 348
#     4  10  21  37  57  86 116 150 192 230 280 338
#     4  10  18  31  52  80 113 150 195 241 287 342
#
# _framework density 19.753086
#
# number of rings (size 3 to 8) (size 9 to 14) (size 15 to 20)
#    0.000    2.333    1.667    2.500    0.000    5.667 
#    0.000    0.833    0.000    5.500    0.000    0.000 
#    0.000    0.000    0.000    0.000    0.000    0.000 
#
# Total GULP energy -267691.284923 kJ/mol
# GULP energy per Si atom -5576.901769 kJ/mol
# Density = 1.970813 g / cm^3
# Si number density = 19.753086 Si / 1000 Ang^3
#
#
#
# Elastic Constant Matrix: (Units=GPa)
#
#
# Indices 1 2 3 4 5 6 
#
# 1 30.1101 51.3597 40.8086 0.0000 0.0000 0.0000
# 2 51.3597 165.0784 76.3925 0.0000 0.0000 0.0000
# 3 40.8086 76.3925 126.7143 0.0000 0.0000 0.0000
# 4 0.0000 0.0000 0.0000 -85.2783 0.0000 0.0000
# 5 0.0000 0.0000 0.0000 0.0000 13.0034 0.0000
# 6 0.0000 0.0000 0.0000 0.0000 0.0000 11.0564
#
#
#
# Elastic Compliance Matrix: (Units=1/GPa)
#
#
# Indices 1 2 3 4 5 6 
#
# 1 0.091304 -0.020526 -0.017030 0.000000 0.000000 0.000000
# 2 -0.020526 0.013016 -0.001237 0.000000 0.000000 0.000000
# 3 -0.017030 -0.001237 0.014122 0.000000 0.000000 0.000000
# 4 0.000000 0.000000 0.000000 -0.011726 0.000000 0.000000
# 5 0.000000 0.000000 0.000000 0.000000 0.076903 0.000000
# 6 0.000000 0.000000 0.000000 0.000000 0.000000 0.090446
#
#
# Mechanical properties :
#
#
# Convention : Reuss Voigt Hill
#
# Bulk Modulus (GPa) = 24.47572 73.22492 48.85032
# Shear Modulus (GPa) = 13.68853 -2.02090 5.83381
#
# Velocity S-wave (km/s) = 2.63531 -1.01257 1.72040
# Velocity P-wave (km/s) = 4.65592 5.98193 5.36009
#
# Compressibility (1/GPa) = 0.04085681
#
# Stress axis : x y z
#
# Youngs Moduli (GPa) = 10.95238 76.82815 70.81197
#
# Poissons Ratio (x) = 1.57697 1.20594
# Poissons Ratio (y) = 0.22481 0.08757
# Poissons Ratio (z) = 0.18652 0.09501
#
# Static dielectric constant tensor:
#      x y z
#    x 1.657410 0.000000 0.000000 
#    y 0.000000 1.702640 0.000000 
#    z 0.000000 0.000000 1.669350 
# 
# From -- ./inp_files/20246.got.cif
#   From: 2010.05.17/outbox.ucp.g08.bks.cvg/sg53_11_cif.got.tgz:20246.got - 2010.06.11 16:32:34.
