data_PCOD9420379
_publ_section_title
;
Structure prediction by ZEFSAII (Michael W. Deem and Ramdas Pophale) SiO2 
 PCOD9420379
Probable space group: P C C A
;
_chemical_formula_sum "Si O2"
_cell_formula_units_Z 48
_cell_length_a 18.147023
_cell_length_b 21.457301
_cell_length_c 5.563063
_cell_angle_alpha 90.000000
_cell_angle_beta 90.000000
_cell_angle_gamma 90.000000
_cell_volume 2166.179599
_symmetry_space_group_name_H-M "P C C A"
_symmetry_group_IT_number 54
_symmetry_cell_setting 'orthorhombic'
loop_
_space_group_symop_operation_xyz
x,y,z
1/2-x,-y,z
1/2+x,-y,1/2-z
-x,y,1/2-z
-x,-y,-z
1/2+x,y,-z
1/2-x,y,1/2+z
x,-y,1/2+z
loop_
_atom_site_type_symbol
_atom_site_label
_atom_site_fract_x
_atom_site_fract_y
_atom_site_fract_z
Si Si1 0.703937 0.168788 0.943953
Si Si2 0.392430 0.288645 0.624361
Si Si3 0.416307 0.524292 0.510733
Si Si4 0.334838 0.974820 0.059787
Si Si5 0.594588 0.669230 0.877929
Si Si6 0.745762 0.380669 0.836331
O O1 0.751319 0.174976 0.696080
O O2 0.643119 0.222474 0.933787
O O3 0.670045 0.099579 0.941861
O O4 0.433724 0.312102 0.385581
O O5 0.327772 0.340108 0.657828
O O6 0.425829 0.289225 0.891853
O O7 0.500000 0.500000 0.500000
O O8 0.383367 0.492267 0.749678
O O9 0.421065 0.597581 0.558750
O O10 0.250000 0.000000 0.060393
O O11 0.368088 0.999703 0.310223
O O12 0.684727 0.667435 0.844133
O O13 0.750509 0.416186 0.586499
#
# Coordination Sequence:
#
# PCOD9420379 Si02
#       6
#     8   8   8   8   8   8
#     4  12  18  25  41  57  85 117 169 209 243 276
#     4  10  19  28  43  67  87 124 154 190 240 267
#     4  10  21  37  57  77  90 110 145 182 224 290
#     4  10  16  27  33  51  77 118 158 213 258 251
#     4  10  18  32  48  65  95 112 139 191 237 272
#     4   8  14  25  39  57  83 111 141 167 219 256
#
# _framework density 22.158826000000001
#
# number of rings (size 3 to 8) (size 9 to 14) (size 15 to 20)
#    0.000    2.000    3.333    5.000    0.000    0.000 
#    0.000    0.000    0.000   27.000    0.000    0.000 
#    0.000    0.000    0.000    0.000    0.000    0.000 
#
# Total GULP energy -267954.805737 kJ/mol
# GULP energy per Si atom -5582.391786 kJ/mol
# Density = 2.210839 g / cm^3
# Si number density = 22.158826 Si / 1000 Ang^3
#
#
#
# Elastic Constant Matrix: (Units=GPa)
#
#
# Indices 1 2 3 4 5 6 
#
# 1 40.6501 3.8624 13.3611 0.0000 0.0000 0.0000
# 2 3.8624 141.6831 38.9794 0.0000 0.0000 0.0000
# 3 13.3611 38.9794 262.2475 0.0000 0.0000 0.0000
# 4 0.0000 0.0000 0.0000 32.9094 0.0000 0.0000
# 5 0.0000 0.0000 0.0000 0.0000 29.1736 0.0000
# 6 0.0000 0.0000 0.0000 0.0000 0.0000 12.2688
#
#
#
# Elastic Compliance Matrix: (Units=1/GPa)
#
#
# Indices 1 2 3 4 5 6 
#
# 1 0.025035 -0.000346 -0.001224 0.000000 0.000000 0.000000
# 2 -0.000346 0.007364 -0.001077 0.000000 0.000000 0.000000
# 3 -0.001224 -0.001077 0.004036 0.000000 0.000000 0.000000
# 4 0.000000 0.000000 0.000000 0.030386 0.000000 0.000000
# 5 0.000000 0.000000 0.000000 0.000000 0.034278 0.000000
# 6 0.000000 0.000000 0.000000 0.000000 0.000000 0.081507
#
#
# Mechanical properties :
#
#
# Convention : Reuss Voigt Hill
#
# Bulk Modulus (GPa) = 32.11175 61.88739 46.99957
# Shear Modulus (GPa) = 25.21685 40.76221 32.98953
#
# Velocity S-wave (km/s) = 3.37709 4.29365 3.86265
# Velocity P-wave (km/s) = 5.45247 7.25053 6.41481
#
# Compressibility (1/GPa) = 0.03114125
#
# Stress axis : x y z
#
# Youngs Moduli (GPa) = 39.94346 135.80127 247.79312
#
# Poissons Ratio (x) = 0.04695 0.30333
# Poissons Ratio (y) = 0.01381 0.26685
# Poissons Ratio (z) = 0.04890 0.14624
#
# Static dielectric constant tensor:
#      x y z
#    x 1.887240 0.000000 0.000000 
#    y 0.000000 1.728350 0.000000 
#    z 0.000000 0.000000 1.971230 
# 
# From -- ./inp_files/1338.got.cif
#   From: 2010.05.17/outbox.cif.g08.bks.cpg/sg54_1_cif.got.tgz:1338.got - 2010.06.03 13:09:01.
