data_PCOD9420170
_publ_section_title
;
Structure prediction by ZEFSAII (Michael W. Deem and Ramdas Pophale) SiO2 
 PCOD9420170
Probable space group: P M N A
;
_chemical_formula_sum "Si O2"
_cell_formula_units_Z 64
_cell_length_a 9.000000
_cell_length_b 21.000000
_cell_length_c 18.000000
_cell_angle_alpha 90.000000
_cell_angle_beta 90.000000
_cell_angle_gamma 90.000000
_cell_volume 3402.000000
_symmetry_space_group_name_H-M "P M N A"
_symmetry_group_IT_number 53
_symmetry_cell_setting 'orthorhombic'
loop_
_space_group_symop_operation_xyz
x,y,z
1/2-x,-y,1/2+z
x,-y,-z
1/2-x,y,1/2-z
-x,-y,-z
1/2+x,y,1/2-z
-x,y,z
1/2+x,-y,1/2+z
loop_
_atom_site_type_symbol
_atom_site_label
_atom_site_fract_x
_atom_site_fract_y
_atom_site_fract_z
Si Si1 0.679981 0.141632 0.429175
Si Si2 0.676034 0.873622 0.090339
Si Si3 0.321333 0.737115 0.669100
Si Si4 0.328809 0.997572 0.590472
Si Si5 0.675977 0.605639 0.585748
Si Si6 0.822557 0.743708 0.329370
Si Si7 0.323580 0.629561 0.410925
Si Si8 0.677423 0.509877 0.169692
O O1 0.500000 0.140794 0.436147
O O2 0.747751 0.142720 0.511489
O O3 0.724488 0.202595 0.381128
O O4 0.723046 0.073998 0.391711
O O5 0.500000 0.877348 0.078872
O O6 0.707925 0.816280 0.146560
O O7 0.735502 0.942152 0.116642
O O8 0.250000 0.739445 0.750000
O O9 0.500000 0.739727 0.675944
O O10 0.284872 0.670931 0.628091
O O11 0.500000 0.005255 0.613536
O O12 0.325539 0.000000 0.500000
O O13 0.500000 0.592321 0.598727
O O14 0.696176 0.615335 0.498013
O O15 0.771740 0.547741 0.616796
O O16 0.750000 0.729842 0.250000
O O17 0.749025 0.696367 0.388611
O O18 0.000000 0.734159 0.326871
O O19 0.500000 0.630296 0.395198
O O20 0.243990 0.574778 0.363628
O O21 0.750000 0.498607 0.250000
O O22 0.500000 0.513419 0.175305
#
# Coordination Sequence:
#
# PCOD9420170 Si02
#       8
#     8   8   8   8   8   8   8   8
#     4   9  18  34  55  79 108 145 187 226 272 334
#     4  10  20  33  53  82 111 139 179 232 281 328
#     4  10  21  37  56  80 111 146 185 228 275 327
#     4   8  15  29  51  77 106 142 182 224 272 330
#     4  10  22  40  62  88 116 149 189 231 277 331
#     4  11  24  40  57  81 113 148 188 232 282 338
#     4  11  23  41  65  89 115 148 187 232 280 332
#     4  12  25  41  62  88 121 156 189 229 276 328
#
# _framework density 18.812463000000001
#
# number of rings (size 3 to 8) (size 9 to 14) (size 15 to 20)
#    0.000    1.875    0.000    4.875    0.000    9.750 
#    0.000    0.625    0.000    3.000    0.000    0.000 
#    0.000    0.000    0.000    0.000    0.000    0.000 
#
# Total GULP energy -357539.273929 kJ/mol
# GULP energy per Si atom -5586.551155 kJ/mol
# Density = 1.876965 g / cm^3
# Si number density = 18.812463 Si / 1000 Ang^3
#
#
#
# Elastic Constant Matrix: (Units=GPa)
#
#
# Indices 1 2 3 4 5 6 
#
# 1 59.3462 35.1580 24.4433 0.0000 0.0000 0.0000
# 2 35.1580 75.9601 -5.5892 0.0000 0.0000 0.0000
# 3 24.4433 -5.5892 37.3439 0.0000 0.0000 0.0000
# 4 0.0000 0.0000 0.0000 -3.3824 0.0000 0.0000
# 5 0.0000 0.0000 0.0000 0.0000 -7.9482 0.0000
# 6 0.0000 0.0000 0.0000 0.0000 0.0000 24.2675
#
#
#
# Elastic Compliance Matrix: (Units=1/GPa)
#
#
# Indices 1 2 3 4 5 6 
#
# 1 0.042936 -0.022185 -0.031424 0.000000 0.000000 0.000000
# 2 -0.022185 0.024774 0.018229 0.000000 0.000000 0.000000
# 3 -0.031424 0.018229 0.050075 0.000000 0.000000 0.000000
# 4 0.000000 0.000000 0.000000 -0.295652 0.000000 0.000000
# 5 0.000000 0.000000 0.000000 0.000000 -0.125814 0.000000
# 6 0.000000 0.000000 0.000000 0.000000 0.000000 0.041207
#
#
# Mechanical properties :
#
#
# Convention : Reuss Voigt Hill
#
# Bulk Modulus (GPa) = 21.26507 31.18606 26.22557
# Shear Modulus (GPa) = -28.40298 10.49658 -8.95320
#
# Velocity S-wave (km/s) = -3.88982 2.36468 -2.18392
# Velocity P-wave (km/s) = 2.97423 4.90601 2.75888
#
# Compressibility (1/GPa) = 0.04702547
#
# Stress axis : x y z
#
# Youngs Moduli (GPa) = 23.29042 40.36412 19.97001
#
# Poissons Ratio (x) = 0.89548 0.62754
# Poissons Ratio (y) = 0.51670 -0.36404
# Poissons Ratio (z) = 0.73188 -0.73580
#
# Static dielectric constant tensor:
#      x y z
#    x 1.628080 0.000000 0.000000 
#    y 0.000000 1.660410 0.000000 
#    z 0.000000 0.000000 1.628830 
# 
# From -- ./inp_files/27017.got.cif
#   From: 2010.05.17/outbox.ucp.g08.bks.cvg/sg53_14_cif.got.tgz:27017.got - 2010.06.11 16:32:34.
