data_PCOD9420070
_publ_section_title
;
Structure prediction by ZEFSAII (Michael W. Deem and Ramdas Pophale) SiO2 
 PCOD9420070
Probable space group: P M N A
;
_chemical_formula_sum "Si O2"
_cell_formula_units_Z 40
_cell_length_a 14.598613
_cell_length_b 12.135705
_cell_length_c 8.650937
_cell_angle_alpha 90.000000
_cell_angle_beta 90.000000
_cell_angle_gamma 90.000000
_cell_volume 1532.638589
_symmetry_space_group_name_H-M "P M N A"
_symmetry_group_IT_number 53
_symmetry_cell_setting 'orthorhombic'
loop_
_space_group_symop_operation_xyz
x,y,z
1/2-x,-y,1/2+z
x,-y,-z
1/2-x,y,1/2-z
-x,-y,-z
1/2+x,y,1/2-z
-x,y,z
1/2+x,-y,1/2+z
loop_
_atom_site_type_symbol
_atom_site_label
_atom_site_fract_x
_atom_site_fract_y
_atom_site_fract_z
Si Si1 0.140335 0.863518 0.228527
Si Si2 0.653510 0.712286 0.990649
Si Si3 0.138360 0.456170 0.249538
Si Si4 0.394441 0.080616 0.145930
Si Si5 0.362098 0.336957 0.560439
O O1 0.250000 0.865414 0.250000
O O2 0.108797 0.787068 0.374532
O O3 0.110465 0.788199 0.087004
O O4 0.112865 0.989960 0.220738
O O5 0.609211 0.608135 0.903897
O O6 0.664260 0.808913 0.861058
O O7 0.751030 0.668867 0.051545
O O8 0.250000 0.452416 0.250000
O O9 0.112834 0.580637 0.201518
O O10 0.106972 0.387346 0.100212
O O11 0.500000 0.114311 0.134062
O O12 0.370167 0.000000 0.000000
#
# Coordination Sequence:
#
# PCOD9420070 Si02
#       5
#     8   8   8   8   8
#     4   9  17  29  48  74 102 129 165 212 257 302
#     4   9  17  29  47  71  99 130 166 207 254 306
#     4   9  16  27  45  71 101 129 158 199 255 309
#     4   9  18  33  52  74 103 140 178 215 257 306
#     4   9  17  28  45  73 103 128 158 205 259 307
#
# _framework density 26.098783000000001
#
# number of rings (size 3 to 8) (size 9 to 14) (size 15 to 20)
#    0.000    3.000    0.000    1.800    0.000    4.800 
#    0.000    3.000    0.000    3.600    0.000   28.000 
#    0.000    9.600    0.000    4.000    0.000    0.000 
#
# Total GULP energy -223164.809785 kJ/mol
# GULP energy per Si atom -5579.120245 kJ/mol
# Density = 2.603938 g / cm^3
# Si number density = 26.098783 Si / 1000 Ang^3
#
#
#
# Elastic Constant Matrix: (Units=GPa)
#
#
# Indices 1 2 3 4 5 6 
#
# 1 99.0918 13.4789 11.3554 0.0000 0.0000 0.0000
# 2 13.4789 186.9004 45.3593 0.0000 0.0000 0.0000
# 3 11.3554 45.3593 44.2596 0.0000 0.0000 0.0000
# 4 0.0000 0.0000 0.0000 56.7895 0.0000 0.0000
# 5 0.0000 0.0000 0.0000 0.0000 12.1535 0.0000
# 6 0.0000 0.0000 0.0000 0.0000 0.0000 -59.5638
#
#
#
# Elastic Compliance Matrix: (Units=1/GPa)
#
#
# Indices 1 2 3 4 5 6 
#
# 1 0.010400 -0.000136 -0.002528 0.000000 0.000000 0.000000
# 2 -0.000136 0.007124 -0.007266 0.000000 0.000000 0.000000
# 3 -0.002528 -0.007266 0.030689 0.000000 0.000000 0.000000
# 4 0.000000 0.000000 0.000000 0.017609 0.000000 0.000000
# 5 0.000000 0.000000 0.000000 0.000000 0.082281 0.000000
# 6 0.000000 0.000000 0.000000 0.000000 0.000000 -0.016789
#
#
# Mechanical properties :
#
#
# Convention : Reuss Voigt Hill
#
# Bulk Modulus (GPa) = 35.27159 52.29323 43.78241
# Shear Modulus (GPa) = 31.12847 19.21305 25.17076
#
# Velocity S-wave (km/s) = 3.45732 2.71618 3.10892
# Velocity P-wave (km/s) = 5.42968 5.46964 5.44970
#
# Compressibility (1/GPa) = 0.02835143
#
# Stress axis : x y z
#
# Youngs Moduli (GPa) = 96.15430 140.37885 32.58520
#
# Poissons Ratio (x) = 0.01915 0.08239
# Poissons Ratio (y) = 0.01311 0.23675
# Poissons Ratio (z) = 0.24312 1.01993
#
# Static dielectric constant tensor:
#      x y z
#    x 2.086960 0.000000 0.000000 
#    y 0.000000 2.053440 0.000000 
#    z 0.000000 0.000000 2.193420 
# 
# From -- ./inp_files/10792.got.cif
#   From: 2010.05.17/outbox.cif.g08.bks.cpg/sg53_6_cif.got.tgz:10792.got - 2010.06.03 12:45:16.
