data_PCOD9420069
_publ_section_title
;
Structure prediction by ZEFSAII (Michael W. Deem and Ramdas Pophale) SiO2 
 PCOD9420069
Probable space group: P M N A
;
_chemical_formula_sum "Si O2"
_cell_formula_units_Z 64
_cell_length_a 7.334567
_cell_length_b 15.618126
_cell_length_c 23.686678
_cell_angle_alpha 90.000000
_cell_angle_beta 90.000000
_cell_angle_gamma 90.000000
_cell_volume 2713.360876
_symmetry_space_group_name_H-M "P M N A"
_symmetry_group_IT_number 53
_symmetry_cell_setting 'orthorhombic'
loop_
_space_group_symop_operation_xyz
x,y,z
1/2-x,-y,1/2+z
x,-y,-z
1/2-x,y,1/2-z
-x,-y,-z
1/2+x,y,1/2-z
-x,y,z
1/2+x,-y,1/2+z
loop_
_atom_site_type_symbol
_atom_site_label
_atom_site_fract_x
_atom_site_fract_y
_atom_site_fract_z
Si Si1 0.781716 0.509159 0.684065
Si Si2 0.716944 0.996203 0.814239
Si Si3 0.279664 0.902773 0.993647
Si Si4 0.716696 0.686130 0.187282
Si Si5 0.221854 0.257051 0.426265
Si Si6 0.722378 0.558309 0.946029
Si Si7 0.221753 0.157134 0.615631
Si Si8 0.716692 0.197462 0.187233
O O1 0.750000 0.542289 0.750000
O O2 0.713027 0.410523 0.685380
O O3 0.722179 0.539784 0.620105
O O4 0.000000 0.513204 0.680244
O O5 0.750000 0.023010 0.750000
O O6 0.500000 0.990817 0.824491
O O7 0.787785 0.070539 0.854219
O O8 0.789934 0.899538 0.819309
O O9 0.500000 0.910290 0.987254
O O10 0.237080 0.852408 0.050558
O O11 0.217287 0.837013 0.946057
O O12 0.212635 0.000000 0.000000
O O13 0.750000 0.720904 0.250000
O O14 0.500000 0.678896 0.178229
O O15 0.788093 0.755805 0.143613
O O16 0.278391 0.343041 0.457399
O O17 0.278852 0.260776 0.361051
O O18 0.000000 0.256590 0.430451
O O19 0.500000 0.553241 0.945631
O O20 0.780320 0.500000 0.000000
O O21 0.000000 0.157124 0.620950
O O22 0.750000 0.227910 0.250000
O O23 0.500000 0.190463 0.180877
#
# Coordination Sequence:
#
# PCOD9420069 Si02
#       8
#     8   8   8   8   8   8   8   8
#     4   9  18  32  50  72  99 129 162 200 244 292
#     4   9  16  26  40  60  88 118 148 185 225 269
#     4   9  16  25  39  61  90 122 152 186 232 280
#     4   9  17  28  43  65  92 120 151 190 232 278
#     4   9  17  28  43  65  92 119 150 190 232 275
#     4   9  18  30  47  70  97 127 160 201 246 290
#     4   9  16  24  38  59  86 119 151 185 229 277
#     4   9  17  29  45  66  91 118 148 183 225 271
#
# _framework density 23.586986
#
# number of rings (size 3 to 8) (size 9 to 14) (size 15 to 20)
#    0.000    3.000    0.000    1.125    1.750    3.500 
#    0.000    0.000    0.000    0.375    0.000    1.750 
#    0.000    6.500    0.000    0.000    0.000    0.000 
#
# Total GULP energy -356683.843682 kJ/mol
# GULP energy per Si atom -5573.185058 kJ/mol
# Density = 2.353330 g / cm^3
# Si number density = 23.586986 Si / 1000 Ang^3
#
#
#
# Elastic Constant Matrix: (Units=GPa)
#
#
# Indices 1 2 3 4 5 6 
#
# 1 89.9123 0.0203 -3.2418 0.0000 0.0000 0.0000
# 2 0.0203 111.3171 70.6010 0.0000 0.0000 0.0000
# 3 -3.2418 70.6010 137.9567 0.0000 0.0000 0.0000
# 4 0.0000 0.0000 0.0000 42.7560 0.0000 0.0000
# 5 0.0000 0.0000 0.0000 0.0000 12.4124 0.0000
# 6 0.0000 0.0000 0.0000 0.0000 0.0000 66.3578
#
#
#
# Elastic Compliance Matrix: (Units=1/GPa)
#
#
# Indices 1 2 3 4 5 6 
#
# 1 0.011136 -0.000249 0.000389 0.000000 0.000000 0.000000
# 2 -0.000249 0.013306 -0.006815 0.000000 0.000000 0.000000
# 3 0.000389 -0.006815 0.010746 0.000000 0.000000 0.000000
# 4 0.000000 0.000000 0.000000 0.023389 0.000000 0.000000
# 5 0.000000 0.000000 0.000000 0.000000 0.080565 0.000000
# 6 0.000000 0.000000 0.000000 0.000000 0.000000 0.015070
#
#
# Mechanical properties :
#
#
# Convention : Reuss Voigt Hill
#
# Bulk Modulus (GPa) = 45.79298 52.66057 49.22678
# Shear Modulus (GPa) = 28.59758 42.42566 35.51162
#
# Velocity S-wave (km/s) = 3.48577 4.24570 3.88436
# Velocity P-wave (km/s) = 5.97139 6.81243 6.40573
#
# Compressibility (1/GPa) = 0.02183741
#
# Stress axis : x y z
#
# Youngs Moduli (GPa) = 89.79861 75.15479 93.06135
#
# Poissons Ratio (x) = 0.01869 -0.03620
# Poissons Ratio (y) = 0.02234 0.63424
# Poissons Ratio (z) = -0.03493 0.51220
#
# Static dielectric constant tensor:
#      x y z
#    x 1.804260 0.000000 0.000000 
#    y 0.000000 1.876770 0.000000 
#    z 0.000000 0.000000 1.908420 
# 
# From -- ./inp_files/34229.got.cif
#   From: 2010.05.17/outbox.cif.g08.bks.cpg/sg53_18_cif.got.tgz:34229.got - 2010.06.03 12:45:16.
