data_PCOD9420786
_publ_section_title
;
Structure prediction by ZEFSAII (Michael W. Deem and Ramdas Pophale) SiO2 
 PCOD9420786
Probable space group: P C C A
;
_chemical_formula_sum "Si O2"
_cell_formula_units_Z 36
_cell_length_a 11.100660
_cell_length_b 11.807740
_cell_length_c 11.647805
_cell_angle_alpha 90.000000
_cell_angle_beta 90.000000
_cell_angle_gamma 90.000000
_cell_volume 1526.720981
_symmetry_space_group_name_H-M "P C C A"
_symmetry_group_IT_number 54
_symmetry_cell_setting 'orthorhombic'
loop_
_space_group_symop_operation_xyz
x,y,z
1/2-x,-y,z
1/2+x,-y,1/2-z
-x,y,1/2-z
-x,-y,-z
1/2+x,y,-z
1/2-x,y,1/2+z
x,-y,1/2+z
loop_
_atom_site_type_symbol
_atom_site_label
_atom_site_fract_x
_atom_site_fract_y
_atom_site_fract_z
Si Si1 0.914076 0.811410 0.019091
Si Si2 0.345121 0.801816 0.733302
Si Si3 0.218634 0.374309 0.548251
Si Si4 0.904833 0.726914 0.651832
Si Si5 0.750000 0.000000 0.913773
O O1 0.836801 0.700607 0.981315
O O2 0.030279 0.811095 0.938078
O O3 0.833021 0.918713 0.988839
O O4 0.930171 0.806379 0.155372
O O5 0.349500 0.694679 0.647558
O O6 0.210975 0.783590 0.790638
O O7 0.331811 0.918399 0.664499
O O8 0.250000 0.500000 0.584511
O O9 0.141026 0.373391 0.430901
O O10 0.000000 0.695531 0.750000
#
# Coordination Sequence:
#
# PCOD9420786 Si02
#       5
#     8   8   8   8   4
#     4  10  22  41  63  96 131 176 223 273 342 394
#     4  10  22  42  64  93 132 175 221 285 335 396
#     4  10  23  41  67  93 129 174 219 280 337 395
#     4  11  21  44  66  94 135 177 224 271 337 413
#     4  10  18  38  64  92 130 176 216 274 340 392
#
# _framework density 23.579947000000001
#
# number of rings (size 3 to 8) (size 9 to 14) (size 15 to 20)
#    0.000    1.778    4.444    0.667    0.000    5.333 
#    0.000   24.444    0.000    0.000    0.000    0.000 
#    0.000    0.000    0.000    0.000    0.000    0.000 
#
# Total GULP energy -201552.559403 kJ/mol
# GULP energy per Si atom -5598.682206 kJ/mol
# Density = 2.352628 g / cm^3
# Si number density = 23.579947 Si / 1000 Ang^3
#
#
#
# Elastic Constant Matrix: (Units=GPa)
#
#
# Indices 1 2 3 4 5 6 
#
# 1 46.3956 18.9176 21.9394 0.0000 0.0000 0.0000
# 2 18.9176 161.2156 53.2779 0.0000 0.0000 0.0000
# 3 21.9394 53.2779 175.4420 0.0000 0.0000 0.0000
# 4 0.0000 0.0000 0.0000 18.2873 0.0000 0.0000
# 5 0.0000 0.0000 0.0000 0.0000 18.0988 0.0000
# 6 0.0000 0.0000 0.0000 0.0000 0.0000 14.0012
#
#
#
# Elastic Compliance Matrix: (Units=1/GPa)
#
#
# Indices 1 2 3 4 5 6 
#
# 1 0.023465 -0.001983 -0.002332 0.000000 0.000000 0.000000
# 2 -0.001983 0.007062 -0.001897 0.000000 0.000000 0.000000
# 3 -0.002332 -0.001897 0.006568 0.000000 0.000000 0.000000
# 4 0.000000 0.000000 0.000000 0.054683 0.000000 0.000000
# 5 0.000000 0.000000 0.000000 0.000000 0.055252 0.000000
# 6 0.000000 0.000000 0.000000 0.000000 0.000000 0.071422
#
#
# Mechanical properties :
#
#
# Convention : Reuss Voigt Hill
#
# Bulk Modulus (GPa) = 40.53249 63.48036 52.00642
# Shear Modulus (GPa) = 20.91179 29.33869 25.12524
#
# Velocity S-wave (km/s) = 2.98123 3.53118 3.26779
# Velocity P-wave (km/s) = 5.39231 6.60344 6.02837
#
# Compressibility (1/GPa) = 0.02467157
#
# Stress axis : x y z
#
# Youngs Moduli (GPa) = 42.61646 141.59574 152.26399
#
# Poissons Ratio (x) = 0.28075 0.35512
# Poissons Ratio (y) = 0.08450 0.28881
# Poissons Ratio (z) = 0.09939 0.26857
#
# Static dielectric constant tensor:
#      x y z
#    x 2.047780 0.000000 0.000000 
#    y 0.000000 1.787550 0.000000 
#    z 0.000000 0.000000 1.909880 
# 
# From -- ./inp_files/7392.got.cif
#   From: 2010.05.17/outbox.cif.g08.bks.cpg/sg54_4_cif.got.tgz:7392.got - 2010.06.03 13:09:01.
