data_PCOD9420574
_publ_section_title
;
Structure prediction by ZEFSAII (Michael W. Deem and Ramdas Pophale) SiO2 
 PCOD9420574
Probable space group: P C C A
;
_chemical_formula_sum "Si O2"
_cell_formula_units_Z 48
_cell_length_a 25.026841
_cell_length_b 9.668721
_cell_length_c 8.497151
_cell_angle_alpha 90.000000
_cell_angle_beta 90.000000
_cell_angle_gamma 90.000000
_cell_volume 2056.119723
_symmetry_space_group_name_H-M "P C C A"
_symmetry_group_IT_number 54
_symmetry_cell_setting 'orthorhombic'
loop_
_space_group_symop_operation_xyz
x,y,z
1/2-x,-y,z
1/2+x,-y,1/2-z
-x,y,1/2-z
-x,-y,-z
1/2+x,y,-z
1/2-x,y,1/2+z
x,-y,1/2+z
loop_
_atom_site_type_symbol
_atom_site_label
_atom_site_fract_x
_atom_site_fract_y
_atom_site_fract_z
Si Si1 0.168220 0.121712 0.563702
Si Si2 0.856618 0.166534 0.575944
Si Si3 0.970438 0.141581 0.461916
Si Si4 0.707278 0.381810 0.527556
Si Si5 0.572344 0.753548 0.147363
Si Si6 0.851362 0.417209 0.342757
O O1 0.162837 0.147943 0.747851
O O2 0.216638 0.221488 0.508819
O O3 0.118150 0.179570 0.459830
O O4 0.167623 0.960288 0.524600
O O5 0.921414 0.161414 0.578583
O O6 0.845320 0.309246 0.485543
O O7 0.942096 0.141742 0.290534
O O8 0.017083 0.256910 0.448184
O O9 0.000000 0.000000 0.500000
O O10 0.750000 0.500000 0.494309
O O11 0.657339 0.433412 0.418526
O O12 0.692801 0.393152 0.709708
O O13 0.595127 0.621841 0.244287
#
# Coordination Sequence:
#
# PCOD9420574 Si02
#       6
#     8   8   8   8   8   8
#     4  11  22  38  62  98 137 173 222 277 342 394
#     4  11  22  37  62  98 137 174 212 278 338 381
#     4  10  18  30  57  90 133 179 226 263 310 395
#     4  11  23  43  71  94 120 169 227 270 339 418
#     4   9  20  33  53  92 132 177 219 274 313 383
#     4  10  22  41  64  95 131 169 219 280 337 405
#
# _framework density 23.344944000000002
#
# number of rings (size 3 to 8) (size 9 to 14) (size 15 to 20)
#    0.000    1.667    1.667    4.500    2.333    0.667 
#    0.000    1.667    0.000   72.000    0.000    0.000 
#    0.000    0.000    0.000    0.000    0.000    0.000 
#
# Total GULP energy -268015.723411 kJ/mol
# GULP energy per Si atom -5583.660904 kJ/mol
# Density = 2.329181 g / cm^3
# Si number density = 23.344944 Si / 1000 Ang^3
#
#
#
# Elastic Constant Matrix: (Units=GPa)
#
#
# Indices 1 2 3 4 5 6 
#
# 1 68.1524 26.7033 4.5380 0.0000 0.0000 0.0000
# 2 26.7033 76.1820 -5.4617 0.0000 0.0000 0.0000
# 3 4.5380 -5.4617 91.8967 0.0000 0.0000 0.0000
# 4 0.0000 0.0000 0.0000 36.3202 0.0000 0.0000
# 5 0.0000 0.0000 0.0000 0.0000 23.5214 0.0000
# 6 0.0000 0.0000 0.0000 0.0000 0.0000 32.1004
#
#
#
# Elastic Compliance Matrix: (Units=1/GPa)
#
#
# Indices 1 2 3 4 5 6 
#
# 1 0.017142 -0.006095 -0.001209 0.000000 0.000000 0.000000
# 2 -0.006095 0.015350 0.001213 0.000000 0.000000 0.000000
# 3 -0.001209 0.001213 0.011014 0.000000 0.000000 0.000000
# 4 0.000000 0.000000 0.000000 0.027533 0.000000 0.000000
# 5 0.000000 0.000000 0.000000 0.000000 0.042514 0.000000
# 6 0.000000 0.000000 0.000000 0.000000 0.000000 0.031152
#
#
# Mechanical properties :
#
#
# Convention : Reuss Voigt Hill
#
# Bulk Modulus (GPa) = 31.92444 31.97669 31.95057
# Shear Modulus (GPa) = 29.88155 32.41850 31.15002
#
# Velocity S-wave (km/s) = 3.58159 3.73053 3.65682
# Velocity P-wave (km/s) = 5.55054 5.68182 5.61656
#
# Compressibility (1/GPa) = 0.03132396
#
# Stress axis : x y z
#
# Youngs Moduli (GPa) = 58.33740 65.14698 90.79699
#
# Poissons Ratio (x) = 0.39708 0.10975
# Poissons Ratio (y) = 0.35557 -0.11016
# Poissons Ratio (z) = 0.07052 -0.07904
#
# Static dielectric constant tensor:
#      x y z
#    x 2.011180 0.000000 0.000000 
#    y 0.000000 1.854640 0.000000 
#    z 0.000000 0.000000 1.850350 
# 
# From -- ./inp_files/5841.got.cif
#   From: 2010.05.17/outbox.cif.g08.bks.cpg/sg54_3_cif.got.tgz:5841.got - 2010.06.03 13:09:01.
