data_PCOD9420622
_publ_section_title
;
Structure prediction by ZEFSAII (Michael W. Deem and Ramdas Pophale) SiO2 
 PCOD9420622
Probable space group: P C C A
;
_chemical_formula_sum "Si O2"
_cell_formula_units_Z 56
_cell_length_a 5.657485
_cell_length_b 15.608735
_cell_length_c 31.057681
_cell_angle_alpha 90.000000
_cell_angle_beta 90.000000
_cell_angle_gamma 90.000000
_cell_volume 2742.585297
_symmetry_space_group_name_H-M "P C C A"
_symmetry_group_IT_number 54
_symmetry_cell_setting 'orthorhombic'
loop_
_space_group_symop_operation_xyz
x,y,z
1/2-x,-y,z
1/2+x,-y,1/2-z
-x,y,1/2-z
-x,-y,-z
1/2+x,y,-z
1/2-x,y,1/2+z
x,-y,1/2+z
loop_
_atom_site_type_symbol
_atom_site_label
_atom_site_fract_x
_atom_site_fract_y
_atom_site_fract_z
Si Si1 0.816717 0.316519 0.686199
Si Si2 0.405221 0.915402 0.891679
Si Si3 0.500000 0.798191 0.250000
Si Si4 0.696807 0.820500 0.825754
Si Si5 0.560029 0.693706 0.011251
Si Si6 0.250000 0.500000 0.774653
Si Si7 0.384287 0.889034 0.520636
Si Si8 0.427265 0.756762 0.394299
O O1 0.655102 0.262469 0.719155
O O2 0.812565 0.414662 0.699005
O O3 0.717277 0.303148 0.638313
O O4 0.065230 0.267138 0.687878
O O5 0.515789 0.888550 0.845870
O O6 0.596038 0.916308 0.929771
O O7 0.235764 0.837537 0.905532
O O8 0.250000 0.000000 0.889318
O O9 0.341032 0.850138 0.216013
O O10 0.861273 0.793904 0.865671
O O11 0.511828 0.711701 0.061465
O O12 0.820396 0.651827 0.007025
O O13 0.599517 0.785492 0.986692
O O14 0.500000 0.481447 0.750000
O O15 0.130771 0.917399 0.501902
#
# Coordination Sequence:
#
# PCOD9420622 Si02
#       8
#     8   8   4   8   8   4   8   8
#     4  10  22  37  63  95 125 159 189 235 307 376
#     4  11  23  36  53  84 119 161 209 273 326 370
#     4  10  18  38  60  90 106 152 194 238 302 382
#     4  10  21  37  59  85 115 154 206 251 309 374
#     4  10  18  32  55  80 119 159 212 256 303 353
#     4  12  24  40  66 102 142 156 186 234 310 398
#     4  10  19  34  53  79 119 160 204 251 322 375
#     4  10  21  37  56  87 119 163 211 254 304 372
#
# _framework density 20.418689000000001
#
# number of rings (size 3 to 8) (size 9 to 14) (size 15 to 20)
#    0.000    1.714    3.571    3.000    4.000    1.143 
#    0.000    0.000    0.000    0.000  133.714    1.000 
#    0.000    0.000    0.000    0.000    0.000    0.000 
#
# Total GULP energy -312638.206042 kJ/mol
# GULP energy per Si atom -5582.825108 kJ/mol
# Density = 2.037222 g / cm^3
# Si number density = 20.418689 Si / 1000 Ang^3
#
#
#
# Elastic Constant Matrix: (Units=GPa)
#
#
# Indices 1 2 3 4 5 6 
#
# 1 117.5661 11.8688 29.2621 0.0000 0.0000 0.0000
# 2 11.8688 47.2704 23.0550 0.0000 0.0000 0.0000
# 3 29.2621 23.0550 101.9889 0.0000 0.0000 0.0000
# 4 0.0000 0.0000 0.0000 -99.6493 0.0000 0.0000
# 5 0.0000 0.0000 0.0000 0.0000 39.4255 0.0000
# 6 0.0000 0.0000 0.0000 0.0000 0.0000 3.2942
#
#
#
# Elastic Compliance Matrix: (Units=1/GPa)
#
#
# Indices 1 2 3 4 5 6 
#
# 1 0.009215 -0.001151 -0.002384 0.000000 0.000000 0.000000
# 2 -0.001151 0.023920 -0.005077 0.000000 0.000000 0.000000
# 3 -0.002384 -0.005077 0.011637 0.000000 0.000000 0.000000
# 4 0.000000 0.000000 0.000000 -0.010035 0.000000 0.000000
# 5 0.000000 0.000000 0.000000 0.000000 0.025364 0.000000
# 6 0.000000 0.000000 0.000000 0.000000 0.000000 0.303565
#
#
# Mechanical properties :
#
#
# Convention : Reuss Voigt Hill
#
# Bulk Modulus (GPa) = 36.29998 43.91080 40.10539
# Shear Modulus (GPa) = 12.81813 2.12338 7.47075
#
# Velocity S-wave (km/s) = 2.50824 1.02087 1.91487
# Velocity P-wave (km/s) = 5.11906 4.78972 4.95713
#
# Compressibility (1/GPa) = 0.02754822
#
# Stress axis : x y z
#
# Youngs Moduli (GPa) = 108.51406 41.80589 85.93575
#
# Poissons Ratio (x) = 0.04813 0.20485
# Poissons Ratio (y) = 0.12492 0.43629
# Poissons Ratio (z) = 0.25868 0.21225
#
# Static dielectric constant tensor:
#      x y z
#    x 1.818370 0.000000 0.000000 
#    y 0.000000 1.691970 0.000000 
#    z 0.000000 0.000000 1.751260 
# 
# From -- ./inp_files/27227.got.cif
#   From: 2010.05.17/outbox.cif.g08.bks.cpg/sg54_14_cif.got.tgz:27227.got - 2010.06.03 13:09:01.
