data_PCOD9420032
_publ_section_title
;
Structure prediction by ZEFSAII (Michael W. Deem and Ramdas Pophale) SiO2 
 PCOD9420032
Probable space group: P M N A
;
_chemical_formula_sum "Si O2"
_cell_formula_units_Z 18
_cell_length_a 27.334595
_cell_length_b 5.460206
_cell_length_c 5.034036
_cell_angle_alpha 90.000000
_cell_angle_beta 90.000000
_cell_angle_gamma 90.000000
_cell_volume 751.342557
_symmetry_space_group_name_H-M "P M N A"
_symmetry_group_IT_number 53
_symmetry_cell_setting 'orthorhombic'
loop_
_space_group_symop_operation_xyz
x,y,z
1/2-x,-y,1/2+z
x,-y,-z
1/2-x,y,1/2-z
-x,-y,-z
1/2+x,y,1/2-z
-x,y,z
1/2+x,-y,1/2+z
loop_
_atom_site_type_symbol
_atom_site_label
_atom_site_fract_x
_atom_site_fract_y
_atom_site_fract_z
Si Si1 0.000000 0.500000 0.500000
Si Si2 0.831539 0.500000 0.000000
Si Si3 0.750000 0.172744 0.750000
Si Si4 0.914491 0.828365 0.752255
O O1 0.957291 0.644413 0.670760
O O2 0.796273 0.658140 0.186276
O O3 0.866705 0.320022 0.162278
O O4 0.759404 0.000000 0.500000
O O5 0.904969 0.000000 0.500000
O O6 0.929502 0.000000 0.000000
#
# Coordination Sequence:
#
# PCOD9420032 Si02
#       4
#     2   4   4   8
#     4  12  28  52  80 114 156 204 256 318 384 456
#     4  12  30  52  80 116 156 204 258 318 384 458
#     4  12  30  52  78 114 154 202 256 316 384 458
#     4  12  29  51  79 115 154 202 257 317 383 457
#
# _framework density 23.957114000000001
#
# number of rings (size 3 to 8) (size 9 to 14) (size 15 to 20)
#    0.000    0.000    0.000    6.667    0.000   32.889 
#    0.000    0.000    0.000    0.000    0.000    0.000 
#    0.000    0.000    0.000    0.000    0.000    0.000 
#
# Total GULP energy -100677.151612 kJ/mol
# GULP energy per Si atom -5593.175090 kJ/mol
# Density = 2.390259 g / cm^3
# Si number density = 23.957114 Si / 1000 Ang^3
#
#
#
# Elastic Constant Matrix: (Units=GPa)
#
#
# Indices 1 2 3 4 5 6 
#
# 1 242.7894 109.5978 96.8604 0.0000 0.0000 0.0000
# 2 109.5978 148.4623 121.0692 0.0000 0.0000 0.0000
# 3 96.8604 121.0692 217.1062 0.0000 0.0000 0.0000
# 4 0.0000 0.0000 0.0000 18.7752 0.0000 0.0000
# 5 0.0000 0.0000 0.0000 0.0000 45.6459 0.0000
# 6 0.0000 0.0000 0.0000 0.0000 0.0000 -41.0431
#
#
#
# Elastic Compliance Matrix: (Units=1/GPa)
#
#
# Indices 1 2 3 4 5 6 
#
# 1 0.006195 -0.004254 -0.000392 0.000000 0.000000 0.000000
# 2 -0.004254 0.015275 -0.006620 0.000000 0.000000 0.000000
# 3 -0.000392 -0.006620 0.008472 0.000000 0.000000 0.000000
# 4 0.000000 0.000000 0.000000 0.053262 0.000000 0.000000
# 5 0.000000 0.000000 0.000000 0.000000 0.021908 0.000000
# 6 0.000000 0.000000 0.000000 0.000000 0.000000 -0.024365
#
#
# Mechanical properties :
#
#
# Convention : Reuss Voigt Hill
#
# Bulk Modulus (GPa) = 134.93667 140.37920 137.65794
# Shear Modulus (GPa) = 47.28152 23.39763 35.33958
#
# Velocity S-wave (km/s) = 4.44733 3.12852 3.84489
# Velocity P-wave (km/s) = 9.10045 8.47192 8.79180
#
# Compressibility (1/GPa) = 0.00741088
#
# Stress axis : x y z
#
# Youngs Moduli (GPa) = 161.40882 65.46747 118.02954
#
# Poissons Ratio (x) = 0.27851 0.04624
# Poissons Ratio (y) = 0.68666 0.78136
# Poissons Ratio (z) = 0.06323 0.43340
#
# Static dielectric constant tensor:
#      x y z
#    x 1.826110 0.000000 0.000000 
#    y 0.000000 1.916950 0.000000 
#    z 0.000000 0.000000 1.877670 
# 
# From -- ./inp_files/3921.got.cif
#   From: 2010.05.17/outbox.cif.g08.bks.cpg/sg53_2_cif.got.tgz:3921.got - 2010.06.03 12:45:16.
