data_PCOD9420274
_publ_section_title
;
Structure prediction by ZEFSAII (Michael W. Deem and Ramdas Pophale) SiO2 
 PCOD9420274
Probable space group: P M N A
;
_chemical_formula_sum "Si O2"
_cell_formula_units_Z 48
_cell_length_a 9.000000
_cell_length_b 9.000000
_cell_length_c 30.000000
_cell_angle_alpha 90.000000
_cell_angle_beta 90.000000
_cell_angle_gamma 90.000000
_cell_volume 2430.000000
_symmetry_space_group_name_H-M "P M N A"
_symmetry_group_IT_number 53
_symmetry_cell_setting 'orthorhombic'
loop_
_space_group_symop_operation_xyz
x,y,z
1/2-x,-y,1/2+z
x,-y,-z
1/2-x,y,1/2-z
-x,-y,-z
1/2+x,y,1/2-z
-x,y,z
1/2+x,-y,1/2+z
loop_
_atom_site_type_symbol
_atom_site_label
_atom_site_fract_x
_atom_site_fract_y
_atom_site_fract_z
Si Si1 0.821604 0.023508 0.115947
Si Si2 0.823223 0.520928 0.295943
Si Si3 0.835107 0.632381 0.034263
Si Si4 0.821134 0.170580 0.297463
Si Si5 0.177349 0.700810 0.382941
Si Si6 0.666101 0.147260 0.029141
O O1 0.761442 0.855965 0.111278
O O2 0.000000 0.030485 0.114925
O O3 0.756221 0.085146 0.162226
O O4 0.749756 0.114791 0.075148
O O5 0.750000 0.569355 0.250000
O O6 0.789803 0.346810 0.303347
O O7 0.777553 0.620680 0.337468
O O8 0.000000 0.532845 0.291579
O O9 0.727915 0.601329 0.075533
O O10 0.000000 0.670820 0.050877
O O11 0.846239 0.500000 0.000000
O O12 0.764602 0.757051 0.003735
O O13 0.750000 0.126677 0.250000
O O14 0.000000 0.148569 0.297463
O O15 0.000000 0.724608 0.383452
O O16 0.500000 0.208831 0.037541
O O17 0.648377 0.000000 0.000000
#
# Coordination Sequence:
#
# PCOD9420274 Si02
#       6
#     8   8   8   8   8   8
#     4  12  25  40  62  92 124 163 204 254 309 363
#     4   9  21  40  64  91 120 156 199 247 302 359
#     4  11  25  42  61  92 126 160 203 252 304 364
#     4  10  21  41  65  93 124 159 202 252 304 367
#     4  11  23  41  62  90 123 162 207 252 302 365
#     4  11  23  41  65  90 120 163 206 250 303 362
#
# _framework density 19.753086
#
# number of rings (size 3 to 8) (size 9 to 14) (size 15 to 20)
#    0.000    1.333    1.667    3.500    2.333    4.667 
#    0.000    1.667    0.000    0.000    0.000    0.000 
#    0.000    0.000    0.000    0.000    0.000    0.000 
#
# Total GULP energy -268025.610993 kJ/mol
# GULP energy per Si atom -5583.866896 kJ/mol
# Density = 1.970813 g / cm^3
# Si number density = 19.753086 Si / 1000 Ang^3
#
#
#
# Elastic Constant Matrix: (Units=GPa)
#
#
# Indices 1 2 3 4 5 6 
#
# 1 -37.3509 -24.3558 -30.6890 0.0000 0.0000 0.0000
# 2 -24.3558 6.7827 -6.2028 0.0000 0.0000 0.0000
# 3 -30.6890 -6.2028 98.2862 0.0000 0.0000 0.0000
# 4 0.0000 0.0000 0.0000 23.9929 0.0000 0.0000
# 5 0.0000 0.0000 0.0000 0.0000 38.1395 0.0000
# 6 0.0000 0.0000 0.0000 0.0000 0.0000 59.6323
#
#
#
# Elastic Compliance Matrix: (Units=1/GPa)
#
#
# Indices 1 2 3 4 5 6 
#
# 1 -0.006448 -0.026524 -0.003687 0.000000 0.000000 0.000000
# 2 -0.026524 0.047347 -0.005294 0.000000 0.000000 0.000000
# 3 -0.003687 -0.005294 0.008689 0.000000 0.000000 0.000000
# 4 0.000000 0.000000 0.000000 0.041679 0.000000 0.000000
# 5 0.000000 0.000000 0.000000 0.000000 0.026220 0.000000
# 6 0.000000 0.000000 0.000000 0.000000 0.000000 0.016769
#
#
# Mechanical properties :
#
#
# Convention : Reuss Voigt Hill
#
# Bulk Modulus (GPa) = -46.67994 -6.08637 -26.38315
# Shear Modulus (GPa) = 25.23643 32.95065 29.09354
#
# Velocity S-wave (km/s) = 3.57822 4.08870 3.84195
# Velocity P-wave (km/s) = 2.57127 4.38202 2.50904
#
# Compressibility (1/GPa) = -0.02142248
#
# Stress axis : x y z
#
# Youngs Moduli (GPa) = -155.09636 21.12068 115.08818
#
# Poissons Ratio (x) = 0.56021 0.42435
# Poissons Ratio (y) = -4.11383 0.60927
# Poissons Ratio (z) = -0.57186 0.11181
#
# Static dielectric constant tensor:
#      x y z
#    x 1.724490 0.000000 0.000000 
#    y 0.000000 1.718410 0.000000 
#    z 0.000000 0.000000 1.676920 
# 
# From -- ./inp_files/37708.got.cif
#   From: 2010.05.17/outbox.ucp.g08.bks.cvg/sg53_19_cif.got.tgz:37708.got - 2010.06.11 16:32:34.
