data_PCOD9420267
_publ_section_title
;
Structure prediction by ZEFSAII (Michael W. Deem and Ramdas Pophale) SiO2 
 PCOD9420267
Probable space group: P M N A
;
_chemical_formula_sum "Si O2"
_cell_formula_units_Z 58
_cell_length_a 24.000000
_cell_length_b 15.000000
_cell_length_c 9.000000
_cell_angle_alpha 90.000000
_cell_angle_beta 90.000000
_cell_angle_gamma 90.000000
_cell_volume 3240.000000
_symmetry_space_group_name_H-M "P M N A"
_symmetry_group_IT_number 53
_symmetry_cell_setting 'orthorhombic'
loop_
_space_group_symop_operation_xyz
x,y,z
1/2-x,-y,1/2+z
x,-y,-z
1/2-x,y,1/2-z
-x,-y,-z
1/2+x,y,1/2-z
-x,y,z
1/2+x,-y,1/2+z
loop_
_atom_site_type_symbol
_atom_site_label
_atom_site_fract_x
_atom_site_fract_y
_atom_site_fract_z
Si Si1 0.789598 0.747128 0.492326
Si Si2 0.122892 0.704384 0.253759
Si Si3 0.500000 0.000000 0.500000
Si Si4 0.133261 0.714201 0.764123
Si Si5 0.197191 0.605454 0.014085
Si Si6 0.780156 0.087829 0.909346
Si Si7 0.902742 0.848540 0.021807
Si Si8 0.933684 0.602379 0.521064
O O1 0.831737 0.756326 0.354382
O O2 0.823592 0.752851 0.644043
O O3 0.757197 0.653493 0.476296
O O4 0.743996 0.823405 0.484591
O O5 0.089523 0.771463 0.146936
O O6 0.084854 0.653953 0.372403
O O7 0.158828 0.636968 0.151907
O O8 0.548797 0.079276 0.506820
O O9 0.166559 0.647673 0.871724
O O10 0.091494 0.655088 0.662682
O O11 0.107935 0.792552 0.868343
O O12 0.201946 0.500000 0.000000
O O13 0.750000 0.081647 0.750000
O O14 0.846514 0.101820 0.921372
O O15 0.764995 0.000000 0.000000
O O16 0.913971 0.500000 0.500000
O O17 0.000000 0.601365 0.535395
#
# Coordination Sequence:
#
# PCOD9420267 Si02
#       8
#     8   8   2   8   8   8   8   8
#     4  11  21  38  59  90 130 162 205 251 316 394
#     4  10  21  40  61  83 130 167 202 258 322 375
#     4  12  28  44  68  94 122 156 228 272 332 384
#     4  10  23  38  62  88 129 167 206 259 324 376
#     4  11  21  33  57  94 132 170 209 248 305 382
#     4  12  24  40  65  94 124 164 210 266 325 390
#     4  11  24  43  65  91 124 166 211 269 320 388
#     4  10  22  40  62  88 119 165 221 264 306 372
#
# _framework density 17.901235
#
# number of rings (size 3 to 8) (size 9 to 14) (size 15 to 20)
#    0.000    1.241    4.828    1.655    3.862    4.414 
#    0.000    0.000    0.000    7.448    0.000    0.000 
#    0.000    0.000    0.000    0.000    0.000    0.000 
#
# Total GULP energy -323210.441218 kJ/mol
# GULP energy per Si atom -5572.593814 kJ/mol
# Density = 1.786049 g / cm^3
# Si number density = 17.901235 Si / 1000 Ang^3
#
#
#
# Elastic Constant Matrix: (Units=GPa)
#
#
# Indices 1 2 3 4 5 6 
#
# 1 105.5999 53.8995 45.8918 0.0000 0.0000 0.0000
# 2 53.8995 136.1781 49.8722 0.0000 0.0000 0.0000
# 3 45.8918 49.8722 123.5975 0.0000 0.0000 0.0000
# 4 0.0000 0.0000 0.0000 17.5251 0.0000 0.0000
# 5 0.0000 0.0000 0.0000 0.0000 5.3630 0.0000
# 6 0.0000 0.0000 0.0000 0.0000 0.0000 -37.4456
#
#
#
# Elastic Compliance Matrix: (Units=1/GPa)
#
#
# Indices 1 2 3 4 5 6 
#
# 1 0.012858 -0.003920 -0.003192 0.000000 0.000000 0.000000
# 2 -0.003920 0.009812 -0.002504 0.000000 0.000000 0.000000
# 3 -0.003192 -0.002504 0.010286 0.000000 0.000000 0.000000
# 4 0.000000 0.000000 0.000000 0.057061 0.000000 0.000000
# 5 0.000000 0.000000 0.000000 0.000000 0.186463 0.000000
# 6 0.000000 0.000000 0.000000 0.000000 0.000000 -0.026705
#
#
# Mechanical properties :
#
#
# Convention : Reuss Voigt Hill
#
# Bulk Modulus (GPa) = 72.86522 73.85582 73.36052
# Shear Modulus (GPa) = 18.27614 11.46931 14.87273
#
# Velocity S-wave (km/s) = 3.19869 2.53395 2.88552
# Velocity P-wave (km/s) = 7.37797 7.06457 7.22297
#
# Compressibility (1/GPa) = 0.01372397
#
# Stress axis : x y z
#
# Youngs Moduli (GPa) = 77.77329 101.91848 97.21647
#
# Poissons Ratio (x) = 0.39952 0.31035
# Poissons Ratio (y) = 0.30487 0.24339
# Poissons Ratio (z) = 0.24828 0.25516
#
# Static dielectric constant tensor:
#      x y z
#    x 1.612920 0.000000 0.000000 
#    y 0.000000 1.636680 0.000000 
#    z 0.000000 0.000000 1.622610 
# 
# From -- ./inp_files/11884.got.cif
#   From: 2010.05.17/outbox.ucp.g08.bks.cvg/sg53_6_cif.got.tgz:11884.got - 2010.06.11 16:32:34.
