data_PCOD9420132
_publ_section_title
;
Structure prediction by ZEFSAII (Michael W. Deem and Ramdas Pophale) SiO2 
 PCOD9420132
Probable space group: P M N A
;
_chemical_formula_sum "Si O2"
_cell_formula_units_Z 56
_cell_length_a 15.000000
_cell_length_b 12.000000
_cell_length_c 15.000000
_cell_angle_alpha 90.000000
_cell_angle_beta 90.000000
_cell_angle_gamma 90.000000
_cell_volume 2700.000000
_symmetry_space_group_name_H-M "P M N A"
_symmetry_group_IT_number 53
_symmetry_cell_setting 'orthorhombic'
loop_
_space_group_symop_operation_xyz
x,y,z
1/2-x,-y,1/2+z
x,-y,-z
1/2-x,y,1/2-z
-x,-y,-z
1/2+x,y,1/2-z
-x,y,z
1/2+x,-y,1/2+z
loop_
_atom_site_type_symbol
_atom_site_label
_atom_site_fract_x
_atom_site_fract_y
_atom_site_fract_z
Si Si1 0.897813 0.749817 0.890687
Si Si2 0.598885 0.674833 0.250191
Si Si3 0.348257 0.879797 0.786879
Si Si4 0.644206 0.424821 0.933134
Si Si5 0.788837 0.198657 0.477872
Si Si6 0.603879 0.113775 0.860090
Si Si7 0.303809 0.472429 0.336921
O O1 0.891774 0.811503 0.794268
O O2 0.817731 0.797271 0.954769
O O3 0.871574 0.620790 0.870868
O O4 0.000000 0.759459 0.923883
O O5 0.500000 0.690375 0.287383
O O6 0.596689 0.606116 0.158054
O O7 0.632862 0.794034 0.214105
O O8 0.655395 0.593793 0.312977
O O9 0.250000 0.907443 0.750000
O O10 0.334806 0.816476 0.881127
O O11 0.394995 0.994435 0.813456
O O12 0.727747 0.501049 0.906493
O O13 0.590284 0.500000 0.000000
O O14 0.678969 0.313355 0.978658
O O15 0.829462 0.115945 0.554296
O O16 0.500000 0.140791 0.886208
O O17 0.250000 0.428732 0.250000
#
# Coordination Sequence:
#
# PCOD9420132 Si02
#       7
#     8   8   8   8   8   8   8
#     4  11  22  37  58  86 120 156 196 239 289 354
#     4   9  20  35  54  82 112 146 190 241 290 345
#     4  10  22  37  61  86 117 153 193 244 298 349
#     4  10  19  33  56  77 113 154 186 231 287 346
#     4  10  21  38  56  87 119 149 195 241 293 346
#     4  10  21  39  62  89 118 150 198 249 297 352
#     4  10  19  35  57  82 115 155 195 239 289 350
#
# _framework density 20.740741
#
# number of rings (size 3 to 8) (size 9 to 14) (size 15 to 20)
#    0.000    2.000    1.429    2.571    2.000    4.857 
#    0.000    2.143    0.000    7.714    0.000    0.000 
#    0.000    0.000    0.000    0.000    0.000    0.000 
#
# Total GULP energy -312149.044590 kJ/mol
# GULP energy per Si atom -5574.090082 kJ/mol
# Density = 2.069353 g / cm^3
# Si number density = 20.740741 Si / 1000 Ang^3
#
#
#
# Elastic Constant Matrix: (Units=GPa)
#
#
# Indices 1 2 3 4 5 6 
#
# 1 121.9470 26.3606 29.1630 0.0000 0.0000 0.0000
# 2 26.3606 70.6628 20.6113 0.0000 0.0000 0.0000
# 3 29.1630 20.6113 57.5175 0.0000 0.0000 0.0000
# 4 0.0000 0.0000 0.0000 31.3033 0.0000 0.0000
# 5 0.0000 0.0000 0.0000 0.0000 -14.8578 0.0000
# 6 0.0000 0.0000 0.0000 0.0000 0.0000 42.5193
#
#
#
# Elastic Compliance Matrix: (Units=1/GPa)
#
#
# Indices 1 2 3 4 5 6 
#
# 1 0.009694 -0.002437 -0.004042 0.000000 0.000000 0.000000
# 2 -0.002437 0.016416 -0.004647 0.000000 0.000000 0.000000
# 3 -0.004042 -0.004647 0.021100 0.000000 0.000000 0.000000
# 4 0.000000 0.000000 0.000000 0.031945 0.000000 0.000000
# 5 0.000000 0.000000 0.000000 0.000000 -0.067305 0.000000
# 6 0.000000 0.000000 0.000000 0.000000 0.000000 0.023519
#
#
# Mechanical properties :
#
#
# Convention : Reuss Voigt Hill
#
# Bulk Modulus (GPa) = 40.06609 44.71078 42.38844
# Shear Modulus (GPa) = 75.82510 23.39246 49.60878
#
# Velocity S-wave (km/s) = 6.05292 3.36199 4.89596
# Velocity P-wave (km/s) = 8.25894 6.05594 7.24170
#
# Compressibility (1/GPa) = 0.02495876
#
# Stress axis : x y z
#
# Youngs Moduli (GPa) = 103.16012 60.91459 47.39236
#
# Poissons Ratio (x) = 0.14847 0.19154
# Poissons Ratio (y) = 0.25144 0.22023
# Poissons Ratio (z) = 0.41693 0.28307
#
# Static dielectric constant tensor:
#      x y z
#    x 1.756910 0.000000 0.000000 
#    y 0.000000 1.780490 0.000000 
#    z 0.000000 0.000000 1.751060 
# 
# From -- ./inp_files/22766.got.cif
#   From: 2010.05.17/outbox.ucp.g08.bks.cvg/sg53_12_cif.got.tgz:22766.got - 2010.06.11 16:32:34.
