data_PCOD9420754
_publ_section_title
;
Structure prediction by ZEFSAII (Michael W. Deem and Ramdas Pophale) SiO2 
 PCOD9420754
Probable space group: P C C A
;
_chemical_formula_sum "Si O2"
_cell_formula_units_Z 32
_cell_length_a 5.731853
_cell_length_b 11.087818
_cell_length_c 22.468444
_cell_angle_alpha 90.000000
_cell_angle_beta 90.000000
_cell_angle_gamma 90.000000
_cell_volume 1427.953713
_symmetry_space_group_name_H-M "P C C A"
_symmetry_group_IT_number 54
_symmetry_cell_setting 'orthorhombic'
loop_
_space_group_symop_operation_xyz
x,y,z
1/2-x,-y,z
1/2+x,-y,1/2-z
-x,y,1/2-z
-x,-y,-z
1/2+x,y,-z
1/2-x,y,1/2+z
x,-y,1/2+z
loop_
_atom_site_type_symbol
_atom_site_label
_atom_site_fract_x
_atom_site_fract_y
_atom_site_fract_z
Si Si1 0.000000 0.928105 0.750000
Si Si2 0.750000 0.500000 0.356892
Si Si3 0.473539 0.258517 0.644234
Si Si4 0.140563 0.381696 0.938447
Si Si5 0.626521 0.841584 0.479177
O O1 0.026104 0.840657 0.806789
O O2 0.750000 0.000000 0.755365
O O3 0.642766 0.620516 0.326993
O O4 0.561434 0.437508 0.398902
O O5 0.693155 0.312570 0.608414
O O6 0.337386 0.187734 0.590759
O O7 0.250000 0.500000 0.967473
O O8 0.084119 0.286877 0.988591
O O9 0.367288 0.894250 0.493362
#
# Coordination Sequence:
#
# PCOD9420754 Si02
#       5
#     4   4   8   8   8
#     4  12  32  56  80  88 124 196 260 302 328 396
#     4  10  18  36  66 106 152 174 208 276 358 438
#     4  10  23  42  67 102 137 180 233 284 348 407
#     4   9  19  32  60 103 151 183 206 257 350 444
#     4  10  19  32  60  97 145 175 210 259 334 433
#
# _framework density 22.409690999999999
#
# number of rings (size 3 to 8) (size 9 to 14) (size 15 to 20)
#    0.000    2.000    2.500    0.000    5.250    3.000 
#    6.750    0.000    0.000   18.000    0.000    0.000 
#    0.000    0.000    0.000    0.000    0.000    0.000 
#
# Total GULP energy -178358.522069 kJ/mol
# GULP energy per Si atom -5573.703815 kJ/mol
# Density = 2.235869 g / cm^3
# Si number density = 22.409691 Si / 1000 Ang^3
#
#
#
# Elastic Constant Matrix: (Units=GPa)
#
#
# Indices 1 2 3 4 5 6 
#
# 1 117.3694 70.1093 12.9268 0.0000 0.0000 0.0000
# 2 70.1093 137.5581 54.6259 0.0000 0.0000 0.0000
# 3 12.9268 54.6259 86.4511 0.0000 0.0000 0.0000
# 4 0.0000 0.0000 0.0000 57.3285 0.0000 0.0000
# 5 0.0000 0.0000 0.0000 0.0000 27.2797 0.0000
# 6 0.0000 0.0000 0.0000 0.0000 0.0000 49.6970
#
#
#
# Elastic Compliance Matrix: (Units=1/GPa)
#
#
# Indices 1 2 3 4 5 6 
#
# 1 0.012787 -0.007687 0.002945 0.000000 0.000000 0.000000
# 2 -0.007687 0.014326 -0.007903 0.000000 0.000000 0.000000
# 3 0.002945 -0.007903 0.016120 0.000000 0.000000 0.000000
# 4 0.000000 0.000000 0.000000 0.017443 0.000000 0.000000
# 5 0.000000 0.000000 0.000000 0.000000 0.036657 0.000000
# 6 0.000000 0.000000 0.000000 0.000000 0.000000 0.020122
#
#
# Mechanical properties :
#
#
# Convention : Reuss Voigt Hill
#
# Bulk Modulus (GPa) = 55.72722 68.52249 62.12485
# Shear Modulus (GPa) = 33.61884 40.44216 37.03050
#
# Velocity S-wave (km/s) = 3.87743 4.25275 4.06942
# Velocity P-wave (km/s) = 6.70578 7.39987 7.06136
#
# Compressibility (1/GPa) = 0.01794455
#
# Stress axis : x y z
#
# Youngs Moduli (GPa) = 78.20182 69.80501 62.03378
#
# Poissons Ratio (x) = 0.53658 -0.18269
# Poissons Ratio (y) = 0.60113 0.49022
# Poissons Ratio (z) = -0.23031 0.55164
#
# Static dielectric constant tensor:
#      x y z
#    x 2.010560 0.000000 0.000000 
#    y 0.000000 1.870990 0.000000 
#    z 0.000000 0.000000 1.771260 
# 
# From -- ./inp_files/19527.got.cif
#   From: 2010.05.17/outbox.cif.g08.bks.cpg/sg54_10_cif.got.tgz:19527.got - 2010.06.03 13:09:01.
