data_PCOD9420041
_publ_section_title
;
Structure prediction by ZEFSAII (Michael W. Deem and Ramdas Pophale) SiO2 
 PCOD9420041
Probable space group: P M N A
;
_chemical_formula_sum "Si O2"
_cell_formula_units_Z 64
_cell_length_a 7.281558
_cell_length_b 11.454064
_cell_length_c 35.424500
_cell_angle_alpha 90.000000
_cell_angle_beta 90.000000
_cell_angle_gamma 90.000000
_cell_volume 2954.524854
_symmetry_space_group_name_H-M "P M N A"
_symmetry_group_IT_number 53
_symmetry_cell_setting 'orthorhombic'
loop_
_space_group_symop_operation_xyz
x,y,z
1/2-x,-y,1/2+z
x,-y,-z
1/2-x,y,1/2-z
-x,-y,-z
1/2+x,y,1/2-z
-x,y,z
1/2+x,-y,1/2+z
loop_
_atom_site_type_symbol
_atom_site_label
_atom_site_fract_x
_atom_site_fract_y
_atom_site_fract_z
Si Si1 0.223332 0.707468 0.521116
Si Si2 0.718631 0.964523 0.792470
Si Si3 0.281045 0.768962 0.207209
Si Si4 0.724091 0.345374 0.869658
Si Si5 0.777036 0.168624 0.364781
Si Si6 0.277646 0.049535 0.059094
Si Si7 0.223887 0.788092 0.443526
Si Si8 0.724046 0.591746 0.903364
O O1 0.278916 0.836741 0.535652
O O2 0.280406 0.702417 0.477563
O O3 0.282067 0.616558 0.553324
O O4 0.000000 0.703431 0.521327
O O5 0.750000 0.922494 0.750000
O O6 0.500000 0.972212 0.797934
O O7 0.789935 0.097554 0.795278
O O8 0.788473 0.878863 0.824814
O O9 0.250000 0.725834 0.250000
O O10 0.500000 0.775334 0.202942
O O11 0.213952 0.692502 0.172009
O O12 0.500000 0.346804 0.869058
O O13 0.779506 0.254322 0.902221
O O14 0.783520 0.472038 0.884319
O O15 0.728758 0.077407 0.397686
O O16 0.718379 0.296063 0.378750
O O17 0.000000 0.173577 0.364033
O O18 0.500000 0.048342 0.056221
O O19 0.215954 0.920603 0.048335
O O20 0.000000 0.788918 0.443507
O O21 0.500000 0.590248 0.903920
#
# Coordination Sequence:
#
# PCOD9420041 Si02
#       8
#     8   8   8   8   8   8   8   8
#     4   8  13  19  27  41  63  93 126 157 189 224
#     4   9  16  26  41  60  79  98 123 157 196 236
#     4   9  17  29  44  61  80 102 128 159 196 234
#     4   9  16  24  34  49  70  98 131 160 188 229
#     4   8  13  22  35  48  65  92 124 156 189 225
#     4   8  12  18  28  42  61  87 122 159 190 224
#     4   9  14  18  27  44  66  93 124 157 190 226
#     4   8  14  23  32  44  66  97 130 159 186 222
#
# _framework density 21.66169
#
# number of rings (size 3 to 8) (size 9 to 14) (size 15 to 20)
#    0.000    3.500    0.000    2.625    0.000    5.000 
#    0.000    3.125    0.000    0.000    0.000    0.000 
#    0.000    0.000    0.000    6.750    0.000   70.500 
#
# Total GULP energy -357020.694208 kJ/mol
# GULP energy per Si atom -5578.448347 kJ/mol
# Density = 2.161239 g / cm^3
# Si number density = 21.661690 Si / 1000 Ang^3
#
#
#
# Elastic Constant Matrix: (Units=GPa)
#
#
# Indices 1 2 3 4 5 6 
#
# 1 91.5909 -2.6914 -4.1807 0.0000 0.0000 0.0000
# 2 -2.6914 31.2087 15.5700 0.0000 0.0000 0.0000
# 3 -4.1807 15.5700 133.7461 0.0000 0.0000 0.0000
# 4 0.0000 0.0000 0.0000 19.9788 0.0000 0.0000
# 5 0.0000 0.0000 0.0000 0.0000 0.2823 0.0000
# 6 0.0000 0.0000 0.0000 0.0000 0.0000 -18.1638
#
#
#
# Elastic Compliance Matrix: (Units=1/GPa)
#
#
# Indices 1 2 3 4 5 6 
#
# 1 0.010954 0.000822 0.000247 0.000000 0.000000 0.000000
# 2 0.000822 0.034080 -0.003942 0.000000 0.000000 0.000000
# 3 0.000247 -0.003942 0.007943 0.000000 0.000000 0.000000
# 4 0.000000 0.000000 0.000000 0.050053 0.000000 0.000000
# 5 0.000000 0.000000 0.000000 0.000000 3.542428 0.000000
# 6 0.000000 0.000000 0.000000 0.000000 0.000000 -0.055054
#
#
# Mechanical properties :
#
#
# Convention : Reuss Voigt Hill
#
# Bulk Modulus (GPa) = 21.17308 30.43795 25.80552
# Shear Modulus (GPa) = 1.38432 16.94265 9.16348
#
# Velocity S-wave (km/s) = 0.80028 2.79973 2.05899
# Velocity P-wave (km/s) = 3.26337 4.95311 4.19422
#
# Compressibility (1/GPa) = 0.04722977
#
# Stress axis : x y z
#
# Youngs Moduli (GPa) = 91.29484 29.34299 125.89012
#
# Poissons Ratio (x) = -0.02411 -0.03106
# Poissons Ratio (y) = -0.07500 0.49622
# Poissons Ratio (z) = -0.02253 0.11566
#
# Static dielectric constant tensor:
#      x y z
#    x 1.824180 0.000000 0.000000 
#    y 0.000000 1.751960 0.000000 
#    z 0.000000 0.000000 1.777800 
# 
# From -- ./inp_files/36857.got.cif
#   From: 2010.05.17/outbox.cif.g08.bks.cpg/sg53_19_cif.got.tgz:36857.got - 2010.06.03 12:45:16.
