data_PCOD9420491
_publ_section_title
;
Structure prediction by ZEFSAII (Michael W. Deem and Ramdas Pophale) SiO2 
 PCOD9420491
Probable space group: P C C A
;
_chemical_formula_sum "Si O2"
_cell_formula_units_Z 28
_cell_length_a 18.572232
_cell_length_b 9.884986
_cell_length_c 5.497788
_cell_angle_alpha 90.000000
_cell_angle_beta 90.000000
_cell_angle_gamma 90.000000
_cell_volume 1009.318300
_symmetry_space_group_name_H-M "P C C A"
_symmetry_group_IT_number 54
_symmetry_cell_setting 'orthorhombic'
loop_
_space_group_symop_operation_xyz
x,y,z
1/2-x,-y,z
1/2+x,-y,1/2-z
-x,y,1/2-z
-x,-y,-z
1/2+x,y,-z
1/2-x,y,1/2+z
x,-y,1/2+z
loop_
_atom_site_type_symbol
_atom_site_label
_atom_site_fract_x
_atom_site_fract_y
_atom_site_fract_z
Si Si1 0.141015 0.950342 0.763018
Si Si2 0.500000 0.125925 0.250000
Si Si3 0.280336 0.349549 0.432288
Si Si4 0.068687 0.315124 0.144299
O O1 0.067886 0.032853 0.704006
O O2 0.175214 0.972276 0.493440
O O3 0.115737 0.205487 0.302590
O O4 0.477237 0.220550 0.468033
O O5 0.250000 0.500000 0.404859
O O6 0.240199 0.286032 0.669843
O O7 0.365249 0.373617 0.487013
O O8 0.000000 0.399710 0.250000
#
# Coordination Sequence:
#
# PCOD9420491 Si02
#       4
#     8   4   8   8
#     4  10  17  30  51  94 133 155 185 260 317 358
#     4  10  18  32  56 104 132 152 198 272 314 366
#     4  10  25  48  66  84 128 178 205 263 336 384
#     4  11  20  35  68  99 122 162 223 261 314 375
#
# _framework density 27.741496999999999
#
# number of rings (size 3 to 8) (size 9 to 14) (size 15 to 20)
#    0.000    1.714    4.286    1.714    4.000    0.000 
#    0.000    5.714    0.000   20.571    0.000    0.000 
#    0.000    0.000    0.000    0.000    0.000    0.000 
#
# Total GULP energy -156119.619036 kJ/mol
# GULP energy per Si atom -5575.700680 kJ/mol
# Density = 2.767836 g / cm^3
# Si number density = 27.741497 Si / 1000 Ang^3
#
#
#
# Elastic Constant Matrix: (Units=GPa)
#
#
# Indices 1 2 3 4 5 6 
#
# 1 201.5337 15.8394 33.0942 0.0000 0.0000 0.0000
# 2 15.8394 24.7643 -0.0440 0.0000 0.0000 0.0000
# 3 33.0942 -0.0440 188.7642 0.0000 0.0000 0.0000
# 4 0.0000 0.0000 0.0000 30.9458 0.0000 0.0000
# 5 0.0000 0.0000 0.0000 0.0000 0.2047 0.0000
# 6 0.0000 0.0000 0.0000 0.0000 0.0000 32.9034
#
#
#
# Elastic Compliance Matrix: (Units=1/GPa)
#
#
# Indices 1 2 3 4 5 6 
#
# 1 0.005388 -0.003448 -0.000945 0.000000 0.000000 0.000000
# 2 -0.003448 0.042587 0.000614 0.000000 0.000000 0.000000
# 3 -0.000945 0.000614 0.005464 0.000000 0.000000 0.000000
# 4 0.000000 0.000000 0.000000 0.032315 0.000000 0.000000
# 5 0.000000 0.000000 0.000000 0.000000 4.885751 0.000000
# 6 0.000000 0.000000 0.000000 0.000000 0.000000 0.030392
#
#
# Mechanical properties :
#
#
# Convention : Reuss Voigt Hill
#
# Bulk Modulus (GPa) = 21.79563 56.98237 39.38900
# Shear Modulus (GPa) = 0.99507 37.22228 19.10868
#
# Velocity S-wave (km/s) = 0.59956 3.66697 2.62737
# Velocity P-wave (km/s) = 2.89016 6.20596 4.84082
#
# Compressibility (1/GPa) = 0.04588076
#
# Stress axis : x y z
#
# Youngs Moduli (GPa) = 185.59071 23.48128 183.03229
#
# Poissons Ratio (x) = 0.08096 0.17305
# Poissons Ratio (y) = 0.63992 -0.11246
# Poissons Ratio (z) = 0.17547 -0.01443
#
# Static dielectric constant tensor:
#      x y z
#    x 2.480250 0.000000 0.000000 
#    y 0.000000 2.408360 0.000000 
#    z 0.000000 0.000000 2.516580 
# 
# From -- ./inp_files/849.got.cif
#   From: 2010.05.17/outbox.cif.g08.bks.cpg/sg54_1_cif.got.tgz:849.got - 2010.06.03 13:09:01.
