data_PCOD9420847
_publ_section_title
;
Structure prediction by ZEFSAII (Michael W. Deem and Ramdas Pophale) SiO2 
 PCOD9420847
Probable space group: P C C A
;
_chemical_formula_sum "Si O2"
_cell_formula_units_Z 52
_cell_length_a 13.901200
_cell_length_b 33.946618
_cell_length_c 5.175162
_cell_angle_alpha 90.000000
_cell_angle_beta 90.000000
_cell_angle_gamma 90.000000
_cell_volume 2442.152355
_symmetry_space_group_name_H-M "P C C A"
_symmetry_group_IT_number 54
_symmetry_cell_setting 'orthorhombic'
loop_
_space_group_symop_operation_xyz
x,y,z
1/2-x,-y,z
1/2+x,-y,1/2-z
-x,y,1/2-z
-x,-y,-z
1/2+x,y,-z
1/2-x,y,1/2+z
x,-y,1/2+z
loop_
_atom_site_type_symbol
_atom_site_label
_atom_site_fract_x
_atom_site_fract_y
_atom_site_fract_z
Si Si1 0.617439 0.386855 0.755208
Si Si2 0.614690 0.659705 0.755670
Si Si3 0.185599 0.172335 0.720641
Si Si4 0.318014 0.084877 0.284529
Si Si5 0.500000 0.972425 0.750000
Si Si6 0.811445 0.253770 0.641375
Si Si7 0.382909 0.475933 0.748505
O O1 0.500000 0.388268 0.750000
O O2 0.646261 0.356244 0.533224
O O3 0.651634 0.431373 0.711088
O O4 0.646946 0.369947 0.031390
O O5 0.500000 0.657809 0.750000
O O6 0.641436 0.704481 0.697714
O O7 0.226125 0.173047 0.429121
O O8 0.140596 0.129620 0.767620
O O9 0.132821 0.213343 0.786800
O O10 0.258883 0.080484 0.551257
O O11 0.404601 0.054454 0.257798
O O12 0.500000 0.000000 0.500000
O O13 0.777611 0.252495 0.344955
O O14 0.500000 0.474171 0.750000
O O15 0.355346 0.494344 0.475223
#
# Coordination Sequence:
#
# PCOD9420847 Si02
#       7
#     8   8   8   8   4   8   8
#     4   9  17  28  42  61  95 131 155 197 253 304
#     4  10  19  31  46  69 100 132 162 193 250 316
#     4   8  16  32  55  78 103 139 179 221 273 323
#     4  10  21  40  63  86 120 162 201 248 309 360
#     4  12  26  40  60  94 126 158 210 256 298 364
#     4  10  19  33  53  76 103 133 172 219 258 302
#     4   9  15  23  37  58  84 117 157 195 241 299
#
# _framework density 21.292694000000001
#
# number of rings (size 3 to 8) (size 9 to 14) (size 15 to 20)
#    0.000    2.462    0.000    2.769    0.000    5.538 
#    1.385    0.000    0.000    0.000    0.000    0.000 
#    0.000   43.077    0.000    0.000    0.000    0.000 
#
# Total GULP energy -290355.006250 kJ/mol
# GULP energy per Si atom -5583.750120 kJ/mol
# Density = 2.124423 g / cm^3
# Si number density = 21.292694 Si / 1000 Ang^3
#
#
#
# Elastic Constant Matrix: (Units=GPa)
#
#
# Indices 1 2 3 4 5 6 
#
# 1 58.1313 18.4728 -11.5292 0.0000 0.0000 0.0000
# 2 18.4728 153.0348 12.7644 0.0000 0.0000 0.0000
# 3 -11.5292 12.7644 98.6135 0.0000 0.0000 0.0000
# 4 0.0000 0.0000 0.0000 36.6660 0.0000 0.0000
# 5 0.0000 0.0000 0.0000 0.0000 0.1495 0.0000
# 6 0.0000 0.0000 0.0000 0.0000 0.0000 50.1434
#
#
#
# Elastic Compliance Matrix: (Units=1/GPa)
#
#
# Indices 1 2 3 4 5 6 
#
# 1 0.018467 -0.002436 0.002474 0.000000 0.000000 0.000000
# 2 -0.002436 0.006927 -0.001181 0.000000 0.000000 0.000000
# 3 0.002474 -0.001181 0.010583 0.000000 0.000000 0.000000
# 4 0.000000 0.000000 0.000000 0.027273 0.000000 0.000000
# 5 0.000000 0.000000 0.000000 0.000000 6.688670 0.000000
# 6 0.000000 0.000000 0.000000 0.000000 0.000000 0.019943
#
#
# Mechanical properties :
#
#
# Convention : Reuss Voigt Hill
#
# Bulk Modulus (GPa) = 29.68088 38.79950 34.24019
# Shear Modulus (GPa) = 0.73688 36.72990 18.73339
#
# Velocity S-wave (km/s) = 0.58892 4.15782 2.96937
# Velocity P-wave (km/s) = 3.79897 6.42740 5.27938
#
# Compressibility (1/GPa) = 0.03369173
#
# Stress axis : x y z
#
# Youngs Moduli (GPa) = 54.15023 144.36281 94.49303
#
# Poissons Ratio (x) = 0.35160 -0.23381
# Poissons Ratio (y) = 0.13188 0.11163
# Poissons Ratio (z) = -0.13398 0.17055
#
# Static dielectric constant tensor:
#      x y z
#    x 1.787630 0.000000 0.000000 
#    y 0.000000 1.788240 0.000000 
#    z 0.000000 0.000000 1.730190 
# 
# From -- ./inp_files/1059.got.cif
#   From: 2010.05.17/outbox.cif.g08.bks.cpg/sg54_1_cif.got.tgz:1059.got - 2010.06.03 13:09:01.
