data_PCOD9420654
_publ_section_title
;
Structure prediction by ZEFSAII (Michael W. Deem and Ramdas Pophale) SiO2 
 PCOD9420654
Probable space group: P C C A
;
_chemical_formula_sum "Si O2"
_cell_formula_units_Z 64
_cell_length_a 9.631526
_cell_length_b 17.714520
_cell_length_c 13.561029
_cell_angle_alpha 90.000000
_cell_angle_beta 90.000000
_cell_angle_gamma 90.000000
_cell_volume 2313.753747
_symmetry_space_group_name_H-M "P C C A"
_symmetry_group_IT_number 54
_symmetry_cell_setting 'orthorhombic'
loop_
_space_group_symop_operation_xyz
x,y,z
1/2-x,-y,z
1/2+x,-y,1/2-z
-x,y,1/2-z
-x,-y,-z
1/2+x,y,-z
1/2-x,y,1/2+z
x,-y,1/2+z
loop_
_atom_site_type_symbol
_atom_site_label
_atom_site_fract_x
_atom_site_fract_y
_atom_site_fract_z
Si Si1 0.635777 0.554391 0.682869
Si Si2 0.580694 0.776863 0.991895
Si Si3 0.052997 0.391751 0.507892
Si Si4 0.695503 0.228360 0.823963
Si Si5 0.382299 0.951939 0.874210
Si Si6 0.823089 0.601904 0.869416
Si Si7 0.390292 0.783623 0.828324
Si Si8 0.043014 0.908012 0.592494
O O1 0.750000 0.500000 0.631070
O O2 0.500000 0.530326 0.750000
O O3 0.560221 0.605750 0.599165
O O4 0.747773 0.585149 0.764961
O O5 0.600429 0.692127 0.026520
O O6 0.675914 0.788367 0.896740
O O7 0.426724 0.771187 0.941449
O O8 0.582968 0.853341 0.054060
O O9 0.966222 0.429636 0.418238
O O10 0.196078 0.417758 0.557551
O O11 0.642727 0.308693 0.861243
O O12 0.743550 0.241062 0.712643
O O13 0.611754 0.151714 0.834827
O O14 0.506402 0.011548 0.863078
O O15 0.250000 0.000000 0.845823
O O16 0.392351 0.873879 0.818273
O O17 0.379064 0.930082 0.990904
O O18 0.500000 0.748248 0.750000
#
# Coordination Sequence:
#
# PCOD9420654 Si02
#       8
#     8   8   8   8   8   8   8   8
#     4  10  23  42  65  93 136 183 223 263 323 397
#     4   9  17  33  55  81 112 142 190 244 311 370
#     4  10  20  38  64  95 128 169 215 270 327 388
#     4  10  18  33  58  82 109 146 195 255 314 374
#     4  10  21  34  48  71 106 142 184 235 296 368
#     4  10  21  38  64  98 128 167 220 275 330 399
#     4   9  19  33  50  73 102 144 185 233 296 366
#     4  10  19  33  54  77 101 140 189 239 302 365
#
# _framework density 27.660678999999998
#
# number of rings (size 3 to 8) (size 9 to 14) (size 15 to 20)
#    0.000    2.250    1.250    1.500    0.000    6.500 
#    0.000    2.500    0.000    1.500    0.000    0.000 
#    0.000    0.000    0.000    0.000    0.000    0.000 
#
# Total GULP energy -357064.161367 kJ/mol
# GULP energy per Si atom -5579.127521 kJ/mol
# Density = 2.759772 g / cm^3
# Si number density = 27.660679 Si / 1000 Ang^3
#
#
#
# Elastic Constant Matrix: (Units=GPa)
#
#
# Indices 1 2 3 4 5 6 
#
# 1 88.4537 10.9209 27.3016 0.0000 0.0000 0.0000
# 2 10.9209 108.4864 17.8637 0.0000 0.0000 0.0000
# 3 27.3016 17.8637 100.6521 0.0000 0.0000 0.0000
# 4 0.0000 0.0000 0.0000 38.4545 0.0000 0.0000
# 5 0.0000 0.0000 0.0000 0.0000 50.5347 0.0000
# 6 0.0000 0.0000 0.0000 0.0000 0.0000 31.7483
#
#
#
# Elastic Compliance Matrix: (Units=1/GPa)
#
#
# Indices 1 2 3 4 5 6 
#
# 1 0.012392 -0.000715 -0.003234 0.000000 0.000000 0.000000
# 2 -0.000715 0.009536 -0.001499 0.000000 0.000000 0.000000
# 3 -0.003234 -0.001499 0.011079 0.000000 0.000000 0.000000
# 4 0.000000 0.000000 0.000000 0.026005 0.000000 0.000000
# 5 0.000000 0.000000 0.000000 0.000000 0.019788 0.000000
# 6 0.000000 0.000000 0.000000 0.000000 0.000000 0.031498
#
#
# Mechanical properties :
#
#
# Convention : Reuss Voigt Hill
#
# Bulk Modulus (GPa) = 45.22609 45.52941 45.37775
# Shear Modulus (GPa) = 38.89115 40.24790 39.56953
#
# Velocity S-wave (km/s) = 3.75375 3.81866 3.78634
# Velocity P-wave (km/s) = 5.93071 5.99488 5.96288
#
# Compressibility (1/GPa) = 0.02211113
#
# Stress axis : x y z
#
# Youngs Moduli (GPa) = 80.69770 104.86056 90.26485
#
# Poissons Ratio (x) = 0.07496 0.29195
# Poissons Ratio (y) = 0.05769 0.13527
# Poissons Ratio (z) = 0.26101 0.15715
#
# Static dielectric constant tensor:
#      x y z
#    x 2.279760 0.000000 0.000000 
#    y 0.000000 2.149480 0.000000 
#    z 0.000000 0.000000 2.137280 
# 
# From -- ./inp_files/17486.got.cif
#   From: 2010.05.17/outbox.cif.g08.bks.cpg/sg54_9_cif.got.tgz:17486.got - 2010.06.03 13:09:01.
