data_PCOD9420798
_publ_section_title
;
Structure prediction by ZEFSAII (Michael W. Deem and Ramdas Pophale) SiO2 
 PCOD9420798
Probable space group: P C C A
;
_chemical_formula_sum "Si O2"
_cell_formula_units_Z 56
_cell_length_a 12.460654
_cell_length_b 12.511988
_cell_length_c 19.137553
_cell_angle_alpha 90.000000
_cell_angle_beta 90.000000
_cell_angle_gamma 90.000000
_cell_volume 2983.689065
_symmetry_space_group_name_H-M "P C C A"
_symmetry_group_IT_number 54
_symmetry_cell_setting 'orthorhombic'
loop_
_space_group_symop_operation_xyz
x,y,z
1/2-x,-y,z
1/2+x,-y,1/2-z
-x,y,1/2-z
-x,-y,-z
1/2+x,y,-z
1/2-x,y,1/2+z
x,-y,1/2+z
loop_
_atom_site_type_symbol
_atom_site_label
_atom_site_fract_x
_atom_site_fract_y
_atom_site_fract_z
Si Si1 0.169995 0.735161 0.555305
Si Si2 0.504655 0.838702 0.980526
Si Si3 0.968671 0.028782 0.118248
Si Si4 0.153405 0.837772 0.694429
Si Si5 0.876990 0.385178 0.972564
Si Si6 0.998023 0.437041 0.396229
Si Si7 0.250000 0.000000 0.796934
Si Si8 0.500000 0.655712 0.250000
O O1 0.120953 0.812878 0.496874
O O2 0.209414 0.801027 0.622381
O O3 0.254125 0.648100 0.530543
O O4 0.068246 0.669027 0.583277
O O5 0.562359 0.727854 0.965270
O O6 0.515096 0.923274 0.918739
O O7 0.548826 0.890396 0.052693
O O8 0.055295 0.084722 0.169348
O O9 0.858031 0.001160 0.156908
O O10 0.098298 0.735415 0.731316
O O11 0.232781 0.898676 0.746043
O O12 0.920864 0.463344 0.912590
O O13 0.907722 0.439410 0.046478
O O14 0.027781 0.417701 0.316444
#
# Coordination Sequence:
#
# PCOD9420798 Si02
#       8
#     8   8   8   8   8   8   4   4
#     4   9  19  35  57  80 113 148 190 229 289 347
#     4   9  21  36  54  82 115 145 187 246 285 328
#     4  10  21  38  52  82 119 148 192 235 281 346
#     4  10  21  36  53  83 113 154 193 231 279 353
#     4  10  19  35  59  84 110 145 191 242 292 336
#     4   9  20  35  60  86 108 147 192 240 289 339
#     4  12  22  32  60  78 110 156 190 220 284 348
#     4  10  18  40  58  76 118 150 188 234 286 364
#
# _framework density 18.768711
#
# number of rings (size 3 to 8) (size 9 to 14) (size 15 to 20)
#    0.000    2.286    1.429    1.286    4.000    0.000 
#    0.000    1.429    0.000   15.429    0.000    0.000 
#    0.000    0.000    0.000    0.000    0.000    0.000 
#
# Total GULP energy -312175.247189 kJ/mol
# GULP energy per Si atom -5574.557986 kJ/mol
# Density = 1.872599 g / cm^3
# Si number density = 18.768711 Si / 1000 Ang^3
#
#
#
# Elastic Constant Matrix: (Units=GPa)
#
#
# Indices 1 2 3 4 5 6 
#
# 1 56.9385 -0.6058 31.0346 0.0000 0.0000 0.0000
# 2 -0.6058 67.5654 30.4203 0.0000 0.0000 0.0000
# 3 31.0346 30.4203 91.1268 0.0000 0.0000 0.0000
# 4 0.0000 0.0000 0.0000 29.4542 0.0000 0.0000
# 5 0.0000 0.0000 0.0000 0.0000 14.2849 0.0000
# 6 0.0000 0.0000 0.0000 0.0000 0.0000 27.0797
#
#
#
# Elastic Compliance Matrix: (Units=1/GPa)
#
#
# Indices 1 2 3 4 5 6 
#
# 1 0.022586 0.004314 -0.009132 0.000000 0.000000 0.000000
# 2 0.004314 0.018243 -0.007559 0.000000 0.000000 0.000000
# 3 -0.009132 -0.007559 0.016607 0.000000 0.000000 0.000000
# 4 0.000000 0.000000 0.000000 0.033951 0.000000 0.000000
# 5 0.000000 0.000000 0.000000 0.000000 0.070004 0.000000
# 6 0.000000 0.000000 0.000000 0.000000 0.000000 0.036928
#
#
# Mechanical properties :
#
#
# Convention : Reuss Voigt Hill
#
# Bulk Modulus (GPa) = 30.59812 37.48101 34.03957
# Shear Modulus (GPa) = 21.37050 24.48253 22.92652
#
# Velocity S-wave (km/s) = 3.37801 3.61561 3.49883
# Velocity P-wave (km/s) = 5.61718 6.11911 5.87351
#
# Compressibility (1/GPa) = 0.03268175
#
# Stress axis : x y z
#
# Youngs Moduli (GPa) = 44.27464 54.81705 60.21465
#
# Poissons Ratio (x) = -0.23649 0.54990
# Poissons Ratio (y) = -0.19101 0.45517
# Poissons Ratio (z) = 0.40433 0.41436
#
# Static dielectric constant tensor:
#      x y z
#    x 1.675590 0.000000 0.000000 
#    y 0.000000 1.654050 0.000000 
#    z 0.000000 0.000000 1.679580 
# 
# From -- ./inp_files/21205.got.cif
#   From: 2010.05.17/outbox.cif.g08.bks.cpg/sg54_11_cif.got.tgz:21205.got - 2010.06.03 13:09:01.
