data_PCOD9420943
_publ_section_title
;
Structure prediction by ZEFSAII (Michael W. Deem and Ramdas Pophale) SiO2 
 PCOD9420943
Probable space group: P C C A
;
_chemical_formula_sum "Si O2"
_cell_formula_units_Z 32
_cell_length_a 5.185341
_cell_length_b 7.195077
_cell_length_c 37.355288
_cell_angle_alpha 90.000000
_cell_angle_beta 90.000000
_cell_angle_gamma 90.000000
_cell_volume 1393.685742
_symmetry_space_group_name_H-M "P C C A"
_symmetry_group_IT_number 54
_symmetry_cell_setting 'orthorhombic'
loop_
_space_group_symop_operation_xyz
x,y,z
1/2-x,-y,z
1/2+x,-y,1/2-z
-x,y,1/2-z
-x,-y,-z
1/2+x,y,-z
1/2-x,y,1/2+z
x,-y,1/2+z
loop_
_atom_site_type_symbol
_atom_site_label
_atom_site_fract_x
_atom_site_fract_y
_atom_site_fract_z
Si Si1 0.269673 0.774118 0.479866
Si Si2 0.712780 0.218861 0.361484
Si Si3 0.497375 0.369142 0.211336
Si Si4 0.281702 0.773581 0.398933
O O1 0.487978 0.712920 0.507616
O O2 0.346449 0.723070 0.439543
O O3 0.250000 0.000000 0.480336
O O4 0.578148 0.249684 0.323142
O O5 0.502704 0.294880 0.389126
O O6 0.999413 0.289868 0.370737
O O7 0.750000 0.000000 0.366279
O O8 0.250000 0.500000 0.214873
O O9 0.500000 0.266966 0.250000
O O10 0.750000 0.500000 0.206459
O O11 0.250000 0.000000 0.397358
#
# Coordination Sequence:
#
# PCOD9420943 Si02
#       4
#     8   8   8   8
#     4   9  15  23  37  60  94 135 169 198 244 304
#     4  10  19  33  52  76 105 136 169 211 262 311
#     4  10  21  38  57  77 104 137 173 216 263 313
#     4   9  17  28  44  69 103 136 167 209 258 303
#
# _framework density 22.960702000000001
#
# number of rings (size 3 to 8) (size 9 to 14) (size 15 to 20)
#    0.000    2.500    0.000    3.000    0.000    6.000 
#    0.000    7.500    0.000    0.000    0.000    0.000 
#    0.000   70.000    0.000    0.000    0.000    0.000 
#
# Total GULP energy -178480.727219 kJ/mol
# GULP energy per Si atom -5577.522726 kJ/mol
# Density = 2.290844 g / cm^3
# Si number density = 22.960702 Si / 1000 Ang^3
#
#
#
# Elastic Constant Matrix: (Units=GPa)
#
#
# Indices 1 2 3 4 5 6 
#
# 1 173.3504 4.6235 56.6455 0.0000 0.0000 0.0000
# 2 4.6235 63.4131 -14.2917 0.0000 0.0000 0.0000
# 3 56.6455 -14.2917 96.2512 0.0000 0.0000 0.0000
# 4 0.0000 0.0000 0.0000 -1.8820 0.0000 0.0000
# 5 0.0000 0.0000 0.0000 0.0000 21.1979 0.0000
# 6 0.0000 0.0000 0.0000 0.0000 0.0000 -1.0003
#
#
#
# Elastic Compliance Matrix: (Units=1/GPa)
#
#
# Indices 1 2 3 4 5 6 
#
# 1 0.007286 -0.001550 -0.004518 0.000000 0.000000 0.000000
# 2 -0.001550 0.016645 0.003383 0.000000 0.000000 0.000000
# 3 -0.004518 0.003383 0.013551 0.000000 0.000000 0.000000
# 4 0.000000 0.000000 0.000000 -0.531344 0.000000 0.000000
# 5 0.000000 0.000000 0.000000 0.000000 0.047175 0.000000
# 6 0.000000 0.000000 0.000000 0.000000 0.000000 -0.999695
#
#
# Mechanical properties :
#
#
# Convention : Reuss Voigt Hill
#
# Bulk Modulus (GPa) = 31.13925 47.44104 39.29014
# Shear Modulus (GPa) = -3.49575 22.73227 9.61826
#
# Velocity S-wave (km/s) = -1.23523 3.14992 2.04893
# Velocity P-wave (km/s) = 3.39956 5.82546 4.76933
#
# Compressibility (1/GPa) = 0.03211381
#
# Stress axis : x y z
#
# Youngs Moduli (GPa) = 137.24158 60.07753 73.79557
#
# Poissons Ratio (x) = 0.09309 0.33343
# Poissons Ratio (y) = 0.21267 -0.24969
# Poissons Ratio (z) = 0.62009 -0.20327
#
# Static dielectric constant tensor:
#      x y z
#    x 1.833870 0.000000 0.000000 
#    y 0.000000 1.888580 0.000000 
#    z 0.000000 0.000000 1.952120 
# 
# From -- ./inp_files/26827.got.cif
#   From: 2010.05.17/outbox.cif.g08.bks.cpg/sg54_14_cif.got.tgz:26827.got - 2010.06.03 13:09:01.
