data_PCOD9420199
_publ_section_title
;
Structure prediction by ZEFSAII (Michael W. Deem and Ramdas Pophale) SiO2 
 PCOD9420199
Probable space group: P M N A
;
_chemical_formula_sum "Si O2"
_cell_formula_units_Z 64
_cell_length_a 9.000000
_cell_length_b 21.000000
_cell_length_c 18.000000
_cell_angle_alpha 90.000000
_cell_angle_beta 90.000000
_cell_angle_gamma 90.000000
_cell_volume 3402.000000
_symmetry_space_group_name_H-M "P M N A"
_symmetry_group_IT_number 53
_symmetry_cell_setting 'orthorhombic'
loop_
_space_group_symop_operation_xyz
x,y,z
1/2-x,-y,1/2+z
x,-y,-z
1/2-x,y,1/2-z
-x,-y,-z
1/2+x,y,1/2-z
-x,y,z
1/2+x,-y,1/2+z
loop_
_atom_site_type_symbol
_atom_site_label
_atom_site_fract_x
_atom_site_fract_y
_atom_site_fract_z
Si Si1 0.173190 0.310257 0.585284
Si Si2 0.822463 0.563566 0.830308
Si Si3 0.824660 0.317473 0.071302
Si Si4 0.822392 0.054407 0.831179
Si Si5 0.173753 0.929370 0.669928
Si Si6 0.323432 0.424480 0.669436
Si Si7 0.829107 0.815732 0.088231
Si Si8 0.833224 0.821927 0.909681
O O1 0.220721 0.311990 0.499573
O O2 0.261630 0.366802 0.623040
O O3 0.226317 0.241676 0.614173
O O4 0.000000 0.318743 0.595926
O O5 0.750000 0.568751 0.750000
O O6 0.779839 0.621912 0.881592
O O7 0.785771 0.494158 0.863148
O O8 0.000000 0.566161 0.821239
O O9 0.815049 0.251049 0.115131
O O10 0.000000 0.323272 0.048524
O O11 0.750000 0.060596 0.750000
O O12 0.787436 0.117121 0.877293
O O13 0.000000 0.047798 0.825588
O O14 0.751826 0.991024 0.865570
O O15 0.250000 0.920919 0.750000
O O16 0.210808 0.867626 0.622801
O O17 0.000000 0.940225 0.678629
O O18 0.250000 0.422257 0.750000
O O19 0.500000 0.419893 0.676082
O O20 0.000000 0.801062 0.108768
O O21 0.825436 0.820803 0.998999
O O22 0.000000 0.843960 0.888501
#
# Coordination Sequence:
#
# PCOD9420199 Si02
#       8
#     8   8   8   8   8   8   8   8
#     4  11  22  35  54  80 109 141 178 220 263 310
#     4   9  19  35  56  80 106 139 177 220 268 317
#     4   9  19  37  57  78 107 142 178 216 264 318
#     4  10  20  36  57  80 106 137 174 214 259 310
#     4  11  22  36  54  77 107 140 175 216 260 309
#     4  10  20  36  56  78 107 140 177 220 266 317
#     4   9  20  38  58  78 105 141 176 215 264 317
#     4   9  18  35  56  77 104 138 176 217 261 312
#
# _framework density 18.812463000000001
#
# number of rings (size 3 to 8) (size 9 to 14) (size 15 to 20)
#    0.000    2.250    0.000    4.500    0.000    6.000 
#    0.000    7.500    0.000    0.000    0.000    0.000 
#    0.000    0.000    0.000    0.000    0.000    0.000 
#
# Total GULP energy -356880.983017 kJ/mol
# GULP energy per Si atom -5576.265360 kJ/mol
# Density = 1.876965 g / cm^3
# Si number density = 18.812463 Si / 1000 Ang^3
#
#
#
# Elastic Constant Matrix: (Units=GPa)
#
#
# Indices 1 2 3 4 5 6 
#
# 1 64.5307 62.6702 16.5182 0.0000 0.0000 0.0000
# 2 62.6702 127.6657 36.2223 0.0000 0.0000 0.0000
# 3 16.5182 36.2223 9.3979 0.0000 0.0000 0.0000
# 4 0.0000 0.0000 0.0000 29.6412 0.0000 0.0000
# 5 0.0000 0.0000 0.0000 0.0000 21.4243 0.0000
# 6 0.0000 0.0000 0.0000 0.0000 0.0000 18.9330
#
#
#
# Elastic Compliance Matrix: (Units=1/GPa)
#
#
# Indices 1 2 3 4 5 6 
#
# 1 0.028105 -0.002343 -0.040368 0.000000 0.000000 0.000000
# 2 -0.002343 -0.083517 0.326018 0.000000 0.000000 0.000000
# 3 -0.040368 0.326018 -1.079210 0.000000 0.000000 0.000000
# 4 0.000000 0.000000 0.000000 0.033737 0.000000 0.000000
# 5 0.000000 0.000000 0.000000 0.000000 0.046676 0.000000
# 6 0.000000 0.000000 0.000000 0.000000 0.000000 0.052818
#
#
# Mechanical properties :
#
#
# Convention : Reuss Voigt Hill
#
# Bulk Modulus (GPa) = -1.76054 48.04618 23.14282
# Shear Modulus (GPa) = -2.84521 19.74527 8.45003
#
# Velocity S-wave (km/s) = -1.23113 3.24324 2.12167
# Velocity P-wave (km/s) = 1.72011 6.29443 4.28142
#
# Compressibility (1/GPa) = -0.56800760
#
# Stress axis : x y z
#
# Youngs Moduli (GPa) = 35.58046 -11.97363 -0.92660
#
# Poissons Ratio (x) = -0.02806 -0.03740
# Poissons Ratio (y) = 0.08338 0.30209
# Poissons Ratio (z) = 1.43629 3.90361
#
# Static dielectric constant tensor:
#      x y z
#    x 1.633860 0.000000 0.000000 
#    y 0.000000 1.691610 0.000000 
#    z 0.000000 0.000000 1.539920 
# 
# From -- ./inp_files/26755.got.cif
#   From: 2010.05.17/outbox.ucp.g08.bks.cvg/sg53_14_cif.got.tgz:26755.got - 2010.06.11 16:32:34.
