data_PCOD9420922
_publ_section_title
;
Structure prediction by ZEFSAII (Michael W. Deem and Ramdas Pophale) SiO2 
 PCOD9420922
Probable space group: P C C A
;
_chemical_formula_sum "Si O2"
_cell_formula_units_Z 48
_cell_length_a 14.576840
_cell_length_b 5.483812
_cell_length_c 25.088667
_cell_angle_alpha 90.000000
_cell_angle_beta 90.000000
_cell_angle_gamma 90.000000
_cell_volume 2005.503996
_symmetry_space_group_name_H-M "P C C A"
_symmetry_group_IT_number 54
_symmetry_cell_setting 'orthorhombic'
loop_
_space_group_symop_operation_xyz
x,y,z
1/2-x,-y,z
1/2+x,-y,1/2-z
-x,y,1/2-z
-x,-y,-z
1/2+x,y,-z
1/2-x,y,1/2+z
x,-y,1/2+z
loop_
_atom_site_type_symbol
_atom_site_label
_atom_site_fract_x
_atom_site_fract_y
_atom_site_fract_z
Si Si1 0.903210 0.695413 0.350182
Si Si2 0.111561 0.746627 0.030542
Si Si3 0.612630 0.752517 0.526687
Si Si4 0.106973 0.928466 0.359096
Si Si5 0.018972 0.312729 0.303628
Si Si6 0.666532 0.317011 0.241283
O O1 0.859782 0.712731 0.408058
O O2 0.847802 0.794886 0.299694
O O3 0.002317 0.826375 0.353365
O O4 0.930165 0.418224 0.333494
O O5 0.999372 0.745113 0.028997
O O6 0.141120 0.511103 0.995933
O O7 0.138476 0.013018 0.009037
O O8 0.644317 0.822530 0.586213
O O9 0.167492 0.860835 0.308521
O O10 0.084112 0.211559 0.350642
O O11 0.079098 0.519345 0.274935
O O12 0.000000 0.149054 0.250000
O O13 0.750000 0.500000 0.243227
#
# Coordination Sequence:
#
# PCOD9420922 Si02
#       6
#     8   8   8   8   8   8
#     4   9  19  32  54  80 111 143 182 232 288 334
#     4   9  18  31  49  84 115 144 179 230 279 337
#     4   9  19  29  52  81 116 143 180 228 284 333
#     4  10  19  32  55  79 112 142 182 234 286 338
#     4   9  18  32  52  78 108 140 179 228 287 340
#     4  10  21  36  52  79 108 147 187 234 281 341
#
# _framework density 23.934132999999999
#
# number of rings (size 3 to 8) (size 9 to 14) (size 15 to 20)
#    0.000    2.667    0.000    2.500   14.000    0.667 
#    0.000    0.000    0.000    1.000    0.000    0.000 
#    0.000    0.000    0.000    0.000    0.000    0.000 
#
# Total GULP energy -267667.723787 kJ/mol
# GULP energy per Si atom -5576.410912 kJ/mol
# Density = 2.387966 g / cm^3
# Si number density = 23.934133 Si / 1000 Ang^3
#
#
#
# Elastic Constant Matrix: (Units=GPa)
#
#
# Indices 1 2 3 4 5 6 
#
# 1 54.2325 0.7917 9.0325 0.0000 0.0000 0.0000
# 2 0.7917 88.2223 60.0079 0.0000 0.0000 0.0000
# 3 9.0325 60.0079 203.0866 0.0000 0.0000 0.0000
# 4 0.0000 0.0000 0.0000 1408.7484 0.0000 0.0000
# 5 0.0000 0.0000 0.0000 0.0000 -7.4982 0.0000
# 6 0.0000 0.0000 0.0000 0.0000 0.0000 9.9688
#
#
#
# Elastic Compliance Matrix: (Units=1/GPa)
#
#
# Indices 1 2 3 4 5 6 
#
# 1 0.018594 0.000495 -0.000973 0.000000 0.000000 0.000000
# 2 0.000495 0.014199 -0.004218 0.000000 0.000000 0.000000
# 3 -0.000973 -0.004218 0.006214 0.000000 0.000000 0.000000
# 4 0.000000 0.000000 0.000000 0.000710 0.000000 0.000000
# 5 0.000000 0.000000 0.000000 0.000000 -0.133365 0.000000
# 6 0.000000 0.000000 0.000000 0.000000 0.000000 0.100313
#
#
# Mechanical properties :
#
#
# Convention : Reuss Voigt Hill
#
# Bulk Modulus (GPa) = 33.76629 53.91174 43.83902
# Shear Modulus (GPa) = 192.83939 300.62442 246.73190
#
# Velocity S-wave (km/s) = 8.98587 11.21952 10.16424
# Velocity P-wave (km/s) = 11.03629 13.79894 12.49421
#
# Compressibility (1/GPa) = 0.02961533
#
# Stress axis : x y z
#
# Youngs Moduli (GPa) = 53.78080 70.42573 160.93923
#
# Poissons Ratio (x) = -0.03487 0.15664
# Poissons Ratio (y) = -0.02663 0.67878
# Poissons Ratio (z) = 0.05235 0.29703
#
# Static dielectric constant tensor:
#      x y z
#    x 1.940180 0.000000 0.000000 
#    y 0.000000 2.120790 0.000000 
#    z 0.000000 0.000000 1.978980 
# 
# From -- ./inp_files/24586.got.cif
#   From: 2010.05.17/outbox.cif.g08.bks.cpg/sg54_13_cif.got.tgz:24586.got - 2010.06.03 13:09:01.
