data_PCOD9420017
_publ_section_title
;
Structure prediction by ZEFSAII (Michael W. Deem and Ramdas Pophale) SiO2 
 PCOD9420017
Probable space group: P M N A
;
_chemical_formula_sum "Si O2"
_cell_formula_units_Z 22
_cell_length_a 15.981005
_cell_length_b 4.875583
_cell_length_c 10.916302
_cell_angle_alpha 90.000000
_cell_angle_beta 90.000000
_cell_angle_gamma 90.000000
_cell_volume 850.562406
_symmetry_space_group_name_H-M "P M N A"
_symmetry_group_IT_number 53
_symmetry_cell_setting 'orthorhombic'
loop_
_space_group_symop_operation_xyz
x,y,z
1/2-x,-y,1/2+z
x,-y,-z
1/2-x,y,1/2-z
-x,-y,-z
1/2+x,y,1/2-z
-x,y,z
1/2+x,-y,1/2+z
loop_
_atom_site_type_symbol
_atom_site_label
_atom_site_fract_x
_atom_site_fract_y
_atom_site_fract_z
Si Si1 0.214581 0.000000 0.500000
Si Si2 0.867503 0.835234 0.838031
Si Si3 0.596916 0.659823 0.171129
Si Si4 0.500000 0.500000 0.500000
O O1 0.277750 0.122602 0.399062
O O2 0.155406 0.218274 0.566756
O O3 0.871677 0.626375 0.724298
O O4 0.898728 0.124993 0.784491
O O5 0.927928 0.696841 0.936566
O O6 0.500000 0.637539 0.134080
#
# Coordination Sequence:
#
# PCOD9420017 Si02
#       4
#     4   8   8   2
#     4  12  31  49  86 124 168 214 272 351 413 470
#     4  12  28  48  81 116 159 209 279 326 403 485
#     4  12  27  56  79 119 162 215 267 333 409 493
#     4  12  24  50  76 112 150 214 264 330 400 464
#
# _framework density 25.865241000000001
#
# number of rings (size 3 to 8) (size 9 to 14) (size 15 to 20)
#    0.000    0.000    3.636    3.818    0.000   18.182 
#    0.000    3.636    0.000    0.000    0.000    0.000 
#    0.000    0.000    0.000    0.000    0.000    0.000 
#
# Total GULP energy -123192.432026 kJ/mol
# GULP energy per Si atom -5599.656001 kJ/mol
# Density = 2.580637 g / cm^3
# Si number density = 25.865241 Si / 1000 Ang^3
#
#
#
# Elastic Constant Matrix: (Units=GPa)
#
#
# Indices 1 2 3 4 5 6 
#
# 1 281.5424 64.8326 82.3608 0.0000 0.0000 0.0000
# 2 64.8326 107.8696 19.9577 0.0000 0.0000 0.0000
# 3 82.3608 19.9577 101.2219 0.0000 0.0000 0.0000
# 4 0.0000 0.0000 0.0000 70.2587 0.0000 0.0000
# 5 0.0000 0.0000 0.0000 0.0000 142.1010 0.0000
# 6 0.0000 0.0000 0.0000 0.0000 0.0000 39.9945
#
#
#
# Elastic Compliance Matrix: (Units=1/GPa)
#
#
# Indices 1 2 3 4 5 6 
#
# 1 0.005214 -0.002438 -0.003761 0.000000 0.000000 0.000000
# 2 -0.002438 0.010761 -0.000138 0.000000 0.000000 0.000000
# 3 -0.003761 -0.000138 0.012967 0.000000 0.000000 0.000000
# 4 0.000000 0.000000 0.000000 0.014233 0.000000 0.000000
# 5 0.000000 0.000000 0.000000 0.000000 0.007037 0.000000
# 6 0.000000 0.000000 0.000000 0.000000 0.000000 0.025003
#
#
# Mechanical properties :
#
#
# Convention : Reuss Voigt Hill
#
# Bulk Modulus (GPa) = 61.47428 91.65957 76.56693
# Shear Modulus (GPa) = 53.58329 72.03636 62.80983
#
# Velocity S-wave (km/s) = 4.55646 5.28310 4.93317
# Velocity P-wave (km/s) = 7.17638 8.52814 7.88129
#
# Compressibility (1/GPa) = 0.01626696
#
# Stress axis : x y z
#
# Youngs Moduli (GPa) = 191.80866 92.92746 77.11792
#
# Poissons Ratio (x) = 0.22651 0.29008
# Poissons Ratio (y) = 0.46754 0.01067
# Poissons Ratio (z) = 0.72148 0.01286
#
# Static dielectric constant tensor:
#      x y z
#    x 1.620300 0.000000 0.000000 
#    y 0.000000 8.188170 0.000000 
#    z 0.000000 0.000000 1.297280 
# 
# From -- ./inp_files/15215.got.cif
#   From: 2010.05.17/outbox.cif.g08.bks.cpg/sg53_8_cif.got.tgz:15215.got - 2010.06.03 12:45:16.
