data_PCOD9420740
_publ_section_title
;
Structure prediction by ZEFSAII (Michael W. Deem and Ramdas Pophale) SiO2 
 PCOD9420740
Probable space group: P C C A
;
_chemical_formula_sum "Si O2"
_cell_formula_units_Z 44
_cell_length_a 8.270508
_cell_length_b 11.284023
_cell_length_c 23.081968
_cell_angle_alpha 90.000000
_cell_angle_beta 90.000000
_cell_angle_gamma 90.000000
_cell_volume 2154.115488
_symmetry_space_group_name_H-M "P C C A"
_symmetry_group_IT_number 54
_symmetry_cell_setting 'orthorhombic'
loop_
_space_group_symop_operation_xyz
x,y,z
1/2-x,-y,z
1/2+x,-y,1/2-z
-x,y,1/2-z
-x,-y,-z
1/2+x,y,-z
1/2-x,y,1/2+z
x,-y,1/2+z
loop_
_atom_site_type_symbol
_atom_site_label
_atom_site_fract_x
_atom_site_fract_y
_atom_site_fract_z
Si Si1 0.999328 0.686193 0.147873
Si Si2 0.250000 0.500000 0.649610
Si Si3 0.719641 0.863539 0.344993
Si Si4 0.706042 0.632303 0.538189
Si Si5 0.324229 0.122441 0.279090
Si Si6 0.555782 0.699958 0.421775
O O1 0.924503 0.631444 0.089783
O O2 0.864420 0.760379 0.183470
O O3 0.112069 0.585198 0.178643
O O4 0.127297 0.788772 0.132461
O O5 0.356096 0.407563 0.612180
O O6 0.713065 0.844410 0.275955
O O7 0.572214 0.813189 0.380796
O O8 0.750000 0.000000 0.354642
O O9 0.750000 0.500000 0.517505
O O10 0.643861 0.706655 0.483817
O O11 0.870609 0.678360 0.565107
O O12 0.500000 0.092176 0.250000
O O13 0.250000 0.000000 0.304867
#
# Coordination Sequence:
#
# PCOD9420740 Si02
#       6
#     8   4   8   8   8   8
#     4  10  21  35  62  92 124 158 204 255 301 369
#     4  10  18  36  58  86 124 160 198 250 300 364
#     4   9  20  40  63  86 119 163 205 250 304 367
#     4  12  22  37  59  92 121 158 208 250 305 382
#     4   9  19  38  64  88 120 160 209 250 304 367
#     4  11  21  36  62  88 120 161 204 248 311 361
#
# _framework density 20.426017000000002
#
# number of rings (size 3 to 8) (size 9 to 14) (size 15 to 20)
#    0.000    1.818    2.727    2.727    0.000    4.364 
#    0.000    4.545   32.000    0.000    0.000    0.000 
#    0.000    0.000    0.000    0.000    0.000    0.000 
#
# Total GULP energy -245200.804193 kJ/mol
# GULP energy per Si atom -5572.745550 kJ/mol
# Density = 2.037953 g / cm^3
# Si number density = 20.426017 Si / 1000 Ang^3
#
#
#
# Elastic Constant Matrix: (Units=GPa)
#
#
# Indices 1 2 3 4 5 6 
#
# 1 49.4694 19.0967 18.0445 0.0000 0.0000 0.0000
# 2 19.0967 106.2822 39.3396 0.0000 0.0000 0.0000
# 3 18.0445 39.3396 54.0208 0.0000 0.0000 0.0000
# 4 0.0000 0.0000 0.0000 19.9349 0.0000 0.0000
# 5 0.0000 0.0000 0.0000 0.0000 19.7897 0.0000
# 6 0.0000 0.0000 0.0000 0.0000 0.0000 37.6453
#
#
#
# Elastic Compliance Matrix: (Units=1/GPa)
#
#
# Indices 1 2 3 4 5 6 
#
# 1 0.023264 -0.001785 -0.006471 0.000000 0.000000 0.000000
# 2 -0.001785 0.013018 -0.008884 0.000000 0.000000 0.000000
# 3 -0.006471 -0.008884 0.027142 0.000000 0.000000 0.000000
# 4 0.000000 0.000000 0.000000 0.050163 0.000000 0.000000
# 5 0.000000 0.000000 0.000000 0.000000 0.050531 0.000000
# 6 0.000000 0.000000 0.000000 0.000000 0.000000 0.026564
#
#
# Mechanical properties :
#
#
# Convention : Reuss Voigt Hill
#
# Bulk Modulus (GPa) = 34.31148 40.30377 37.30762
# Shear Modulus (GPa) = 21.30589 24.36009 22.83299
#
# Velocity S-wave (km/s) = 3.23317 3.45715 3.34704
# Velocity P-wave (km/s) = 5.54728 5.97581 5.76553
#
# Compressibility (1/GPa) = 0.02914477
#
# Stress axis : x y z
#
# Youngs Moduli (GPa) = 42.98504 76.81731 36.84276
#
# Poissons Ratio (x) = 0.13711 0.23841
# Poissons Ratio (y) = 0.07672 0.32731
# Poissons Ratio (z) = 0.27816 0.68243
#
# Static dielectric constant tensor:
#      x y z
#    x 1.792820 0.000000 0.000000 
#    y 0.000000 1.648800 0.000000 
#    z 0.000000 0.000000 1.745450 
# 
# From -- ./inp_files/23416.got.cif
#   From: 2010.05.17/outbox.cif.g08.bks.cpg/sg54_12_cif.got.tgz:23416.got - 2010.06.03 13:09:01.
