data_PCOD9420908
_publ_section_title
;
Structure prediction by ZEFSAII (Michael W. Deem and Ramdas Pophale) SiO2 
 PCOD9420908
Probable space group: P C C A
;
_chemical_formula_sum "Si O2"
_cell_formula_units_Z 56
_cell_length_a 16.478853
_cell_length_b 28.278780
_cell_length_c 5.387503
_cell_angle_alpha 90.000000
_cell_angle_beta 90.000000
_cell_angle_gamma 90.000000
_cell_volume 2510.586411
_symmetry_space_group_name_H-M "P C C A"
_symmetry_group_IT_number 54
_symmetry_cell_setting 'orthorhombic'
loop_
_space_group_symop_operation_xyz
x,y,z
1/2-x,-y,z
1/2+x,-y,1/2-z
-x,y,1/2-z
-x,-y,-z
1/2+x,y,-z
1/2-x,y,1/2+z
x,-y,1/2+z
loop_
_atom_site_type_symbol
_atom_site_label
_atom_site_fract_x
_atom_site_fract_y
_atom_site_fract_z
Si Si1 0.301843 0.323172 0.042093
Si Si2 0.543058 0.429360 0.999162
Si Si3 0.222505 0.446253 0.862832
Si Si4 0.797875 0.215274 0.902919
Si Si5 0.593878 0.020430 0.495602
Si Si6 0.693896 0.111556 0.480734
Si Si7 0.979322 0.674168 0.500748
O O1 0.243882 0.330383 0.803974
O O2 0.330739 0.267608 0.045097
O O3 0.389014 0.346630 0.006310
O O4 0.500000 0.446047 0.750000
O O5 0.634571 0.445028 0.018920
O O6 0.537444 0.372135 0.996392
O O7 0.500000 0.445200 0.250000
O O8 0.250000 0.500000 0.819724
O O9 0.275863 0.424537 0.086429
O O10 0.725524 0.214145 0.111185
O O11 0.839369 0.165477 0.964597
O O12 0.618348 0.075253 0.479000
O O13 0.500000 0.000000 0.500000
O O14 0.631090 0.002526 0.751264
O O15 0.752175 0.105762 0.234864
O O16 0.000000 0.701310 0.750000
O O17 0.000000 0.700804 0.250000
#
# Coordination Sequence:
#
# PCOD9420908 Si02
#       7
#     8   8   8   8   8   8   8
#     4  10  19  35  60  86 112 149 191 230 277 342
#     4  10  21  40  60  85 118 158 185 240 295 340
#     4  10  21  40  62  88 115 151 201 247 281 341
#     4   8  16  30  51  79 106 133 171 224 272 316
#     4  10  21  35  50  68 102 144 169 220 269 331
#     4  10  19  32  53  79 103 132 178 225 269 317
#     4  10  21  38  57  83 122 155 187 231 289 342
#
# _framework density 22.305544999999999
#
# number of rings (size 3 to 8) (size 9 to 14) (size 15 to 20)
#    0.000    2.286    0.000    2.571    0.000    1.714 
#    0.000   25.714    6.286    0.000    0.000    0.000 
#    0.000    0.000    0.000    0.000    0.000    0.000 
#
# Total GULP energy -312127.993260 kJ/mol
# GULP energy per Si atom -5573.714165 kJ/mol
# Density = 2.225478 g / cm^3
# Si number density = 22.305545 Si / 1000 Ang^3
#
#
#
# Elastic Constant Matrix: (Units=GPa)
#
#
# Indices 1 2 3 4 5 6 
#
# 1 82.7029 0.5770 33.0049 0.0000 0.0000 0.0000
# 2 0.5770 67.4169 -6.6796 0.0000 0.0000 0.0000
# 3 33.0049 -6.6796 218.9821 0.0000 0.0000 0.0000
# 4 0.0000 0.0000 0.0000 29.7519 0.0000 0.0000
# 5 0.0000 0.0000 0.0000 0.0000 23.6536 0.0000
# 6 0.0000 0.0000 0.0000 0.0000 0.0000 20.1834
#
#
#
# Elastic Compliance Matrix: (Units=1/GPa)
#
#
# Indices 1 2 3 4 5 6 
#
# 1 0.012871 -0.000303 -0.001949 0.000000 0.000000 0.000000
# 2 -0.000303 0.014885 0.000500 0.000000 0.000000 0.000000
# 3 -0.001949 0.000500 0.004876 0.000000 0.000000 0.000000
# 4 0.000000 0.000000 0.000000 0.033611 0.000000 0.000000
# 5 0.000000 0.000000 0.000000 0.000000 0.042277 0.000000
# 6 0.000000 0.000000 0.000000 0.000000 0.000000 0.049546
#
#
# Mechanical properties :
#
#
# Convention : Reuss Voigt Hill
#
# Bulk Modulus (GPa) = 34.33271 46.98960 40.66116
# Shear Modulus (GPa) = 29.19188 37.53109 33.36149
#
# Velocity S-wave (km/s) = 3.62156 4.10639 3.87157
# Velocity P-wave (km/s) = 5.73699 6.60267 6.18499
#
# Compressibility (1/GPa) = 0.02912674
#
# Stress axis : x y z
#
# Youngs Moduli (GPa) = 77.69108 67.18088 205.10228
#
# Poissons Ratio (x) = 0.02038 0.39979
# Poissons Ratio (y) = 0.02356 -0.10250
# Poissons Ratio (z) = 0.15144 -0.03357
#
# Static dielectric constant tensor:
#      x y z
#    x 1.761700 0.000000 0.000000 
#    y 0.000000 1.940670 0.000000 
#    z 0.000000 0.000000 1.956270 
# 
# From -- ./inp_files/748.got.cif
#   From: 2010.05.17/outbox.cif.g08.bks.cpg/sg54_1_cif.got.tgz:748.got - 2010.06.03 13:09:01.
