data_PCOD9420201
_publ_section_title
;
Structure prediction by ZEFSAII (Michael W. Deem and Ramdas Pophale) SiO2 
 PCOD9420201
Probable space group: P M N A
;
_chemical_formula_sum "Si O2"
_cell_formula_units_Z 40
_cell_length_a 9.000000
_cell_length_b 9.000000
_cell_length_c 27.000000
_cell_angle_alpha 90.000000
_cell_angle_beta 90.000000
_cell_angle_gamma 90.000000
_cell_volume 2187.000000
_symmetry_space_group_name_H-M "P M N A"
_symmetry_group_IT_number 53
_symmetry_cell_setting 'orthorhombic'
loop_
_space_group_symop_operation_xyz
x,y,z
1/2-x,-y,1/2+z
x,-y,-z
1/2-x,y,1/2-z
-x,-y,-z
1/2+x,y,1/2-z
-x,y,z
1/2+x,-y,1/2+z
loop_
_atom_site_type_symbol
_atom_site_label
_atom_site_fract_x
_atom_site_fract_y
_atom_site_fract_z
Si Si1 0.180736 0.672332 0.801173
Si Si2 0.680488 0.830953 0.394065
Si Si3 0.328671 0.180450 0.495150
Si Si4 0.819076 0.658184 0.301341
Si Si5 0.678589 0.840372 0.894582
O O1 0.250000 0.737450 0.750000
O O2 0.251035 0.507540 0.804177
O O3 0.240990 0.756482 0.849482
O O4 0.000000 0.668930 0.799160
O O5 0.500000 0.840783 0.388761
O O6 0.709316 0.764990 0.449362
O O7 0.755424 0.741945 0.349322
O O8 0.755217 0.993171 0.393296
O O9 0.500000 0.220423 0.483979
O O10 0.226405 0.222420 0.448716
O O11 0.323961 0.000000 0.500000
O O12 0.750000 0.722403 0.250000
O O13 0.000000 0.657058 0.299771
O O14 0.500000 0.838905 0.889289
#
# Coordination Sequence:
#
# PCOD9420201 Si02
#       5
#     8   8   8   8   8
#     4  11  22  39  59  79 107 143 181 221 270 324
#     4  10  20  36  57  82 111 144 182 222 267 318
#     4   8  16  32  53  77 108 144 178 216 267 321
#     4  11  22  38  58  81 109 142 180 221 270 323
#     4  11  21  34  55  84 113 142 180 224 268 316
#
# _framework density 18.289895000000001
#
# number of rings (size 3 to 8) (size 9 to 14) (size 15 to 20)
#    0.000    1.800    0.000    8.400    0.000    5.200 
#    0.000    5.000    0.000    6.000    0.000    0.000 
#    0.000    0.000    0.000    0.000    0.000    0.000 
#
# Total GULP energy -223152.226582 kJ/mol
# GULP energy per Si atom -5578.805665 kJ/mol
# Density = 1.824827 g / cm^3
# Si number density = 18.289895 Si / 1000 Ang^3
#
#
#
# Elastic Constant Matrix: (Units=GPa)
#
#
# Indices 1 2 3 4 5 6 
#
# 1 199.2672 29.7158 97.0025 0.0000 0.0000 0.0000
# 2 29.7158 30.3479 48.0996 0.0000 0.0000 0.0000
# 3 97.0025 48.0996 198.0311 0.0000 0.0000 0.0000
# 4 0.0000 0.0000 0.0000 -112.2427 0.0000 0.0000
# 5 0.0000 0.0000 0.0000 0.0000 42.1305 0.0000
# 6 0.0000 0.0000 0.0000 0.0000 0.0000 27.6512
#
#
#
# Elastic Compliance Matrix: (Units=1/GPa)
#
#
# Indices 1 2 3 4 5 6 
#
# 1 0.006679 -0.002202 -0.002737 0.000000 0.000000 0.000000
# 2 -0.002202 0.054302 -0.012111 0.000000 0.000000 0.000000
# 3 -0.002737 -0.012111 0.009332 0.000000 0.000000 0.000000
# 4 0.000000 0.000000 0.000000 -0.008909 0.000000 0.000000
# 5 0.000000 0.000000 0.000000 0.000000 0.023736 0.000000
# 6 0.000000 0.000000 0.000000 0.000000 0.000000 0.036165
#
#
# Mechanical properties :
#
#
# Convention : Reuss Voigt Hill
#
# Bulk Modulus (GPa) = 27.61388 86.36468 56.98928
# Shear Modulus (GPa) = 29.85516 8.36300 19.10908
#
# Velocity S-wave (km/s) = 4.04459 2.14065 3.23583
# Velocity P-wave (km/s) = 6.07802 7.30974 6.72215
#
# Compressibility (1/GPa) = 0.03621367
#
# Stress axis : x y z
#
# Youngs Moduli (GPa) = 149.72239 18.41541 107.16082
#
# Poissons Ratio (x) = 0.04056 0.29326
# Poissons Ratio (y) = 0.32976 1.29778
# Poissons Ratio (z) = 0.40974 0.22302
#
# Static dielectric constant tensor:
#      x y z
#    x 1.602460 0.000000 0.000000 
#    y 0.000000 1.654230 0.000000 
#    z 0.000000 0.000000 1.676710 
# 
# From -- ./inp_files/33643.got.cif
#   From: 2010.05.17/outbox.ucp.g08.bks.cvg/sg53_17_cif.got.tgz:33643.got - 2010.06.11 16:32:34.
