data_PCOD9420351
_publ_section_title
;
Structure prediction by ZEFSAII (Michael W. Deem and Ramdas Pophale) SiO2 
 PCOD9420351
Probable space group: P C C A
;
_chemical_formula_sum "Si O2"
_cell_formula_units_Z 64
_cell_length_a 5.287307
_cell_length_b 38.480766
_cell_length_c 14.148318
_cell_angle_alpha 90.000000
_cell_angle_beta 90.000000
_cell_angle_gamma 90.000000
_cell_volume 2878.611453
_symmetry_space_group_name_H-M "P C C A"
_symmetry_group_IT_number 54
_symmetry_cell_setting 'orthorhombic'
loop_
_space_group_symop_operation_xyz
x,y,z
1/2-x,-y,z
1/2+x,-y,1/2-z
-x,y,1/2-z
-x,-y,-z
1/2+x,y,-z
1/2-x,y,1/2+z
x,-y,1/2+z
loop_
_atom_site_type_symbol
_atom_site_label
_atom_site_fract_x
_atom_site_fract_y
_atom_site_fract_z
Si Si1 0.619210 0.168709 0.438727
Si Si2 0.769375 0.461714 0.437138
Si Si3 0.522340 0.097096 0.060150
Si Si4 0.498865 0.979966 0.636818
Si Si5 0.890810 0.358973 0.101155
Si Si6 0.516641 0.718407 0.135041
Si Si7 0.488428 0.756011 0.637784
Si Si8 0.385682 0.388214 0.114882
O O1 0.404111 0.168390 0.521103
O O2 0.551340 0.132649 0.385274
O O3 0.580474 0.204549 0.384774
O O4 0.750000 0.500000 0.392218
O O5 0.551216 0.459868 0.518828
O O6 0.698014 0.428118 0.376574
O O7 0.489947 0.060247 0.109361
O O8 0.810603 0.098153 0.023209
O O9 0.500000 0.981581 0.750000
O O10 0.750000 0.000000 0.604264
O O11 0.250000 0.000000 0.603438
O O12 0.875636 0.317752 0.094719
O O13 0.657973 0.377730 0.151440
O O14 0.156476 0.365436 0.150881
O O15 0.908632 0.377075 0.997206
O O16 0.500000 0.715163 0.250000
O O17 0.236806 0.730379 0.104037
O O18 0.727510 0.746698 0.106691
O O19 0.500000 0.751536 0.750000
#
# Coordination Sequence:
#
# PCOD9420351 Si02
#       8
#     8   8   8   8   8   8   8   8
#     4  10  21  39  56  82 111 136 173 227 273 313
#     4  10  16  25  41  61  92 131 154 186 235 293
#     4  10  21  36  57  80 110 145 179 218 266 323
#     4  10  21  36  54  81 115 145 181 227 265 308
#     4  10  18  30  45  64  95 126 154 196 243 291
#     4  10  21  37  53  72  98 131 172 213 253 302
#     4  10  21  39  58  76 101 137 177 219 262 319
#     4  10  17  30  43  68 100 125 154 200 243 297
#
# _framework density 22.232939999999999
#
# number of rings (size 3 to 8) (size 9 to 14) (size 15 to 20)
#    0.000    2.000    2.500    2.250    0.000    2.000 
#   13.500    0.000    0.000    9.000    0.000    0.000 
#    0.000    3.000    0.000    0.000    0.000    0.000 
#
# Total GULP energy -357153.600932 kJ/mol
# GULP energy per Si atom -5580.525015 kJ/mol
# Density = 2.218234 g / cm^3
# Si number density = 22.232940 Si / 1000 Ang^3
#
#
#
# Elastic Constant Matrix: (Units=GPa)
#
#
# Indices 1 2 3 4 5 6 
#
# 1 116.2252 3.7641 8.0273 0.0000 0.0000 0.0000
# 2 3.7641 139.6100 -2.0775 0.0000 0.0000 0.0000
# 3 8.0273 -2.0775 49.1270 0.0000 0.0000 0.0000
# 4 0.0000 0.0000 0.0000 -4.6468 0.0000 0.0000
# 5 0.0000 0.0000 0.0000 0.0000 -13.1351 0.0000
# 6 0.0000 0.0000 0.0000 0.0000 0.0000 42.8124
#
#
#
# Elastic Compliance Matrix: (Units=1/GPa)
#
#
# Indices 1 2 3 4 5 6 
#
# 1 0.008711 -0.000256 -0.001434 0.000000 0.000000 0.000000
# 2 -0.000256 0.007175 0.000345 0.000000 0.000000 0.000000
# 3 -0.001434 0.000345 0.020604 0.000000 0.000000 0.000000
# 4 0.000000 0.000000 0.000000 -0.215200 0.000000 0.000000
# 5 0.000000 0.000000 0.000000 0.000000 -0.076132 0.000000
# 6 0.000000 0.000000 0.000000 0.000000 0.000000 0.023358
#
#
# Mechanical properties :
#
#
# Convention : Reuss Voigt Hill
#
# Bulk Modulus (GPa) = 29.58568 36.04336 32.81452
# Shear Modulus (GPa) = -22.98568 24.68931 0.85181
#
# Velocity S-wave (km/s) = -3.21885 3.33601 0.61965
# Velocity P-wave (km/s) = 0.69185 5.57544 3.91196
#
# Compressibility (1/GPa) = 0.03380014
#
# Stress axis : x y z
#
# Youngs Moduli (GPa) = 114.79289 139.37558 48.53345
#
# Poissons Ratio (x) = 0.03571 0.06961
# Poissons Ratio (y) = 0.02941 -0.01676
# Poissons Ratio (z) = 0.16464 -0.04812
#
# Static dielectric constant tensor:
#      x y z
#    x 1.867430 0.000000 0.000000 
#    y 0.000000 1.839430 0.000000 
#    z 0.000000 0.000000 1.804790 
# 
# From -- ./inp_files/16008.got.cif
#   From: 2010.05.17/outbox.cif.g08.bks.cpg/sg54_9_cif.got.tgz:16008.got - 2010.06.03 13:09:01.
