data_PCOD9420310
_publ_section_title
;
Structure prediction by ZEFSAII (Michael W. Deem and Ramdas Pophale) SiO2 
 PCOD9420310
Probable space group: P C C A
;
_chemical_formula_sum "Si O2"
_cell_formula_units_Z 56
_cell_length_a 13.434190
_cell_length_b 35.889266
_cell_length_c 5.309866
_cell_angle_alpha 90.000000
_cell_angle_beta 90.000000
_cell_angle_gamma 90.000000
_cell_volume 2560.115883
_symmetry_space_group_name_H-M "P C C A"
_symmetry_group_IT_number 54
_symmetry_cell_setting 'orthorhombic'
loop_
_space_group_symop_operation_xyz
x,y,z
1/2-x,-y,z
1/2+x,-y,1/2-z
-x,y,1/2-z
-x,-y,-z
1/2+x,y,-z
1/2-x,y,1/2+z
x,-y,1/2+z
loop_
_atom_site_type_symbol
_atom_site_label
_atom_site_fract_x
_atom_site_fract_y
_atom_site_fract_z
Si Si1 0.432833 0.170878 0.500272
Si Si2 0.432837 0.252279 0.500198
Si Si3 0.634186 0.514533 0.607267
Si Si4 0.810674 0.904038 0.057963
Si Si5 0.815217 0.594668 0.946762
Si Si6 0.688317 0.327322 0.061132
Si Si7 0.365692 0.014835 0.390632
O O1 0.500000 0.169055 0.750000
O O2 0.380438 0.211582 0.504747
O O3 0.365601 0.134554 0.490928
O O4 0.500000 0.170130 0.250000
O O5 0.500000 0.254175 0.750000
O O6 0.365774 0.288671 0.489026
O O7 0.500000 0.252860 0.250000
O O8 0.750000 0.500000 0.640486
O O9 0.593170 0.488170 0.388190
O O10 0.629713 0.556221 0.501004
O O11 0.774992 0.905347 0.346708
O O12 0.869238 0.942582 0.020623
O O13 0.728726 0.594307 0.164000
O O14 0.869117 0.634059 0.999146
O O15 0.723851 0.328459 0.350857
O O16 0.250000 0.000000 0.360127
O O17 0.407338 0.989368 0.611879
#
# Coordination Sequence:
#
# PCOD9420310 Si02
#       7
#     8   8   8   8   8   8   8
#     4  10  23  41  57  79 114 147 172 221 279 322
#     4  10  21  40  61  76 103 149 188 207 257 342
#     4  10  14  20  34  53  84 131 165 185 233 318
#     4  12  21  33  59  90 106 141 187 232 257 313
#     4  10  16  25  37  62  97 131 155 203 261 307
#     4  10  21  33  53  81 112 136 164 231 283 299
#     4  10  16  30  49  78 107 138 176 218 257 299
#
# _framework density 21.874010999999999
#
# number of rings (size 3 to 8) (size 9 to 14) (size 15 to 20)
#    0.000    1.714    5.714    1.714    0.000    1.143 
#    0.000    0.000    0.000    2.571    0.000    0.000 
#    0.000    3.429    0.000    0.000    0.000    0.000 
#
# Total GULP energy -312414.425894 kJ/mol
# GULP energy per Si atom -5578.829034 kJ/mol
# Density = 2.182423 g / cm^3
# Si number density = 21.874011 Si / 1000 Ang^3
#
#
#
# Elastic Constant Matrix: (Units=GPa)
#
#
# Indices 1 2 3 4 5 6 
#
# 1 11.2445 9.6381 4.3227 0.0000 0.0000 0.0000
# 2 9.6381 188.7778 -3.1134 0.0000 0.0000 0.0000
# 3 4.3227 -3.1134 134.2169 0.0000 0.0000 0.0000
# 4 0.0000 0.0000 0.0000 58.6113 0.0000 0.0000
# 5 0.0000 0.0000 0.0000 0.0000 25.5678 0.0000
# 6 0.0000 0.0000 0.0000 0.0000 0.0000 -3.7135
#
#
#
# Elastic Compliance Matrix: (Units=1/GPa)
#
#
# Indices 1 2 3 4 5 6 
#
# 1 0.094316 -0.004867 -0.003150 0.000000 0.000000 0.000000
# 2 -0.004867 0.005550 0.000286 0.000000 0.000000 0.000000
# 3 -0.003150 0.000286 0.007559 0.000000 0.000000 0.000000
# 4 0.000000 0.000000 0.000000 0.017062 0.000000 0.000000
# 5 0.000000 0.000000 0.000000 0.000000 0.039112 0.000000
# 6 0.000000 0.000000 0.000000 0.000000 0.000000 -0.269288
#
#
# Mechanical properties :
#
#
# Convention : Reuss Voigt Hill
#
# Bulk Modulus (GPa) = 10.87425 39.54821 25.21123
# Shear Modulus (GPa) = -83.93153 37.65257 -23.13948
#
# Velocity S-wave (km/s) = -6.20111 4.15340 -3.25599
# Velocity P-wave (km/s) = 6.80364 6.41251 1.60768
#
# Compressibility (1/GPa) = 0.09196033
#
# Stress axis : x y z
#
# Youngs Moduli (GPa) = 10.60270 180.16598 132.29759
#
# Poissons Ratio (x) = 0.87691 0.41680
# Poissons Ratio (y) = 0.05161 -0.03777
# Poissons Ratio (z) = 0.03340 -0.05144
#
# Static dielectric constant tensor:
#      x y z
#    x 2.152220 0.000000 0.000000 
#    y 0.000000 1.840720 0.000000 
#    z 0.000000 0.000000 1.821190 
# 
# From -- ./inp_files/759.got.cif
#   From: 2010.05.17/outbox.cif.g08.bks.cpg/sg54_1_cif.got.tgz:759.got - 2010.06.03 13:09:01.
