data_PCOD9420827
_publ_section_title
;
Structure prediction by ZEFSAII (Michael W. Deem and Ramdas Pophale) SiO2 
 PCOD9420827
Probable space group: P C C A
;
_chemical_formula_sum "Si O2"
_cell_formula_units_Z 40
_cell_length_a 5.155262
_cell_length_b 24.801180
_cell_length_c 14.067588
_cell_angle_alpha 90.000000
_cell_angle_beta 90.000000
_cell_angle_gamma 90.000000
_cell_volume 1798.633702
_symmetry_space_group_name_H-M "P C C A"
_symmetry_group_IT_number 54
_symmetry_cell_setting 'orthorhombic'
loop_
_space_group_symop_operation_xyz
x,y,z
1/2-x,-y,z
1/2+x,-y,1/2-z
-x,y,1/2-z
-x,-y,-z
1/2+x,y,-z
1/2-x,y,1/2+z
x,-y,1/2+z
loop_
_atom_site_type_symbol
_atom_site_label
_atom_site_fract_x
_atom_site_fract_y
_atom_site_fract_z
Si Si1 0.199950 0.384772 0.566252
Si Si2 0.250000 0.000000 0.433135
Si Si3 0.562893 0.841541 0.359376
Si Si4 0.750000 0.500000 0.931410
Si Si5 0.064860 0.889304 0.360209
Si Si6 0.764987 0.268560 0.432606
O O1 0.412810 0.384715 0.480214
O O2 0.241315 0.441783 0.619554
O O3 0.753670 0.327622 0.383555
O O4 0.296200 0.053369 0.371080
O O5 0.500000 0.000000 0.500000
O O6 0.500000 0.854453 0.250000
O O7 0.273248 0.846758 0.401148
O O8 0.690218 0.782855 0.366566
O O9 0.775143 0.882877 0.401974
O O10 0.500000 0.500000 0.000000
O O11 0.000000 0.879042 0.250000
O O12 0.003594 0.265917 0.506248
#
# Coordination Sequence:
#
# PCOD9420827 Si02
#       6
#     8   4   8   4   8   8
#     4   8  14  23  36  59  89 122 158 196 244 294
#     4  12  26  40  60  90 114 132 170 224 268 310
#     4  10  21  37  55  76 102 136 176 209 246 306
#     4   8  12  20  34  52  84 122 154 194 238 288
#     4  10  23  41  59  77 104 142 174 203 250 315
#     4  10  19  30  48  73 101 131 165 211 262 304
#
# _framework density 22.239101000000002
#
# number of rings (size 3 to 8) (size 9 to 14) (size 15 to 20)
#    0.000    2.400    0.000    2.400    0.000    8.000 
#    0.000    0.000    0.000    0.000    0.000    0.000 
#    0.000   28.800    0.000    0.000    0.000   38.800 
#
# Total GULP energy -222802.894192 kJ/mol
# GULP energy per Si atom -5570.072355 kJ/mol
# Density = 2.218848 g / cm^3
# Si number density = 22.239101 Si / 1000 Ang^3
#
#
#
# Elastic Constant Matrix: (Units=GPa)
#
#
# Indices 1 2 3 4 5 6 
#
# 1 156.0325 36.0108 12.0461 0.0000 0.0000 0.0000
# 2 36.0108 158.6874 -7.9847 0.0000 0.0000 0.0000
# 3 12.0461 -7.9847 32.1827 0.0000 0.0000 0.0000
# 4 0.0000 0.0000 0.0000 4.6705 0.0000 0.0000
# 5 0.0000 0.0000 0.0000 0.0000 12.8462 0.0000
# 6 0.0000 0.0000 0.0000 0.0000 0.0000 24.1928
#
#
#
# Elastic Compliance Matrix: (Units=1/GPa)
#
#
# Indices 1 2 3 4 5 6 
#
# 1 0.007051 -0.001755 -0.003075 0.000000 0.000000 0.000000
# 2 -0.001755 0.006818 0.002348 0.000000 0.000000 0.000000
# 3 -0.003075 0.002348 0.032806 0.000000 0.000000 0.000000
# 4 0.000000 0.000000 0.000000 0.214109 0.000000 0.000000
# 5 0.000000 0.000000 0.000000 0.000000 0.077844 0.000000
# 6 0.000000 0.000000 0.000000 0.000000 0.000000 0.041335
#
#
# Mechanical properties :
#
#
# Convention : Reuss Voigt Hill
#
# Bulk Modulus (GPa) = 23.97319 47.44966 35.71143
# Shear Modulus (GPa) = 12.53668 28.79727 20.66698
#
# Velocity S-wave (km/s) = 2.37686 3.60237 3.05176
# Velocity P-wave (km/s) = 4.28203 6.21974 5.33952
#
# Compressibility (1/GPa) = 0.04171326
#
# Stress axis : x y z
#
# Youngs Moduli (GPa) = 141.81781 146.66854 30.48215
#
# Poissons Ratio (x) = 0.25738 0.09372
# Poissons Ratio (y) = 0.24887 -0.07159
# Poissons Ratio (z) = 0.43605 -0.34444
#
# Static dielectric constant tensor:
#      x y z
#    x 1.866710 0.000000 0.000000 
#    y 0.000000 1.953450 0.000000 
#    z 0.000000 0.000000 1.819030 
# 
# From -- ./inp_files/15875.got.cif
#   From: 2010.05.17/outbox.cif.g08.bks.cpg/sg54_8_cif.got.tgz:15875.got - 2010.06.03 13:09:01.
