data_PCOD9420469
_publ_section_title
;
Structure prediction by ZEFSAII (Michael W. Deem and Ramdas Pophale) SiO2 
 PCOD9420469
Probable space group: P C C A
;
_chemical_formula_sum "Si O2"
_cell_formula_units_Z 40
_cell_length_a 7.992466
_cell_length_b 8.068743
_cell_length_c 25.516632
_cell_angle_alpha 90.000000
_cell_angle_beta 90.000000
_cell_angle_gamma 90.000000
_cell_volume 1645.546013
_symmetry_space_group_name_H-M "P C C A"
_symmetry_group_IT_number 54
_symmetry_cell_setting 'orthorhombic'
loop_
_space_group_symop_operation_xyz
x,y,z
1/2-x,-y,z
1/2+x,-y,1/2-z
-x,y,1/2-z
-x,-y,-z
1/2+x,y,-z
1/2-x,y,1/2+z
x,-y,1/2+z
loop_
_atom_site_type_symbol
_atom_site_label
_atom_site_fract_x
_atom_site_fract_y
_atom_site_fract_z
Si Si1 0.822958 0.683287 0.881301
Si Si2 0.817493 0.310711 0.777458
Si Si3 0.813751 0.688217 0.674895
Si Si4 0.180367 0.686149 0.427631
Si Si5 0.999071 0.812897 0.982459
O O1 0.750000 0.500000 0.893507
O O2 0.702204 0.760338 0.836199
O O3 0.866962 0.771800 0.936043
O O4 0.003501 0.679357 0.850962
O O5 0.750000 0.500000 0.785842
O O6 0.700459 0.232643 0.732083
O O7 0.000000 0.311956 0.750000
O O8 0.750000 0.500000 0.683290
O O9 0.684812 0.755485 0.631161
O O10 0.250000 0.500000 0.424622
O O11 0.024285 0.699969 0.465683
O O12 0.321005 0.784093 0.458207
O O13 0.000000 0.000000 0.000000
#
# Coordination Sequence:
#
# PCOD9420469 Si02
#       5
#     8   8   8   8   8
#     4  10  19  32  53  81 117 161 203 249 302 364
#     4  10  17  27  48  82 119 154 192 247 307 362
#     4   9  17  30  49  80 116 150 190 243 299 354
#     4  10  21  37  59  84 115 155 200 247 297 359
#     4  11  23  38  56  85 120 158 203 254 310 361
#
# _framework density 24.308039999999998
#
# number of rings (size 3 to 8) (size 9 to 14) (size 15 to 20)
#    0.000    2.000    0.000    7.200    0.000    4.800 
#    0.000    0.000    0.000    0.000    0.000   33.600 
#    0.000    0.000    0.000    0.000    0.000    0.800 
#
# Total GULP energy -223207.657619 kJ/mol
# GULP energy per Si atom -5580.191440 kJ/mol
# Density = 2.425271 g / cm^3
# Si number density = 24.308040 Si / 1000 Ang^3
#
#
#
# Elastic Constant Matrix: (Units=GPa)
#
#
# Indices 1 2 3 4 5 6 
#
# 1 114.3979 10.2529 41.7765 0.0000 0.0000 0.0000
# 2 10.2529 42.4652 32.1859 0.0000 0.0000 0.0000
# 3 41.7765 32.1859 190.4664 0.0000 0.0000 0.0000
# 4 0.0000 0.0000 0.0000 -25.5501 0.0000 0.0000
# 5 0.0000 0.0000 0.0000 0.0000 45.3465 0.0000
# 6 0.0000 0.0000 0.0000 0.0000 0.0000 21.9251
#
#
#
# Elastic Compliance Matrix: (Units=1/GPa)
#
#
# Indices 1 2 3 4 5 6 
#
# 1 0.009527 -0.000822 -0.001951 0.000000 0.000000 0.000000
# 2 -0.000822 0.027079 -0.004396 0.000000 0.000000 0.000000
# 3 -0.001951 -0.004396 0.006421 0.000000 0.000000 0.000000
# 4 0.000000 0.000000 0.000000 -0.039139 0.000000 0.000000
# 5 0.000000 0.000000 0.000000 0.000000 0.022052 0.000000
# 6 0.000000 0.000000 0.000000 0.000000 0.000000 0.045610
#
#
# Mechanical properties :
#
#
# Convention : Reuss Voigt Hill
#
# Bulk Modulus (GPa) = 34.85450 57.30668 46.08059
# Shear Modulus (GPa) = 52.38300 25.88524 39.13412
#
# Velocity S-wave (km/s) = 4.64720 3.26680 4.01674
# Velocity P-wave (km/s) = 6.57001 6.15269 6.36477
#
# Compressibility (1/GPa) = 0.02869070
#
# Stress axis : x y z
#
# Youngs Moduli (GPa) = 104.95939 36.92939 155.73958
#
# Poissons Ratio (x) = 0.03034 0.30383
# Poissons Ratio (y) = 0.08624 0.68458
# Poissons Ratio (z) = 0.20476 0.16233
#
# Static dielectric constant tensor:
#      x y z
#    x 2.083170 0.000000 0.000000 
#    y 0.000000 2.033370 0.000000 
#    z 0.000000 0.000000 2.093860 
# 
# From -- ./inp_files/25747.got.cif
#   From: 2010.05.17/outbox.cif.g08.bks.cpg/sg54_13_cif.got.tgz:25747.got - 2010.06.03 13:09:01.
