data_PCOD9420646
_publ_section_title
;
Structure prediction by ZEFSAII (Michael W. Deem and Ramdas Pophale) SiO2 
 PCOD9420646
Probable space group: P C C A
;
_chemical_formula_sum "Si O2"
_cell_formula_units_Z 44
_cell_length_a 14.927530
_cell_length_b 12.701524
_cell_length_c 9.162357
_cell_angle_alpha 90.000000
_cell_angle_beta 90.000000
_cell_angle_gamma 90.000000
_cell_volume 1737.204699
_symmetry_space_group_name_H-M "P C C A"
_symmetry_group_IT_number 54
_symmetry_cell_setting 'orthorhombic'
loop_
_space_group_symop_operation_xyz
x,y,z
1/2-x,-y,z
1/2+x,-y,1/2-z
-x,y,1/2-z
-x,-y,-z
1/2+x,y,-z
1/2-x,y,1/2+z
x,-y,1/2+z
loop_
_atom_site_type_symbol
_atom_site_label
_atom_site_fract_x
_atom_site_fract_y
_atom_site_fract_z
Si Si1 0.079705 0.629988 0.488691
Si Si2 0.000000 0.496364 0.750000
Si Si3 0.751191 0.378567 0.824910
Si Si4 0.803920 0.236284 0.050287
Si Si5 0.856041 0.964615 0.710041
Si Si6 0.393677 0.140129 0.493948
O O1 0.070278 0.579553 0.329851
O O2 0.180561 0.615696 0.541641
O O3 0.052805 0.751502 0.489224
O O4 0.028578 0.569374 0.616742
O O5 0.750000 0.500000 0.775915
O O6 0.828201 0.312342 0.913057
O O7 0.711177 0.305906 0.696614
O O8 0.861239 0.135208 0.099586
O O9 0.710045 0.179927 0.009031
O O10 0.750000 0.000000 0.730463
O O11 0.904377 0.064497 0.641952
O O12 0.899053 0.925871 0.859174
#
# Coordination Sequence:
#
# PCOD9420646 Si02
#       6
#     8   4   8   8   8   8
#     4  10  23  44  63  94 114 169 215 265 309 377
#     4  10  24  46  70  80 122 170 224 264 308 366
#     4  11  23  33  58  96 134 158 197 251 321 380
#     4  10  19  34  50  89 130 168 189 233 306 393
#     4  10  18  33  54  87 129 168 191 235 305 394
#     4  10  21  34  59  88 126 156 208 240 304 371
#
# _framework density 25.328047000000002
#
# number of rings (size 3 to 8) (size 9 to 14) (size 15 to 20)
#    0.000    1.818    3.636    2.182   10.182    0.000 
#    0.000    3.636    0.000    3.273    0.000    0.000 
#    0.000    0.000    0.000    0.000    0.000    0.000 
#
# Total GULP energy -245893.846170 kJ/mol
# GULP energy per Si atom -5588.496504 kJ/mol
# Density = 2.527040 g / cm^3
# Si number density = 25.328047 Si / 1000 Ang^3
#
#
#
# Elastic Constant Matrix: (Units=GPa)
#
#
# Indices 1 2 3 4 5 6 
#
# 1 21.1665 10.5731 22.0945 0.0000 0.0000 0.0000
# 2 10.5731 197.0804 102.6046 0.0000 0.0000 0.0000
# 3 22.0945 102.6046 124.0212 0.0000 0.0000 0.0000
# 4 0.0000 0.0000 0.0000 249.0851 0.0000 0.0000
# 5 0.0000 0.0000 0.0000 0.0000 12.1449 0.0000
# 6 0.0000 0.0000 0.0000 0.0000 0.0000 10.2675
#
#
#
# Elastic Compliance Matrix: (Units=1/GPa)
#
#
# Indices 1 2 3 4 5 6 
#
# 1 0.059876 0.004113 -0.014069 0.000000 0.000000 0.000000
# 2 0.004113 0.009196 -0.008340 0.000000 0.000000 0.000000
# 3 -0.014069 -0.008340 0.017470 0.000000 0.000000 0.000000
# 4 0.000000 0.000000 0.000000 0.004015 0.000000 0.000000
# 5 0.000000 0.000000 0.000000 0.000000 0.082339 0.000000
# 6 0.000000 0.000000 0.000000 0.000000 0.000000 0.097395
#
#
# Mechanical properties :
#
#
# Convention : Reuss Voigt Hill
#
# Bulk Modulus (GPa) = 20.02107 68.09027 44.05567
# Shear Modulus (GPa) = 15.45431 68.09921 41.77676
#
# Velocity S-wave (km/s) = 2.47283 5.19088 4.06572
# Velocity P-wave (km/s) = 4.00937 7.92898 6.28267
#
# Compressibility (1/GPa) = 0.04994739
#
# Stress axis : x y z
#
# Youngs Moduli (GPa) = 16.70105 108.74759 57.24190
#
# Poissons Ratio (x) = -0.44724 0.80536
# Poissons Ratio (y) = -0.06869 0.47742
# Poissons Ratio (z) = 0.23498 0.90699
#
# Static dielectric constant tensor:
#      x y z
#    x 2.160810 0.000000 0.000000 
#    y 0.000000 2.105080 0.000000 
#    z 0.000000 0.000000 2.017970 
# 
# From -- ./inp_files/5104.got.cif
#   From: 2010.05.17/outbox.cif.g08.bks.cpg/sg54_3_cif.got.tgz:5104.got - 2010.06.03 13:09:01.
