data_PCOD9420454
_publ_section_title
;
Structure prediction by ZEFSAII (Michael W. Deem and Ramdas Pophale) SiO2 
 PCOD9420454
Probable space group: P C C A
;
_chemical_formula_sum "Si O2"
_cell_formula_units_Z 48
_cell_length_a 16.768868
_cell_length_b 8.011272
_cell_length_c 17.470907
_cell_angle_alpha 90.000000
_cell_angle_beta 90.000000
_cell_angle_gamma 90.000000
_cell_volume 2347.040994
_symmetry_space_group_name_H-M "P C C A"
_symmetry_group_IT_number 54
_symmetry_cell_setting 'orthorhombic'
loop_
_space_group_symop_operation_xyz
x,y,z
1/2-x,-y,z
1/2+x,-y,1/2-z
-x,y,1/2-z
-x,-y,-z
1/2+x,y,-z
1/2-x,y,1/2+z
x,-y,1/2+z
loop_
_atom_site_type_symbol
_atom_site_label
_atom_site_fract_x
_atom_site_fract_y
_atom_site_fract_z
Si Si1 0.178550 0.873948 0.555365
Si Si2 0.047550 0.117774 0.618815
Si Si3 0.750000 0.000000 0.673011
Si Si4 0.881353 0.793563 0.095043
Si Si5 0.171557 0.275054 0.220801
Si Si6 0.000000 0.882542 0.750000
Si Si7 0.405447 0.384224 0.244322
O O1 0.162533 0.751664 0.484353
O O2 0.190995 0.776641 0.634323
O O3 0.250000 0.000000 0.540268
O O4 0.104565 0.000021 0.570504
O O5 0.093524 0.245545 0.676007
O O6 0.974941 0.196433 0.572301
O O7 0.997978 0.001667 0.677039
O O8 0.672424 0.951377 0.623291
O O9 0.772446 0.838749 0.725082
O O10 0.884233 0.681816 0.171154
O O11 0.158639 0.472471 0.227394
O O12 0.081737 0.214721 0.241310
O O13 0.500000 0.434752 0.250000
#
# Coordination Sequence:
#
# PCOD9420454 Si02
#       7
#     8   8   4   8   8   4   8
#     4  11  23  39  62  93 133 165 216 265 323 393
#     4  10  19  39  65  90 122 174 216 268 319 386
#     4  12  22  38  66  88 126 170 226 264 314 396
#     4  11  21  40  62  94 125 165 215 275 324 380
#     4  11  22  38  64  94 121 173 213 267 321 390
#     4  10  16  34  64  86 116 156 232 252 294 384
#     4  10  21  40  67  93 128 163 221 278 324 378
#
# _framework density 20.451283
#
# number of rings (size 3 to 8) (size 9 to 14) (size 15 to 20)
#    0.000    1.333    6.667    1.500    0.000    0.667 
#    0.000    5.000    3.667    0.000    0.000    0.000 
#    0.000    0.000    0.000    0.000    0.000    0.000 
#
# Total GULP energy -267378.957682 kJ/mol
# GULP energy per Si atom -5570.394952 kJ/mol
# Density = 2.040474 g / cm^3
# Si number density = 20.451283 Si / 1000 Ang^3
#
#
#
# Elastic Constant Matrix: (Units=GPa)
#
#
# Indices 1 2 3 4 5 6 
#
# 1 78.6856 4.8256 26.9306 0.0000 0.0000 0.0000
# 2 4.8256 54.6674 19.9052 0.0000 0.0000 0.0000
# 3 26.9306 19.9052 84.9951 0.0000 0.0000 0.0000
# 4 0.0000 0.0000 0.0000 3.4322 0.0000 0.0000
# 5 0.0000 0.0000 0.0000 0.0000 15.7025 0.0000
# 6 0.0000 0.0000 0.0000 0.0000 0.0000 22.1243
#
#
#
# Elastic Compliance Matrix: (Units=1/GPa)
#
#
# Indices 1 2 3 4 5 6 
#
# 1 0.014264 0.000423 -0.004618 0.000000 0.000000 0.000000
# 2 0.000423 0.020010 -0.004820 0.000000 0.000000 0.000000
# 3 -0.004618 -0.004820 0.014358 0.000000 0.000000 0.000000
# 4 0.000000 0.000000 0.000000 0.291360 0.000000 0.000000
# 5 0.000000 0.000000 0.000000 0.000000 0.063684 0.000000
# 6 0.000000 0.000000 0.000000 0.000000 0.000000 0.045199
#
#
# Mechanical properties :
#
#
# Convention : Reuss Voigt Hill
#
# Bulk Modulus (GPa) = 32.68032 35.74120 34.21076
# Shear Modulus (GPa) = 10.47984 19.36424 14.92204
#
# Velocity S-wave (km/s) = 2.26615 3.08043 2.70411
# Velocity P-wave (km/s) = 4.78137 5.49238 5.14916
#
# Compressibility (1/GPa) = 0.03059946
#
# Stress axis : x y z
#
# Youngs Moduli (GPa) = 70.10877 49.97447 69.64989
#
# Poissons Ratio (x) = -0.02112 0.32167
# Poissons Ratio (y) = -0.02962 0.33572
# Poissons Ratio (z) = 0.32379 0.24088
#
# Static dielectric constant tensor:
#      x y z
#    x 1.760650 0.000000 0.000000 
#    y 0.000000 1.910240 0.000000 
#    z 0.000000 0.000000 1.717180 
# 
# From -- ./inp_files/18544.got.cif
#   From: 2010.05.17/outbox.cif.g08.bks.cpg/sg54_10_cif.got.tgz:18544.got - 2010.06.03 13:09:01.
