data_PCOD9420606
_publ_section_title
;
Structure prediction by ZEFSAII (Michael W. Deem and Ramdas Pophale) SiO2 
 PCOD9420606
Probable space group: P C C A
;
_chemical_formula_sum "Si O2"
_cell_formula_units_Z 40
_cell_length_a 8.491769
_cell_length_b 12.590720
_cell_length_c 17.297048
_cell_angle_alpha 90.000000
_cell_angle_beta 90.000000
_cell_angle_gamma 90.000000
_cell_volume 1849.356884
_symmetry_space_group_name_H-M "P C C A"
_symmetry_group_IT_number 54
_symmetry_cell_setting 'orthorhombic'
loop_
_space_group_symop_operation_xyz
x,y,z
1/2-x,-y,z
1/2+x,-y,1/2-z
-x,y,1/2-z
-x,-y,-z
1/2+x,y,-z
1/2-x,y,1/2+z
x,-y,1/2+z
loop_
_atom_site_type_symbol
_atom_site_label
_atom_site_fract_x
_atom_site_fract_y
_atom_site_fract_z
Si Si1 0.021967 0.355097 0.570042
Si Si2 0.694214 0.807921 0.847299
Si Si3 0.120858 0.150261 0.006482
Si Si4 0.000000 0.145318 0.250000
Si Si5 0.455460 0.011327 0.374300
Si Si6 0.250000 0.500000 0.467900
O O1 0.090357 0.298354 0.646745
O O2 0.153645 0.420662 0.523728
O O3 0.955703 0.262313 0.514072
O O4 0.875747 0.434285 0.581903
O O5 0.734550 0.825873 0.938157
O O6 0.857190 0.799952 0.798941
O O7 0.587175 0.911998 0.833777
O O8 0.149053 0.091914 0.924929
O O9 0.028063 0.068022 0.061273
O O10 0.095295 0.069584 0.308614
#
# Coordination Sequence:
#
# PCOD9420606 Si02
#       6
#     8   8   8   4   8   4
#     4  10  19  34  58  88 126 154 200 268 340 394
#     4  10  19  35  56  83 126 164 215 257 321 383
#     4   9  16  32  54  85 117 161 199 249 323 380
#     4  10  18  32  52  78 116 168 212 252 306 384
#     4   9  19  32  52  80 125 163 205 254 300 383
#     4  10  20  34  58  92 128 148 204 272 348 386
#
# _framework density 21.62914
#
# number of rings (size 3 to 8) (size 9 to 14) (size 15 to 20)
#    0.000    2.400    2.000    2.400    0.000    0.000 
#    0.000   20.000    0.000    0.000    0.000   11.200 
#    0.000    0.000    0.000    0.000    0.000    0.000 
#
# Total GULP energy -222791.809930 kJ/mol
# GULP energy per Si atom -5569.795248 kJ/mol
# Density = 2.157991 g / cm^3
# Si number density = 21.629140 Si / 1000 Ang^3
#
#
#
# Elastic Constant Matrix: (Units=GPa)
#
#
# Indices 1 2 3 4 5 6 
#
# 1 113.8186 53.7291 33.4653 0.0000 0.0000 0.0000
# 2 53.7291 121.5884 24.3947 0.0000 0.0000 0.0000
# 3 33.4653 24.3947 73.9474 0.0000 0.0000 0.0000
# 4 0.0000 0.0000 0.0000 41.9720 0.0000 0.0000
# 5 0.0000 0.0000 0.0000 0.0000 29.1740 0.0000
# 6 0.0000 0.0000 0.0000 0.0000 0.0000 47.9961
#
#
#
# Elastic Compliance Matrix: (Units=1/GPa)
#
#
# Indices 1 2 3 4 5 6 
#
# 1 0.012103 -0.004551 -0.003976 0.000000 0.000000 0.000000
# 2 -0.004551 0.010518 -0.001411 0.000000 0.000000 0.000000
# 3 -0.003976 -0.001411 0.015788 0.000000 0.000000 0.000000
# 4 0.000000 0.000000 0.000000 0.023825 0.000000 0.000000
# 5 0.000000 0.000000 0.000000 0.000000 0.034277 0.000000
# 6 0.000000 0.000000 0.000000 0.000000 0.000000 0.020835
#
#
# Mechanical properties :
#
#
# Convention : Reuss Voigt Hill
#
# Bulk Modulus (GPa) = 53.95240 59.17031 56.56136
# Shear Modulus (GPa) = 34.86759 37.01276 35.94017
#
# Velocity S-wave (km/s) = 4.01941 4.14121 4.08076
# Velocity P-wave (km/s) = 6.82197 7.09100 6.95779
#
# Compressibility (1/GPa) = 0.01853486
#
# Stress axis : x y z
#
# Youngs Moduli (GPa) = 82.62336 95.07211 63.33974
#
# Poissons Ratio (x) = 0.43263 0.25185
# Poissons Ratio (y) = 0.37598 0.08934
# Poissons Ratio (z) = 0.32852 0.13410
#
# Static dielectric constant tensor:
#      x y z
#    x 1.978780 0.000000 0.000000 
#    y 0.000000 1.837760 0.000000 
#    z 0.000000 0.000000 1.784820 
# 
# From -- ./inp_files/20325.got.cif
#   From: 2010.05.17/outbox.cif.g08.bks.cpg/sg54_11_cif.got.tgz:20325.got - 2010.06.03 13:09:01.
