data_PCOD9420151
_publ_section_title
;
Structure prediction by ZEFSAII (Michael W. Deem and Ramdas Pophale) SiO2 
 PCOD9420151
Probable space group: P M N A
;
_chemical_formula_sum "Si O2"
_cell_formula_units_Z 48
_cell_length_a 18.000000
_cell_length_b 15.000000
_cell_length_c 9.000000
_cell_angle_alpha 90.000000
_cell_angle_beta 90.000000
_cell_angle_gamma 90.000000
_cell_volume 2430.000000
_symmetry_space_group_name_H-M "P M N A"
_symmetry_group_IT_number 53
_symmetry_cell_setting 'orthorhombic'
loop_
_space_group_symop_operation_xyz
x,y,z
1/2-x,-y,1/2+z
x,-y,-z
1/2-x,y,1/2-z
-x,-y,-z
1/2+x,y,1/2-z
-x,y,z
1/2+x,-y,1/2+z
loop_
_atom_site_type_symbol
_atom_site_label
_atom_site_fract_x
_atom_site_fract_y
_atom_site_fract_z
Si Si1 0.646409 0.232104 0.643118
Si Si2 0.813585 0.569562 0.636751
Si Si3 0.306770 0.749225 0.044274
Si Si4 0.585870 0.685040 0.646896
Si Si5 0.410905 0.966868 0.339395
Si Si6 0.912348 0.862660 0.655955
O O1 0.656424 0.280242 0.800833
O O2 0.727954 0.208314 0.582062
O O3 0.611889 0.297738 0.521250
O O4 0.607241 0.137448 0.673590
O O5 0.829922 0.500000 0.500000
O O6 0.750000 0.534671 0.750000
O O7 0.791018 0.662662 0.556085
O O8 0.875209 0.609704 0.751307
O O9 0.360567 0.821641 0.970512
O O10 0.500000 0.663126 0.646542
O O11 0.593970 0.784546 0.719295
O O12 0.500000 0.974700 0.340090
O O13 0.383060 0.000000 0.500000
O O14 0.387284 0.040878 0.217552
O O15 0.000000 0.867762 0.613278
#
# Coordination Sequence:
#
# PCOD9420151 Si02
#       6
#     8   8   8   8   8   8
#     4  11  21  38  58  90 130 169 214 263 312 380
#     4  11  24  42  72  97 123 163 208 266 326 399
#     4  10  24  41  58  92 130 164 212 263 327 388
#     4  10  20  39  66  94 128 172 211 256 321 384
#     4  10  19  35  59  88 122 168 224 265 303 367
#     4   9  19  37  60  86 123 171 218 264 314 365
#
# _framework density 19.753086
#
# number of rings (size 3 to 8) (size 9 to 14) (size 15 to 20)
#    0.000    1.833    3.333    0.500    2.333    2.333 
#    6.000    1.667    0.000    3.500    0.000    0.000 
#    0.000    0.000    0.000    0.000    0.000    0.000 
#
# Total GULP energy -267461.560938 kJ/mol
# GULP energy per Si atom -5572.115853 kJ/mol
# Density = 1.970813 g / cm^3
# Si number density = 19.753086 Si / 1000 Ang^3
#
#
#
# Elastic Constant Matrix: (Units=GPa)
#
#
# Indices 1 2 3 4 5 6 
#
# 1 52.3630 20.6865 47.1865 0.0000 0.0000 0.0000
# 2 20.6865 74.0188 29.1667 0.0000 0.0000 0.0000
# 3 47.1865 29.1667 120.4335 0.0000 0.0000 0.0000
# 4 0.0000 0.0000 0.0000 36.7782 0.0000 0.0000
# 5 0.0000 0.0000 0.0000 0.0000 15.7458 0.0000
# 6 0.0000 0.0000 0.0000 0.0000 0.0000 22.7748
#
#
#
# Elastic Compliance Matrix: (Units=1/GPa)
#
#
# Indices 1 2 3 4 5 6 
#
# 1 0.030680 -0.004243 -0.010993 0.000000 0.000000 0.000000
# 2 -0.004243 0.015522 -0.002097 0.000000 0.000000 0.000000
# 3 -0.010993 -0.002097 0.013118 0.000000 0.000000 0.000000
# 4 0.000000 0.000000 0.000000 0.027190 0.000000 0.000000
# 5 0.000000 0.000000 0.000000 0.000000 0.063509 0.000000
# 6 0.000000 0.000000 0.000000 0.000000 0.000000 0.043908
#
#
# Mechanical properties :
#
#
# Convention : Reuss Voigt Hill
#
# Bulk Modulus (GPa) = 40.55938 48.98827 44.77383
# Shear Modulus (GPa) = 21.11390 25.04479 23.07935
#
# Velocity S-wave (km/s) = 3.27294 3.56461 3.42188
# Velocity P-wave (km/s) = 5.90429 6.46499 6.19099
#
# Compressibility (1/GPa) = 0.02465521
#
# Stress axis : x y z
#
# Youngs Moduli (GPa) = 32.59474 64.42451 76.22936
#
# Poissons Ratio (x) = 0.27332 0.83799
# Poissons Ratio (y) = 0.13828 0.15985
# Poissons Ratio (z) = 0.35832 0.13509
#
# Static dielectric constant tensor:
#      x y z
#    x 1.712040 0.000000 0.000000 
#    y 0.000000 1.661930 0.000000 
#    z 0.000000 0.000000 1.773370 
# 
# From -- ./inp_files/10010.got.cif
#   From: 2010.05.17/outbox.ucp.g08.bks.cvg/sg53_6_cif.got.tgz:10010.got - 2010.06.11 16:32:34.
