data_PCOD9420510
_publ_section_title
;
Structure prediction by ZEFSAII (Michael W. Deem and Ramdas Pophale) SiO2 
 PCOD9420510
Probable space group: P C C A
;
_chemical_formula_sum "Si O2"
_cell_formula_units_Z 64
_cell_length_a 15.057214
_cell_length_b 12.608573
_cell_length_c 17.439782
_cell_angle_alpha 90.000000
_cell_angle_beta 90.000000
_cell_angle_gamma 90.000000
_cell_volume 3310.942297
_symmetry_space_group_name_H-M "P C C A"
_symmetry_group_IT_number 54
_symmetry_cell_setting 'orthorhombic'
loop_
_space_group_symop_operation_xyz
x,y,z
1/2-x,-y,z
1/2+x,-y,1/2-z
-x,y,1/2-z
-x,-y,-z
1/2+x,y,-z
1/2-x,y,1/2+z
x,-y,1/2+z
loop_
_atom_site_type_symbol
_atom_site_label
_atom_site_fract_x
_atom_site_fract_y
_atom_site_fract_z
Si Si1 0.756120 0.697704 0.815545
Si Si2 0.275284 0.122472 0.579850
Si Si3 0.661328 0.429840 0.953554
Si Si4 0.468022 0.879754 0.012689
Si Si5 0.138147 0.749313 0.977970
Si Si6 0.081186 0.383542 0.627178
Si Si7 0.273590 0.374254 0.843374
Si Si8 0.095446 0.296016 0.901142
O O1 0.749273 0.820094 0.840026
O O2 0.802746 0.652326 0.891561
O O3 0.659552 0.641199 0.813655
O O4 0.807336 0.660609 0.740215
O O5 0.380492 0.127472 0.564616
O O6 0.219976 0.179274 0.510126
O O7 0.250000 0.000000 0.580765
O O8 0.750000 0.500000 0.973209
O O9 0.591083 0.499970 0.907228
O O10 0.618140 0.371766 0.025552
O O11 0.553839 0.819152 0.045958
O O12 0.437530 0.816092 0.935374
O O13 0.500000 0.000000 0.000000
O O14 0.165169 0.665438 0.913011
O O15 0.105939 0.687611 0.053230
O O16 0.982827 0.349712 0.647563
O O17 0.250000 0.500000 0.845576
O O18 0.185953 0.301293 0.854734
#
# Coordination Sequence:
#
# PCOD9420510 Si02
#       8
#     8   8   8   8   8   8   8   8
#     4  10  22  39  56  82 126 165 204 242 304 375
#     4  11  20  40  66  88 118 162 207 264 317 353
#     4  10  17  33  56  81 115 158 199 248 308 362
#     4  11  21  37  64  97 118 149 203 270 318 356
#     4  10  21  36  61  96 119 150 207 255 307 369
#     4   9  19  33  56  84 113 154 203 253 295 359
#     4  12  23  39  60  88 128 170 198 242 309 380
#     4  11  20  33  59  89 117 150 205 261 299 361
#
# _framework density 19.329844999999999
#
# number of rings (size 3 to 8) (size 9 to 14) (size 15 to 20)
#    0.000    1.500    3.750    4.125    0.000    1.500 
#    0.000    2.500    0.000    0.000    0.000    0.000 
#    0.000    0.000    0.000    0.000    0.000    0.000 
#
# Total GULP energy -356880.175813 kJ/mol
# GULP energy per Si atom -5576.252747 kJ/mol
# Density = 1.928585 g / cm^3
# Si number density = 19.329845 Si / 1000 Ang^3
#
#
#
# Elastic Constant Matrix: (Units=GPa)
#
#
# Indices 1 2 3 4 5 6 
#
# 1 74.7924 15.6847 -2.7983 0.0000 0.0000 0.0000
# 2 15.6847 107.7230 22.0889 0.0000 0.0000 0.0000
# 3 -2.7983 22.0889 59.8583 0.0000 0.0000 0.0000
# 4 0.0000 0.0000 0.0000 17.3114 0.0000 0.0000
# 5 0.0000 0.0000 0.0000 0.0000 12.7811 0.0000
# 6 0.0000 0.0000 0.0000 0.0000 0.0000 32.6713
#
#
#
# Elastic Compliance Matrix: (Units=1/GPa)
#
#
# Indices 1 2 3 4 5 6 
#
# 1 0.013917 -0.002337 0.001513 0.000000 0.000000 0.000000
# 2 -0.002337 0.010435 -0.003960 0.000000 0.000000 0.000000
# 3 0.001513 -0.003960 0.018238 0.000000 0.000000 0.000000
# 4 0.000000 0.000000 0.000000 0.057765 0.000000 0.000000
# 5 0.000000 0.000000 0.000000 0.000000 0.078241 0.000000
# 6 0.000000 0.000000 0.000000 0.000000 0.000000 0.030608
#
#
# Mechanical properties :
#
#
# Convention : Reuss Voigt Hill
#
# Bulk Modulus (GPa) = 30.28205 34.70271 32.49238
# Shear Modulus (GPa) = 21.75998 26.37930 24.06964
#
# Velocity S-wave (km/s) = 3.35881 3.69818 3.53258
# Velocity P-wave (km/s) = 5.54456 6.01891 5.78660
#
# Compressibility (1/GPa) = 0.03302286
#
# Stress axis : x y z
#
# Youngs Moduli (GPa) = 71.85483 95.82860 54.83005
#
# Poissons Ratio (x) = 0.22391 -0.08295
# Poissons Ratio (y) = 0.16789 0.21713
# Poissons Ratio (z) = -0.10870 0.37949
#
# Static dielectric constant tensor:
#      x y z
#    x 1.743010 0.000000 0.000000 
#    y 0.000000 1.743760 0.000000 
#    z 0.000000 0.000000 1.684150 
# 
# From -- ./inp_files/18235.got.cif
#   From: 2010.05.17/outbox.cif.g08.bks.cpg/sg54_10_cif.got.tgz:18235.got - 2010.06.03 13:09:01.
