data_PCOD9420156
_publ_section_title
;
Structure prediction by ZEFSAII (Michael W. Deem and Ramdas Pophale) SiO2 
 PCOD9420156
Probable space group: P M N A
;
_chemical_formula_sum "Si O2"
_cell_formula_units_Z 48
_cell_length_a 9.000000
_cell_length_b 9.000000
_cell_length_c 30.000000
_cell_angle_alpha 90.000000
_cell_angle_beta 90.000000
_cell_angle_gamma 90.000000
_cell_volume 2430.000000
_symmetry_space_group_name_H-M "P M N A"
_symmetry_group_IT_number 53
_symmetry_cell_setting 'orthorhombic'
loop_
_space_group_symop_operation_xyz
x,y,z
1/2-x,-y,1/2+z
x,-y,-z
1/2-x,y,1/2-z
-x,-y,-z
1/2+x,y,1/2-z
-x,y,z
1/2+x,-y,1/2+z
loop_
_atom_site_type_symbol
_atom_site_label
_atom_site_fract_x
_atom_site_fract_y
_atom_site_fract_z
Si Si1 0.662110 0.123878 0.537017
Si Si2 0.178468 0.973281 0.295585
Si Si3 0.678408 0.679673 0.795955
Si Si4 0.818504 0.526569 0.613417
Si Si5 0.834804 0.341820 0.476926
Si Si6 0.677530 0.189158 0.882810
O O1 0.500000 0.153174 0.556083
O O2 0.726289 0.258723 0.509343
O O3 0.770948 0.086448 0.577035
O O4 0.654500 0.000000 0.500000
O O5 0.250000 0.921584 0.250000
O O6 0.231603 0.875061 0.336459
O O7 0.000000 0.964601 0.292860
O O8 0.217104 0.146625 0.302211
O O9 0.750000 0.627456 0.750000
O O10 0.500000 0.669205 0.792690
O O11 0.727537 0.588885 0.838994
O O12 0.773825 0.630386 0.572444
O O13 0.769875 0.356648 0.608196
O O14 0.000000 0.526575 0.611678
O O15 0.853810 0.500000 0.500000
O O16 0.000000 0.270595 0.475078
O O17 0.500000 0.192932 0.881591
#
# Coordination Sequence:
#
# PCOD9420156 Si02
#       6
#     8   8   8   8   8   8
#     4  11  25  40  53  79 117 151 182 226 279 330
#     4   9  19  34  55  79 106 141 179 221 271 322
#     4   9  18  34  53  77 107 138 175 219 268 322
#     4   9  18  33  55  82 108 134 174 228 271 313
#     4  10  19  36  61  84 107 142 185 227 273 325
#     4  10  20  37  58  81 107 142 187 230 269 320
#
# _framework density 19.753086
#
# number of rings (size 3 to 8) (size 9 to 14) (size 15 to 20)
#    0.000    2.333    1.667    0.500    2.333    3.000 
#    0.000    1.667    0.000    0.000    0.000    0.000 
#    0.000    0.000    0.000    0.000    0.000    0.000 
#
# Total GULP energy -267386.977005 kJ/mol
# GULP energy per Si atom -5570.562021 kJ/mol
# Density = 1.970813 g / cm^3
# Si number density = 19.753086 Si / 1000 Ang^3
#
#
#
# Elastic Constant Matrix: (Units=GPa)
#
#
# Indices 1 2 3 4 5 6 
#
# 1 -22.0594 20.4884 11.5913 0.0000 0.0000 0.0000
# 2 20.4884 22.9768 30.7175 0.0000 0.0000 0.0000
# 3 11.5913 30.7175 147.6949 0.0000 0.0000 0.0000
# 4 0.0000 0.0000 0.0000 22.3743 0.0000 0.0000
# 5 0.0000 0.0000 0.0000 0.0000 29.7709 0.0000
# 6 0.0000 0.0000 0.0000 0.0000 0.0000 -301.4498
#
#
#
# Elastic Compliance Matrix: (Units=1/GPa)
#
#
# Indices 1 2 3 4 5 6 
#
# 1 -0.023436 0.025540 -0.003473 0.000000 0.000000 0.000000
# 2 0.025540 0.032451 -0.008753 0.000000 0.000000 0.000000
# 3 -0.003473 -0.008753 0.008864 0.000000 0.000000 0.000000
# 4 0.000000 0.000000 0.000000 0.044694 0.000000 0.000000
# 5 0.000000 0.000000 0.000000 0.000000 0.033590 0.000000
# 6 0.000000 0.000000 0.000000 0.000000 0.000000 -0.003317
#
#
# Mechanical properties :
#
#
# Convention : Reuss Voigt Hill
#
# Bulk Modulus (GPa) = 22.46853 30.46741 26.46797
# Shear Modulus (GPa) = 61.68807 -44.13990 8.77408
#
# Velocity S-wave (km/s) = 5.59441 -4.73227 2.10986
# Velocity P-wave (km/s) = 7.28898 3.79493 4.40044
#
# Compressibility (1/GPa) = 0.04450669
#
# Stress axis : x y z
#
# Youngs Moduli (GPa) = -42.66995 30.81605 112.81860
#
# Poissons Ratio (x) = -0.78704 0.39177
# Poissons Ratio (y) = 1.08979 0.98755
# Poissons Ratio (z) = -0.14817 0.26975
#
# Static dielectric constant tensor:
#      x y z
#    x 1.858820 0.000000 0.000000 
#    y 0.000000 1.709190 0.000000 
#    z 0.000000 0.000000 1.724650 
# 
# From -- ./inp_files/37732.got.cif
#   From: 2010.05.17/outbox.ucp.g08.bks.cvg/sg53_19_cif.got.tgz:37732.got - 2010.06.11 16:32:34.
