data_PCOD9420194
_publ_section_title
;
Structure prediction by ZEFSAII (Michael W. Deem and Ramdas Pophale) SiO2 
 PCOD9420194
Probable space group: P M N A
;
_chemical_formula_sum "Si O2"
_cell_formula_units_Z 64
_cell_length_a 9.000000
_cell_length_b 24.000000
_cell_length_c 15.000000
_cell_angle_alpha 90.000000
_cell_angle_beta 90.000000
_cell_angle_gamma 90.000000
_cell_volume 3240.000000
_symmetry_space_group_name_H-M "P M N A"
_symmetry_group_IT_number 53
_symmetry_cell_setting 'orthorhombic'
loop_
_space_group_symop_operation_xyz
x,y,z
1/2-x,-y,1/2+z
x,-y,-z
1/2-x,y,1/2-z
-x,-y,-z
1/2+x,y,1/2-z
-x,y,z
1/2+x,-y,1/2+z
loop_
_atom_site_type_symbol
_atom_site_label
_atom_site_fract_x
_atom_site_fract_y
_atom_site_fract_z
Si Si1 0.825261 0.817420 0.973623
Si Si2 0.321542 0.405903 0.348502
Si Si3 0.177596 0.516551 0.348390
Si Si4 0.676400 0.103664 0.162889
Si Si5 0.175855 0.984184 0.396449
Si Si6 0.823285 0.642175 0.347459
Si Si7 0.673898 0.130925 0.660168
Si Si8 0.677821 0.692984 0.516053
O O1 0.804121 0.827236 0.078484
O O2 0.785557 0.754526 0.949340
O O3 0.000000 0.827219 0.953964
O O4 0.728365 0.861989 0.921916
O O5 0.250000 0.398819 0.250000
O O6 0.500000 0.410754 0.340071
O O7 0.254556 0.462707 0.390558
O O8 0.284886 0.354049 0.411693
O O9 0.250000 0.517686 0.250000
O O10 0.206172 0.578805 0.382294
O O11 0.000000 0.508229 0.344284
O O12 0.750000 0.129269 0.250000
O O13 0.500000 0.103635 0.169355
O O14 0.727658 0.039791 0.153302
O O15 0.000000 0.975684 0.380654
O O16 0.194758 0.000000 0.500000
O O17 0.260091 0.928940 0.367905
O O18 0.750000 0.648831 0.250000
O O19 0.757434 0.681795 0.422585
O O20 0.000000 0.648449 0.338235
O O21 0.750000 0.150650 0.750000
O O22 0.500000 0.124027 0.675661
O O23 0.500000 0.691203 0.501213
#
# Coordination Sequence:
#
# PCOD9420194 Si02
#       8
#     8   8   8   8   8   8   8   8
#     4  10  23  43  61  82 114 152 197 245 289 336
#     4  10  20  35  57  83 113 149 187 234 287 343
#     4   9  17  31  53  82 115 147 183 229 282 343
#     4  11  23  39  62  89 119 154 191 236 287 343
#     4  10  20  37  61  90 123 153 186 232 285 342
#     4  10  21  37  59  86 116 151 189 234 287 342
#     4  11  23  38  61  88 117 153 192 236 287 344
#     4  10  23  41  59  82 114 151 195 242 287 339
#
# _framework density 19.753086
#
# number of rings (size 3 to 8) (size 9 to 14) (size 15 to 20)
#    0.000    1.875    1.250    3.000    0.000    7.250 
#    0.000    5.000    0.000    0.000    0.000    0.000 
#    0.000    0.000    0.000    0.000    0.000    0.000 
#
# Total GULP energy -357327.913783 kJ/mol
# GULP energy per Si atom -5583.248653 kJ/mol
# Density = 1.970813 g / cm^3
# Si number density = 19.753086 Si / 1000 Ang^3
#
#
#
# Elastic Constant Matrix: (Units=GPa)
#
#
# Indices 1 2 3 4 5 6 
#
# 1 35.3236 20.3899 18.3166 0.0000 0.0000 0.0000
# 2 20.3899 48.1853 -2.9777 0.0000 0.0000 0.0000
# 3 18.3166 -2.9777 46.9979 0.0000 0.0000 0.0000
# 4 0.0000 0.0000 0.0000 -377.2364 0.0000 0.0000
# 5 0.0000 0.0000 0.0000 0.0000 27.4817 0.0000
# 6 0.0000 0.0000 0.0000 0.0000 0.0000 18.8907
#
#
#
# Elastic Compliance Matrix: (Units=1/GPa)
#
#
# Indices 1 2 3 4 5 6 
#
# 1 0.054028 -0.024258 -0.022593 0.000000 0.000000 0.000000
# 2 -0.024258 0.031727 0.011464 0.000000 0.000000 0.000000
# 3 -0.022593 0.011464 0.030809 0.000000 0.000000 0.000000
# 4 0.000000 0.000000 0.000000 -0.002651 0.000000 0.000000
# 5 0.000000 0.000000 0.000000 0.000000 0.036388 0.000000
# 6 0.000000 0.000000 0.000000 0.000000 0.000000 0.052936
#
#
# Mechanical properties :
#
#
# Convention : Reuss Voigt Hill
#
# Bulk Modulus (GPa) = 21.83921 22.44049 22.13985
# Shear Modulus (GPa) = 17.28459 -59.85428 -21.28484
#
# Velocity S-wave (km/s) = 2.96130 -5.51063 -3.28616
# Velocity P-wave (km/s) = 4.77206 5.39483 1.77928
#
# Compressibility (1/GPa) = 0.04578921
#
# Stress axis : x y z
#
# Youngs Moduli (GPa) = 18.50896 31.51911 32.45774
#
# Poissons Ratio (x) = 0.76460 0.73333
# Poissons Ratio (y) = 0.44900 -0.37211
# Poissons Ratio (z) = 0.41818 -0.36135
#
# Static dielectric constant tensor:
#      x y z
#    x 1.658460 0.000000 0.000000 
#    y 0.000000 1.703630 0.000000 
#    z 0.000000 0.000000 1.691080 
# 
# From -- ./inp_files/20841.got.cif
#   From: 2010.05.17/outbox.ucp.g08.bks.cvg/sg53_11_cif.got.tgz:20841.got - 2010.06.11 16:32:34.
