data_PCOD9420388
_publ_section_title
;
Structure prediction by ZEFSAII (Michael W. Deem and Ramdas Pophale) SiO2 
 PCOD9420388
Probable space group: P C C A
;
_chemical_formula_sum "Si O2"
_cell_formula_units_Z 44
_cell_length_a 8.472661
_cell_length_b 8.346265
_cell_length_c 28.866212
_cell_angle_alpha 90.000000
_cell_angle_beta 90.000000
_cell_angle_gamma 90.000000
_cell_volume 2041.276317
_symmetry_space_group_name_H-M "P C C A"
_symmetry_group_IT_number 54
_symmetry_cell_setting 'orthorhombic'
loop_
_space_group_symop_operation_xyz
x,y,z
1/2-x,-y,z
1/2+x,-y,1/2-z
-x,y,1/2-z
-x,-y,-z
1/2+x,y,-z
1/2-x,y,1/2+z
x,-y,1/2+z
loop_
_atom_site_type_symbol
_atom_site_label
_atom_site_fract_x
_atom_site_fract_y
_atom_site_fract_z
Si Si1 0.750000 0.500000 0.797895
Si Si2 0.032266 0.602030 0.855852
Si Si3 0.936582 0.506482 0.448590
Si Si4 0.550394 0.141283 0.063716
Si Si5 0.656552 0.233127 0.159625
Si Si6 0.500000 0.730697 0.750000
Si Si7 0.250000 0.000000 0.013205
O O1 0.635519 0.394880 0.830493
O O2 0.641034 0.614775 0.767266
O O3 0.157022 0.731195 0.838074
O O4 0.093017 0.418884 0.846607
O O5 0.010407 0.615445 0.911375
O O6 0.750000 0.500000 0.447707
O O7 0.000000 0.500000 0.500000
O O8 0.984610 0.681566 0.433076
O O9 0.614754 0.122026 0.115688
O O10 0.401434 0.039720 0.044815
O O11 0.685807 0.131055 0.023998
O O12 0.571632 0.175427 0.206319
#
# Coordination Sequence:
#
# PCOD9420388 Si02
#       7
#     4   8   8   8   8   4   4
#     4  10  16  30  46  74 114 160 192 208 272 362
#     4   9  18  31  47  78 118 154 183 217 281 356
#     4  11  22  32  52  86 122 153 183 228 296 351
#     4  10  22  40  58  83 111 151 201 243 281 346
#     4   9  19  33  52  79 112 146 187 235 283 340
#     4  10  18  30  52  76 112 152 186 230 282 342
#     4  10  22  42  62  76 108 158 208 242 282 332
#
# _framework density 21.555140000000002
#
# number of rings (size 3 to 8) (size 9 to 14) (size 15 to 20)
#    0.000    2.182    0.909    3.273    7.636    0.000 
#    0.000    0.000    0.000    1.091    0.000    0.000 
#    0.000    0.000    0.000    0.000    0.000    0.000 
#
# Total GULP energy -245386.993259 kJ/mol
# GULP energy per Si atom -5576.977120 kJ/mol
# Density = 2.150608 g / cm^3
# Si number density = 21.555140 Si / 1000 Ang^3
#
#
#
# Elastic Constant Matrix: (Units=GPa)
#
#
# Indices 1 2 3 4 5 6 
#
# 1 129.3763 19.2342 64.8941 0.0000 0.0000 0.0000
# 2 19.2342 22.6416 18.7588 0.0000 0.0000 0.0000
# 3 64.8941 18.7588 169.1753 0.0000 0.0000 0.0000
# 4 0.0000 0.0000 0.0000 17.1541 0.0000 0.0000
# 5 0.0000 0.0000 0.0000 0.0000 52.2528 0.0000
# 6 0.0000 0.0000 0.0000 0.0000 0.0000 19.2912
#
#
#
# Elastic Compliance Matrix: (Units=1/GPa)
#
#
# Indices 1 2 3 4 5 6 
#
# 1 0.010263 -0.006009 -0.003271 0.000000 0.000000 0.000000
# 2 -0.006009 0.052153 -0.003478 0.000000 0.000000 0.000000
# 3 -0.003271 -0.003478 0.007551 0.000000 0.000000 0.000000
# 4 0.000000 0.000000 0.000000 0.058295 0.000000 0.000000
# 5 0.000000 0.000000 0.000000 0.000000 0.019138 0.000000
# 6 0.000000 0.000000 0.000000 0.000000 0.000000 0.051837
#
#
# Mechanical properties :
#
#
# Convention : Reuss Voigt Hill
#
# Bulk Modulus (GPa) = 22.49606 58.55191 40.52398
# Shear Modulus (GPa) = 20.87079 32.29337 26.58208
#
# Velocity S-wave (km/s) = 3.11505 3.87483 3.51552
# Velocity P-wave (km/s) = 4.83707 6.87327 5.94302
#
# Compressibility (1/GPa) = 0.04445223
#
# Stress axis : x y z
#
# Youngs Moduli (GPa) = 97.43513 19.17447 132.42861
#
# Poissons Ratio (x) = 0.11522 0.43312
# Poissons Ratio (y) = 0.58549 0.46057
# Poissons Ratio (z) = 0.31867 0.06669
#
# Static dielectric constant tensor:
#      x y z
#    x 1.793900 0.000000 0.000000 
#    y 0.000000 1.789210 0.000000 
#    z 0.000000 0.000000 1.881840 
# 
# From -- ./inp_files/27660.got.cif
#   From: 2010.05.17/outbox.cif.g08.bks.cpg/sg54_14_cif.got.tgz:27660.got - 2010.06.03 13:09:01.
