data_PCOD9420281
_publ_section_title
;
Structure prediction by ZEFSAII (Michael W. Deem and Ramdas Pophale) SiO2 
 PCOD9420281
Probable space group: P M N A
;
_chemical_formula_sum "Si O2"
_cell_formula_units_Z 56
_cell_length_a 21.000000
_cell_length_b 9.000000
_cell_length_c 15.000000
_cell_angle_alpha 90.000000
_cell_angle_beta 90.000000
_cell_angle_gamma 90.000000
_cell_volume 2835.000000
_symmetry_space_group_name_H-M "P M N A"
_symmetry_group_IT_number 53
_symmetry_cell_setting 'orthorhombic'
loop_
_space_group_symop_operation_xyz
x,y,z
1/2-x,-y,1/2+z
x,-y,-z
1/2-x,y,1/2-z
-x,-y,-z
1/2+x,y,1/2-z
-x,y,z
1/2+x,-y,1/2+z
loop_
_atom_site_type_symbol
_atom_site_label
_atom_site_fract_x
_atom_site_fract_y
_atom_site_fract_z
Si Si1 0.806950 0.173188 0.491527
Si Si2 0.426807 0.556315 0.240229
Si Si3 0.070667 0.291471 0.392258
Si Si4 0.834320 0.871118 0.926991
Si Si5 0.069071 0.377386 0.075549
Si Si6 0.318539 0.790502 0.197983
Si Si7 0.077559 0.035037 0.244176
O O1 0.867181 0.259771 0.451007
O O2 0.741768 0.171120 0.430655
O O3 0.798185 0.225814 0.594089
O O4 0.824960 0.000000 0.500000
O O5 0.500000 0.623905 0.244634
O O6 0.426476 0.452275 0.153309
O O7 0.421650 0.455426 0.328996
O O8 0.363000 0.655793 0.234196
O O9 0.073285 0.174587 0.310474
O O10 0.000000 0.273969 0.435660
O O11 0.873314 0.725946 0.952619
O O12 0.877373 0.923803 0.841554
O O13 0.839104 0.000000 0.000000
O O14 0.000000 0.296798 0.080109
O O15 0.064437 0.500000 0.000000
O O16 0.250000 0.813280 0.250000
O O17 0.373702 0.918429 0.207756
O O18 0.000000 0.995602 0.227212
#
# Coordination Sequence:
#
# PCOD9420281 Si02
#       7
#     8   8   8   8   8   8   8
#     4  11  24  43  63  96 135 170 212 275 334 389
#     4  10  23  45  66  93 130 171 221 274 331 393
#     4  10  22  43  70  95 124 170 220 269 331 396
#     4  11  24  41  65  97 132 170 217 270 324 398
#     4  10  22  40  63  91 130 171 210 265 328 389
#     4  12  26  43  65  96 134 175 219 267 331 397
#     4  11  23  42  70  98 128 172 221 272 329 391
#
# _framework density 19.753086
#
# number of rings (size 3 to 8) (size 9 to 14) (size 15 to 20)
#    0.000    1.286    2.857    2.571    4.000    4.286 
#    0.000    1.429    0.000    0.000    0.000    0.000 
#    0.000    0.000    0.000    0.000    0.000    0.000 
#
# Total GULP energy -311752.633963 kJ/mol
# GULP energy per Si atom -5567.011321 kJ/mol
# Density = 1.970813 g / cm^3
# Si number density = 19.753086 Si / 1000 Ang^3
#
#
#
# Elastic Constant Matrix: (Units=GPa)
#
#
# Indices 1 2 3 4 5 6 
#
# 1 156.1422 17.3840 43.7041 0.0000 0.0000 0.0000
# 2 17.3840 37.6295 -6.7543 0.0000 0.0000 0.0000
# 3 43.7041 -6.7543 79.1060 0.0000 0.0000 0.0000
# 4 0.0000 0.0000 0.0000 17.5766 0.0000 0.0000
# 5 0.0000 0.0000 0.0000 0.0000 87.5586 0.0000
# 6 0.0000 0.0000 0.0000 0.0000 0.0000 43.3814
#
#
#
# Elastic Compliance Matrix: (Units=1/GPa)
#
#
# Indices 1 2 3 4 5 6 
#
# 1 0.008336 -0.004750 -0.005011 0.000000 0.000000 0.000000
# 2 -0.004750 0.029696 0.005160 0.000000 0.000000 0.000000
# 3 -0.005011 0.005160 0.015850 0.000000 0.000000 0.000000
# 4 0.000000 0.000000 0.000000 0.056894 0.000000 0.000000
# 5 0.000000 0.000000 0.000000 0.000000 0.011421 0.000000
# 6 0.000000 0.000000 0.000000 0.000000 0.000000 0.023051
#
#
# Mechanical properties :
#
#
# Convention : Reuss Voigt Hill
#
# Bulk Modulus (GPa) = 22.38185 42.39392 32.38788
# Shear Modulus (GPa) = 29.52572 44.27290 36.89931
#
# Velocity S-wave (km/s) = 3.87038 4.73939 4.32676
# Velocity P-wave (km/s) = 5.59719 7.17340 6.43374
#
# Compressibility (1/GPa) = 0.04467906
#
# Stress axis : x y z
#
# Youngs Moduli (GPa) = 119.96345 33.67489 63.09043
#
# Poissons Ratio (x) = 0.15997 0.31614
# Poissons Ratio (y) = 0.56988 -0.32555
# Poissons Ratio (z) = 0.60113 -0.17376
#
# Static dielectric constant tensor:
#      x y z
#    x 1.717450 0.000000 0.000000 
#    y 0.000000 1.792300 0.000000 
#    z 0.000000 0.000000 1.713900 
# 
# From -- ./inp_files/24364.got.cif
#   From: 2010.05.17/outbox.ucp.g08.bks.cvg/sg53_13_cif.got.tgz:24364.got - 2010.06.11 16:32:34.
