data_PCOD9420666
_publ_section_title
;
Structure prediction by ZEFSAII (Michael W. Deem and Ramdas Pophale) SiO2 
 PCOD9420666
Probable space group: P C C A
;
_chemical_formula_sum "Si O2"
_cell_formula_units_Z 44
_cell_length_a 21.733341
_cell_length_b 11.456185
_cell_length_c 9.013948
_cell_angle_alpha 90.000000
_cell_angle_beta 90.000000
_cell_angle_gamma 90.000000
_cell_volume 2244.303366
_symmetry_space_group_name_H-M "P C C A"
_symmetry_group_IT_number 54
_symmetry_cell_setting 'orthorhombic'
loop_
_space_group_symop_operation_xyz
x,y,z
1/2-x,-y,z
1/2+x,-y,1/2-z
-x,y,1/2-z
-x,-y,-z
1/2+x,y,-z
1/2-x,y,1/2+z
x,-y,1/2+z
loop_
_atom_site_type_symbol
_atom_site_label
_atom_site_fract_x
_atom_site_fract_y
_atom_site_fract_z
Si Si1 0.570311 0.643976 0.427126
Si Si2 0.178924 0.028543 0.918598
Si Si3 0.393302 0.880932 0.201468
Si Si4 0.000000 0.951360 0.250000
Si Si5 0.453007 0.386096 0.109228
Si Si6 0.106569 0.217696 0.797638
O O1 0.587519 0.745784 0.312294
O O2 0.582190 0.508810 0.393645
O O3 0.497495 0.638138 0.470127
O O4 0.606494 0.685309 0.574729
O O5 0.164344 0.133518 0.802719
O O6 0.250000 0.000000 0.925592
O O7 0.137572 0.922010 0.855488
O O8 0.154009 0.081256 0.072439
O O9 0.453210 0.961301 0.170039
O O10 0.046919 0.864447 0.333667
O O11 0.500000 0.391900 0.250000
O O12 0.408114 0.279676 0.144000
#
# Coordination Sequence:
#
# PCOD9420666 Si02
#       6
#     8   8   8   4   8   8
#     4   9  17  29  47  75 109 143 180 210 267 337
#     4  10  21  39  57  78 107 150 191 227 281 330
#     4  10  22  34  56  82 113 146 175 241 271 345
#     4  10  18  34  48  80 118 138 176 214 310 324
#     4   9  16  30  47  72 111 148 170 214 271 332
#     4   9  17  33  50  74 111 145 169 232 277 325
#
# _framework density 19.605191999999999
#
# number of rings (size 3 to 8) (size 9 to 14) (size 15 to 20)
#    0.000    2.545    2.727    0.545    1.273    6.545 
#    0.000    0.000    0.000    1.091    0.000    7.636 
#    0.000    0.000    0.000    0.000    0.000    0.000 
#
# Total GULP energy -245101.427353 kJ/mol
# GULP energy per Si atom -5570.486985 kJ/mol
# Density = 1.956057 g / cm^3
# Si number density = 19.605192 Si / 1000 Ang^3
#
#
#
# Elastic Constant Matrix: (Units=GPa)
#
#
# Indices 1 2 3 4 5 6 
#
# 1 97.1768 58.4859 15.7746 0.0000 0.0000 0.0000
# 2 58.4859 114.2516 10.2438 0.0000 0.0000 0.0000
# 3 15.7746 10.2438 17.1736 0.0000 0.0000 0.0000
# 4 0.0000 0.0000 0.0000 31.1041 0.0000 0.0000
# 5 0.0000 0.0000 0.0000 0.0000 21.7411 0.0000
# 6 0.0000 0.0000 0.0000 0.0000 0.0000 22.1754
#
#
#
# Elastic Compliance Matrix: (Units=1/GPa)
#
#
# Indices 1 2 3 4 5 6 
#
# 1 0.016552 -0.007512 -0.010723 0.000000 0.000000 0.000000
# 2 -0.007512 0.012656 -0.000649 0.000000 0.000000 0.000000
# 3 -0.010723 -0.000649 0.068466 0.000000 0.000000 0.000000
# 4 0.000000 0.000000 0.000000 0.032150 0.000000 0.000000
# 5 0.000000 0.000000 0.000000 0.000000 0.045996 0.000000
# 6 0.000000 0.000000 0.000000 0.000000 0.000000 0.045095
#
#
# Mechanical properties :
#
#
# Convention : Reuss Voigt Hill
#
# Bulk Modulus (GPa) = 16.69293 44.17894 30.43593
# Shear Modulus (GPa) = 17.94354 24.61065 21.27710
#
# Velocity S-wave (km/s) = 3.02858 3.54688 3.29793
# Velocity P-wave (km/s) = 4.55662 6.27352 5.48269
#
# Compressibility (1/GPa) = 0.05990561
#
# Stress axis : x y z
#
# Youngs Moduli (GPa) = 60.41541 79.01343 14.60584
#
# Poissons Ratio (x) = 0.59352 0.15662
# Poissons Ratio (y) = 0.45382 0.00949
# Poissons Ratio (z) = 0.64784 0.05131
#
# Static dielectric constant tensor:
#      x y z
#    x 1.657530 0.000000 0.000000 
#    y 0.000000 1.726690 0.000000 
#    z 0.000000 0.000000 1.775670 
# 
# From -- ./inp_files/9467.got.cif
#   From: 2010.05.17/outbox.cif.g08.bks.cpg/sg54_5_cif.got.tgz:9467.got - 2010.06.03 13:09:01.
