data_PCOD9420150
_publ_section_title
;
Structure prediction by ZEFSAII (Michael W. Deem and Ramdas Pophale) SiO2 
 PCOD9420150
Probable space group: P M N A
;
_chemical_formula_sum "Si O2"
_cell_formula_units_Z 64
_cell_length_a 9.000000
_cell_length_b 24.000000
_cell_length_c 15.000000
_cell_angle_alpha 90.000000
_cell_angle_beta 90.000000
_cell_angle_gamma 90.000000
_cell_volume 3240.000000
_symmetry_space_group_name_H-M "P M N A"
_symmetry_group_IT_number 53
_symmetry_cell_setting 'orthorhombic'
loop_
_space_group_symop_operation_xyz
x,y,z
1/2-x,-y,1/2+z
x,-y,-z
1/2-x,y,1/2-z
-x,-y,-z
1/2+x,y,1/2-z
-x,y,z
1/2+x,-y,1/2+z
loop_
_atom_site_type_symbol
_atom_site_label
_atom_site_fract_x
_atom_site_fract_y
_atom_site_fract_z
Si Si1 0.321714 0.535364 0.344418
Si Si2 0.321753 0.142371 0.846947
Si Si3 0.666998 0.760429 0.837518
Si Si4 0.678507 0.593199 0.655790
Si Si5 0.820530 0.748768 0.461581
Si Si6 0.667788 0.105809 0.162483
Si Si7 0.326140 0.934198 0.486013
Si Si8 0.679161 0.637111 0.468863
O O1 0.250000 0.549701 0.250000
O O2 0.500000 0.536863 0.336719
O O3 0.281751 0.471383 0.365336
O O4 0.279073 0.580674 0.417589
O O5 0.250000 0.144863 0.750000
O O6 0.500000 0.140633 0.841043
O O7 0.278789 0.197288 0.904313
O O8 0.262024 0.089606 0.901847
O O9 0.750000 0.739167 0.750000
O O10 0.500000 0.737463 0.837378
O O11 0.657526 0.827456 0.827990
O O12 0.733995 0.752955 0.935848
O O13 0.750000 0.607459 0.750000
O O14 0.500000 0.596377 0.662926
O O15 0.725957 0.629897 0.571885
O O16 0.754205 0.691154 0.426526
O O17 0.000000 0.747164 0.463454
O O18 0.750000 0.083375 0.250000
O O19 0.500000 0.083917 0.154771
O O20 0.759601 0.093571 0.074311
O O21 0.500000 0.920886 0.476100
O O22 0.310174 0.000000 0.500000
O O23 0.500000 0.642380 0.466224
#
# Coordination Sequence:
#
# PCOD9420150 Si02
#       8
#     8   8   8   8   8   8   8   8
#     4   9  18  34  55  78 107 143 187 237 288 343
#     4  11  24  45  68  90 119 159 204 248 296 350
#     4   9  18  34  55  81 109 142 182 225 277 336
#     4   9  18  34  55  79 110 148 187 233 287 345
#     4  10  22  40  58  81 117 154 192 240 291 342
#     4  10  19  35  59  87 118 152 190 233 284 341
#     4  11  24  41  63  93 125 157 196 242 293 350
#     4  10  21  35  54  81 111 147 192 236 286 345
#
# _framework density 19.753086
#
# number of rings (size 3 to 8) (size 9 to 14) (size 15 to 20)
#    0.000    2.125    1.250    1.500    0.000    7.000 
#    0.000    5.000    0.000    3.750    0.000    0.000 
#    0.000    0.000    0.000    0.000    0.000    0.000 
#
# Total GULP energy -357223.616464 kJ/mol
# GULP energy per Si atom -5581.619007 kJ/mol
# Density = 1.970813 g / cm^3
# Si number density = 19.753086 Si / 1000 Ang^3
#
#
#
# Elastic Constant Matrix: (Units=GPa)
#
#
# Indices 1 2 3 4 5 6 
#
# 1 39.2658 47.2520 45.4225 0.0000 0.0000 0.0000
# 2 47.2520 66.7441 45.8734 0.0000 0.0000 0.0000
# 3 45.4225 45.8734 127.7184 0.0000 0.0000 0.0000
# 4 0.0000 0.0000 0.0000 -7.7047 0.0000 0.0000
# 5 0.0000 0.0000 0.0000 0.0000 26.8919 0.0000
# 6 0.0000 0.0000 0.0000 0.0000 0.0000 27.6101
#
#
#
# Elastic Compliance Matrix: (Units=1/GPa)
#
#
# Indices 1 2 3 4 5 6 
#
# 1 0.245644 -0.151183 -0.033061 0.000000 0.000000 0.000000
# 2 -0.151183 0.112940 0.013202 0.000000 0.000000 0.000000
# 3 -0.033061 0.013202 0.014846 0.000000 0.000000 0.000000
# 4 0.000000 0.000000 0.000000 -0.129791 0.000000 0.000000
# 5 0.000000 0.000000 0.000000 0.000000 0.037186 0.000000
# 6 0.000000 0.000000 0.000000 0.000000 0.000000 0.036219
#
#
# Mechanical properties :
#
#
# Convention : Reuss Voigt Hill
#
# Bulk Modulus (GPa) = 31.90150 56.75824 44.32987
# Shear Modulus (GPa) = 7.46744 15.70482 11.58613
#
# Velocity S-wave (km/s) = 1.94643 2.82273 2.42450
# Velocity P-wave (km/s) = 4.60832 6.27854 5.50712
#
# Compressibility (1/GPa) = 0.03134649
#
# Stress axis : x y z
#
# Youngs Moduli (GPa) = 4.07094 8.85429 67.35925
#
# Poissons Ratio (x) = 1.33861 2.22696
# Poissons Ratio (y) = 0.61545 -0.88929
# Poissons Ratio (z) = 0.13459 -0.11690
#
# Static dielectric constant tensor:
#      x y z
#    x 1.679620 0.000000 0.000000 
#    y 0.000000 1.701010 0.000000 
#    z 0.000000 0.000000 1.692570 
# 
# From -- ./inp_files/20852.got.cif
#   From: 2010.05.17/outbox.ucp.g08.bks.cvg/sg53_11_cif.got.tgz:20852.got - 2010.06.11 16:32:34.
