data_PCOD9420240
_publ_section_title
;
Structure prediction by ZEFSAII (Michael W. Deem and Ramdas Pophale) SiO2 
 PCOD9420240
Probable space group: P M N A
;
_chemical_formula_sum "Si O2"
_cell_formula_units_Z 32
_cell_length_a 9.000000
_cell_length_b 21.000000
_cell_length_c 9.000000
_cell_angle_alpha 90.000000
_cell_angle_beta 90.000000
_cell_angle_gamma 90.000000
_cell_volume 1701.000000
_symmetry_space_group_name_H-M "P M N A"
_symmetry_group_IT_number 53
_symmetry_cell_setting 'orthorhombic'
loop_
_space_group_symop_operation_xyz
x,y,z
1/2-x,-y,1/2+z
x,-y,-z
1/2-x,y,1/2-z
-x,-y,-z
1/2+x,y,1/2-z
-x,y,z
1/2+x,-y,1/2+z
loop_
_atom_site_type_symbol
_atom_site_label
_atom_site_fract_x
_atom_site_fract_y
_atom_site_fract_z
Si Si1 0.823297 0.321270 0.410705
Si Si2 0.677289 0.935566 0.411821
Si Si3 0.176980 0.808288 0.412278
Si Si4 0.174291 0.565040 0.091754
O O1 0.750000 0.321830 0.250000
O O2 0.795150 0.253887 0.490276
O O3 0.753116 0.377542 0.506854
O O4 0.000000 0.330352 0.399028
O O5 0.750000 0.941503 0.250000
O O6 0.500000 0.927325 0.400436
O O7 0.750115 0.872003 0.479414
O O8 0.708151 0.000000 0.500000
O O9 0.250000 0.799334 0.250000
O O10 0.000000 0.816959 0.396145
O O11 0.250000 0.556509 0.250000
O O12 0.000000 0.579337 0.109433
O O13 0.189227 0.500000 0.000000
#
# Coordination Sequence:
#
# PCOD9420240 Si02
#       4
#     8   8   8   8
#     4  11  24  40  60  87 118 153 193 238 288 341
#     4  10  21  36  56  82 111 146 187 231 281 337
#     4  10  21  37  58  83 111 147 189 233 283 338
#     4  11  24  41  63  90 120 155 194 237 285 339
#
# _framework density 18.812463000000001
#
# number of rings (size 3 to 8) (size 9 to 14) (size 15 to 20)
#    0.000    1.500    0.000    6.000    0.000   13.000 
#    0.000    5.000    0.000    0.000    0.000    0.000 
#    0.000    0.000    0.000    0.000    0.000    0.000 
#
# Total GULP energy -178867.448068 kJ/mol
# GULP energy per Si atom -5589.607752 kJ/mol
# Density = 1.876965 g / cm^3
# Si number density = 18.812463 Si / 1000 Ang^3
#
#
#
# Elastic Constant Matrix: (Units=GPa)
#
#
# Indices 1 2 3 4 5 6 
#
# 1 131.1960 108.9778 78.9503 0.0000 0.0000 0.0000
# 2 108.9778 127.5175 62.2892 0.0000 0.0000 0.0000
# 3 78.9503 62.2892 105.0518 0.0000 0.0000 0.0000
# 4 0.0000 0.0000 0.0000 23.1289 0.0000 0.0000
# 5 0.0000 0.0000 0.0000 0.0000 5.3411 0.0000
# 6 0.0000 0.0000 0.0000 0.0000 0.0000 34.8330
#
#
#
# Elastic Compliance Matrix: (Units=1/GPa)
#
#
# Indices 1 2 3 4 5 6 
#
# 1 0.034247 -0.023503 -0.011802 0.000000 0.000000 0.000000
# 2 -0.023503 0.027169 0.001554 0.000000 0.000000 0.000000
# 3 -0.011802 0.001554 0.017468 0.000000 0.000000 0.000000
# 4 0.000000 0.000000 0.000000 0.043236 0.000000 0.000000
# 5 0.000000 0.000000 0.000000 0.000000 0.187228 0.000000
# 6 0.000000 0.000000 0.000000 0.000000 0.000000 0.028708
#
#
# Mechanical properties :
#
#
# Convention : Reuss Voigt Hill
#
# Bulk Modulus (GPa) = 87.86548 96.02222 91.94385
# Shear Modulus (GPa) = 12.21443 20.23045 16.22244
#
# Velocity S-wave (km/s) = 2.55085 3.28285 2.93972
# Velocity P-wave (km/s) = 7.44870 8.09457 7.77834
#
# Compressibility (1/GPa) = 0.01138103
#
# Stress axis : x y z
#
# Youngs Moduli (GPa) = 29.19961 36.80688 57.24882
#
# Poissons Ratio (x) = 0.86506 0.67566
# Poissons Ratio (y) = 0.68627 -0.08895
# Poissons Ratio (z) = 0.34462 -0.05719
#
# Static dielectric constant tensor:
#      x y z
#    x 1.625290 0.000000 0.000000 
#    y 0.000000 1.648510 0.000000 
#    z 0.000000 0.000000 1.615910 
# 
# From -- ./inp_files/6026.got.cif
#   From: 2010.05.17/outbox.ucp.g08.bks.cvg/sg53_4_cif.got.tgz:6026.got - 2010.06.11 16:32:34.
