data_PCOD9420064
_publ_section_title
;
Structure prediction by ZEFSAII (Michael W. Deem and Ramdas Pophale) SiO2 
 PCOD9420064
Probable space group: P M N A
;
_chemical_formula_sum "Si O2"
_cell_formula_units_Z 56
_cell_length_a 7.320797
_cell_length_b 13.009407
_cell_length_c 30.260260
_cell_angle_alpha 90.000000
_cell_angle_beta 90.000000
_cell_angle_gamma 90.000000
_cell_volume 2881.963794
_symmetry_space_group_name_H-M "P M N A"
_symmetry_group_IT_number 53
_symmetry_cell_setting 'orthorhombic'
loop_
_space_group_symop_operation_xyz
x,y,z
1/2-x,-y,1/2+z
x,-y,-z
1/2-x,y,1/2-z
-x,-y,-z
1/2+x,y,1/2-z
-x,y,z
1/2+x,-y,1/2+z
loop_
_atom_site_type_symbol
_atom_site_label
_atom_site_fract_x
_atom_site_fract_y
_atom_site_fract_z
Si Si1 0.722910 0.785027 0.954959
Si Si2 0.222759 0.630782 0.390526
Si Si3 0.282316 0.046839 0.799525
Si Si4 0.717597 0.282084 0.799423
Si Si5 0.277008 0.034528 0.108168
Si Si6 0.222668 0.450507 0.453225
Si Si7 0.277867 0.167711 0.945840
O O1 0.500000 0.784712 0.955084
O O2 0.782193 0.862596 0.916690
O O3 0.781728 0.667263 0.949334
O O4 0.779261 0.825819 0.003259
O O5 0.284168 0.650804 0.340448
O O6 0.281955 0.526420 0.414187
O O7 0.277263 0.729586 0.419724
O O8 0.000000 0.629126 0.390906
O O9 0.250000 0.007131 0.750000
O O10 0.500000 0.053681 0.804499
O O11 0.216385 0.981815 0.841323
O O12 0.211235 0.164525 0.801888
O O13 0.750000 0.321643 0.750000
O O14 0.500000 0.274979 0.804771
O O15 0.500000 0.035725 0.107960
O O16 0.220805 0.934558 0.079869
O O17 0.277824 0.500000 0.500000
O O18 0.000000 0.449456 0.453392
O O19 0.500000 0.167024 0.945668
#
# Coordination Sequence:
#
# PCOD9420064 Si02
#       7
#     8   8   8   8   8   8   8
#     4   9  15  20  29  47  73 104 131 153 183 231
#     4   9  14  21  34  50  73 102 126 152 192 234
#     4   9  16  26  40  57  78 102 130 164 199 234
#     4   9  16  26  40  58  79 103 131 163 200 237
#     4   9  15  22  32  49  74 101 127 156 192 232
#     4   9  14  20  30  46  71 103 131 152 182 230
#     4   9  13  19  30  47  72 101 125 148 187 235
#
# _framework density 19.431196
#
# number of rings (size 3 to 8) (size 9 to 14) (size 15 to 20)
#    0.000    3.000    2.857    0.429    0.000    1.714 
#    0.000    0.000    0.000    0.857    0.000    0.000 
#    0.000    4.000    0.000    0.286    0.000    0.143 
#
# Total GULP energy -312497.779708 kJ/mol
# GULP energy per Si atom -5580.317495 kJ/mol
# Density = 1.938697 g / cm^3
# Si number density = 19.431196 Si / 1000 Ang^3
#
#
#
# Elastic Constant Matrix: (Units=GPa)
#
#
# Indices 1 2 3 4 5 6 
#
# 1 76.1957 3.3591 3.5854 0.0000 0.0000 0.0000
# 2 3.3591 148.2997 112.3207 0.0000 0.0000 0.0000
# 3 3.5854 112.3207 222.6267 0.0000 0.0000 0.0000
# 4 0.0000 0.0000 0.0000 26.6529 0.0000 0.0000
# 5 0.0000 0.0000 0.0000 0.0000 6.0468 0.0000
# 6 0.0000 0.0000 0.0000 0.0000 0.0000 -12.9845
#
#
#
# Elastic Compliance Matrix: (Units=1/GPa)
#
#
# Indices 1 2 3 4 5 6 
#
# 1 0.013139 -0.000222 -0.000099 0.000000 0.000000 0.000000
# 2 -0.000222 0.010917 -0.005504 0.000000 0.000000 0.000000
# 3 -0.000099 -0.005504 0.007271 0.000000 0.000000 0.000000
# 4 0.000000 0.000000 0.000000 0.037519 0.000000 0.000000
# 5 0.000000 0.000000 0.000000 0.000000 0.165376 0.000000
# 6 0.000000 0.000000 0.000000 0.000000 0.000000 -0.077015
#
#
# Mechanical properties :
#
#
# Convention : Reuss Voigt Hill
#
# Bulk Modulus (GPa) = 50.82849 76.18361 63.50605
# Shear Modulus (GPa) = 28.50348 25.80018 27.15183
#
# Velocity S-wave (km/s) = 3.83416 3.64781 3.74215
# Velocity P-wave (km/s) = 6.76875 7.55209 7.17112
#
# Compressibility (1/GPa) = 0.01967401
#
# Stress axis : x y z
#
# Youngs Moduli (GPa) = 76.11171 91.59953 137.54185
#
# Poissons Ratio (x) = 0.02036 0.01368
# Poissons Ratio (y) = 0.01692 0.75708
# Poissons Ratio (z) = 0.00757 0.50420
#
# Static dielectric constant tensor:
#      x y z
#    x 1.807390 0.000000 0.000000 
#    y 0.000000 1.636690 0.000000 
#    z 0.000000 0.000000 1.676630 
# 
# From -- ./inp_files/34983.got.cif
#   From: 2010.05.17/outbox.cif.g08.bks.cpg/sg53_18_cif.got.tgz:34983.got - 2010.06.03 12:45:16.
