data_PCOD9420849
_publ_section_title
;
Structure prediction by ZEFSAII (Michael W. Deem and Ramdas Pophale) SiO2 
 PCOD9420849
Probable space group: P C C A
;
_chemical_formula_sum "Si O2"
_cell_formula_units_Z 48
_cell_length_a 19.368292
_cell_length_b 5.108800
_cell_length_c 29.942966
_cell_angle_alpha 90.000000
_cell_angle_beta 90.000000
_cell_angle_gamma 90.000000
_cell_volume 2962.818463
_symmetry_space_group_name_H-M "P C C A"
_symmetry_group_IT_number 54
_symmetry_cell_setting 'orthorhombic'
loop_
_space_group_symop_operation_xyz
x,y,z
1/2-x,-y,z
1/2+x,-y,1/2-z
-x,y,1/2-z
-x,-y,-z
1/2+x,y,-z
1/2-x,y,1/2+z
x,-y,1/2+z
loop_
_atom_site_type_symbol
_atom_site_label
_atom_site_fract_x
_atom_site_fract_y
_atom_site_fract_z
Si Si1 0.074406 0.695968 0.971764
Si Si2 0.550587 0.179561 0.708254
Si Si3 0.953676 0.331194 0.647227
Si Si4 0.675238 0.388809 0.603603
Si Si5 0.204084 0.760843 0.800591
Si Si6 0.491301 0.806016 0.555897
O O1 0.140753 0.729531 0.940502
O O2 0.046544 0.401314 0.964922
O O3 0.018994 0.901250 0.951466
O O4 0.075137 0.760345 0.024412
O O5 0.500000 0.162480 0.750000
O O6 0.527401 0.408169 0.674334
O O7 0.629233 0.252118 0.721981
O O8 0.553092 0.907526 0.681319
O O9 0.880337 0.400375 0.623170
O O10 0.007340 0.260472 0.608012
O O11 0.750000 0.500000 0.592823
O O12 0.686351 0.203670 0.646553
O O13 0.250000 0.500000 0.797238
O O14 0.250000 0.000000 0.784553
#
# Coordination Sequence:
#
# PCOD9420849 Si02
#       6
#     8   8   8   8   8   8
#     4   9  17  26  42  64  89 118 151 182 207 255
#     4  11  21  33  49  72  96 120 159 205 243 281
#     4  10  19  31  47  66  95 128 153 189 240 283
#     4   9  17  28  44  68  97 123 149 179 227 287
#     4  10  19  31  47  67  95 126 150 181 237 300
#     4   9  16  29  43  61  87 119 154 182 214 259
#
# _framework density 16.200789
#
# number of rings (size 3 to 8) (size 9 to 14) (size 15 to 20)
#    0.000    2.333    0.000    6.500    0.000    2.667 
#    0.000    0.000    0.000    0.000    0.000    3.500 
#    0.000    2.667    0.000    0.000    0.000    0.000 
#
# Total GULP energy -267279.055560 kJ/mol
# GULP energy per Si atom -5568.313658 kJ/mol
# Density = 1.616392 g / cm^3
# Si number density = 16.200789 Si / 1000 Ang^3
#
#
#
# Elastic Constant Matrix: (Units=GPa)
#
#
# Indices 1 2 3 4 5 6 
#
# 1 80.9716 11.2125 59.1909 0.0000 0.0000 0.0000
# 2 11.2125 71.0608 24.9853 0.0000 0.0000 0.0000
# 3 59.1909 24.9853 84.1889 0.0000 0.0000 0.0000
# 4 0.0000 0.0000 0.0000 19.5081 0.0000 0.0000
# 5 0.0000 0.0000 0.0000 0.0000 32.1975 0.0000
# 6 0.0000 0.0000 0.0000 0.0000 0.0000 13.2100
#
#
#
# Elastic Compliance Matrix: (Units=1/GPa)
#
#
# Indices 1 2 3 4 5 6 
#
# 1 0.025825 0.002578 -0.018922 0.000000 0.000000 0.000000
# 2 0.002578 0.015969 -0.006552 0.000000 0.000000 0.000000
# 3 -0.018922 -0.006552 0.027126 0.000000 0.000000 0.000000
# 4 0.000000 0.000000 0.000000 0.051261 0.000000 0.000000
# 5 0.000000 0.000000 0.000000 0.000000 0.031058 0.000000
# 6 0.000000 0.000000 0.000000 0.000000 0.000000 0.075700
#
#
# Mechanical properties :
#
#
# Convention : Reuss Voigt Hill
#
# Bulk Modulus (GPa) = 43.23600 47.44430 45.34015
# Shear Modulus (GPa) = 17.82904 22.37197 20.10051
#
# Velocity S-wave (km/s) = 3.32098 3.72010 3.52619
# Velocity P-wave (km/s) = 6.43823 6.91382 6.68026
#
# Compressibility (1/GPa) = 0.02312888
#
# Stress axis : x y z
#
# Youngs Moduli (GPa) = 38.72181 62.61991 36.86477
#
# Poissons Ratio (x) = -0.16145 0.69756
# Poissons Ratio (y) = -0.09983 0.24154
# Poissons Ratio (z) = 0.73270 0.41029
#
# Static dielectric constant tensor:
#      x y z
#    x 1.560860 0.000000 0.000000 
#    y 0.000000 1.572930 0.000000 
#    z 0.000000 0.000000 1.568580 
# 
# From -- ./inp_files/26678.got.cif
#   From: 2010.05.17/outbox.cif.g08.bks.cpg/sg54_14_cif.got.tgz:26678.got - 2010.06.03 13:09:01.
