data_PCOD9420084
_publ_section_title
;
Structure prediction by ZEFSAII (Michael W. Deem and Ramdas Pophale) SiO2 
 PCOD9420084
Probable space group: P M N A
;
_chemical_formula_sum "Si O2"
_cell_formula_units_Z 64
_cell_length_a 9.000000
_cell_length_b 18.000000
_cell_length_c 24.000000
_cell_angle_alpha 90.000000
_cell_angle_beta 90.000000
_cell_angle_gamma 90.000000
_cell_volume 3888.000000
_symmetry_space_group_name_H-M "P M N A"
_symmetry_group_IT_number 53
_symmetry_cell_setting 'orthorhombic'
loop_
_space_group_symop_operation_xyz
x,y,z
1/2-x,-y,1/2+z
x,-y,-z
1/2-x,y,1/2-z
-x,-y,-z
1/2+x,y,1/2-z
-x,y,z
1/2+x,-y,1/2+z
loop_
_atom_site_type_symbol
_atom_site_label
_atom_site_fract_x
_atom_site_fract_y
_atom_site_fract_z
Si Si1 0.820458 0.812595 0.097345
Si Si2 0.173536 0.343072 0.063564
Si Si3 0.173727 0.191897 0.397122
Si Si4 0.677092 0.911092 0.689505
Si Si5 0.671614 0.496048 0.067742
Si Si6 0.174906 0.085818 0.503671
Si Si7 0.821818 0.925493 0.189813
Si Si8 0.825583 0.648551 0.070862
O O1 0.762126 0.863647 0.047441
O O2 0.773789 0.856979 0.152189
O O3 0.768942 0.727243 0.094395
O O4 0.000000 0.810479 0.094267
O O5 0.258922 0.270734 0.085015
O O6 0.241048 0.421373 0.083887
O O7 0.000000 0.338173 0.077829
O O8 0.185575 0.343823 0.996218
O O9 0.259882 0.155833 0.346079
O O10 0.188148 0.130908 0.446193
O O11 0.000000 0.200786 0.384731
O O12 0.750000 0.909518 0.750000
O O13 0.500000 0.906548 0.693573
O O14 0.715537 0.993055 0.664785
O O15 0.500000 0.490029 0.083912
O O16 0.741252 0.573645 0.087972
O O17 0.678132 0.500000 0.000000
O O18 0.000000 0.083713 0.519140
O O19 0.226537 0.000000 0.500000
O O20 0.750000 0.921313 0.250000
O O21 0.000000 0.923046 0.194861
O O22 0.000000 0.640085 0.084449
#
# Coordination Sequence:
#
# PCOD9420084 Si02
#       8
#     8   8   8   8   8   8   8   8
#     4  10  19  32  49  71  97 128 165 203 242 288
#     4  10  18  30  47  68  96 130 164 197 239 290
#     4  11  21  32  48  71 100 130 163 202 244 291
#     4  10  20  35  53  72  94 125 166 210 253 291
#     4   9  17  28  44  66  94 127 161 196 238 287
#     4  10  21  33  45  66  98 133 164 196 240 292
#     4   9  19  34  52  72  95 125 165 211 252 290
#     4   9  17  29  45  67  96 128 162 198 238 289
#
# _framework density 16.460905
#
# number of rings (size 3 to 8) (size 9 to 14) (size 15 to 20)
#    0.000    2.250    1.250    2.250    0.000    4.250 
#    0.000    0.000    0.000    0.000    0.000    0.875 
#    0.000    2.000    0.000    0.000    0.000    0.000 
#
# Total GULP energy -356726.130982 kJ/mol
# GULP energy per Si atom -5573.845797 kJ/mol
# Density = 1.642344 g / cm^3
# Si number density = 16.460905 Si / 1000 Ang^3
#
#
#
# Elastic Constant Matrix: (Units=GPa)
#
#
# Indices 1 2 3 4 5 6 
#
# 1 64.5599 67.1649 26.3125 0.0000 0.0000 0.0000
# 2 67.1649 158.8915 27.0332 0.0000 0.0000 0.0000
# 3 26.3125 27.0332 25.3425 0.0000 0.0000 0.0000
# 4 0.0000 0.0000 0.0000 44.4631 0.0000 0.0000
# 5 0.0000 0.0000 0.0000 0.0000 16.8996 0.0000
# 6 0.0000 0.0000 0.0000 0.0000 0.0000 43.3403
#
#
#
# Elastic Compliance Matrix: (Units=1/GPa)
#
#
# Indices 1 2 3 4 5 6 
#
# 1 0.039236 -0.011795 -0.028156 0.000000 0.000000 0.000000
# 2 -0.011795 0.011235 0.000262 0.000000 0.000000 0.000000
# 3 -0.028156 0.000262 0.068413 0.000000 0.000000 0.000000
# 4 0.000000 0.000000 0.000000 0.022491 0.000000 0.000000
# 5 0.000000 0.000000 0.000000 0.000000 0.059173 0.000000
# 6 0.000000 0.000000 0.000000 0.000000 0.000000 0.023073
#
#
# Mechanical properties :
#
#
# Convention : Reuss Voigt Hill
#
# Bulk Modulus (GPa) = 25.31224 54.42390 39.86807
# Shear Modulus (GPa) = 15.81447 29.49284 22.65365
#
# Velocity S-wave (km/s) = 3.10293 4.23743 3.71375
# Velocity P-wave (km/s) = 5.31489 7.55482 6.53159
#
# Compressibility (1/GPa) = 0.03950658
#
# Stress axis : x y z
#
# Youngs Moduli (GPa) = 25.48694 89.00849 14.61712
#
# Poissons Ratio (x) = 1.04986 0.41155
# Poissons Ratio (y) = 0.30062 -0.00383
# Poissons Ratio (z) = 0.71760 -0.02333
#
# Static dielectric constant tensor:
#      x y z
#    x 1.550720 0.000000 0.000000 
#    y 0.000000 1.554320 0.000000 
#    z 0.000000 0.000000 1.512370 
# 
# From -- ./inp_files/34495.got.cif
#   From: 2010.05.17/outbox.ucp.g08.bks.cvg/sg53_18_cif.got.tgz:34495.got - 2010.06.11 16:32:34.
