data_PCOD9420250
_publ_section_title
;
Structure prediction by ZEFSAII (Michael W. Deem and Ramdas Pophale) SiO2 
 PCOD9420250
Probable space group: P M N A
;
_chemical_formula_sum "Si O2"
_cell_formula_units_Z 56
_cell_length_a 9.000000
_cell_length_b 15.000000
_cell_length_c 21.000000
_cell_angle_alpha 90.000000
_cell_angle_beta 90.000000
_cell_angle_gamma 90.000000
_cell_volume 2835.000000
_symmetry_space_group_name_H-M "P M N A"
_symmetry_group_IT_number 53
_symmetry_cell_setting 'orthorhombic'
loop_
_space_group_symop_operation_xyz
x,y,z
1/2-x,-y,1/2+z
x,-y,-z
1/2-x,y,1/2-z
-x,-y,-z
1/2+x,y,1/2-z
-x,y,z
1/2+x,-y,1/2+z
loop_
_atom_site_type_symbol
_atom_site_label
_atom_site_fract_x
_atom_site_fract_y
_atom_site_fract_z
Si Si1 0.678194 0.342334 0.125761
Si Si2 0.665290 0.173720 0.926034
Si Si3 0.339770 0.291246 0.801706
Si Si4 0.179856 0.162145 0.180478
Si Si5 0.319280 0.453491 0.876636
Si Si6 0.176021 0.005529 0.077566
Si Si7 0.822516 0.665550 0.012532
O O1 0.500000 0.329649 0.128623
O O2 0.757098 0.260419 0.162043
O O3 0.711643 0.445401 0.143971
O O4 0.738031 0.342829 0.053787
O O5 0.500000 0.165278 0.956218
O O6 0.648983 0.235311 0.864782
O O7 0.727149 0.079556 0.903284
O O8 0.780393 0.233046 0.966474
O O9 0.250000 0.238770 0.750000
O O10 0.500000 0.309987 0.774202
O O11 0.270508 0.384861 0.821998
O O12 0.250000 0.137174 0.250000
O O13 0.000000 0.165487 0.185711
O O14 0.214690 0.092244 0.121631
O O15 0.500000 0.445127 0.885552
O O16 0.241878 0.410545 0.939421
O O17 0.000000 0.991492 0.087497
O O18 0.198031 0.000000 0.000000
O O19 0.000000 0.656315 0.007377
#
# Coordination Sequence:
#
# PCOD9420250 Si02
#       7
#     8   8   8   8   8   8   8
#     4  11  22  38  61  85 115 157 201 248 302 356
#     4  10  21  37  58  84 114 148 187 233 288 352
#     4   9  19  35  53  77 109 144 184 229 280 337
#     4  11  25  44  64  89 125 165 208 259 313 375
#     4   9  20  37  55  81 117 155 197 248 302 355
#     4  10  22  41  65  92 120 152 196 253 310 363
#     4  11  21  34  56  88 123 155 193 242 296 361
#
# _framework density 19.753086
#
# number of rings (size 3 to 8) (size 9 to 14) (size 15 to 20)
#    0.000    1.857    0.000    4.714    0.000    9.429 
#    0.000    4.286    0.000    0.000    0.000    0.000 
#    0.000    0.000    0.000    0.000    0.000    0.000 
#
# Total GULP energy -311813.521295 kJ/mol
# GULP energy per Si atom -5568.098595 kJ/mol
# Density = 1.970813 g / cm^3
# Si number density = 19.753086 Si / 1000 Ang^3
#
#
#
# Elastic Constant Matrix: (Units=GPa)
#
#
# Indices 1 2 3 4 5 6 
#
# 1 60.5393 45.5973 26.8869 0.0000 0.0000 0.0000
# 2 45.5973 135.0264 21.2747 0.0000 0.0000 0.0000
# 3 26.8869 21.2747 63.5442 0.0000 0.0000 0.0000
# 4 0.0000 0.0000 0.0000 4.5565 0.0000 0.0000
# 5 0.0000 0.0000 0.0000 0.0000 28.7343 0.0000
# 6 0.0000 0.0000 0.0000 0.0000 0.0000 33.9253
#
#
#
# Elastic Compliance Matrix: (Units=1/GPa)
#
#
# Indices 1 2 3 4 5 6 
#
# 1 0.025845 -0.007395 -0.008460 0.000000 0.000000 0.000000
# 2 -0.007395 0.009934 -0.000197 0.000000 0.000000 0.000000
# 3 -0.008460 -0.000197 0.019383 0.000000 0.000000 0.000000
# 4 0.000000 0.000000 0.000000 0.219469 0.000000 0.000000
# 5 0.000000 0.000000 0.000000 0.000000 0.034802 0.000000
# 6 0.000000 0.000000 0.000000 0.000000 0.000000 0.029477
#
#
# Mechanical properties :
#
#
# Convention : Reuss Voigt Hill
#
# Bulk Modulus (GPa) = 43.36799 49.62530 46.49665
# Shear Modulus (GPa) = 13.20313 24.46661 18.83487
#
# Velocity S-wave (km/s) = 2.58816 3.52322 3.09125
# Velocity P-wave (km/s) = 5.56185 6.45973 6.02753
#
# Compressibility (1/GPa) = 0.02305848
#
# Stress axis : x y z
#
# Youngs Moduli (GPa) = 38.69220 100.66278 51.59268
#
# Poissons Ratio (x) = 0.74437 0.43646
# Poissons Ratio (y) = 0.28612 0.01017
# Poissons Ratio (z) = 0.32733 0.01984
#
# Static dielectric constant tensor:
#      x y z
#    x 1.723870 0.000000 0.000000 
#    y 0.000000 1.719950 0.000000 
#    z 0.000000 0.000000 1.591270 
# 
# From -- ./inp_files/30749.got.cif
#   From: 2010.05.17/outbox.ucp.g08.bks.cvg/sg53_16_cif.got.tgz:30749.got - 2010.06.11 16:32:34.
