data_PCOD9420718
_publ_section_title
;
Structure prediction by ZEFSAII (Michael W. Deem and Ramdas Pophale) SiO2 
 PCOD9420718
Probable space group: P C C A
;
_chemical_formula_sum "Si O2"
_cell_formula_units_Z 60
_cell_length_a 22.283255
_cell_length_b 9.317314
_cell_length_c 16.063294
_cell_angle_alpha 90.000000
_cell_angle_beta 90.000000
_cell_angle_gamma 90.000000
_cell_volume 3335.062446
_symmetry_space_group_name_H-M "P C C A"
_symmetry_group_IT_number 54
_symmetry_cell_setting 'orthorhombic'
loop_
_space_group_symop_operation_xyz
x,y,z
1/2-x,-y,z
1/2+x,-y,1/2-z
-x,y,1/2-z
-x,-y,-z
1/2+x,y,-z
1/2-x,y,1/2+z
x,-y,1/2+z
loop_
_atom_site_type_symbol
_atom_site_label
_atom_site_fract_x
_atom_site_fract_y
_atom_site_fract_z
Si Si1 0.880436 0.675552 0.674974
Si Si2 0.700400 0.321787 0.837858
Si Si3 0.813648 0.835376 0.532084
Si Si4 0.582888 0.593140 0.560617
Si Si5 0.000000 0.337807 0.250000
Si Si6 0.674989 0.836671 0.502784
Si Si7 0.171048 0.639926 0.128005
Si Si8 0.046181 0.439672 0.613586
O O1 0.838202 0.665682 0.755169
O O2 0.848157 0.778440 0.611102
O O3 0.891787 0.523148 0.627545
O O4 0.944583 0.737048 0.704954
O O5 0.771531 0.307977 0.818811
O O6 0.686909 0.472335 0.884492
O O7 0.681553 0.202736 0.904805
O O8 0.741655 0.823958 0.542371
O O9 0.826232 0.729598 0.455870
O O10 0.836730 0.994608 0.511564
O O11 0.627664 0.725394 0.542932
O O12 0.516520 0.638606 0.593112
O O13 0.569642 0.508341 0.473611
O O14 0.029890 0.436196 0.178773
O O15 0.101683 0.645868 0.154347
#
# Coordination Sequence:
#
# PCOD9420718 Si02
#       8
#     8   8   8   8   4   8   8   8
#     4  11  20  37  58  92 107 154 187 250 281 352
#     4  10  20  33  61  82 115 140 194 242 301 325
#     4  10  22  36  60  80 121 152 201 226 298 349
#     4  10  20  33  62  81 116 145 199 231 293 339
#     4  10  20  32  58  82 124 142 190 234 300 326
#     4  10  20  40  54  84 115 160 182 242 287 360
#     4  10  18  36  56  86 107 147 191 245 279 350
#     4  10  18  35  56  86 111 152 183 244 286 344
#
# _framework density 17.990667999999999
#
# number of rings (size 3 to 8) (size 9 to 14) (size 15 to 20)
#    0.000    1.867    4.000    0.000    0.000    2.667 
#    0.000    7.333    0.000    0.800    0.000    0.000 
#    0.000    0.000    0.000    0.000    0.000    0.000 
#
# Total GULP energy -334062.208791 kJ/mol
# GULP energy per Si atom -5567.703480 kJ/mol
# Density = 1.794972 g / cm^3
# Si number density = 17.990668 Si / 1000 Ang^3
#
#
#
# Elastic Constant Matrix: (Units=GPa)
#
#
# Indices 1 2 3 4 5 6 
#
# 1 140.5546 51.5887 68.5070 0.0000 0.0000 0.0000
# 2 51.5887 96.8423 45.5855 0.0000 0.0000 0.0000
# 3 68.5070 45.5855 87.4481 0.0000 0.0000 0.0000
# 4 0.0000 0.0000 0.0000 4.1177 0.0000 0.0000
# 5 0.0000 0.0000 0.0000 0.0000 34.1707 0.0000
# 6 0.0000 0.0000 0.0000 0.0000 0.0000 16.3533
#
#
#
# Elastic Compliance Matrix: (Units=1/GPa)
#
#
# Indices 1 2 3 4 5 6 
#
# 1 0.011985 -0.002604 -0.008032 0.000000 0.000000 0.000000
# 2 -0.002604 0.014249 -0.005388 0.000000 0.000000 0.000000
# 3 -0.008032 -0.005388 0.020536 0.000000 0.000000 0.000000
# 4 0.000000 0.000000 0.000000 0.242855 0.000000 0.000000
# 5 0.000000 0.000000 0.000000 0.000000 0.029265 0.000000
# 6 0.000000 0.000000 0.000000 0.000000 0.000000 0.061150
#
#
# Mechanical properties :
#
#
# Convention : Reuss Voigt Hill
#
# Bulk Modulus (GPa) = 67.92019 72.91194 70.41606
# Shear Modulus (GPa) = 11.99051 21.53926 16.76488
#
# Velocity S-wave (km/s) = 2.58444 3.46388 3.05596
# Velocity P-wave (km/s) = 6.83672 7.52420 7.18868
#
# Compressibility (1/GPa) = 0.01472316
#
# Stress axis : x y z
#
# Youngs Moduli (GPa) = 83.43679 70.17799 48.69428
#
# Poissons Ratio (x) = 0.18273 0.39110
# Poissons Ratio (y) = 0.21726 0.26237
# Poissons Ratio (z) = 0.67015 0.37813
#
# Static dielectric constant tensor:
#      x y z
#    x 1.697180 0.000000 0.000000 
#    y 0.000000 1.591160 0.000000 
#    z 0.000000 0.000000 1.630590 
# 
# From -- ./inp_files/14971.got.cif
#   From: 2010.05.17/outbox.cif.g08.bks.cpg/sg54_8_cif.got.tgz:14971.got - 2010.06.03 13:09:01.
