data_PCOD9420614
_publ_section_title
;
Structure prediction by ZEFSAII (Michael W. Deem and Ramdas Pophale) SiO2 
 PCOD9420614
Probable space group: P C C A
;
_chemical_formula_sum "Si O2"
_cell_formula_units_Z 48
_cell_length_a 8.440269
_cell_length_b 11.306893
_cell_length_c 28.125279
_cell_angle_alpha 90.000000
_cell_angle_beta 90.000000
_cell_angle_gamma 90.000000
_cell_volume 2684.085895
_symmetry_space_group_name_H-M "P C C A"
_symmetry_group_IT_number 54
_symmetry_cell_setting 'orthorhombic'
loop_
_space_group_symop_operation_xyz
x,y,z
1/2-x,-y,z
1/2+x,-y,1/2-z
-x,y,1/2-z
-x,-y,-z
1/2+x,y,-z
1/2-x,y,1/2+z
x,-y,1/2+z
loop_
_atom_site_type_symbol
_atom_site_label
_atom_site_fract_x
_atom_site_fract_y
_atom_site_fract_z
Si Si1 0.418296 0.770778 0.485836
Si Si2 0.750000 0.500000 0.707804
Si Si3 0.351396 0.382055 0.457747
Si Si4 0.305437 0.869832 0.067893
Si Si5 0.842663 0.691845 0.845043
Si Si6 0.500000 0.676191 0.250000
Si Si7 0.017451 0.568031 0.140632
O O1 0.280560 0.720563 0.452085
O O2 0.535403 0.662510 0.499934
O O3 0.531214 0.867412 0.462146
O O4 0.329821 0.816278 0.533068
O O5 0.644501 0.411173 0.737718
O O6 0.632731 0.574669 0.674823
O O7 0.250000 0.500000 0.467492
O O8 0.460193 0.397863 0.411760
O O9 0.337224 0.785955 0.112747
O O10 0.250000 0.000000 0.081734
O O11 0.931271 0.569962 0.859744
O O12 0.661412 0.646582 0.839652
O O13 0.934609 0.737723 0.797893
#
# Coordination Sequence:
#
# PCOD9420614 Si02
#       7
#     8   4   8   8   8   4   8
#     4  10  23  35  54  81 115 153 199 231 284 329
#     4  10  18  32  54  82 110 150 172 224 286 348
#     4  11  19  33  50  84 118 155 181 228 282 350
#     4  11  22  40  59  80 111 153 199 242 277 325
#     4  10  21  36  55  83 111 151 184 232 289 341
#     4  10  20  34  56  82 114 142 186 230 284 352
#     4  10  19  32  55  81 121 141 181 223 287 353
#
# _framework density 17.883182999999999
#
# number of rings (size 3 to 8) (size 9 to 14) (size 15 to 20)
#    0.000    1.667    2.500    4.000    2.333    1.333 
#    0.000    0.000    0.000    2.000    0.000    0.000 
#    0.000    0.000    0.000    0.000    0.000    0.000 
#
# Total GULP energy -267721.859839 kJ/mol
# GULP energy per Si atom -5577.538747 kJ/mol
# Density = 1.784248 g / cm^3
# Si number density = 17.883183 Si / 1000 Ang^3
#
#
#
# Elastic Constant Matrix: (Units=GPa)
#
#
# Indices 1 2 3 4 5 6 
#
# 1 111.2780 23.2852 41.4919 0.0000 0.0000 0.0000
# 2 23.2852 52.7877 32.3112 0.0000 0.0000 0.0000
# 3 41.4919 32.3112 93.7796 0.0000 0.0000 0.0000
# 4 0.0000 0.0000 0.0000 12.7367 0.0000 0.0000
# 5 0.0000 0.0000 0.0000 0.0000 39.9489 0.0000
# 6 0.0000 0.0000 0.0000 0.0000 0.0000 14.4408
#
#
#
# Elastic Compliance Matrix: (Units=1/GPa)
#
#
# Indices 1 2 3 4 5 6 
#
# 1 0.010991 -0.002372 -0.004046 0.000000 0.000000 0.000000
# 2 -0.002372 0.024519 -0.007398 0.000000 0.000000 0.000000
# 3 -0.004046 -0.007398 0.015002 0.000000 0.000000 0.000000
# 4 0.000000 0.000000 0.000000 0.078513 0.000000 0.000000
# 5 0.000000 0.000000 0.000000 0.000000 0.025032 0.000000
# 6 0.000000 0.000000 0.000000 0.000000 0.000000 0.069248
#
#
# Mechanical properties :
#
#
# Convention : Reuss Voigt Hill
#
# Bulk Modulus (GPa) = 43.70586 50.22465 46.96525
# Shear Modulus (GPa) = 19.33754 24.14243 21.73998
#
# Velocity S-wave (km/s) = 3.29192 3.67823 3.49042
# Velocity P-wave (km/s) = 6.24033 6.79595 6.52406
#
# Compressibility (1/GPa) = 0.02288023
#
# Stress axis : x y z
#
# Youngs Moduli (GPa) = 90.98038 40.78544 66.65632
#
# Poissons Ratio (x) = 0.09674 0.26968
# Poissons Ratio (y) = 0.21581 0.49314
# Poissons Ratio (z) = 0.36809 0.30174
#
# Static dielectric constant tensor:
#      x y z
#    x 1.643360 0.000000 0.000000 
#    y 0.000000 1.588810 0.000000 
#    z 0.000000 0.000000 1.649090 
# 
# From -- ./inp_files/23561.got.cif
#   From: 2010.05.17/outbox.cif.g08.bks.cpg/sg54_12_cif.got.tgz:23561.got - 2010.06.03 13:09:01.
