data_PCOD9420020
_publ_section_title
;
Structure prediction by ZEFSAII (Michael W. Deem and Ramdas Pophale) SiO2 
 PCOD9420020
Probable space group: P M N A
;
_chemical_formula_sum "Si O2"
_cell_formula_units_Z 20
_cell_length_a 15.779024
_cell_length_b 11.172585
_cell_length_c 4.920359
_cell_angle_alpha 90.000000
_cell_angle_beta 90.000000
_cell_angle_gamma 90.000000
_cell_volume 867.422324
_symmetry_space_group_name_H-M "P M N A"
_symmetry_group_IT_number 53
_symmetry_cell_setting 'orthorhombic'
loop_
_space_group_symop_operation_xyz
x,y,z
1/2-x,-y,1/2+z
x,-y,-z
1/2-x,y,1/2-z
-x,-y,-z
1/2+x,y,1/2-z
-x,y,z
1/2+x,-y,1/2+z
loop_
_atom_site_type_symbol
_atom_site_label
_atom_site_fract_x
_atom_site_fract_y
_atom_site_fract_z
Si Si1 0.811426 0.000000 0.000000
Si Si2 0.097784 0.758568 0.832050
Si Si3 0.654520 0.384320 0.843660
O O1 0.868636 0.114483 0.065980
O O2 0.750000 0.971881 0.250000
O O3 0.152515 0.717373 0.573825
O O4 0.000000 0.764970 0.747629
O O5 0.107655 0.663489 0.077221
O O6 0.750000 0.411671 0.750000
O O7 0.618316 0.500000 0.000000
#
# Coordination Sequence:
#
# PCOD9420020 Si02
#       3
#     4   8   8
#     4  12  25  44  71  96 130 178 226 270 325 398
#     4  12  26  44  68 101 137 171 218 278 337 389
#     4  12  25  44  70  98 133 179 225 269 323 395
#
# _framework density 23.056819999999998
#
# number of rings (size 3 to 8) (size 9 to 14) (size 15 to 20)
#    0.000    0.000    0.000   12.600    0.000    4.800 
#    0.000    6.000    0.000    0.000    0.000    0.000 
#    0.000    0.000    0.000    0.000    0.000    0.000 
#
# Total GULP energy -112178.125812 kJ/mol
# GULP energy per Si atom -5608.906291 kJ/mol
# Density = 2.300434 g / cm^3
# Si number density = 23.056820 Si / 1000 Ang^3
#
#
#
# Elastic Constant Matrix: (Units=GPa)
#
#
# Indices 1 2 3 4 5 6 
#
# 1 57.7067 13.9134 11.3178 0.0000 0.0000 0.0000
# 2 13.9134 90.2866 23.3704 0.0000 0.0000 0.0000
# 3 11.3178 23.3704 141.2349 0.0000 0.0000 0.0000
# 4 0.0000 0.0000 0.0000 27.8528 0.0000 0.0000
# 5 0.0000 0.0000 0.0000 0.0000 -3.1141 0.0000
# 6 0.0000 0.0000 0.0000 0.0000 0.0000 154.4646
#
#
#
# Elastic Compliance Matrix: (Units=1/GPa)
#
#
# Indices 1 2 3 4 5 6 
#
# 1 0.018142 -0.002528 -0.001036 0.000000 0.000000 0.000000
# 2 -0.002528 0.011924 -0.001770 0.000000 0.000000 0.000000
# 3 -0.001036 -0.001770 0.007456 0.000000 0.000000 0.000000
# 4 0.000000 0.000000 0.000000 0.035903 0.000000 0.000000
# 5 0.000000 0.000000 0.000000 0.000000 -0.321123 0.000000
# 6 0.000000 0.000000 0.000000 0.000000 0.000000 0.006474
#
#
# Mechanical properties :
#
#
# Convention : Reuss Voigt Hill
#
# Bulk Modulus (GPa) = 37.23799 42.93682 40.08741
# Shear Modulus (GPa) = -22.56257 51.88245 14.65994
#
# Velocity S-wave (km/s) = -3.13159 4.74877 2.52428
# Velocity P-wave (km/s) = 1.76345 6.98072 5.09118
#
# Compressibility (1/GPa) = 0.02685430
#
# Stress axis : x y z
#
# Youngs Moduli (GPa) = 55.12218 83.86709 134.11392
#
# Poissons Ratio (x) = 0.21198 0.13888
# Poissons Ratio (y) = 0.13933 0.23745
# Poissons Ratio (z) = 0.05708 0.14848
#
# Static dielectric constant tensor:
#      x y z
#    x 1.797970 0.000000 0.000000 
#    y 0.000000 1.875000 0.000000 
#    z 0.000000 0.000000 1.826890 
# 
# From -- ./inp_files/982.got.cif
#   From: 2010.05.17/outbox.cif.g08.bks.cpg/sg53_1_cif.got.tgz:982.got - 2010.06.03 12:45:16.
