data_PCOD9420336
_publ_section_title
;
Structure prediction by ZEFSAII (Michael W. Deem and Ramdas Pophale) SiO2 
 PCOD9420336
Probable space group: P C C A
;
_chemical_formula_sum "Si O2"
_cell_formula_units_Z 56
_cell_length_a 13.928785
_cell_length_b 33.372855
_cell_length_c 5.416763
_cell_angle_alpha 90.000000
_cell_angle_beta 90.000000
_cell_angle_gamma 90.000000
_cell_volume 2517.946108
_symmetry_space_group_name_H-M "P C C A"
_symmetry_group_IT_number 54
_symmetry_cell_setting 'orthorhombic'
loop_
_space_group_symop_operation_xyz
x,y,z
1/2-x,-y,z
1/2+x,-y,1/2-z
-x,y,1/2-z
-x,-y,-z
1/2+x,y,-z
1/2-x,y,1/2+z
x,-y,1/2+z
loop_
_atom_site_type_symbol
_atom_site_label
_atom_site_fract_x
_atom_site_fract_y
_atom_site_fract_z
Si Si1 0.813006 0.399727 0.378877
Si Si2 0.891885 0.483665 0.477795
Si Si3 0.356916 0.808345 0.627463
Si Si4 0.310721 0.900617 0.605905
Si Si5 0.392318 0.016615 0.016744
Si Si6 0.312327 0.312003 0.551472
Si Si7 0.634635 0.224461 0.872475
O O1 0.736968 0.402233 0.608579
O O2 0.883136 0.437165 0.412312
O O3 0.859111 0.355677 0.412711
O O4 0.849149 0.491686 0.748146
O O5 0.000000 0.500000 0.500000
O O6 0.350178 0.855648 0.585908
O O7 0.248291 0.789311 0.643707
O O8 0.403995 0.787306 0.393363
O O9 0.401784 0.799337 0.891375
O O10 0.236912 0.904758 0.376274
O O11 0.385857 0.936422 0.570977
O O12 0.349130 0.006911 0.749619
O O13 0.500000 0.000000 0.000000
O O14 0.264008 0.310342 0.279700
O O15 0.372498 0.271694 0.581175
#
# Coordination Sequence:
#
# PCOD9420336 Si02
#       7
#     8   8   8   8   8   8   8
#     4  10  21  32  48  78 108 135 176 219 263 304
#     4  10  21  37  55  72  98 137 183 220 265 318
#     4  10  16  25  41  69 103 138 161 198 250 300
#     4  12  21  32  53  83 110 133 172 227 264 292
#     4  10  23  42  57  71 101 143 184 211 261 323
#     4  10  16  25  41  64  98 143 162 195 243 299
#     4  10  14  25  41  61 102 148 159 184 254 307
#
# _framework density 22.240348999999998
#
# number of rings (size 3 to 8) (size 9 to 14) (size 15 to 20)
#    0.000    1.714    5.714    1.714    0.000    3.429 
#    0.000    0.000    0.000    0.000    0.000    0.000 
#    0.000   27.429    0.000    0.000    0.000    0.000 
#
# Total GULP energy -312568.576283 kJ/mol
# GULP energy per Si atom -5581.581719 kJ/mol
# Density = 2.218973 g / cm^3
# Si number density = 22.240349 Si / 1000 Ang^3
#
#
#
# Elastic Constant Matrix: (Units=GPa)
#
#
# Indices 1 2 3 4 5 6 
#
# 1 57.7172 18.2847 0.5881 0.0000 0.0000 0.0000
# 2 18.2847 195.9803 -0.2106 0.0000 0.0000 0.0000
# 3 0.5881 -0.2106 159.0173 0.0000 0.0000 0.0000
# 4 0.0000 0.0000 0.0000 38.8324 0.0000 0.0000
# 5 0.0000 0.0000 0.0000 0.0000 7.3564 0.0000
# 6 0.0000 0.0000 0.0000 0.0000 0.0000 -17.2990
#
#
#
# Elastic Compliance Matrix: (Units=1/GPa)
#
#
# Indices 1 2 3 4 5 6 
#
# 1 0.017854 -0.001666 -0.000068 0.000000 0.000000 0.000000
# 2 -0.001666 0.005258 0.000013 0.000000 0.000000 0.000000
# 3 -0.000068 0.000013 0.006289 0.000000 0.000000 0.000000
# 4 0.000000 0.000000 0.000000 0.025752 0.000000 0.000000
# 5 0.000000 0.000000 0.000000 0.000000 0.135937 0.000000
# 6 0.000000 0.000000 0.000000 0.000000 0.000000 -0.057807
#
#
# Mechanical properties :
#
#
# Convention : Reuss Voigt Hill
#
# Bulk Modulus (GPa) = 38.52194 50.00435 44.26314
# Shear Modulus (GPa) = 34.39322 32.04813 33.22067
#
# Velocity S-wave (km/s) = 3.93674 3.80016 3.86905
# Velocity P-wave (km/s) = 6.16622 6.46431 6.31702
#
# Compressibility (1/GPa) = 0.02595924
#
# Stress axis : x y z
#
# Youngs Moduli (GPa) = 56.00897 190.18676 159.01050
#
# Poissons Ratio (x) = 0.31682 0.01085
# Poissons Ratio (y) = 0.09330 -0.00209
# Poissons Ratio (z) = 0.00382 -0.00250
#
# Static dielectric constant tensor:
#      x y z
#    x 1.794770 0.000000 0.000000 
#    y 0.000000 1.787840 0.000000 
#    z 0.000000 0.000000 1.925610 
# 
# From -- ./inp_files/716.got.cif
#   From: 2010.05.17/outbox.cif.g08.bks.cpg/sg54_1_cif.got.tgz:716.got - 2010.06.03 13:09:01.
