data_PCOD9420482
_publ_section_title
;
Structure prediction by ZEFSAII (Michael W. Deem and Ramdas Pophale) SiO2 
 PCOD9420482
Probable space group: P C C A
;
_chemical_formula_sum "Si O2"
_cell_formula_units_Z 40
_cell_length_a 8.945819
_cell_length_b 8.039623
_cell_length_c 24.914992
_cell_angle_alpha 90.000000
_cell_angle_beta 90.000000
_cell_angle_gamma 90.000000
_cell_volume 1791.911443
_symmetry_space_group_name_H-M "P C C A"
_symmetry_group_IT_number 54
_symmetry_cell_setting 'orthorhombic'
loop_
_space_group_symop_operation_xyz
x,y,z
1/2-x,-y,z
1/2+x,-y,1/2-z
-x,y,1/2-z
-x,-y,-z
1/2+x,y,-z
1/2-x,y,1/2+z
x,-y,1/2+z
loop_
_atom_site_type_symbol
_atom_site_label
_atom_site_fract_x
_atom_site_fract_y
_atom_site_fract_z
Si Si1 0.321034 0.685999 0.260787
Si Si2 0.886408 0.601589 0.631752
Si Si3 0.842473 0.169154 0.947232
Si Si4 0.136197 0.650839 0.161786
Si Si5 0.950834 0.325482 0.475016
O O1 0.250000 0.500000 0.260537
O O2 0.500000 0.700969 0.250000
O O3 0.319720 0.728596 0.323989
O O4 0.212854 0.748892 0.212415
O O5 0.750000 0.500000 0.606388
O O6 0.982275 0.683844 0.585129
O O7 0.985597 0.461582 0.663965
O O8 0.882887 0.225141 0.887369
O O9 0.724604 0.302703 0.970188
O O10 0.750000 0.000000 0.946534
O O11 0.982928 0.185100 0.985998
O O12 0.250000 0.500000 0.147960
O O13 0.000000 0.500000 0.500000
#
# Coordination Sequence:
#
# PCOD9420482 Si02
#       5
#     8   8   8   8   8
#     4  10  17  29  52  88 119 146 198 264 313 356
#     4  11  21  33  60  96 119 156 209 270 313 358
#     4  12  25  40  61  92 131 170 205 257 329 393
#     4  11  19  38  59  90 122 160 210 257 315 373
#     4  12  22  41  64  92 123 168 218 265 309 378
#
# _framework density 22.322531999999999
#
# number of rings (size 3 to 8) (size 9 to 14) (size 15 to 20)
#    0.000    0.800    8.000    2.400    0.000    0.000 
#    0.000    0.000    0.000    1.200   36.400    0.000 
#    0.000    0.000    0.000    0.000    0.000    0.000 
#
# Total GULP energy -222694.429365 kJ/mol
# GULP energy per Si atom -5567.360734 kJ/mol
# Density = 2.227172 g / cm^3
# Si number density = 22.322532 Si / 1000 Ang^3
#
#
#
# Elastic Constant Matrix: (Units=GPa)
#
#
# Indices 1 2 3 4 5 6 
#
# 1 83.7007 -14.3692 15.0764 0.0000 0.0000 0.0000
# 2 -14.3692 49.8833 8.1502 0.0000 0.0000 0.0000
# 3 15.0764 8.1502 156.2486 0.0000 0.0000 0.0000
# 4 0.0000 0.0000 0.0000 5.6946 0.0000 0.0000
# 5 0.0000 0.0000 0.0000 0.0000 22.7179 0.0000
# 6 0.0000 0.0000 0.0000 0.0000 0.0000 20.7327
#
#
#
# Elastic Compliance Matrix: (Units=1/GPa)
#
#
# Indices 1 2 3 4 5 6 
#
# 1 0.012886 0.003949 -0.001449 0.000000 0.000000 0.000000
# 2 0.003949 0.021429 -0.001499 0.000000 0.000000 0.000000
# 3 -0.001449 -0.001499 0.006618 0.000000 0.000000 0.000000
# 4 0.000000 0.000000 0.000000 0.175604 0.000000 0.000000
# 5 0.000000 0.000000 0.000000 0.000000 0.044018 0.000000
# 6 0.000000 0.000000 0.000000 0.000000 0.000000 0.048233
#
#
# Mechanical properties :
#
#
# Convention : Reuss Voigt Hill
#
# Bulk Modulus (GPa) = 23.29115 34.17192 28.73154
# Shear Modulus (GPa) = 15.57151 28.56072 22.06611
#
# Velocity S-wave (km/s) = 2.64402 3.58083 3.14747
# Velocity P-wave (km/s) = 4.44721 5.69543 5.10958
#
# Compressibility (1/GPa) = 0.04293476
#
# Stress axis : x y z
#
# Youngs Moduli (GPa) = 77.60178 46.66543 151.10104
#
# Poissons Ratio (x) = -0.18427 0.21900
# Poissons Ratio (y) = -0.30643 0.22647
# Poissons Ratio (z) = 0.11247 0.06994
#
# Static dielectric constant tensor:
#      x y z
#    x 1.974620 0.000000 0.000000 
#    y 0.000000 1.860030 0.000000 
#    z 0.000000 0.000000 1.946150 
# 
# From -- ./inp_files/23233.got.cif
#   From: 2010.05.17/outbox.cif.g08.bks.cpg/sg54_12_cif.got.tgz:23233.got - 2010.06.03 13:09:01.
