data_PCOD9420724
_publ_section_title
;
Structure prediction by ZEFSAII (Michael W. Deem and Ramdas Pophale) SiO2 
 PCOD9420724
Probable space group: P C C A
;
_chemical_formula_sum "Si O2"
_cell_formula_units_Z 64
_cell_length_a 18.231416
_cell_length_b 9.359261
_cell_length_c 19.838041
_cell_angle_alpha 90.000000
_cell_angle_beta 90.000000
_cell_angle_gamma 90.000000
_cell_volume 3385.016133
_symmetry_space_group_name_H-M "P C C A"
_symmetry_group_IT_number 54
_symmetry_cell_setting 'orthorhombic'
loop_
_space_group_symop_operation_xyz
x,y,z
1/2-x,-y,z
1/2+x,-y,1/2-z
-x,y,1/2-z
-x,-y,-z
1/2+x,y,-z
1/2-x,y,1/2+z
x,-y,1/2+z
loop_
_atom_site_type_symbol
_atom_site_label
_atom_site_fract_x
_atom_site_fract_y
_atom_site_fract_z
Si Si1 0.396177 0.341794 0.990390
Si Si2 0.465495 0.557131 0.355143
Si Si3 0.483627 0.016591 0.825987
Si Si4 0.148908 0.764019 0.799645
Si Si5 0.229606 0.166793 0.426499
Si Si6 0.396287 0.253918 0.654979
Si Si7 0.351352 0.660702 0.008408
Si Si8 0.517801 0.737441 0.588810
O O1 0.454093 0.388310 0.932335
O O2 0.346924 0.214671 0.960903
O O3 0.351271 0.487994 0.003944
O O4 0.438636 0.291055 0.056227
O O5 0.393826 0.618563 0.318771
O O6 0.541575 0.624827 0.330184
O O7 0.467967 0.387908 0.357535
O O8 0.500000 0.965077 0.750000
O O9 0.411651 0.115511 0.819177
O O10 0.552126 0.113910 0.849337
O O11 0.473070 0.889344 0.877382
O O12 0.217972 0.790352 0.847912
O O13 0.156470 0.764317 0.719302
O O14 0.287980 0.264322 0.465461
O O15 0.250000 0.000000 0.432191
O O16 0.355534 0.290760 0.585964
O O17 0.424768 0.714259 0.971230
#
# Coordination Sequence:
#
# PCOD9420724 Si02
#       8
#     8   8   8   8   8   8   8   8
#     4  10  20  37  57  87 122 147 189 251 295 341
#     4   9  16  33  57  89 115 147 186 234 293 348
#     4   9  20  33  53  85 122 152 185 242 295 339
#     4   9  20  38  56  81 117 160 195 235 285 363
#     4  11  24  39  59  82 113 159 204 236 298 356
#     4  10  18  35  58  85 116 150 194 233 292 346
#     4  11  21  37  61  89 117 156 192 243 301 351
#     4  11  19  33  60  91 123 143 192 251 290 340
#
# _framework density 18.906852000000001
#
# number of rings (size 3 to 8) (size 9 to 14) (size 15 to 20)
#    0.000    2.000    2.500    3.000    1.750    1.500 
#    0.000    0.625    2.750    4.500    0.000    0.000 
#    0.000    0.000    0.000    0.000    0.000    0.000 
#
# Total GULP energy -357042.725490 kJ/mol
# GULP energy per Si atom -5578.792586 kJ/mol
# Density = 1.886382 g / cm^3
# Si number density = 18.906852 Si / 1000 Ang^3
#
#
#
# Elastic Constant Matrix: (Units=GPa)
#
#
# Indices 1 2 3 4 5 6 
#
# 1 41.5127 12.2105 31.5784 0.0000 0.0000 0.0000
# 2 12.2105 80.5097 63.4853 0.0000 0.0000 0.0000
# 3 31.5784 63.4853 100.0486 0.0000 0.0000 0.0000
# 4 0.0000 0.0000 0.0000 18.0832 0.0000 0.0000
# 5 0.0000 0.0000 0.0000 0.0000 29.2329 0.0000
# 6 0.0000 0.0000 0.0000 0.0000 0.0000 14.1738
#
#
#
# Elastic Compliance Matrix: (Units=1/GPa)
#
#
# Indices 1 2 3 4 5 6 
#
# 1 0.033308 0.006481 -0.014626 0.000000 0.000000 0.000000
# 2 0.006481 0.026121 -0.018621 0.000000 0.000000 0.000000
# 3 -0.014626 -0.018621 0.026427 0.000000 0.000000 0.000000
# 4 0.000000 0.000000 0.000000 0.055300 0.000000 0.000000
# 5 0.000000 0.000000 0.000000 0.000000 0.034208 0.000000
# 6 0.000000 0.000000 0.000000 0.000000 0.000000 0.070553
#
#
# Mechanical properties :
#
#
# Convention : Reuss Voigt Hill
#
# Bulk Modulus (GPa) = 30.93463 48.51328 39.72396
# Shear Modulus (GPa) = 16.11742 19.95109 18.03426
#
# Velocity S-wave (km/s) = 2.92287 3.25196 3.09179
# Velocity P-wave (km/s) = 5.27143 6.30992 5.81391
#
# Compressibility (1/GPa) = 0.03232623
#
# Stress axis : x y z
#
# Youngs Moduli (GPa) = 30.02251 38.28318 37.83975
#
# Poissons Ratio (x) = -0.24813 0.55344
# Poissons Ratio (y) = -0.19459 0.70461
# Poissons Ratio (z) = 0.43911 0.71286
#
# Static dielectric constant tensor:
#      x y z
#    x 1.683260 0.000000 0.000000 
#    y 0.000000 1.646740 0.000000 
#    z 0.000000 0.000000 1.676140 
# 
# From -- ./inp_files/21937.got.cif
#   From: 2010.05.17/outbox.cif.g08.bks.cpg/sg54_11_cif.got.tgz:21937.got - 2010.06.03 13:09:01.
