data_PCOD9420427
_publ_section_title
;
Structure prediction by ZEFSAII (Michael W. Deem and Ramdas Pophale) SiO2 
 PCOD9420427
Probable space group: P C C A
;
_chemical_formula_sum "Si O2"
_cell_formula_units_Z 44
_cell_length_a 12.065528
_cell_length_b 7.000443
_cell_length_c 19.001472
_cell_angle_alpha 90.000000
_cell_angle_beta 90.000000
_cell_angle_gamma 90.000000
_cell_volume 1604.941111
_symmetry_space_group_name_H-M "P C C A"
_symmetry_group_IT_number 54
_symmetry_cell_setting 'orthorhombic'
loop_
_space_group_symop_operation_xyz
x,y,z
1/2-x,-y,z
1/2+x,-y,1/2-z
-x,y,1/2-z
-x,-y,-z
1/2+x,y,-z
1/2-x,y,1/2+z
x,-y,1/2+z
loop_
_atom_site_type_symbol
_atom_site_label
_atom_site_fract_x
_atom_site_fract_y
_atom_site_fract_z
Si Si1 0.854026 0.262902 0.016098
Si Si2 0.083239 0.195517 0.334759
Si Si3 0.607449 0.280375 0.030890
Si Si4 0.651573 0.134606 0.822027
Si Si5 0.586212 0.350037 0.192611
Si Si6 0.750000 0.500000 0.295821
O O1 0.846413 0.190042 0.096024
O O2 0.724835 0.210471 0.994351
O O3 0.873210 0.492322 0.017247
O O4 0.981254 0.212154 0.989771
O O5 0.129291 0.116052 0.262001
O O6 0.061657 0.422899 0.319988
O O7 0.967650 0.095558 0.353114
O O8 0.604640 0.263117 0.116507
O O9 0.676731 0.356923 0.839793
O O10 0.750000 0.000000 0.844079
O O11 0.500000 0.273251 0.250000
O O12 0.692487 0.356387 0.242080
#
# Coordination Sequence:
#
# PCOD9420427 Si02
#       6
#     8   8   8   8   8   4
#     4   9  17  32  52  76 121 166 211 273 322 379
#     4   9  17  35  52  77 121 164 197 266 336 373
#     4   9  17  29  51  82 114 167 222 260 325 393
#     4  10  19  34  56  84 119 162 206 249 322 393
#     4  10  16  31  52  79 121 161 202 265 333 381
#     4  10  18  34  54  84 122 160 194 264 320 382
#
# _framework density 27.415337000000001
#
# number of rings (size 3 to 8) (size 9 to 14) (size 15 to 20)
#    0.000    2.545    3.636    3.273    0.000    0.000 
#    6.545    0.000    0.000    0.000    0.000   11.455 
#    0.000    0.000    0.000    0.000    0.000    0.000 
#
# Total GULP energy -245232.153476 kJ/mol
# GULP energy per Si atom -5573.458034 kJ/mol
# Density = 2.735294 g / cm^3
# Si number density = 27.415337 Si / 1000 Ang^3
#
#
#
# Elastic Constant Matrix: (Units=GPa)
#
#
# Indices 1 2 3 4 5 6 
#
# 1 236.5534 36.3034 45.6002 0.0000 0.0000 0.0000
# 2 36.3034 112.3128 12.8406 0.0000 0.0000 0.0000
# 3 45.6002 12.8406 125.1500 0.0000 0.0000 0.0000
# 4 0.0000 0.0000 0.0000 17.7151 0.0000 0.0000
# 5 0.0000 0.0000 0.0000 0.0000 14.9614 0.0000
# 6 0.0000 0.0000 0.0000 0.0000 0.0000 28.0607
#
#
#
# Elastic Compliance Matrix: (Units=1/GPa)
#
#
# Indices 1 2 3 4 5 6 
#
# 1 0.004741 -0.001351 -0.001589 0.000000 0.000000 0.000000
# 2 -0.001351 0.009394 -0.000472 0.000000 0.000000 0.000000
# 3 -0.001589 -0.000472 0.008618 0.000000 0.000000 0.000000
# 4 0.000000 0.000000 0.000000 0.056449 0.000000 0.000000
# 5 0.000000 0.000000 0.000000 0.000000 0.066839 0.000000
# 6 0.000000 0.000000 0.000000 0.000000 0.000000 0.035637
#
#
# Mechanical properties :
#
#
# Convention : Reuss Voigt Hill
#
# Bulk Modulus (GPa) = 62.77346 73.72273 68.24810
# Shear Modulus (GPa) = 25.79843 37.43225 31.61534
#
# Velocity S-wave (km/s) = 3.07094 3.69911 3.39956
# Velocity P-wave (km/s) = 5.95996 6.72265 6.35276
#
# Compressibility (1/GPa) = 0.01593030
#
# Stress axis : x y z
#
# Youngs Moduli (GPa) = 210.92781 106.44805 116.03994
#
# Poissons Ratio (x) = 0.14379 0.18437
# Poissons Ratio (y) = 0.28492 0.05473
# Poissons Ratio (z) = 0.33513 0.05021
#
# Static dielectric constant tensor:
#      x y z
#    x 4.007350 0.000000 0.000000 
#    y 0.000000 2.227810 0.000000 
#    z 0.000000 0.000000 2.048160 
# 
# From -- ./inp_files/23997.got.cif
#   From: 2010.05.17/outbox.cif.g08.bks.cpg/sg54_12_cif.got.tgz:23997.got - 2010.06.03 13:09:01.
