data_PCOD9420033
_publ_section_title
;
Structure prediction by ZEFSAII (Michael W. Deem and Ramdas Pophale) SiO2 
 PCOD9420033
Probable space group: P M N A
;
_chemical_formula_sum "Si O2"
_cell_formula_units_Z 18
_cell_length_a 27.773389
_cell_length_b 5.132418
_cell_length_c 5.194902
_cell_angle_alpha 90.000000
_cell_angle_beta 90.000000
_cell_angle_gamma 90.000000
_cell_volume 740.505444
_symmetry_space_group_name_H-M "P M N A"
_symmetry_group_IT_number 53
_symmetry_cell_setting 'orthorhombic'
loop_
_space_group_symop_operation_xyz
x,y,z
1/2-x,-y,1/2+z
x,-y,-z
1/2-x,y,1/2-z
-x,-y,-z
1/2+x,y,1/2-z
-x,y,z
1/2+x,-y,1/2+z
loop_
_atom_site_type_symbol
_atom_site_label
_atom_site_fract_x
_atom_site_fract_y
_atom_site_fract_z
Si Si1 0.413141 0.248495 0.179765
Si Si2 0.331249 0.500000 0.500000
Si Si3 0.000000 0.000000 0.000000
Si Si4 0.250000 0.824312 0.250000
O O1 0.366356 0.307604 0.348255
O O2 0.457893 0.178386 0.360467
O O3 0.423180 0.500000 0.000000
O O4 0.405386 0.000000 0.000000
O O5 0.296334 0.647895 0.304376
O O6 0.242600 0.000000 0.500000
#
# Coordination Sequence:
#
# PCOD9420033 Si02
#       4
#     8   4   2   4
#     4  12  30  52  88 126 173 229 288 366 439 531
#     4  12  32  53  82 132 174 229 302 360 442 528
#     4  12  28  58  84 130 172 226 296 358 450 526
#     4  12  32  54  86 124 178 238 296 368 440 526
#
# _framework density 24.307718999999999
#
# number of rings (size 3 to 8) (size 9 to 14) (size 15 to 20)
#    0.000    0.000    0.000    5.333   18.667    6.222 
#    0.000    0.000    0.000    0.000    0.000    0.000 
#    0.000    0.000    0.000    0.000    0.000    0.000 
#
# Total GULP energy -100672.910858 kJ/mol
# GULP energy per Si atom -5592.939492 kJ/mol
# Density = 2.425239 g / cm^3
# Si number density = 24.307719 Si / 1000 Ang^3
#
#
#
# Elastic Constant Matrix: (Units=GPa)
#
#
# Indices 1 2 3 4 5 6 
#
# 1 278.2503 106.6628 104.8986 0.0000 0.0000 0.0000
# 2 106.6628 188.5489 97.5929 0.0000 0.0000 0.0000
# 3 104.8986 97.5929 142.9410 0.0000 0.0000 0.0000
# 4 0.0000 0.0000 0.0000 74.9993 0.0000 0.0000
# 5 0.0000 0.0000 0.0000 0.0000 -111.2154 0.0000
# 6 0.0000 0.0000 0.0000 0.0000 0.0000 -198.1435
#
#
#
# Elastic Compliance Matrix: (Units=1/GPa)
#
#
# Indices 1 2 3 4 5 6 
#
# 1 0.005230 -0.001503 -0.002812 0.000000 0.000000 0.000000
# 2 -0.001503 0.008634 -0.004792 0.000000 0.000000 0.000000
# 3 -0.002812 -0.004792 0.012331 0.000000 0.000000 0.000000
# 4 0.000000 0.000000 0.000000 0.013333 0.000000 0.000000
# 5 0.000000 0.000000 0.000000 0.000000 -0.008992 0.000000
# 6 0.000000 0.000000 0.000000 0.000000 0.000000 -0.005047
#
#
# Mechanical properties :
#
#
# Convention : Reuss Voigt Hill
#
# Bulk Modulus (GPa) = 125.28937 136.44985 130.86961
# Shear Modulus (GPa) = 107.83924 -26.83287 40.50318
#
# Velocity S-wave (km/s) = 6.66787 -3.32608 4.08642
# Velocity P-wave (km/s) = 10.53260 6.44250 8.73045
#
# Compressibility (1/GPa) = 0.00798152
#
# Stress axis : x y z
#
# Youngs Moduli (GPa) = 191.19677 115.81593 81.09621
#
# Poissons Ratio (x) = 0.17411 0.22803
# Poissons Ratio (y) = 0.28744 0.38860
# Poissons Ratio (z) = 0.53761 0.55498
#
# Static dielectric constant tensor:
#      x y z
#    x 1.841360 0.000000 0.000000 
#    y 0.000000 1.928640 0.000000 
#    z 0.000000 0.000000 1.918160 
# 
# From -- ./inp_files/3190.got.cif
#   From: 2010.05.17/outbox.cif.g08.bks.cpg/sg53_2_cif.got.tgz:3190.got - 2010.06.03 12:45:16.
