data_PCOD9420824
_publ_section_title
;
Structure prediction by ZEFSAII (Michael W. Deem and Ramdas Pophale) SiO2 
 PCOD9420824
Probable space group: P C C A
;
_chemical_formula_sum "Si O2"
_cell_formula_units_Z 48
_cell_length_a 4.950177
_cell_length_b 29.755094
_cell_length_c 14.444171
_cell_angle_alpha 90.000000
_cell_angle_beta 90.000000
_cell_angle_gamma 90.000000
_cell_volume 2127.525018
_symmetry_space_group_name_H-M "P C C A"
_symmetry_group_IT_number 54
_symmetry_cell_setting 'orthorhombic'
loop_
_space_group_symop_operation_xyz
x,y,z
1/2-x,-y,z
1/2+x,-y,1/2-z
-x,y,1/2-z
-x,-y,-z
1/2+x,y,-z
1/2-x,y,1/2+z
x,-y,1/2+z
loop_
_atom_site_type_symbol
_atom_site_label
_atom_site_fract_x
_atom_site_fract_y
_atom_site_fract_z
Si Si1 0.990493 0.281333 0.139513
Si Si2 0.750000 0.500000 0.304373
Si Si3 0.110343 0.092456 0.066139
Si Si4 0.210375 0.811097 0.560446
Si Si5 0.512884 0.337389 0.362307
Si Si6 0.250000 0.000000 0.070496
Si Si7 0.566282 0.435491 0.058425
O O1 0.107681 0.233848 0.108159
O O2 0.191503 0.320947 0.109995
O O3 0.000000 0.280412 0.250000
O O4 0.692489 0.297061 0.111897
O O5 0.500000 0.523705 0.250000
O O6 0.925514 0.535570 0.362195
O O7 0.152788 0.141367 0.110395
O O8 0.202068 0.047653 0.121020
O O9 0.309178 0.091328 0.975674
O O10 0.523245 0.811571 0.532116
O O11 0.500000 0.343129 0.250000
O O12 0.446013 0.383863 0.410843
O O13 0.500000 0.000000 0.000000
O O14 0.873163 0.445155 0.029986
#
# Coordination Sequence:
#
# PCOD9420824 Si02
#       7
#     8   4   8   8   8   4   8
#     4  10  21  36  53  75 106 142 181 221 263 323
#     4  12  26  46  70  92 122 164 196 224 276 342
#     4   8  14  23  36  58  86 119 154 198 250 303
#     4  10  19  30  47  70  99 130 168 215 265 313
#     4  10  22  39  58  80 109 147 185 219 266 331
#     4   8  12  20  34  52  82 116 150 192 246 302
#     4  12  25  42  65  95 124 148 187 241 285 324
#
# _framework density 22.561426999999998
#
# number of rings (size 3 to 8) (size 9 to 14) (size 15 to 20)
#    0.000    2.000    0.000    4.000    0.000    6.000 
#    0.000    0.000    0.000    0.000    0.000    0.000 
#    0.000   24.000    0.000    0.000    0.000   32.333 
#
# Total GULP energy -267916.174342 kJ/mol
# GULP energy per Si atom -5581.586965 kJ/mol
# Density = 2.251008 g / cm^3
# Si number density = 22.561427 Si / 1000 Ang^3
#
#
#
# Elastic Constant Matrix: (Units=GPa)
#
#
# Indices 1 2 3 4 5 6 
#
# 1 107.3138 1.7604 4.0599 0.0000 0.0000 0.0000
# 2 1.7604 126.2896 12.5262 0.0000 0.0000 0.0000
# 3 4.0599 12.5262 33.5203 0.0000 0.0000 0.0000
# 4 0.0000 0.0000 0.0000 -6.6254 0.0000 0.0000
# 5 0.0000 0.0000 0.0000 0.0000 13.6357 0.0000
# 6 0.0000 0.0000 0.0000 0.0000 0.0000 34.8850
#
#
#
# Elastic Compliance Matrix: (Units=1/GPa)
#
#
# Indices 1 2 3 4 5 6 
#
# 1 0.009361 -0.000019 -0.001127 0.000000 0.000000 0.000000
# 2 -0.000019 0.008223 -0.003071 0.000000 0.000000 0.000000
# 3 -0.001127 -0.003071 0.031117 0.000000 0.000000 0.000000
# 4 0.000000 0.000000 0.000000 -0.150935 0.000000 0.000000
# 5 0.000000 0.000000 0.000000 0.000000 0.073337 0.000000
# 6 0.000000 0.000000 0.000000 0.000000 0.000000 0.028666
#
#
# Mechanical properties :
#
#
# Convention : Reuss Voigt Hill
#
# Bulk Modulus (GPa) = 24.83316 33.75742 29.29529
# Shear Modulus (GPa) = 231.21785 24.96420 128.09103
#
# Velocity S-wave (km/s) = 10.13441 3.33002 7.54305
# Velocity P-wave (km/s) = 12.16439 5.45713 9.42742
#
# Compressibility (1/GPa) = 0.04026874
#
# Stress axis : x y z
#
# Youngs Moduli (GPa) = 106.82163 121.60813 32.13721
#
# Poissons Ratio (x) = 0.00228 0.03621
# Poissons Ratio (y) = 0.00200 0.09868
# Poissons Ratio (z) = 0.12037 0.37341
#
# Static dielectric constant tensor:
#      x y z
#    x 1.789930 0.000000 0.000000 
#    y 0.000000 1.914520 0.000000 
#    z 0.000000 0.000000 1.882440 
# 
# From -- ./inp_files/10935.got.cif
#   From: 2010.05.17/outbox.cif.g08.bks.cpg/sg54_6_cif.got.tgz:10935.got - 2010.06.03 13:09:01.
