data_PCOD9420531
_publ_section_title
;
Structure prediction by ZEFSAII (Michael W. Deem and Ramdas Pophale) SiO2 
 PCOD9420531
Probable space group: P C C A
;
_chemical_formula_sum "Si O2"
_cell_formula_units_Z 48
_cell_length_a 15.842810
_cell_length_b 9.999921
_cell_length_c 14.798461
_cell_angle_alpha 90.000000
_cell_angle_beta 90.000000
_cell_angle_gamma 90.000000
_cell_volume 2344.473538
_symmetry_space_group_name_H-M "P C C A"
_symmetry_group_IT_number 54
_symmetry_cell_setting 'orthorhombic'
loop_
_space_group_symop_operation_xyz
x,y,z
1/2-x,-y,z
1/2+x,-y,1/2-z
-x,y,1/2-z
-x,-y,-z
1/2+x,y,-z
1/2-x,y,1/2+z
x,-y,1/2+z
loop_
_atom_site_type_symbol
_atom_site_label
_atom_site_fract_x
_atom_site_fract_y
_atom_site_fract_z
Si Si1 0.093005 0.100886 0.723726
Si Si2 0.107267 0.594264 0.169564
Si Si3 0.832073 0.319530 0.012140
Si Si4 0.920905 0.460385 0.632174
Si Si5 0.833438 0.805489 0.095811
Si Si6 0.903205 0.029197 0.972125
O O1 0.081000 0.253607 0.691964
O O2 0.156723 0.117735 0.807799
O O3 0.000000 0.049946 0.750000
O O4 0.117383 0.020826 0.634410
O O5 0.124524 0.534325 0.268866
O O6 0.021570 0.521851 0.138272
O O7 0.174061 0.614180 0.088616
O O8 0.881815 0.428506 0.069229
O O9 0.748877 0.277197 0.067021
O O10 0.881623 0.179982 0.001410
O O11 0.904665 0.309827 0.596833
O O12 0.848333 0.919680 0.023083
O O13 0.000000 0.000000 0.000000
#
# Coordination Sequence:
#
# PCOD9420531 Si02
#       6
#     8   8   8   8   8   8
#     4  10  17  38  67  89 115 171 216 259 322 390
#     4   9  18  37  65  90 122 167 217 254 317 395
#     4  11  23  37  61  98 128 164 209 268 332 385
#     4  10  19  40  67  90 123 169 212 265 320 387
#     4  11  21  40  62  93 131 163 208 268 331 388
#     4  11  22  40  67  90 121 170 224 266 317 399
#
# _framework density 20.473680999999999
#
# number of rings (size 3 to 8) (size 9 to 14) (size 15 to 20)
#    0.000    1.667    5.000    2.500    0.000    0.000 
#    0.000   25.000    0.000    0.000    0.000    0.000 
#    0.000    0.000    0.000    0.000    0.000    0.000 
#
# Total GULP energy -267543.483493 kJ/mol
# GULP energy per Si atom -5573.822573 kJ/mol
# Density = 2.042708 g / cm^3
# Si number density = 20.473681 Si / 1000 Ang^3
#
#
#
# Elastic Constant Matrix: (Units=GPa)
#
#
# Indices 1 2 3 4 5 6 
#
# 1 35.9722 -1.4085 33.5695 0.0000 0.0000 0.0000
# 2 -1.4085 72.7379 51.2236 0.0000 0.0000 0.0000
# 3 33.5695 51.2236 153.0635 0.0000 0.0000 0.0000
# 4 0.0000 0.0000 0.0000 22.1561 0.0000 0.0000
# 5 0.0000 0.0000 0.0000 0.0000 26.3007 0.0000
# 6 0.0000 0.0000 0.0000 0.0000 0.0000 29.4367
#
#
#
# Elastic Compliance Matrix: (Units=1/GPa)
#
#
# Indices 1 2 3 4 5 6 
#
# 1 0.038858 0.008836 -0.011479 0.000000 0.000000 0.000000
# 2 0.008836 0.019996 -0.008630 0.000000 0.000000 0.000000
# 3 -0.011479 -0.008630 0.011939 0.000000 0.000000 0.000000
# 4 0.000000 0.000000 0.000000 0.045134 0.000000 0.000000
# 5 0.000000 0.000000 0.000000 0.000000 0.038022 0.000000
# 6 0.000000 0.000000 0.000000 0.000000 0.000000 0.033971
#
#
# Mechanical properties :
#
#
# Convention : Reuss Voigt Hill
#
# Bulk Modulus (GPa) = 20.72640 47.61584 34.17112
# Shear Modulus (GPa) = 22.07030 27.47130 24.77080
#
# Velocity S-wave (km/s) = 3.28683 3.66701 3.48211
# Velocity P-wave (km/s) = 4.95477 6.42160 5.73527
#
# Compressibility (1/GPa) = 0.04824765
#
# Stress axis : x y z
#
# Youngs Moduli (GPa) = 25.73478 50.00880 83.75967
#
# Poissons Ratio (x) = -0.44190 0.96151
# Poissons Ratio (y) = -0.22740 0.72284
# Poissons Ratio (z) = 0.29542 0.43157
#
# Static dielectric constant tensor:
#      x y z
#    x 1.825020 0.000000 0.000000 
#    y 0.000000 1.676480 0.000000 
#    z 0.000000 0.000000 1.786420 
# 
# From -- ./inp_files/14119.got.cif
#   From: 2010.05.17/outbox.cif.g08.bks.cpg/sg54_8_cif.got.tgz:14119.got - 2010.06.03 13:09:01.
