data_PCOD9420453
_publ_section_title
;
Structure prediction by ZEFSAII (Michael W. Deem and Ramdas Pophale) SiO2 
 PCOD9420453
Probable space group: P C C A
;
_chemical_formula_sum "Si O2"
_cell_formula_units_Z 36
_cell_length_a 21.546276
_cell_length_b 12.776450
_cell_length_c 5.336441
_cell_angle_alpha 90.000000
_cell_angle_beta 90.000000
_cell_angle_gamma 90.000000
_cell_volume 1469.041723
_symmetry_space_group_name_H-M "P C C A"
_symmetry_group_IT_number 54
_symmetry_cell_setting 'orthorhombic'
loop_
_space_group_symop_operation_xyz
x,y,z
1/2-x,-y,z
1/2+x,-y,1/2-z
-x,y,1/2-z
-x,-y,-z
1/2+x,y,-z
1/2-x,y,1/2+z
x,-y,1/2+z
loop_
_atom_site_type_symbol
_atom_site_label
_atom_site_fract_x
_atom_site_fract_y
_atom_site_fract_z
Si Si1 0.000000 0.210946 0.750000
Si Si2 0.412865 0.934734 0.456063
Si Si3 0.274434 0.879179 0.579281
Si Si4 0.935753 0.635848 0.898436
Si Si5 0.849820 0.464401 0.098690
O O1 0.033546 0.143430 0.537966
O O2 0.947917 0.278609 0.609371
O O3 0.345367 0.885979 0.499781
O O4 0.417068 0.975673 0.172683
O O5 0.235905 0.830086 0.351396
O O6 0.250000 0.000000 0.611330
O O7 0.877309 0.644078 0.705453
O O8 0.000000 0.629105 0.750000
O O9 0.912845 0.532131 0.042886
O O10 0.818420 0.526411 0.329448
#
# Coordination Sequence:
#
# PCOD9420453 Si02
#       5
#     4   8   8   8   8
#     4  12  28  32  48  76 116 154 170 206 254 334
#     4  12  24  42  54  71 106 144 185 213 264 314
#     4  10  16  34  64  82  84 112 180 241 266 296
#     4  10  19  32  47  71  97 138 185 207 249 292
#     4   8  17  29  50  65  87 128 175 216 241 290
#
# _framework density 24.505772
#
# number of rings (size 3 to 8) (size 9 to 14) (size 15 to 20)
#    1.333    0.444    4.444    2.667    4.667    0.000 
#    0.000    0.000    0.000    0.000    0.000    0.000 
#    0.000    0.000    0.000   24.000    0.000    0.000 
#
# Total GULP energy -200750.373015 kJ/mol
# GULP energy per Si atom -5576.399250 kJ/mol
# Density = 2.445000 g / cm^3
# Si number density = 24.505772 Si / 1000 Ang^3
#
#
#
# Elastic Constant Matrix: (Units=GPa)
#
#
# Indices 1 2 3 4 5 6 
#
# 1 58.8457 15.2902 -0.5073 0.0000 0.0000 0.0000
# 2 15.2902 24.4153 -0.7106 0.0000 0.0000 0.0000
# 3 -0.5073 -0.7106 153.3567 0.0000 0.0000 0.0000
# 4 0.0000 0.0000 0.0000 -200.4782 0.0000 0.0000
# 5 0.0000 0.0000 0.0000 0.0000 0.5208 0.0000
# 6 0.0000 0.0000 0.0000 0.0000 0.0000 -8.1706
#
#
#
# Elastic Compliance Matrix: (Units=1/GPa)
#
#
# Indices 1 2 3 4 5 6 
#
# 1 0.020296 -0.012710 0.000008 0.000000 0.000000 0.000000
# 2 -0.012710 0.048923 0.000185 0.000000 0.000000 0.000000
# 3 0.000008 0.000185 0.006522 0.000000 0.000000 0.000000
# 4 0.000000 0.000000 0.000000 -0.004988 0.000000 0.000000
# 5 0.000000 0.000000 0.000000 0.000000 1.920110 0.000000
# 6 0.000000 0.000000 0.000000 0.000000 0.000000 -0.122391
#
#
# Mechanical properties :
#
#
# Convention : Reuss Voigt Hill
#
# Bulk Modulus (GPa) = 19.72147 29.41802 24.56974
# Shear Modulus (GPa) = 2.61724 -26.78923 -12.08599
#
# Velocity S-wave (km/s) = 1.03457 -3.30991 -2.22320
# Velocity P-wave (km/s) = 3.08095 1.60524 1.85950
#
# Compressibility (1/GPa) = 0.05070616
#
# Stress axis : x y z
#
# Youngs Moduli (GPa) = 49.27011 20.44017 153.33592
#
# Poissons Ratio (x) = 0.25980 -0.00126
# Poissons Ratio (y) = 0.62624 -0.02831
# Poissons Ratio (z) = -0.00041 -0.00377
#
# Static dielectric constant tensor:
#      x y z
#    x 1.902910 0.000000 0.000000 
#    y 0.000000 1.979080 0.000000 
#    z 0.000000 0.000000 2.086810 
# 
# From -- ./inp_files/1591.got.cif
#   From: 2010.05.17/outbox.cif.g08.bks.cpg/sg54_1_cif.got.tgz:1591.got - 2010.06.03 13:09:01.
