data_PCOD9420432
_publ_section_title
;
Structure prediction by ZEFSAII (Michael W. Deem and Ramdas Pophale) SiO2 
 PCOD9420432
Probable space group: P C C A
;
_chemical_formula_sum "Si O2"
_cell_formula_units_Z 60
_cell_length_a 25.551839
_cell_length_b 21.269408
_cell_length_c 5.447186
_cell_angle_alpha 90.000000
_cell_angle_beta 90.000000
_cell_angle_gamma 90.000000
_cell_volume 2960.395733
_symmetry_space_group_name_H-M "P C C A"
_symmetry_group_IT_number 54
_symmetry_cell_setting 'orthorhombic'
loop_
_space_group_symop_operation_xyz
x,y,z
1/2-x,-y,z
1/2+x,-y,1/2-z
-x,y,1/2-z
-x,-y,-z
1/2+x,y,-z
1/2-x,y,1/2+z
x,-y,1/2+z
loop_
_atom_site_type_symbol
_atom_site_label
_atom_site_fract_x
_atom_site_fract_y
_atom_site_fract_z
Si Si1 0.765480 0.258596 0.058657
Si Si2 0.397306 0.476682 0.806202
Si Si3 0.887130 0.776540 0.541638
Si Si4 0.395808 0.854090 0.960305
Si Si5 0.222916 0.883069 0.452651
Si Si6 0.000000 0.554455 0.250000
Si Si7 0.440351 0.977817 0.803227
Si Si8 0.054544 0.646894 0.883927
O O1 0.748727 0.292523 0.306760
O O2 0.825658 0.238790 0.064266
O O3 0.732769 0.192844 0.051801
O O4 0.371806 0.510275 0.571292
O O5 0.455146 0.508543 0.858239
O O6 0.407638 0.403244 0.747343
O O7 0.895866 0.809150 0.278133
O O8 0.917726 0.711212 0.553880
O O9 0.901895 0.818781 0.779753
O O10 0.339354 0.889307 0.963070
O O11 0.438252 0.907516 0.907641
O O12 0.251413 0.906913 0.699303
O O13 0.963612 0.604263 0.391038
O O14 0.500000 0.998223 0.750000
O O15 0.416058 0.982045 0.528756
O O16 0.000000 0.660150 0.750000
#
# Coordination Sequence:
#
# PCOD9420432 Si02
#       8
#     8   8   8   8   8   4   8   8
#     4  10  16  34  53  74 104 149 188 211 259 344
#     4  10  17  32  55  69  91 151 202 216 258 318
#     4  12  24  32  55  88 117 149 176 225 290 345
#     4  12  22  38  59  87 111 146 184 224 285 340
#     4  10  16  31  57  80 103 146 180 209 265 347
#     4  10  18  36  54  68 102 168 192 218 266 324
#     4  10  23  44  67  82 104 147 199 236 256 312
#     4  11  22  34  48  77 120 149 184 232 270 320
#
# _framework density 20.267562000000002
#
# number of rings (size 3 to 8) (size 9 to 14) (size 15 to 20)
#    0.000    1.333    7.333    1.600    1.867    1.067 
#    0.000    0.000    0.000    2.400    0.000    0.000 
#    0.000   12.800    0.000    0.000    0.000    0.000 
#
# Total GULP energy -334220.019750 kJ/mol
# GULP energy per Si atom -5570.333662 kJ/mol
# Density = 2.022143 g / cm^3
# Si number density = 20.267562 Si / 1000 Ang^3
#
#
#
# Elastic Constant Matrix: (Units=GPa)
#
#
# Indices 1 2 3 4 5 6 
#
# 1 18.1289 18.5584 6.9645 0.0000 0.0000 0.0000
# 2 18.5584 55.3458 18.1250 0.0000 0.0000 0.0000
# 3 6.9645 18.1250 149.6363 0.0000 0.0000 0.0000
# 4 0.0000 0.0000 0.0000 15.8421 0.0000 0.0000
# 5 0.0000 0.0000 0.0000 0.0000 11.8638 0.0000
# 6 0.0000 0.0000 0.0000 0.0000 0.0000 -32.7231
#
#
#
# Elastic Compliance Matrix: (Units=1/GPa)
#
#
# Indices 1 2 3 4 5 6 
#
# 1 0.084030 -0.028007 -0.000519 0.000000 0.000000 0.000000
# 2 -0.028007 0.028149 -0.002106 0.000000 0.000000 0.000000
# 3 -0.000519 -0.002106 0.006962 0.000000 0.000000 0.000000
# 4 0.000000 0.000000 0.000000 0.063123 0.000000 0.000000
# 5 0.000000 0.000000 0.000000 0.000000 0.084290 0.000000
# 6 0.000000 0.000000 0.000000 0.000000 0.000000 -0.030559
#
#
# Mechanical properties :
#
#
# Convention : Reuss Voigt Hill
#
# Bulk Modulus (GPa) = 17.27769 34.48964 25.88366
# Shear Modulus (GPa) = 15.79528 10.96078 13.37803
#
# Velocity S-wave (km/s) = 2.79469 2.32804 2.57197
# Velocity P-wave (km/s) = 4.35397 4.92752 4.64960
#
# Compressibility (1/GPa) = 0.05787811
#
# Stress axis : x y z
#
# Youngs Moduli (GPa) = 11.90053 35.52519 143.63460
#
# Poissons Ratio (x) = 0.99494 0.07449
# Poissons Ratio (y) = 0.33330 0.30251
# Poissons Ratio (z) = 0.00617 0.07482
#
# Static dielectric constant tensor:
#      x y z
#    x 1.750900 0.000000 0.000000 
#    y 0.000000 1.691800 0.000000 
#    z 0.000000 0.000000 1.967710 
# 
# From -- ./inp_files/1990.got.cif
#   From: 2010.05.17/outbox.cif.g08.bks.cpg/sg54_1_cif.got.tgz:1990.got - 2010.06.03 13:09:01.
