data_PCOD9420720
_publ_section_title
;
Structure prediction by ZEFSAII (Michael W. Deem and Ramdas Pophale) SiO2 
 PCOD9420720
Probable space group: P C C A
;
_chemical_formula_sum "Si O2"
_cell_formula_units_Z 40
_cell_length_a 13.820241
_cell_length_b 22.007705
_cell_length_c 5.345258
_cell_angle_alpha 90.000000
_cell_angle_beta 90.000000
_cell_angle_gamma 90.000000
_cell_volume 1625.769772
_symmetry_space_group_name_H-M "P C C A"
_symmetry_group_IT_number 54
_symmetry_cell_setting 'orthorhombic'
loop_
_space_group_symop_operation_xyz
x,y,z
1/2-x,-y,z
1/2+x,-y,1/2-z
-x,y,1/2-z
-x,-y,-z
1/2+x,y,-z
1/2-x,y,1/2+z
x,-y,1/2+z
loop_
_atom_site_type_symbol
_atom_site_label
_atom_site_fract_x
_atom_site_fract_y
_atom_site_fract_z
Si Si1 0.616222 0.462928 0.239189
Si Si2 0.815373 0.148586 0.218743
Si Si3 0.851851 0.672813 0.330390
Si Si4 0.891256 0.976994 0.555026
Si Si5 0.866397 0.279593 0.327455
O O1 0.500000 0.452811 0.250000
O O2 0.639786 0.503183 0.481695
O O3 0.662960 0.396743 0.254617
O O4 0.757654 0.148241 0.481799
O O5 0.880685 0.089514 0.171598
O O6 0.875435 0.210991 0.232332
O O7 0.748279 0.705726 0.361533
O O8 0.899567 0.677084 0.602983
O O9 0.904600 0.706544 0.102608
O O10 0.848480 0.979763 0.273598
O O11 0.000000 0.000000 0.500000
#
# Coordination Sequence:
#
# PCOD9420720 Si02
#       5
#     8   8   8   8   8
#     4  10  21  37  57  82 112 157 204 244 292 356
#     4  12  21  37  65  93 120 158 211 253 299 383
#     4  10  18  35  58  80 119 149 188 247 293 351
#     4  10  23  42  62  87 126 167 197 252 313 363
#     4  10  19  35  55  86 115 151 186 241 305 351
#
# _framework density 24.603728
#
# number of rings (size 3 to 8) (size 9 to 14) (size 15 to 20)
#    0.000    1.600    4.000    2.400    0.000    2.400 
#    0.000   12.000   13.200    0.000    0.000    0.000 
#    0.000    0.000    0.000    0.000    0.000    0.000 
#
# Total GULP energy -223659.868336 kJ/mol
# GULP energy per Si atom -5591.496708 kJ/mol
# Density = 2.454773 g / cm^3
# Si number density = 24.603728 Si / 1000 Ang^3
#
#
#
# Elastic Constant Matrix: (Units=GPa)
#
#
# Indices 1 2 3 4 5 6 
#
# 1 88.3467 -5.1170 4.3172 0.0000 0.0000 0.0000
# 2 -5.1170 165.8789 35.5406 0.0000 0.0000 0.0000
# 3 4.3172 35.5406 237.1912 0.0000 0.0000 0.0000
# 4 0.0000 0.0000 0.0000 41.6004 0.0000 0.0000
# 5 0.0000 0.0000 0.0000 0.0000 5.9309 0.0000
# 6 0.0000 0.0000 0.0000 0.0000 0.0000 -5.2616
#
#
#
# Elastic Compliance Matrix: (Units=1/GPa)
#
#
# Indices 1 2 3 4 5 6 
#
# 1 0.011356 0.000408 -0.000268 0.000000 0.000000 0.000000
# 2 0.000408 0.006243 -0.000943 0.000000 0.000000 0.000000
# 3 -0.000268 -0.000943 0.004362 0.000000 0.000000 0.000000
# 4 0.000000 0.000000 0.000000 0.024038 0.000000 0.000000
# 5 0.000000 0.000000 0.000000 0.000000 0.168609 0.000000
# 6 0.000000 0.000000 0.000000 0.000000 0.000000 -0.190055
#
#
# Mechanical properties :
#
#
# Convention : Reuss Voigt Hill
#
# Bulk Modulus (GPa) = 49.12795 62.32206 55.72501
# Shear Modulus (GPa) = 151.76899 38.89899 95.33399
#
# Velocity S-wave (km/s) = 7.86252 3.98052 6.23152
# Velocity P-wave (km/s) = 10.12110 6.81992 8.62983
#
# Compressibility (1/GPa) = 0.02035501
#
# Stress axis : x y z
#
# Youngs Moduli (GPa) = 88.06125 160.17712 229.24412
#
# Poissons Ratio (x) = -0.06530 0.06139
# Poissons Ratio (y) = -0.03590 0.21615
# Poissons Ratio (z) = 0.02358 0.15103
#
# Static dielectric constant tensor:
#      x y z
#    x 2.133340 0.000000 0.000000 
#    y 0.000000 1.900210 0.000000 
#    z 0.000000 0.000000 2.042980 
# 
# From -- ./inp_files/921.got.cif
#   From: 2010.05.17/outbox.cif.g08.bks.cpg/sg54_1_cif.got.tgz:921.got - 2010.06.03 13:09:01.
