data_PCOD9420640
_publ_section_title
;
Structure prediction by ZEFSAII (Michael W. Deem and Ramdas Pophale) SiO2 
 PCOD9420640
Probable space group: P C C A
;
_chemical_formula_sum "Si O2"
_cell_formula_units_Z 44
_cell_length_a 18.596950
_cell_length_b 9.289044
_cell_length_c 11.834282
_cell_angle_alpha 90.000000
_cell_angle_beta 90.000000
_cell_angle_gamma 90.000000
_cell_volume 2044.347207
_symmetry_space_group_name_H-M "P C C A"
_symmetry_group_IT_number 54
_symmetry_cell_setting 'orthorhombic'
loop_
_space_group_symop_operation_xyz
x,y,z
1/2-x,-y,z
1/2+x,-y,1/2-z
-x,y,1/2-z
-x,-y,-z
1/2+x,y,-z
1/2-x,y,1/2+z
x,-y,1/2+z
loop_
_atom_site_type_symbol
_atom_site_label
_atom_site_fract_x
_atom_site_fract_y
_atom_site_fract_z
Si Si1 0.250000 0.500000 0.957682
Si Si2 0.881992 0.296062 0.022418
Si Si3 0.799209 0.695851 0.237972
Si Si4 0.170786 0.960626 0.128309
Si Si5 0.938258 0.459374 0.842450
Si Si6 0.864243 0.268366 0.290058
O O1 0.184138 0.593310 0.005359
O O2 0.212432 0.374443 0.883316
O O3 0.866776 0.144303 0.961409
O O4 0.948016 0.373007 0.959020
O O5 0.884470 0.278393 0.156946
O O6 0.815957 0.863529 0.259055
O O7 0.868297 0.614306 0.284892
O O8 0.719754 0.679258 0.295564
O O9 0.250000 0.000000 0.083328
O O10 0.132655 0.107685 0.162362
O O11 0.915618 0.624453 0.856395
O O12 0.000000 0.446685 0.750000
#
# Coordination Sequence:
#
# PCOD9420640 Si02
#       6
#     4   8   8   8   8   8
#     4  10  18  32  64  90 114 146 200 242 300 340
#     4  10  22  35  61  89 114 156 196 237 301 353
#     4   9  17  37  57  84 116 150 186 256 286 334
#     4   9  20  32  58  87 121 149 190 241 303 353
#     4  11  22  37  60  87 119 158 204 248 293 350
#     4  10  20  41  56  86 127 148 196 251 292 356
#
# _framework density 21.522763000000001
#
# number of rings (size 3 to 8) (size 9 to 14) (size 15 to 20)
#    0.000    2.182    3.636    0.000    7.636    4.364 
#    0.000    3.636    0.000    5.455    0.000    0.000 
#    0.000    0.000    0.000    0.000    0.000    0.000 
#
# Total GULP energy -245308.509160 kJ/mol
# GULP energy per Si atom -5575.193390 kJ/mol
# Density = 2.147378 g / cm^3
# Si number density = 21.522763 Si / 1000 Ang^3
#
#
#
# Elastic Constant Matrix: (Units=GPa)
#
#
# Indices 1 2 3 4 5 6 
#
# 1 47.8386 35.3001 25.5974 0.0000 0.0000 0.0000
# 2 35.3001 139.8091 38.2864 0.0000 0.0000 0.0000
# 3 25.5974 38.2864 61.8259 0.0000 0.0000 0.0000
# 4 0.0000 0.0000 0.0000 19.0312 0.0000 0.0000
# 5 0.0000 0.0000 0.0000 0.0000 28.8491 0.0000
# 6 0.0000 0.0000 0.0000 0.0000 0.0000 17.9048
#
#
#
# Elastic Compliance Matrix: (Units=1/GPa)
#
#
# Indices 1 2 3 4 5 6 
#
# 1 0.029427 -0.004929 -0.009131 0.000000 0.000000 0.000000
# 2 -0.004929 0.009439 -0.003804 0.000000 0.000000 0.000000
# 3 -0.009131 -0.003804 0.022311 0.000000 0.000000 0.000000
# 4 0.000000 0.000000 0.000000 0.052545 0.000000 0.000000
# 5 0.000000 0.000000 0.000000 0.000000 0.034663 0.000000
# 6 0.000000 0.000000 0.000000 0.000000 0.000000 0.055851
#
#
# Mechanical properties :
#
#
# Convention : Reuss Voigt Hill
#
# Bulk Modulus (GPa) = 39.29678 49.76016 44.52847
# Shear Modulus (GPa) = 20.12498 23.17634 21.65066
#
# Velocity S-wave (km/s) = 3.06119 3.28507 3.17510
# Velocity P-wave (km/s) = 5.54909 6.12853 5.84599
#
# Compressibility (1/GPa) = 0.02544738
#
# Stress axis : x y z
#
# Youngs Moduli (GPa) = 33.98267 105.94297 44.82155
#
# Poissons Ratio (x) = 0.52224 0.40926
# Poissons Ratio (y) = 0.16752 0.17052
# Poissons Ratio (z) = 0.31029 0.40304
#
# Static dielectric constant tensor:
#      x y z
#    x 1.812910 0.000000 0.000000 
#    y 0.000000 1.790030 0.000000 
#    z 0.000000 0.000000 1.868360 
# 
# From -- ./inp_files/13998.got.cif
#   From: 2010.05.17/outbox.cif.g08.bks.cpg/sg54_7_cif.got.tgz:13998.got - 2010.06.03 13:09:01.
