data_PCOD9420563
_publ_section_title
;
Structure prediction by ZEFSAII (Michael W. Deem and Ramdas Pophale) SiO2 
 PCOD9420563
Probable space group: P C C A
;
_chemical_formula_sum "Si O2"
_cell_formula_units_Z 48
_cell_length_a 8.853106
_cell_length_b 16.598103
_cell_length_c 18.710845
_cell_angle_alpha 90.000000
_cell_angle_beta 90.000000
_cell_angle_gamma 90.000000
_cell_volume 2749.460726
_symmetry_space_group_name_H-M "P C C A"
_symmetry_group_IT_number 54
_symmetry_cell_setting 'orthorhombic'
loop_
_space_group_symop_operation_xyz
x,y,z
1/2-x,-y,z
1/2+x,-y,1/2-z
-x,y,1/2-z
-x,-y,-z
1/2+x,y,-z
1/2-x,y,1/2+z
x,-y,1/2+z
loop_
_atom_site_type_symbol
_atom_site_label
_atom_site_fract_x
_atom_site_fract_y
_atom_site_fract_z
Si Si1 0.403955 0.677497 0.441759
Si Si2 0.599709 0.834738 0.967203
Si Si3 0.280931 0.594341 0.065135
Si Si4 0.852397 0.727598 0.341192
Si Si5 0.700520 0.910183 0.590377
Si Si6 0.790548 0.756439 0.181050
O O1 0.457753 0.756540 0.487293
O O2 0.544784 0.619457 0.429090
O O3 0.284060 0.631821 0.491792
O O4 0.321888 0.706327 0.369547
O O5 0.688251 0.794486 0.900858
O O6 0.470232 0.891824 0.935232
O O7 0.701411 0.882660 0.022376
O O8 0.250000 0.500000 0.067346
O O9 0.194594 0.641643 0.127965
O O10 0.775228 0.744507 0.265456
O O11 0.034487 0.732980 0.334948
O O12 0.728025 0.848460 0.655368
O O13 0.750000 0.000000 0.608718
#
# Coordination Sequence:
#
# PCOD9420563 Si02
#       6
#     8   8   8   8   8   8
#     4  10  19  34  55  77 103 138 174 207 257 319
#     4   9  17  31  52  74 100 136 170 204 253 310
#     4  11  21  34  53  79 104 129 170 222 262 300
#     4   9  18  36  54  72 102 140 175 205 254 319
#     4  10  18  30  50  77 102 129 170 219 256 293
#     4   9  19  35  55  73 101 144 176 203 254 319
#
# _framework density 17.457968999999999
#
# number of rings (size 3 to 8) (size 9 to 14) (size 15 to 20)
#    0.000    2.333    0.000    6.000    0.000    0.667 
#    0.000    5.000    0.000   14.000    0.000    0.000 
#    0.000    0.000    0.000    0.000    0.000    0.000 
#
# Total GULP energy -267650.871344 kJ/mol
# GULP energy per Si atom -5576.059820 kJ/mol
# Density = 1.741823 g / cm^3
# Si number density = 17.457969 Si / 1000 Ang^3
#
#
#
# Elastic Constant Matrix: (Units=GPa)
#
#
# Indices 1 2 3 4 5 6 
#
# 1 61.4603 58.0403 40.0020 0.0000 0.0000 0.0000
# 2 58.0403 127.1380 67.9632 0.0000 0.0000 0.0000
# 3 40.0020 67.9632 112.9560 0.0000 0.0000 0.0000
# 4 0.0000 0.0000 0.0000 8.4731 0.0000 0.0000
# 5 0.0000 0.0000 0.0000 0.0000 17.2005 0.0000
# 6 0.0000 0.0000 0.0000 0.0000 0.0000 42.7315
#
#
#
# Elastic Compliance Matrix: (Units=1/GPa)
#
#
# Indices 1 2 3 4 5 6 
#
# 1 0.029487 -0.011615 -0.003454 0.000000 0.000000 0.000000
# 2 -0.011615 0.016170 -0.005616 0.000000 0.000000 0.000000
# 3 -0.003454 -0.005616 0.013455 0.000000 0.000000 0.000000
# 4 0.000000 0.000000 0.000000 0.118021 0.000000 0.000000
# 5 0.000000 0.000000 0.000000 0.000000 0.058138 0.000000
# 6 0.000000 0.000000 0.000000 0.000000 0.000000 0.023402
#
#
# Mechanical properties :
#
#
# Convention : Reuss Voigt Hill
#
# Bulk Modulus (GPa) = 56.36124 70.39615 63.37870
# Shear Modulus (GPa) = 16.34217 22.71760 19.52988
#
# Velocity S-wave (km/s) = 3.06287 3.61123 3.34830
# Velocity P-wave (km/s) = 6.69793 7.60255 7.16453
#
# Compressibility (1/GPa) = 0.01774269
#
# Stress axis : x y z
#
# Youngs Moduli (GPa) = 33.91272 61.84355 74.32123
#
# Poissons Ratio (x) = 0.71831 0.25671
# Poissons Ratio (y) = 0.39390 0.41737
# Poissons Ratio (z) = 0.11714 0.34730
#
# Static dielectric constant tensor:
#      x y z
#    x 1.613590 0.000000 0.000000 
#    y 0.000000 1.579920 0.000000 
#    z 0.000000 0.000000 1.589750 
# 
# From -- ./inp_files/16589.got.cif
#   From: 2010.05.17/outbox.cif.g08.bks.cpg/sg54_9_cif.got.tgz:16589.got - 2010.06.03 13:09:01.
