data_PCOD9420658
_publ_section_title
;
Structure prediction by ZEFSAII (Michael W. Deem and Ramdas Pophale) SiO2 
 PCOD9420658
Probable space group: P C C A
;
_chemical_formula_sum "Si O2"
_cell_formula_units_Z 20
_cell_length_a 5.065262
_cell_length_b 10.679709
_cell_length_c 13.944142
_cell_angle_alpha 90.000000
_cell_angle_beta 90.000000
_cell_angle_gamma 90.000000
_cell_volume 754.315671
_symmetry_space_group_name_H-M "P C C A"
_symmetry_group_IT_number 54
_symmetry_cell_setting 'orthorhombic'
loop_
_space_group_symop_operation_xyz
x,y,z
1/2-x,-y,z
1/2+x,-y,1/2-z
-x,y,1/2-z
-x,-y,-z
1/2+x,y,-z
1/2-x,y,1/2+z
x,-y,1/2+z
loop_
_atom_site_type_symbol
_atom_site_label
_atom_site_fract_x
_atom_site_fract_y
_atom_site_fract_z
Si Si1 0.934769 0.119633 0.135346
Si Si2 0.250000 0.500000 0.569177
Si Si3 0.441225 0.756792 0.638976
O O1 0.740644 0.232533 0.101500
O O2 0.000000 0.117567 0.250000
O O3 0.229893 0.143984 0.097222
O O4 0.750000 0.000000 0.115863
O O5 0.500000 0.500000 0.500000
O O6 0.299066 0.623753 0.631803
O O7 0.500000 0.786052 0.750000
#
# Coordination Sequence:
#
# PCOD9420658 Si02
#       3
#     8   4   8
#     4  10  18  33  59  93 125 152 193 254 313 363
#     4  12  26  44  64  88 128 172 212 262 318 370
#     4  10  22  38  62  91 121 159 207 254 301 368
#
# _framework density 26.514101
#
# number of rings (size 3 to 8) (size 9 to 14) (size 15 to 20)
#    0.000    1.600    0.000    7.200    0.000    6.400 
#    0.000    0.000    0.000   24.000    0.000    0.000 
#    0.000    0.000    0.000    0.000    0.000    0.000 
#
# Total GULP energy -111683.045235 kJ/mol
# GULP energy per Si atom -5584.152262 kJ/mol
# Density = 2.645375 g / cm^3
# Si number density = 26.514101 Si / 1000 Ang^3
#
#
#
# Elastic Constant Matrix: (Units=GPa)
#
#
# Indices 1 2 3 4 5 6 
#
# 1 284.1898 84.3909 18.8895 0.0000 0.0000 0.0000
# 2 84.3909 159.4478 -2.9459 0.0000 0.0000 0.0000
# 3 18.8895 -2.9459 92.7721 0.0000 0.0000 0.0000
# 4 0.0000 0.0000 0.0000 26.1273 0.0000 0.0000
# 5 0.0000 0.0000 0.0000 0.0000 9.5078 0.0000
# 6 0.0000 0.0000 0.0000 0.0000 0.0000 47.5393
#
#
#
# Elastic Compliance Matrix: (Units=1/GPa)
#
#
# Indices 1 2 3 4 5 6 
#
# 1 0.004255 -0.002269 -0.000938 0.000000 0.000000 0.000000
# 2 -0.002269 0.007486 0.000700 0.000000 0.000000 0.000000
# 3 -0.000938 0.000700 0.010992 0.000000 0.000000 0.000000
# 4 0.000000 0.000000 0.000000 0.038274 0.000000 0.000000
# 5 0.000000 0.000000 0.000000 0.000000 0.105176 0.000000
# 6 0.000000 0.000000 0.000000 0.000000 0.000000 0.021035
#
#
# Mechanical properties :
#
#
# Convention : Reuss Voigt Hill
#
# Bulk Modulus (GPa) = 56.44294 81.89763 69.17029
# Shear Modulus (GPa) = 25.23458 45.70658 35.47058
#
# Velocity S-wave (km/s) = 3.08838 4.15644 3.66156
# Velocity P-wave (km/s) = 5.83537 7.34779 6.63482
#
# Compressibility (1/GPa) = 0.01771701
#
# Stress axis : x y z
#
# Youngs Moduli (GPa) = 235.01439 133.58802 90.97197
#
# Poissons Ratio (x) = 0.30317 0.08537
# Poissons Ratio (y) = 0.53334 -0.06366
# Poissons Ratio (z) = 0.22055 -0.09348
#
# Static dielectric constant tensor:
#      x y z
#    x 2.055070 0.000000 0.000000 
#    y 0.000000 2.208130 0.000000 
#    z 0.000000 0.000000 2.125490 
# 
# From -- ./inp_files/15526.got.cif
#   From: 2010.05.17/outbox.cif.g08.bks.cpg/sg54_8_cif.got.tgz:15526.got - 2010.06.03 13:09:01.
