data_PCOD9420304
_publ_section_title
;
Structure prediction by ZEFSAII (Michael W. Deem and Ramdas Pophale) SiO2 
 PCOD9420304
Probable space group: P C C A
;
_chemical_formula_sum "Si O2"
_cell_formula_units_Z 56
_cell_length_a 22.123506
_cell_length_b 26.852667
_cell_length_c 5.112177
_cell_angle_alpha 90.000000
_cell_angle_beta 90.000000
_cell_angle_gamma 90.000000
_cell_volume 3037.017264
_symmetry_space_group_name_H-M "P C C A"
_symmetry_group_IT_number 54
_symmetry_cell_setting 'orthorhombic'
loop_
_space_group_symop_operation_xyz
x,y,z
1/2-x,-y,z
1/2+x,-y,1/2-z
-x,y,1/2-z
-x,-y,-z
1/2+x,y,-z
1/2-x,y,1/2+z
x,-y,1/2+z
loop_
_atom_site_type_symbol
_atom_site_label
_atom_site_fract_x
_atom_site_fract_y
_atom_site_fract_z
Si Si1 0.922311 0.471161 0.599403
Si Si2 0.362492 0.661209 0.657360
Si Si3 0.789911 0.132683 0.998998
Si Si4 0.319353 0.021576 0.965184
Si Si5 0.289673 0.565804 0.790648
Si Si6 0.708011 0.238884 0.385692
Si Si7 0.064034 0.636140 0.643965
O O1 0.939684 0.486056 0.893101
O O2 0.849670 0.464027 0.628358
O O3 0.943637 0.419121 0.478265
O O4 0.312241 0.623266 0.772600
O O5 0.334776 0.713988 0.582567
O O6 0.391606 0.636756 0.396237
O O7 0.409383 0.666175 0.897497
O O8 0.733436 0.133172 0.796876
O O9 0.819479 0.079062 0.957009
O O10 0.822141 0.184722 0.933183
O O11 0.250000 0.000000 0.931016
O O12 0.348061 0.987746 0.186201
O O13 0.260840 0.556634 0.508396
O O14 0.761344 0.241272 0.601017
O O15 0.000000 0.654325 0.750000
#
# Coordination Sequence:
#
# PCOD9420304 Si02
#       7
#     8   8   8   8   8   8   8
#     4  11  23  38  55  80 106 127 156 193 235 286
#     4  11  21  38  56  77 102 127 168 208 253 291
#     4  10  16  24  35  58  85 121 168 208 234 271
#     4  10  14  20  33  48  77 120 166 212 227 258
#     4  11  21  34  54  75 102 137 164 189 224 280
#     4  10  20  31  49  72 102 133 167 210 243 290
#     4  11  24  41  61  79  98 126 163 206 254 314
#
# _framework density 18.439145
#
# number of rings (size 3 to 8) (size 9 to 14) (size 15 to 20)
#    0.000    1.429    2.857    6.429    0.000    2.286 
#    0.000    0.000    0.000    0.000    0.000    0.000 
#    0.000    0.000    0.000    0.000    0.000   14.286 
#
# Total GULP energy -312488.134039 kJ/mol
# GULP energy per Si atom -5580.145251 kJ/mol
# Density = 1.839718 g / cm^3
# Si number density = 18.439145 Si / 1000 Ang^3
#
#
#
# Elastic Constant Matrix: (Units=GPa)
#
#
# Indices 1 2 3 4 5 6 
#
# 1 29.7019 18.9347 4.8579 0.0000 0.0000 0.0000
# 2 18.9347 107.1254 11.5394 0.0000 0.0000 0.0000
# 3 4.8579 11.5394 97.6940 0.0000 0.0000 0.0000
# 4 0.0000 0.0000 0.0000 26.0759 0.0000 0.0000
# 5 0.0000 0.0000 0.0000 0.0000 24.5428 0.0000
# 6 0.0000 0.0000 0.0000 0.0000 0.0000 7.6206
#
#
#
# Elastic Compliance Matrix: (Units=1/GPa)
#
#
# Indices 1 2 3 4 5 6 
#
# 1 0.038062 -0.006608 -0.001112 0.000000 0.000000 0.000000
# 2 -0.006608 0.010602 -0.000924 0.000000 0.000000 0.000000
# 3 -0.001112 -0.000924 0.010400 0.000000 0.000000 0.000000
# 4 0.000000 0.000000 0.000000 0.038350 0.000000 0.000000
# 5 0.000000 0.000000 0.000000 0.000000 0.040745 0.000000
# 6 0.000000 0.000000 0.000000 0.000000 0.000000 0.131224
#
#
# Mechanical properties :
#
#
# Convention : Reuss Voigt Hill
#
# Bulk Modulus (GPa) = 23.93633 33.90950 28.92291
# Shear Modulus (GPa) = 16.63359 24.92714 20.78036
#
# Velocity S-wave (km/s) = 3.00672 3.68075 3.36068
# Velocity P-wave (km/s) = 5.00632 6.04101 5.54784
#
# Compressibility (1/GPa) = 0.04177750
#
# Stress axis : x y z
#
# Youngs Moduli (GPa) = 26.27280 94.31907 96.14961
#
# Poissons Ratio (x) = 0.62324 0.10694
# Poissons Ratio (y) = 0.17361 0.08882
# Poissons Ratio (z) = 0.02922 0.08713
#
# Static dielectric constant tensor:
#      x y z
#    x 0.127480 0.000000 0.000000 
#    y 0.000000 1.681050 0.000000 
#    z 0.000000 0.000000 1.677660 
# 
# From -- ./inp_files/1419.got.cif
#   From: 2010.05.17/outbox.cif.g08.bks.cpg/sg54_1_cif.got.tgz:1419.got - 2010.06.03 13:09:01.
