data_PCOD9420231
_publ_section_title
;
Structure prediction by ZEFSAII (Michael W. Deem and Ramdas Pophale) SiO2 
 PCOD9420231
Probable space group: P M N A
;
_chemical_formula_sum "Si O2"
_cell_formula_units_Z 48
_cell_length_a 9.000000
_cell_length_b 9.000000
_cell_length_c 30.000000
_cell_angle_alpha 90.000000
_cell_angle_beta 90.000000
_cell_angle_gamma 90.000000
_cell_volume 2430.000000
_symmetry_space_group_name_H-M "P M N A"
_symmetry_group_IT_number 53
_symmetry_cell_setting 'orthorhombic'
loop_
_space_group_symop_operation_xyz
x,y,z
1/2-x,-y,1/2+z
x,-y,-z
1/2-x,y,1/2-z
-x,-y,-z
1/2+x,y,1/2-z
-x,y,z
1/2+x,-y,1/2+z
loop_
_atom_site_type_symbol
_atom_site_label
_atom_site_fract_x
_atom_site_fract_y
_atom_site_fract_z
Si Si1 0.327344 0.263673 0.383864
Si Si2 0.827752 0.384605 0.465335
Si Si3 0.834542 0.162823 0.979609
Si Si4 0.825743 0.561892 0.793611
Si Si5 0.678068 0.240594 0.796784
Si Si6 0.678368 0.924241 0.379895
O O1 0.500000 0.259146 0.396866
O O2 0.246698 0.371879 0.417846
O O3 0.314259 0.327892 0.334706
O O4 0.272343 0.094955 0.386033
O O5 0.759397 0.500000 0.500000
O O6 0.794551 0.234440 0.491544
O O7 0.000000 0.416510 0.459442
O O8 0.800258 0.157257 0.927168
O O9 0.000000 0.232675 0.985466
O O10 0.848669 0.000000 0.000000
O O11 0.750000 0.629140 0.750000
O O12 0.739311 0.408527 0.802535
O O13 0.000000 0.528537 0.785913
O O14 0.750000 0.187082 0.750000
O O15 0.500000 0.238444 0.794058
O O16 0.736961 0.148683 0.838846
O O17 0.500000 0.923782 0.370961
#
# Coordination Sequence:
#
# PCOD9420231 Si02
#       6
#     8   8   8   8   8   8
#     4  10  22  41  63  87 117 155 199 240 289 354
#     4  11  25  40  56  86 124 157 196 246 294 343
#     4  10  20  39  64  86 115 157 199 239 288 347
#     4  10  21  39  63  89 117 153 194 240 293 348
#     4  11  23  40  62  88 120 155 195 240 291 349
#     4  10  21  39  62  89 119 152 196 243 291 349
#
# _framework density 19.753086
#
# number of rings (size 3 to 8) (size 9 to 14) (size 15 to 20)
#    0.000    1.667    1.667    3.500    2.333    5.000 
#    0.000    1.667    0.000    0.000    0.000    0.000 
#    0.000    0.000    0.000    0.000    0.000    0.000 
#
# Total GULP energy -267787.828467 kJ/mol
# GULP energy per Si atom -5578.913093 kJ/mol
# Density = 1.970813 g / cm^3
# Si number density = 19.753086 Si / 1000 Ang^3
#
#
#
# Elastic Constant Matrix: (Units=GPa)
#
#
# Indices 1 2 3 4 5 6 
#
# 1 54.1218 -4.0115 30.6699 0.0000 0.0000 0.0000
# 2 -4.0115 2.1442 -4.3861 0.0000 0.0000 0.0000
# 3 30.6699 -4.3861 89.7494 0.0000 0.0000 0.0000
# 4 0.0000 0.0000 0.0000 20.2291 0.0000 0.0000
# 5 0.0000 0.0000 0.0000 0.0000 61.2802 0.0000
# 6 0.0000 0.0000 0.0000 0.0000 0.0000 25.1264
#
#
#
# Elastic Compliance Matrix: (Units=1/GPa)
#
#
# Indices 1 2 3 4 5 6 
#
# 1 0.024771 0.032251 -0.006889 0.000000 0.000000 0.000000
# 2 0.032251 0.560150 0.016354 0.000000 0.000000 0.000000
# 3 -0.006889 0.016354 0.014295 0.000000 0.000000 0.000000
# 4 0.000000 0.000000 0.000000 0.049434 0.000000 0.000000
# 5 0.000000 0.000000 0.000000 0.000000 0.016318 0.000000
# 6 0.000000 0.000000 0.000000 0.000000 0.000000 0.039799
#
#
# Mechanical properties :
#
#
# Convention : Reuss Voigt Hill
#
# Bulk Modulus (GPa) = 1.46488 21.17335 11.31912
# Shear Modulus (GPa) = 5.89007 29.57669 17.73338
#
# Velocity S-wave (km/s) = 1.72868 3.87372 2.99950
# Velocity P-wave (km/s) = 2.17431 5.54526 4.21174
#
# Compressibility (1/GPa) = 0.68264796
#
# Stress axis : x y z
#
# Youngs Moduli (GPa) = 40.36974 1.78523 69.95224
#
# Poissons Ratio (x) = -0.05757 0.48189
# Poissons Ratio (y) = -1.30195 -1.14399
# Poissons Ratio (z) = 0.27810 -0.02920
#
# Static dielectric constant tensor:
#      x y z
#    x 1.699160 0.000000 0.000000 
#    y 0.000000 1.717050 0.000000 
#    z 0.000000 0.000000 1.691820 
# 
# From -- ./inp_files/37678.got.cif
#   From: 2010.05.17/outbox.ucp.g08.bks.cvg/sg53_19_cif.got.tgz:37678.got - 2010.06.11 16:32:34.
