data_PCOD9420251
_publ_section_title
;
Structure prediction by ZEFSAII (Michael W. Deem and Ramdas Pophale) SiO2 
 PCOD9420251
Probable space group: P M N A
;
_chemical_formula_sum "Si O2"
_cell_formula_units_Z 40
_cell_length_a 9.000000
_cell_length_b 24.000000
_cell_length_c 9.000000
_cell_angle_alpha 90.000000
_cell_angle_beta 90.000000
_cell_angle_gamma 90.000000
_cell_volume 1944.000000
_symmetry_space_group_name_H-M "P M N A"
_symmetry_group_IT_number 53
_symmetry_cell_setting 'orthorhombic'
loop_
_space_group_symop_operation_xyz
x,y,z
1/2-x,-y,1/2+z
x,-y,-z
1/2-x,y,1/2-z
-x,-y,-z
1/2+x,y,1/2-z
-x,y,z
1/2+x,-y,1/2+z
loop_
_atom_site_type_symbol
_atom_site_label
_atom_site_fract_x
_atom_site_fract_y
_atom_site_fract_z
Si Si1 0.823775 0.335254 0.086650
Si Si2 0.838183 0.948674 0.108979
Si Si3 0.330089 0.554451 0.902533
Si Si4 0.666636 0.135222 0.095228
Si Si5 0.830807 0.242623 0.602156
O O1 0.750000 0.326227 0.250000
O O2 0.766612 0.395374 0.033681
O O3 0.000000 0.332263 0.100619
O O4 0.763365 0.291930 0.968092
O O5 0.750000 0.968761 0.250000
O O6 0.000000 0.927488 0.153878
O O7 0.749670 0.901751 0.024300
O O8 0.851994 0.000000 0.000000
O O9 0.250000 0.540015 0.750000
O O10 0.500000 0.573673 0.877520
O O11 0.332893 0.500000 0.000000
O O12 0.750000 0.134757 0.250000
O O13 0.500000 0.114132 0.117793
O O14 0.662994 0.196091 0.024696
O O15 0.750000 0.221280 0.750000
O O16 0.000000 0.259385 0.637189
#
# Coordination Sequence:
#
# PCOD9420251 Si02
#       5
#     8   8   8   8   8
#     4  11  22  38  61  86 116 154 195 241 292 348
#     4  11  24  41  63  91 124 161 201 247 297 351
#     4  10  21  37  58  84 115 151 193 240 290 347
#     4  11  24  41  64  91 121 158 199 245 295 351
#     4  11  24  41  61  88 120 154 195 242 294 350
#
# _framework density 20.576132000000001
#
# number of rings (size 3 to 8) (size 9 to 14) (size 15 to 20)
#    0.000    1.200    0.000    7.200    0.000   12.000 
#    0.000    2.000    0.000    0.000    0.000    0.000 
#    0.000    0.000    0.000    0.000    0.000    0.000 
#
# Total GULP energy -223386.517257 kJ/mol
# GULP energy per Si atom -5584.662931 kJ/mol
# Density = 2.052930 g / cm^3
# Si number density = 20.576132 Si / 1000 Ang^3
#
#
#
# Elastic Constant Matrix: (Units=GPa)
#
#
# Indices 1 2 3 4 5 6 
#
# 1 196.6476 31.0008 41.6501 0.0000 0.0000 0.0000
# 2 31.0008 41.3787 11.2024 0.0000 0.0000 0.0000
# 3 41.6501 11.2024 45.2102 0.0000 0.0000 0.0000
# 4 0.0000 0.0000 0.0000 37.8300 0.0000 0.0000
# 5 0.0000 0.0000 0.0000 0.0000 39.4215 0.0000
# 6 0.0000 0.0000 0.0000 0.0000 0.0000-1407.3958
#
#
#
# Elastic Compliance Matrix: (Units=1/GPa)
#
#
# Indices 1 2 3 4 5 6 
#
# 1 0.006794 -0.003639 -0.005357 0.000000 0.000000 0.000000
# 2 -0.003639 0.027855 -0.003549 0.000000 0.000000 0.000000
# 3 -0.005357 -0.003549 0.027933 0.000000 0.000000 0.000000
# 4 0.000000 0.000000 0.000000 0.026434 0.000000 0.000000
# 5 0.000000 0.000000 0.000000 0.000000 0.025367 0.000000
# 6 0.000000 0.000000 0.000000 0.000000 0.000000 -0.000711
#
#
# Mechanical properties :
#
#
# Convention : Reuss Voigt Hill
#
# Bulk Modulus (GPa) = 26.67325 50.10480 38.38902
# Shear Modulus (GPa) = 33.05580 -252.73665 -109.84042
#
# Velocity S-wave (km/s) = 4.01248 -11.09489 -7.31426
# Velocity P-wave (km/s) = 5.87009 11.82054 7.25490
#
# Compressibility (1/GPa) = 0.03749075
#
# Stress axis : x y z
#
# Youngs Moduli (GPa) = 147.19803 35.90077 35.79956
#
# Poissons Ratio (x) = 0.13066 0.19177
# Poissons Ratio (y) = 0.53573 0.12705
# Poissons Ratio (z) = 0.78851 0.12741
#
# Static dielectric constant tensor:
#      x y z
#    x 1.021710 0.000000 0.000000 
#    y 0.000000 1.874250 0.000000 
#    z 0.000000 0.000000 1.683980 
# 
# From -- ./inp_files/6291.got.cif
#   From: 2010.05.17/outbox.ucp.g08.bks.cvg/sg53_4_cif.got.tgz:6291.got - 2010.06.11 16:32:34.
