data_PCOD9420994
_publ_section_title
;
Structure prediction by ZEFSAII (Michael W. Deem and Ramdas Pophale) SiO2 
 PCOD9420994
Probable space group: P C C A
;
_chemical_formula_sum "Si O2"
_cell_formula_units_Z 64
_cell_length_a 9.116835
_cell_length_b 14.820808
_cell_length_c 22.064203
_cell_angle_alpha 90.000000
_cell_angle_beta 90.000000
_cell_angle_gamma 90.000000
_cell_volume 2981.289980
_symmetry_space_group_name_H-M "P C C A"
_symmetry_group_IT_number 54
_symmetry_cell_setting 'orthorhombic'
loop_
_space_group_symop_operation_xyz
x,y,z
1/2-x,-y,z
1/2+x,-y,1/2-z
-x,y,1/2-z
-x,-y,-z
1/2+x,y,-z
1/2-x,y,1/2+z
x,-y,1/2+z
loop_
_atom_site_type_symbol
_atom_site_label
_atom_site_fract_x
_atom_site_fract_y
_atom_site_fract_z
Si Si1 0.793367 0.813029 0.313823
Si Si2 0.336755 0.706423 0.079286
Si Si3 0.544461 0.898705 0.611792
Si Si4 0.972823 0.070778 0.317305
Si Si5 0.724412 0.793469 0.175620
Si Si6 0.673257 0.634485 0.595727
Si Si7 0.464014 0.766967 0.517945
Si Si8 0.030405 0.462030 0.433539
O O1 0.718343 0.736423 0.354885
O O2 0.694561 0.901597 0.324089
O O3 0.792010 0.795988 0.242851
O O4 0.947910 0.836076 0.343007
O O5 0.198925 0.734242 0.035955
O O6 0.395440 0.603959 0.081475
O O7 0.477354 0.759349 0.050557
O O8 0.705159 0.864819 0.628535
O O9 0.493304 0.865871 0.545905
O O10 0.520397 0.000444 0.631910
O O11 0.062728 0.164932 0.316878
O O12 0.000000 0.029564 0.250000
O O13 0.759019 0.695408 0.148895
O O14 0.572873 0.699128 0.554451
O O15 0.817956 0.594121 0.563996
O O16 0.569623 0.547735 0.608994
O O17 0.000000 0.500000 0.500000
#
# Coordination Sequence:
#
# PCOD9420994 Si02
#       8
#     8   8   8   8   8   8   8   8
#     4  10  21  36  60  87 121 165 200 248 299 372
#     4  11  22  38  59  88 119 154 204 247 309 361
#     4  10  20  35  58  89 120 157 204 253 303 345
#     4  10  19  33  58  90 119 157 211 256 290 356
#     4  10  20  37  60  88 124 161 201 241 310 364
#     4  10  22  38  59  91 119 151 190 254 308 357
#     4  10  22  37  58  86 121 156 194 257 304 362
#     4  11  22  36  63  92 114 146 200 251 299 354
#
# _framework density 21.467217000000002
#
# number of rings (size 3 to 8) (size 9 to 14) (size 15 to 20)
#    0.000    1.750    1.250    3.375    1.750    3.500 
#    0.000    0.625    0.000   22.500    0.000    0.000 
#    0.000    0.000    0.000    0.000    0.000    0.000 
#
# Total GULP energy -357118.669309 kJ/mol
# GULP energy per Si atom -5579.979208 kJ/mol
# Density = 2.141836 g / cm^3
# Si number density = 21.467217 Si / 1000 Ang^3
#
#
#
# Elastic Constant Matrix: (Units=GPa)
#
#
# Indices 1 2 3 4 5 6 
#
# 1 82.0614 21.0552 3.5354 0.0000 0.0000 0.0000
# 2 21.0552 104.7796 37.5904 0.0000 0.0000 0.0000
# 3 3.5354 37.5904 49.5395 0.0000 0.0000 0.0000
# 4 0.0000 0.0000 0.0000 28.6180 0.0000 0.0000
# 5 0.0000 0.0000 0.0000 0.0000 27.3755 0.0000
# 6 0.0000 0.0000 0.0000 0.0000 0.0000 27.3705
#
#
#
# Elastic Compliance Matrix: (Units=1/GPa)
#
#
# Indices 1 2 3 4 5 6 
#
# 1 0.012923 -0.003114 0.001440 0.000000 0.000000 0.000000
# 2 -0.003114 0.013864 -0.010298 0.000000 0.000000 0.000000
# 3 0.001440 -0.010298 0.027897 0.000000 0.000000 0.000000
# 4 0.000000 0.000000 0.000000 0.034943 0.000000 0.000000
# 5 0.000000 0.000000 0.000000 0.000000 0.036529 0.000000
# 6 0.000000 0.000000 0.000000 0.000000 0.000000 0.036536
#
#
# Mechanical properties :
#
#
# Convention : Reuss Voigt Hill
#
# Bulk Modulus (GPa) = 32.52897 40.08252 36.30574
# Shear Modulus (GPa) = 25.39614 28.28610 26.84112
#
# Velocity S-wave (km/s) = 3.44324 3.63387 3.53984
# Velocity P-wave (km/s) = 5.56719 6.02650 5.80139
#
# Compressibility (1/GPa) = 0.03074183
#
# Stress axis : x y z
#
# Youngs Moduli (GPa) = 77.38253 72.13008 35.84625
#
# Poissons Ratio (x) = 0.22458 -0.05163
# Poissons Ratio (y) = 0.24093 0.36913
# Poissons Ratio (z) = -0.11145 0.74277
#
# Static dielectric constant tensor:
#      x y z
#    x 1.811570 0.000000 0.000000 
#    y 0.000000 1.818590 0.000000 
#    z 0.000000 0.000000 1.803390 
# 
# From -- ./inp_files/23660.got.cif
#   From: 2010.05.17/outbox.cif.g08.bks.cpg/sg54_12_cif.got.tgz:23660.got - 2010.06.03 13:09:01.
