data_PCOD9420006
_publ_section_title
;
Structure prediction by ZEFSAII (Michael W. Deem and Ramdas Pophale) SiO2 
 PCOD9420006
Probable space group: P M N A
;
_chemical_formula_sum "Si O2"
_cell_formula_units_Z 20
_cell_length_a 28.792074
_cell_length_b 5.149932
_cell_length_c 5.889840
_cell_angle_alpha 90.000000
_cell_angle_beta 90.000000
_cell_angle_gamma 90.000000
_cell_volume 873.329121
_symmetry_space_group_name_H-M "P M N A"
_symmetry_group_IT_number 53
_symmetry_cell_setting 'orthorhombic'
loop_
_space_group_symop_operation_xyz
x,y,z
1/2-x,-y,1/2+z
x,-y,-z
1/2-x,y,1/2-z
-x,-y,-z
1/2+x,y,1/2-z
-x,y,z
1/2+x,-y,1/2+z
loop_
_atom_site_type_symbol
_atom_site_label
_atom_site_fract_x
_atom_site_fract_y
_atom_site_fract_z
Si Si1 0.668141 0.000000 0.500000
Si Si2 0.000000 0.252416 0.159193
Si Si3 0.398045 0.748046 0.854619
Si Si4 0.727480 0.500000 0.500000
O O1 0.632501 0.186159 0.361755
O O2 0.701268 0.234489 0.582687
O O3 0.047320 0.264350 0.299984
O O4 0.000000 0.500000 0.000000
O O5 0.000000 0.000000 0.000000
O O6 0.383867 0.500000 0.000000
O O7 0.389835 0.000000 0.000000
O O8 0.750000 0.419088 0.250000
#
# Coordination Sequence:
#
# PCOD9420006 Si02
#       4
#     4   4   8   4
#     4  12  28  49  80 112 150 194 258 329 386 482
#     4  12  24  44  68 103 157 204 250 307 376 445
#     4  12  26  45  74 108 152 203 256 310 378 457
#     4  12  30  54  82 115 156 201 256 332 418 490
#
# _framework density 22.900874000000002
#
# number of rings (size 3 to 8) (size 9 to 14) (size 15 to 20)
#    0.000    0.000    2.000    7.200   11.200    0.000 
#    0.000    0.000    0.000    0.000    0.000    0.000 
#    0.000    0.000    0.000    0.000    0.000    0.000 
#
# Total GULP energy -111455.226701 kJ/mol
# GULP energy per Si atom -5572.761335 kJ/mol
# Density = 2.284875 g / cm^3
# Si number density = 22.900874 Si / 1000 Ang^3
#
#
#
# Elastic Constant Matrix: (Units=GPa)
#
#
# Indices 1 2 3 4 5 6 
#
# 1 71.7352 22.2351 28.4687 0.0000 0.0000 0.0000
# 2 22.2351 213.4124 31.6736 0.0000 0.0000 0.0000
# 3 28.4687 31.6736 81.3236 0.0000 0.0000 0.0000
# 4 0.0000 0.0000 0.0000 35.9915 0.0000 0.0000
# 5 0.0000 0.0000 0.0000 0.0000 106.6634 0.0000
# 6 0.0000 0.0000 0.0000 0.0000 0.0000 50.7396
#
#
#
# Elastic Compliance Matrix: (Units=1/GPa)
#
#
# Indices 1 2 3 4 5 6 
#
# 1 0.016353 -0.000907 -0.005372 0.000000 0.000000 0.000000
# 2 -0.000907 0.005023 -0.001639 0.000000 0.000000 0.000000
# 3 -0.005372 -0.001639 0.014815 0.000000 0.000000 0.000000
# 4 0.000000 0.000000 0.000000 0.027784 0.000000 0.000000
# 5 0.000000 0.000000 0.000000 0.000000 0.009375 0.000000
# 6 0.000000 0.000000 0.000000 0.000000 0.000000 0.019708
#
#
# Mechanical properties :
#
#
# Convention : Reuss Voigt Hill
#
# Bulk Modulus (GPa) = 49.12261 59.02513 54.07387
# Shear Modulus (GPa) = 43.22265 57.61849 50.42057
#
# Velocity S-wave (km/s) = 4.34911 5.02141 4.69730
# Velocity P-wave (km/s) = 6.83494 7.71035 7.28581
#
# Compressibility (1/GPa) = 0.02035722
#
# Stress axis : x y z
#
# Youngs Moduli (GPa) = 61.15132 199.06455 67.49754
#
# Poissons Ratio (x) = 0.18047 0.36256
# Poissons Ratio (y) = 0.05544 0.11064
# Poissons Ratio (z) = 0.32847 0.32630
#
# Static dielectric constant tensor:
#      x y z
#    x 1.826700 0.000000 0.000000 
#    y 0.000000 1.762510 0.000000 
#    z 0.000000 0.000000 1.913310 
# 
# From -- ./inp_files/3196.got.cif
#   From: 2010.05.17/outbox.cif.g08.bks.cpg/sg53_2_cif.got.tgz:3196.got - 2010.06.03 12:45:16.
