data_PCOD9420949
_publ_section_title
;
Structure prediction by ZEFSAII (Michael W. Deem and Ramdas Pophale) SiO2 
 PCOD9420949
Probable space group: P C C A
;
_chemical_formula_sum "Si O2"
_cell_formula_units_Z 24
_cell_length_a 7.221349
_cell_length_b 5.064669
_cell_length_c 28.042118
_cell_angle_alpha 90.000000
_cell_angle_beta 90.000000
_cell_angle_gamma 90.000000
_cell_volume 1025.605201
_symmetry_space_group_name_H-M "P C C A"
_symmetry_group_IT_number 54
_symmetry_cell_setting 'orthorhombic'
loop_
_space_group_symop_operation_xyz
x,y,z
1/2-x,-y,z
1/2+x,-y,1/2-z
-x,y,1/2-z
-x,-y,-z
1/2+x,y,-z
1/2-x,y,1/2+z
x,-y,1/2+z
loop_
_atom_site_type_symbol
_atom_site_label
_atom_site_fract_x
_atom_site_fract_y
_atom_site_fract_z
Si Si1 0.029497 0.488490 0.943661
Si Si2 0.378606 0.249642 0.294741
Si Si3 0.024190 0.998265 0.888343
O O1 0.250000 0.500000 0.937594
O O2 0.957614 0.208147 0.926686
O O3 0.960627 0.715562 0.907441
O O4 0.000000 0.500000 0.000000
O O5 0.250000 0.500000 0.310633
O O6 0.500000 0.338256 0.250000
O O7 0.508080 0.126263 0.336477
O O8 0.250000 0.000000 0.280642
O O9 0.250000 0.000000 0.888995
#
# Coordination Sequence:
#
# PCOD9420949 Si02
#       3
#     8   8   8
#     4  10  19  33  53  77 104 140 184 230 280 339
#     4  11  22  39  62  88 118 158 202 247 297 358
#     4   9  18  34  55  75 105 148 186 221 280 357
#
# _framework density 23.40082
#
# number of rings (size 3 to 8) (size 9 to 14) (size 15 to 20)
#    0.000    2.000    0.000    7.000    0.000    0.000 
#    0.000    5.000    0.000    0.000    0.000    0.000 
#    0.000    0.000    0.000    0.000    0.000    0.000 
#
# Total GULP energy -133882.178885 kJ/mol
# GULP energy per Si atom -5578.424120 kJ/mol
# Density = 2.334756 g / cm^3
# Si number density = 23.400820 Si / 1000 Ang^3
#
#
#
# Elastic Constant Matrix: (Units=GPa)
#
#
# Indices 1 2 3 4 5 6 
#
# 1 58.2687 -6.3774 -5.0929 0.0000 0.0000 0.0000
# 2 -6.3774 121.7671 20.2950 0.0000 0.0000 0.0000
# 3 -5.0929 20.2950 150.4984 0.0000 0.0000 0.0000
# 4 0.0000 0.0000 0.0000 38.8896 0.0000 0.0000
# 5 0.0000 0.0000 0.0000 0.0000 27.7550 0.0000
# 6 0.0000 0.0000 0.0000 0.0000 0.0000 5.1116
#
#
#
# Elastic Compliance Matrix: (Units=1/GPa)
#
#
# Indices 1 2 3 4 5 6 
#
# 1 0.017294 0.000827 0.000474 0.000000 0.000000 0.000000
# 2 0.000827 0.008441 -0.001110 0.000000 0.000000 0.000000
# 3 0.000474 -0.001110 0.006810 0.000000 0.000000 0.000000
# 4 0.000000 0.000000 0.000000 0.025714 0.000000 0.000000
# 5 0.000000 0.000000 0.000000 0.000000 0.036030 0.000000
# 6 0.000000 0.000000 0.000000 0.000000 0.000000 0.195634
#
#
# Mechanical properties :
#
#
# Convention : Reuss Voigt Hill
#
# Bulk Modulus (GPa) = 30.37173 38.68706 34.52939
# Shear Modulus (GPa) = 16.63800 35.79856 26.21828
#
# Velocity S-wave (km/s) = 2.66935 3.91551 3.35087
# Velocity P-wave (km/s) = 4.74423 6.08357 5.45516
#
# Compressibility (1/GPa) = 0.03292535
#
# Stress axis : x y z
#
# Youngs Moduli (GPa) = 57.82428 118.47291 146.83549
#
# Poissons Ratio (x) = -0.09795 -0.06956
# Poissons Ratio (y) = -0.04781 0.16303
# Poissons Ratio (z) = -0.02739 0.13154
#
# Static dielectric constant tensor:
#      x y z
#    x 1.946240 0.000000 0.000000 
#    y 0.000000 1.871660 0.000000 
#    z 0.000000 0.000000 1.905290 
# 
# From -- ./inp_files/16925.got.cif
#   From: 2010.05.17/outbox.cif.g08.bks.cpg/sg54_9_cif.got.tgz:16925.got - 2010.06.03 13:09:01.
