data_PCOD9420317
_publ_section_title
;
Structure prediction by ZEFSAII (Michael W. Deem and Ramdas Pophale) SiO2 
 PCOD9420317
Probable space group: P C C A
;
_chemical_formula_sum "Si O2"
_cell_formula_units_Z 40
_cell_length_a 15.213412
_cell_length_b 23.150454
_cell_length_c 5.274513
_cell_angle_alpha 90.000000
_cell_angle_beta 90.000000
_cell_angle_gamma 90.000000
_cell_volume 1857.669737
_symmetry_space_group_name_H-M "P C C A"
_symmetry_group_IT_number 54
_symmetry_cell_setting 'orthorhombic'
loop_
_space_group_symop_operation_xyz
x,y,z
1/2-x,-y,z
1/2+x,-y,1/2-z
-x,y,1/2-z
-x,-y,-z
1/2+x,y,-z
1/2-x,y,1/2+z
x,-y,1/2+z
loop_
_atom_site_type_symbol
_atom_site_label
_atom_site_fract_x
_atom_site_fract_y
_atom_site_fract_z
Si Si1 0.147652 0.976833 0.541521
Si Si2 0.055164 0.621571 0.498869
Si Si3 0.806554 0.852378 0.119328
Si Si4 0.189927 0.725323 0.448332
Si Si5 0.283828 0.564832 0.198067
O O1 0.144265 0.911424 0.444246
O O2 0.250000 0.000000 0.572166
O O3 0.108739 0.015849 0.319282
O O4 0.116874 0.676156 0.437829
O O5 0.120010 0.569832 0.582893
O O6 0.000000 0.635194 0.750000
O O7 0.000000 0.607019 0.250000
O O8 0.728115 0.853839 0.908159
O O9 0.849840 0.790115 0.072345
O O10 0.242488 0.720627 0.713255
O O11 0.250000 0.500000 0.240520
O O12 0.276930 0.592141 0.477135
#
# Coordination Sequence:
#
# PCOD9420317 Si02
#       5
#     8   8   8   8   8
#     4  10  14  20  34  56  95 135 158 211 284 328
#     4  12  24  40  62  89 118 152 195 238 280 331
#     4  10  16  25  40  66  96 138 176 218 271 343
#     4  10  21  36  57  80 112 152 193 234 285 343
#     4  10  21  41  65  89 120 157 190 228 281 342
#
# _framework density 21.532350999999998
#
# number of rings (size 3 to 8) (size 9 to 14) (size 15 to 20)
#    0.000    1.600    4.000    3.600    0.000    0.000 
#    0.000   12.000    0.000    0.000    0.000    0.000 
#    0.000    4.800    0.000    0.000    0.000    0.000 
#
# Total GULP energy -223161.084635 kJ/mol
# GULP energy per Si atom -5579.027116 kJ/mol
# Density = 2.148334 g / cm^3
# Si number density = 21.532351 Si / 1000 Ang^3
#
#
#
# Elastic Constant Matrix: (Units=GPa)
#
#
# Indices 1 2 3 4 5 6 
#
# 1 36.0348 10.4506 -0.6873 0.0000 0.0000 0.0000
# 2 10.4506 98.8112 -19.2931 0.0000 0.0000 0.0000
# 3 -0.6873 -19.2931 121.1988 0.0000 0.0000 0.0000
# 4 0.0000 0.0000 0.0000 28.6018 0.0000 0.0000
# 5 0.0000 0.0000 0.0000 0.0000 28.6839 0.0000
# 6 0.0000 0.0000 0.0000 0.0000 0.0000 2.5578
#
#
#
# Elastic Compliance Matrix: (Units=1/GPa)
#
#
# Indices 1 2 3 4 5 6 
#
# 1 0.028642 -0.003094 -0.000330 0.000000 0.000000 0.000000
# 2 -0.003094 0.010779 0.001698 0.000000 0.000000 0.000000
# 3 -0.000330 0.001698 0.008519 0.000000 0.000000 0.000000
# 4 0.000000 0.000000 0.000000 0.034963 0.000000 0.000000
# 5 0.000000 0.000000 0.000000 0.000000 0.034863 0.000000
# 6 0.000000 0.000000 0.000000 0.000000 0.000000 0.390957
#
#
# Mechanical properties :
#
#
# Convention : Reuss Voigt Hill
#
# Bulk Modulus (GPa) = 22.47720 26.33169 24.40445
# Shear Modulus (GPa) = 9.48761 29.67368 19.58064
#
# Velocity S-wave (km/s) = 2.10138 3.71630 3.01883
# Velocity P-wave (km/s) = 4.04341 5.53805 4.84867
#
# Compressibility (1/GPa) = 0.04448952
#
# Stress axis : x y z
#
# Youngs Moduli (GPa) = 34.91394 92.77199 117.37932
#
# Poissons Ratio (x) = 0.28701 0.03874
# Poissons Ratio (y) = 0.10801 -0.19935
# Poissons Ratio (z) = 0.01152 -0.15756
#
# Static dielectric constant tensor:
#      x y z
#    x 1.822720 0.000000 0.000000 
#    y 0.000000 1.872060 0.000000 
#    z 0.000000 0.000000 1.848580 
# 
# From -- ./inp_files/529.got.cif
#   From: 2010.05.17/outbox.cif.g08.bks.cpg/sg54_1_cif.got.tgz:529.got - 2010.06.03 13:09:01.
