data_PCOD9420505
_publ_section_title
;
Structure prediction by ZEFSAII (Michael W. Deem and Ramdas Pophale) SiO2 
 PCOD9420505
Probable space group: P C C A
;
_chemical_formula_sum "Si O2"
_cell_formula_units_Z 48
_cell_length_a 14.272826
_cell_length_b 7.913538
_cell_length_c 19.747779
_cell_angle_alpha 90.000000
_cell_angle_beta 90.000000
_cell_angle_gamma 90.000000
_cell_volume 2230.483022
_symmetry_space_group_name_H-M "P C C A"
_symmetry_group_IT_number 54
_symmetry_cell_setting 'orthorhombic'
loop_
_space_group_symop_operation_xyz
x,y,z
1/2-x,-y,z
1/2+x,-y,1/2-z
-x,y,1/2-z
-x,-y,-z
1/2+x,y,-z
1/2-x,y,1/2+z
x,-y,1/2+z
loop_
_atom_site_type_symbol
_atom_site_label
_atom_site_fract_x
_atom_site_fract_y
_atom_site_fract_z
Si Si1 0.570272 0.282230 0.688928
Si Si2 0.466115 0.878908 0.823851
Si Si3 0.292606 0.771638 0.021349
Si Si4 0.984527 0.350721 0.449010
Si Si5 0.398722 0.871346 0.547104
Si Si6 0.734370 0.204483 0.135639
O O1 0.500000 0.332707 0.750000
O O2 0.531012 0.373792 0.622835
O O3 0.684085 0.289688 0.681260
O O4 0.553784 0.080105 0.680991
O O5 0.500000 0.825052 0.750000
O O6 0.539319 0.867403 0.885552
O O7 0.371249 0.778068 0.838826
O O8 0.373214 0.662887 0.054900
O O9 0.193623 0.758546 0.058058
O O10 0.345977 0.954344 0.026691
O O11 0.268047 0.737343 0.942733
O O12 0.036988 0.191743 0.485082
O O13 0.000000 0.500000 0.500000
O O14 0.750000 0.000000 0.134030
#
# Coordination Sequence:
#
# PCOD9420505 Si02
#       6
#     8   8   8   8   8   8
#     4  10  21  38  59  89 126 164 205 253 312 380
#     4  10  20  34  58  93 130 159 201 259 319 373
#     4  11  20  35  65  90 117 161 211 262 310 361
#     4  12  24  38  60  92 122 166 210 256 309 372
#     4  11  20  37  62  91 122 157 210 266 305 361
#     4  10  17  32  59  89 117 158 199 253 310 360
#
# _framework density 21.520002999999999
#
# number of rings (size 3 to 8) (size 9 to 14) (size 15 to 20)
#    0.000    1.333    6.667    1.500    0.000    2.000 
#    6.000    0.833    0.000    0.000    0.000    0.000 
#    0.000    0.000    0.000    0.000    0.000    0.000 
#
# Total GULP energy -267726.032865 kJ/mol
# GULP energy per Si atom -5577.625685 kJ/mol
# Density = 2.147102 g / cm^3
# Si number density = 21.520003 Si / 1000 Ang^3
#
#
#
# Elastic Constant Matrix: (Units=GPa)
#
#
# Indices 1 2 3 4 5 6 
#
# 1 199.1446 6.4920 70.8494 0.0000 0.0000 0.0000
# 2 6.4920 18.9280 9.2535 0.0000 0.0000 0.0000
# 3 70.8494 9.2535 140.8438 0.0000 0.0000 0.0000
# 4 0.0000 0.0000 0.0000 13.7891 0.0000 0.0000
# 5 0.0000 0.0000 0.0000 0.0000 35.9527 0.0000
# 6 0.0000 0.0000 0.0000 0.0000 0.0000 -1.2226
#
#
#
# Elastic Compliance Matrix: (Units=1/GPa)
#
#
# Indices 1 2 3 4 5 6 
#
# 1 0.006123 -0.000614 -0.003040 0.000000 0.000000 0.000000
# 2 -0.000614 0.054647 -0.003281 0.000000 0.000000 0.000000
# 3 -0.003040 -0.003281 0.008845 0.000000 0.000000 0.000000
# 4 0.000000 0.000000 0.000000 0.072521 0.000000 0.000000
# 5 0.000000 0.000000 0.000000 0.000000 0.027814 0.000000
# 6 0.000000 0.000000 0.000000 0.000000 0.000000 -0.817947
#
#
# Mechanical properties :
#
#
# Convention : Reuss Voigt Hill
#
# Bulk Modulus (GPa) = 17.93916 59.12290 38.53103
# Shear Modulus (GPa) = -8.12288 27.85862 9.86787
#
# Velocity S-wave (km/s) = -1.94493 3.60188 2.14369
# Velocity P-wave (km/s) = 1.81946 6.69561 4.90620
#
# Compressibility (1/GPa) = 0.05574398
#
# Stress axis : x y z
#
# Youngs Moduli (GPa) = 163.32069 18.29938 113.06162
#
# Poissons Ratio (x) = 0.01124 0.34367
# Poissons Ratio (y) = 0.10028 0.37101
# Poissons Ratio (z) = 0.49645 0.06005
#
# Static dielectric constant tensor:
#      x y z
#    x 1.807130 0.000000 0.000000 
#    y 0.000000 1.909290 0.000000 
#    z 0.000000 0.000000 1.737400 
# 
# From -- ./inp_files/18047.got.cif
#   From: 2010.05.17/outbox.cif.g08.bks.cpg/sg54_10_cif.got.tgz:18047.got - 2010.06.03 13:09:01.
