data_PCOD9420765
_publ_section_title
;
Structure prediction by ZEFSAII (Michael W. Deem and Ramdas Pophale) SiO2 
 PCOD9420765
Probable space group: P C C A
;
_chemical_formula_sum "Si O2"
_cell_formula_units_Z 48
_cell_length_a 17.395688
_cell_length_b 9.177535
_cell_length_c 15.609718
_cell_angle_alpha 90.000000
_cell_angle_beta 90.000000
_cell_angle_gamma 90.000000
_cell_volume 2492.084228
_symmetry_space_group_name_H-M "P C C A"
_symmetry_group_IT_number 54
_symmetry_cell_setting 'orthorhombic'
loop_
_space_group_symop_operation_xyz
x,y,z
1/2-x,-y,z
1/2+x,-y,1/2-z
-x,y,1/2-z
-x,-y,-z
1/2+x,y,-z
1/2-x,y,1/2+z
x,-y,1/2+z
loop_
_atom_site_type_symbol
_atom_site_label
_atom_site_fract_x
_atom_site_fract_y
_atom_site_fract_z
Si Si1 0.682960 0.151105 0.295916
Si Si2 0.667346 0.022394 0.975777
Si Si3 0.334467 0.574084 0.594973
Si Si4 0.919567 0.277845 0.403184
Si Si5 0.859368 0.864689 0.737007
Si Si6 0.407169 0.234868 0.945040
O O1 0.659074 0.311429 0.326367
O O2 0.770650 0.162919 0.264191
O O3 0.677432 0.059074 0.384470
O O4 0.636952 0.042559 0.232104
O O5 0.641361 0.186773 0.960901
O O6 0.750000 0.000000 0.020448
O O7 0.602438 0.930114 0.021718
O O8 0.250000 0.500000 0.590488
O O9 0.392015 0.441278 0.607627
O O10 0.358054 0.662031 0.508554
O O11 0.914356 0.194096 0.312317
O O12 0.003821 0.275062 0.442629
O O13 0.876330 0.776585 0.651359
#
# Coordination Sequence:
#
# PCOD9420765 Si02
#       6
#     8   8   8   8   8   8
#     4   9  18  37  63  85 104 158 205 239 284 361
#     4  10  18  37  61  85 112 156 212 237 279 356
#     4  11  21  41  61  86 118 166 206 235 290 370
#     4  11  20  39  61  84 124 163 191 238 309 367
#     4  10  19  38  59  86 118 147 205 252 298 346
#     4  11  24  34  59  94 121 150 196 261 296 335
#
# _framework density 19.260985999999999
#
# number of rings (size 3 to 8) (size 9 to 14) (size 15 to 20)
#    0.000    1.667    5.000    2.500    2.333    0.000 
#    3.000    0.000    0.000    6.000    0.000    0.000 
#    0.000    0.000    0.000    0.000    0.000    0.000 
#
# Total GULP energy -267463.165751 kJ/mol
# GULP energy per Si atom -5572.149286 kJ/mol
# Density = 1.921715 g / cm^3
# Si number density = 19.260986 Si / 1000 Ang^3
#
#
#
# Elastic Constant Matrix: (Units=GPa)
#
#
# Indices 1 2 3 4 5 6 
#
# 1 75.4560 41.7889 16.7908 0.0000 0.0000 0.0000
# 2 41.7889 145.1691 13.8246 0.0000 0.0000 0.0000
# 3 16.7908 13.8246 33.6810 0.0000 0.0000 0.0000
# 4 0.0000 0.0000 0.0000 9.0786 0.0000 0.0000
# 5 0.0000 0.0000 0.0000 0.0000 -31.2562 0.0000
# 6 0.0000 0.0000 0.0000 0.0000 0.0000 26.8684
#
#
#
# Elastic Compliance Matrix: (Units=1/GPa)
#
#
# Indices 1 2 3 4 5 6 
#
# 1 0.017136 -0.004287 -0.006783 0.000000 0.000000 0.000000
# 2 -0.004287 0.008241 -0.001245 0.000000 0.000000 0.000000
# 3 -0.006783 -0.001245 0.033583 0.000000 0.000000 0.000000
# 4 0.000000 0.000000 0.000000 0.110149 0.000000 0.000000
# 5 0.000000 0.000000 0.000000 0.000000 -0.031994 0.000000
# 6 0.000000 0.000000 0.000000 0.000000 0.000000 0.037218
#
#
# Mechanical properties :
#
#
# Convention : Reuss Voigt Hill
#
# Bulk Modulus (GPa) = 29.12966 44.34607 36.73787
# Shear Modulus (GPa) = 23.76316 13.06494 18.41405
#
# Velocity S-wave (km/s) = 3.51628 2.60727 3.09533
# Velocity P-wave (km/s) = 5.62514 5.66900 5.64711
#
# Compressibility (1/GPa) = 0.03432927
#
# Stress axis : x y z
#
# Youngs Moduli (GPa) = 58.35526 121.34174 29.77676
#
# Poissons Ratio (x) = 0.52019 0.20199
# Poissons Ratio (y) = 0.25017 0.03709
# Poissons Ratio (z) = 0.39584 0.15113
#
# Static dielectric constant tensor:
#      x y z
#    x 1.683070 0.000000 0.000000 
#    y 0.000000 1.688710 0.000000 
#    z 0.000000 0.000000 1.720800 
# 
# From -- ./inp_files/14113.got.cif
#   From: 2010.05.17/outbox.cif.g08.bks.cpg/sg54_8_cif.got.tgz:14113.got - 2010.06.03 13:09:01.
