data_PCOD9420881
_publ_section_title
;
Structure prediction by ZEFSAII (Michael W. Deem and Ramdas Pophale) SiO2 
 PCOD9420881
Probable space group: P C C A
;
_chemical_formula_sum "Si O2"
_cell_formula_units_Z 36
_cell_length_a 5.301331
_cell_length_b 13.583605
_cell_length_c 25.741563
_cell_angle_alpha 90.000000
_cell_angle_beta 90.000000
_cell_angle_gamma 90.000000
_cell_volume 1853.680488
_symmetry_space_group_name_H-M "P C C A"
_symmetry_group_IT_number 54
_symmetry_cell_setting 'orthorhombic'
loop_
_space_group_symop_operation_xyz
x,y,z
1/2-x,-y,z
1/2+x,-y,1/2-z
-x,y,1/2-z
-x,-y,-z
1/2+x,y,-z
1/2-x,y,1/2+z
x,-y,1/2+z
loop_
_atom_site_type_symbol
_atom_site_label
_atom_site_fract_x
_atom_site_fract_y
_atom_site_fract_z
Si Si1 0.250000 0.000000 0.196783
Si Si2 0.750000 0.500000 0.965037
Si Si3 0.500000 0.828621 0.750000
Si Si4 0.250000 0.500000 0.714009
Si Si5 0.828475 0.339885 0.376786
Si Si6 0.250000 0.000000 0.369803
Si Si7 0.838255 0.220222 0.636201
O O1 0.214429 0.902139 0.229398
O O2 0.497576 0.989362 0.163259
O O3 0.716019 0.408711 0.926201
O O4 0.500000 0.500000 0.000000
O O5 0.622363 0.780028 0.699293
O O6 0.500000 0.510472 0.750000
O O7 0.213660 0.593654 0.675278
O O8 0.611129 0.258337 0.380816
O O9 0.105545 0.292025 0.375771
O O10 0.285607 0.112697 0.389620
#
# Coordination Sequence:
#
# PCOD9420881 Si02
#       7
#     4   4   4   4   8   4   8
#     4  10  19  32  44  70 108 167 252 251 250 312
#     4  11  24  49  78  92 114 145 192 283 350 364
#     4  10  20  30  50  74 118 186 208 252 274 316
#     4  11  24  41  56  80 126 169 192 237 304 368
#     4  11  25  40  61  97 118 149 216 253 296 393
#     4  10  21  36  50  78 122 177 204 259 284 318
#     4  11  22  35  56  86 131 164 217 242 286 347
#
# _framework density 19.420824
#
# number of rings (size 3 to 8) (size 9 to 14) (size 15 to 20)
#    0.000    1.333    0.000    8.000    4.667    7.111 
#    0.000    0.000    0.000    0.000    0.000   15.556 
#    0.000    0.000    0.000    0.000    0.000    0.000 
#
# Total GULP energy -200714.898318 kJ/mol
# GULP energy per Si atom -5575.413842 kJ/mol
# Density = 1.937662 g / cm^3
# Si number density = 19.420824 Si / 1000 Ang^3
#
#
#
# Elastic Constant Matrix: (Units=GPa)
#
#
# Indices 1 2 3 4 5 6 
#
# 1 115.7949 -10.8614 24.7958 0.0000 0.0000 0.0000
# 2 -10.8614 44.4414 13.2147 0.0000 0.0000 0.0000
# 3 24.7958 13.2147 75.0012 0.0000 0.0000 0.0000
# 4 0.0000 0.0000 0.0000 4.5507 0.0000 0.0000
# 5 0.0000 0.0000 0.0000 0.0000 13.1555 0.0000
# 6 0.0000 0.0000 0.0000 0.0000 0.0000 39.5879
#
#
#
# Elastic Compliance Matrix: (Units=1/GPa)
#
#
# Indices 1 2 3 4 5 6 
#
# 1 0.009795 0.003543 -0.003863 0.000000 0.000000 0.000000
# 2 0.003543 0.025027 -0.005581 0.000000 0.000000 0.000000
# 3 -0.003863 -0.005581 0.015593 0.000000 0.000000 0.000000
# 4 0.000000 0.000000 0.000000 0.219744 0.000000 0.000000
# 5 0.000000 0.000000 0.000000 0.000000 0.076014 0.000000
# 6 0.000000 0.000000 0.000000 0.000000 0.000000 0.025260
#
#
# Mechanical properties :
#
#
# Convention : Reuss Voigt Hill
#
# Bulk Modulus (GPa) = 25.89736 32.17063 29.03400
# Shear Modulus (GPa) = 12.62286 25.33140 18.97713
#
# Velocity S-wave (km/s) = 2.55221 3.61549 3.12934
# Velocity P-wave (km/s) = 4.69562 5.83352 5.29522
#
# Compressibility (1/GPa) = 0.03861397
#
# Stress axis : x y z
#
# Youngs Moduli (GPa) = 102.08923 39.95725 64.12978
#
# Poissons Ratio (x) = -0.14155 0.24771
# Poissons Ratio (y) = -0.36165 0.35789
# Poissons Ratio (z) = 0.39433 0.22299
#
# Static dielectric constant tensor:
#      x y z
#    x 1.674660 0.000000 0.000000 
#    y 0.000000 1.795960 0.000000 
#    z 0.000000 0.000000 1.703460 
# 
# From -- ./inp_files/22750.got.cif
#   From: 2010.05.17/outbox.cif.g08.bks.cpg/sg54_12_cif.got.tgz:22750.got - 2010.06.03 13:09:01.
