data_PCOD9420358
_publ_section_title
;
Structure prediction by ZEFSAII (Michael W. Deem and Ramdas Pophale) SiO2 
 PCOD9420358
Probable space group: P C C A
;
_chemical_formula_sum "Si O2"
_cell_formula_units_Z 48
_cell_length_a 13.880989
_cell_length_b 26.238766
_cell_length_c 5.445529
_cell_angle_alpha 90.000000
_cell_angle_beta 90.000000
_cell_angle_gamma 90.000000
_cell_volume 1983.370693
_symmetry_space_group_name_H-M "P C C A"
_symmetry_group_IT_number 54
_symmetry_cell_setting 'orthorhombic'
loop_
_space_group_symop_operation_xyz
x,y,z
1/2-x,-y,z
1/2+x,-y,1/2-z
-x,y,1/2-z
-x,-y,-z
1/2+x,y,-z
1/2-x,y,1/2+z
x,-y,1/2+z
loop_
_atom_site_type_symbol
_atom_site_label
_atom_site_fract_x
_atom_site_fract_y
_atom_site_fract_z
Si Si1 0.382765 0.970975 0.253223
Si Si2 0.645005 0.680913 0.650086
Si Si3 0.638955 0.520331 0.147765
Si Si4 0.383532 0.796751 0.750287
Si Si5 0.882978 0.854867 0.750328
Si Si6 0.137276 0.359735 0.350256
O O1 0.500000 0.969185 0.250000
O O2 0.347393 0.912878 0.267370
O O3 0.355827 0.002115 0.497477
O O4 0.656165 0.740197 0.712119
O O5 0.599144 0.671133 0.384204
O O6 0.750199 0.655538 0.626219
O O7 0.596126 0.655062 0.885158
O O8 0.750000 0.500000 0.129481
O O9 0.597055 0.491872 0.382254
O O10 0.632825 0.580293 0.196079
O O11 0.500000 0.792026 0.750000
O O12 0.356475 0.822146 0.490456
O O13 0.357046 0.830232 0.988198
O O14 0.000000 0.856741 0.750000
#
# Coordination Sequence:
#
# PCOD9420358 Si02
#       6
#     8   8   8   8   8   8
#     4   9  15  23  37  56  78 107 139 170 210 257
#     4  10  18  30  44  61  88 118 145 176 213 253
#     4  10  16  25  41  63  91 110 129 161 208 274
#     4  10  19  30  44  61  85 120 154 179 204 241
#     4   9  17  28  40  58  84 113 147 180 209 248
#     4  10  19  30  45  67  92 114 136 174 223 257
#
# _framework density 24.201225999999998
#
# number of rings (size 3 to 8) (size 9 to 14) (size 15 to 20)
#    0.000    2.333    0.000    7.000    0.000    4.000 
#    0.000    0.000    0.000    0.000    0.000    0.000 
#    0.000   49.333    0.000  210.000    0.000   93.333 
#
# Total GULP energy -268598.062431 kJ/mol
# GULP energy per Si atom -5595.792967 kJ/mol
# Density = 2.414614 g / cm^3
# Si number density = 24.201226 Si / 1000 Ang^3
#
#
#
# Elastic Constant Matrix: (Units=GPa)
#
#
# Indices 1 2 3 4 5 6 
#
# 1 86.1908 -13.2668 5.7036 0.0000 0.0000 0.0000
# 2 -13.2668 181.7405 64.0396 0.0000 0.0000 0.0000
# 3 5.7036 64.0396 230.9235 0.0000 0.0000 0.0000
# 4 0.0000 0.0000 0.0000 51.0015 0.0000 0.0000
# 5 0.0000 0.0000 0.0000 0.0000 184.7500 0.0000
# 6 0.0000 0.0000 0.0000 0.0000 0.0000 78.2191
#
#
#
# Elastic Compliance Matrix: (Units=1/GPa)
#
#
# Indices 1 2 3 4 5 6 
#
# 1 0.011806 0.001069 -0.000588 0.000000 0.000000 0.000000
# 2 0.001069 0.006195 -0.001744 0.000000 0.000000 0.000000
# 3 -0.000588 -0.001744 0.004829 0.000000 0.000000 0.000000
# 4 0.000000 0.000000 0.000000 0.019607 0.000000 0.000000
# 5 0.000000 0.000000 0.000000 0.000000 0.005413 0.000000
# 6 0.000000 0.000000 0.000000 0.000000 0.000000 0.012785
#
#
# Mechanical properties :
#
#
# Convention : Reuss Voigt Hill
#
# Bulk Modulus (GPa) = 49.25502 67.97862 58.61682
# Shear Modulus (GPa) = 71.50172 92.28604 81.89388
#
# Velocity S-wave (km/s) = 5.44140 6.18187 5.82342
# Velocity P-wave (km/s) = 7.73789 8.89404 8.33603
#
# Compressibility (1/GPa) = 0.02030250
#
# Stress axis : x y z
#
# Youngs Moduli (GPa) = 84.70539 161.41888 207.09416
#
# Poissons Ratio (x) = -0.17256 0.12178
# Poissons Ratio (y) = -0.09055 0.36126
# Poissons Ratio (z) = 0.04981 0.28158
#
# Static dielectric constant tensor:
#      x y z
#    x 1.543150 0.000000 0.000000 
#    y 0.000000 1.830280 0.000000 
#    z 0.000000 0.000000 1.900790 
# 
# From -- ./inp_files/1677.got.cif
#   From: 2010.05.17/outbox.cif.g08.bks.cpg/sg54_1_cif.got.tgz:1677.got - 2010.06.03 13:09:01.
