data_PCOD9420206
_publ_section_title
;
Structure prediction by ZEFSAII (Michael W. Deem and Ramdas Pophale) SiO2 
 PCOD9420206
Probable space group: P M N A
;
_chemical_formula_sum "Si O2"
_cell_formula_units_Z 64
_cell_length_a 9.000000
_cell_length_b 12.000000
_cell_length_c 30.000000
_cell_angle_alpha 90.000000
_cell_angle_beta 90.000000
_cell_angle_gamma 90.000000
_cell_volume 3240.000000
_symmetry_space_group_name_H-M "P M N A"
_symmetry_group_IT_number 53
_symmetry_cell_setting 'orthorhombic'
loop_
_space_group_symop_operation_xyz
x,y,z
1/2-x,-y,1/2+z
x,-y,-z
1/2-x,y,1/2-z
-x,-y,-z
1/2+x,y,1/2-z
-x,y,z
1/2+x,-y,1/2+z
loop_
_atom_site_type_symbol
_atom_site_label
_atom_site_fract_x
_atom_site_fract_y
_atom_site_fract_z
Si Si1 0.822696 0.932229 0.205220
Si Si2 0.323457 0.927795 0.935855
Si Si3 0.679757 0.580053 0.039224
Si Si4 0.177615 0.834737 0.464734
Si Si5 0.824240 0.135350 0.149221
Si Si6 0.175442 0.321171 0.794835
Si Si7 0.327579 0.321926 0.204828
Si Si8 0.171355 0.525249 0.362014
O O1 0.750000 0.977990 0.250000
O O2 0.771362 0.805824 0.199580
O O3 0.000000 0.931901 0.210848
O O4 0.786844 0.009990 0.164184
O O5 0.500000 0.930832 0.927102
O O6 0.245429 0.852760 0.899108
O O7 0.266274 0.056429 0.937719
O O8 0.303036 0.872256 0.984091
O O9 0.500000 0.588664 0.033177
O O10 0.735113 0.708639 0.041523
O O11 0.706777 0.520016 0.086161
O O12 0.736658 0.500000 0.000000
O O13 0.000000 0.830749 0.455979
O O14 0.753953 0.214211 0.186076
O O15 0.000000 0.150879 0.148328
O O16 0.250000 0.367033 0.750000
O O17 0.222976 0.388951 0.837496
O O18 0.000000 0.322636 0.788761
O O19 0.250000 0.361259 0.250000
O O20 0.500000 0.299630 0.213927
O O21 0.317023 0.411826 0.165420
O O22 0.000000 0.564290 0.357991
#
# Coordination Sequence:
#
# PCOD9420206 Si02
#       8
#     8   8   8   8   8   8   8   8
#     4   9  20  36  53  77 109 143 179 221 273 329
#     4   9  18  33  56  85 113 148 190 238 285 338
#     4   9  18  32  55  85 118 151 187 237 286 336
#     4   8  16  32  54  82 116 149 189 235 287 340
#     4  11  23  37  56  83 115 150 192 236 286 347
#     4  10  20  36  58  83 114 150 184 229 281 337
#     4  11  24  41  60  84 115 152 194 243 292 345
#     4  10  22  37  58  89 116 147 192 237 286 341
#
# _framework density 19.753086
#
# number of rings (size 3 to 8) (size 9 to 14) (size 15 to 20)
#    0.000    2.375    0.000    2.625    3.500    4.500 
#    0.000    1.250    0.000    1.125    0.000    0.000 
#    0.000    0.000    0.000    0.000    0.000    0.000 
#
# Total GULP energy -356793.844192 kJ/mol
# GULP energy per Si atom -5574.903816 kJ/mol
# Density = 1.970813 g / cm^3
# Si number density = 19.753086 Si / 1000 Ang^3
#
#
#
# Elastic Constant Matrix: (Units=GPa)
#
#
# Indices 1 2 3 4 5 6 
#
# 1 21.1344 28.4377 46.8377 0.0000 0.0000 0.0000
# 2 28.4377 58.9198 30.6698 0.0000 0.0000 0.0000
# 3 46.8377 30.6698 59.8751 0.0000 0.0000 0.0000
# 4 0.0000 0.0000 0.0000 34.6022 0.0000 0.0000
# 5 0.0000 0.0000 0.0000 0.0000 14.1503 0.0000
# 6 0.0000 0.0000 0.0000 0.0000 0.0000 15.9934
#
#
#
# Elastic Compliance Matrix: (Units=1/GPa)
#
#
# Indices 1 2 3 4 5 6 
#
# 1 -0.062648 0.006446 0.045705 0.000000 0.000000 0.000000
# 2 0.006446 0.022480 -0.016557 0.000000 0.000000 0.000000
# 3 0.045705 -0.016557 -0.010570 0.000000 0.000000 0.000000
# 4 0.000000 0.000000 0.000000 0.028900 0.000000 0.000000
# 5 0.000000 0.000000 0.000000 0.000000 0.070670 0.000000
# 6 0.000000 0.000000 0.000000 0.000000 0.000000 0.062526
#
#
# Mechanical properties :
#
#
# Convention : Reuss Voigt Hill
#
# Bulk Modulus (GPa) = 48.90266 39.09105 43.99685
# Shear Modulus (GPa) = 106.41675 15.21478 60.81577
#
# Velocity S-wave (km/s) = 7.34782 2.77835 5.55471
# Velocity P-wave (km/s) = 9.83860 5.48863 7.96627
#
# Compressibility (1/GPa) = 0.02044879
#
# Stress axis : x y z
#
# Youngs Moduli (GPa) = -15.96216 44.48483 -94.60303
#
# Poissons Ratio (x) = -0.28676 4.32383
# Poissons Ratio (y) = 0.10289 -1.56637
# Poissons Ratio (z) = 0.72955 0.73655
#
# Static dielectric constant tensor:
#      x y z
#    x 1.655180 0.000000 0.000000 
#    y 0.000000 1.727290 0.000000 
#    z 0.000000 0.000000 1.637600 
# 
# From -- ./inp_files/38297.got.cif
#   From: 2010.05.17/outbox.ucp.g08.bks.cvg/sg53_20_cif.got.tgz:38297.got - 2010.06.11 16:32:34.
