data_PCOD9420624
_publ_section_title
;
Structure prediction by ZEFSAII (Michael W. Deem and Ramdas Pophale) SiO2 
 PCOD9420624
Probable space group: P C C A
;
_chemical_formula_sum "Si O2"
_cell_formula_units_Z 64
_cell_length_a 8.640873
_cell_length_b 21.370940
_cell_length_c 18.586784
_cell_angle_alpha 90.000000
_cell_angle_beta 90.000000
_cell_angle_gamma 90.000000
_cell_volume 3432.302045
_symmetry_space_group_name_H-M "P C C A"
_symmetry_group_IT_number 54
_symmetry_cell_setting 'orthorhombic'
loop_
_space_group_symop_operation_xyz
x,y,z
1/2-x,-y,z
1/2+x,-y,1/2-z
-x,y,1/2-z
-x,-y,-z
1/2+x,y,-z
1/2-x,y,1/2+z
x,-y,1/2+z
loop_
_atom_site_type_symbol
_atom_site_label
_atom_site_fract_x
_atom_site_fract_y
_atom_site_fract_z
Si Si1 0.060829 0.872368 0.168218
Si Si2 0.341563 0.437897 0.293895
Si Si3 0.445279 0.273125 0.166994
Si Si4 0.193772 0.427169 0.077474
Si Si5 0.646936 0.656744 0.292824
Si Si6 0.038915 0.617244 0.431050
Si Si7 0.636117 0.942942 0.304558
Si Si8 0.066121 0.013694 0.920934
O O1 0.039493 0.799858 0.149938
O O2 0.242080 0.890632 0.171679
O O3 0.000000 0.883306 0.250000
O O4 0.973105 0.917782 0.112233
O O5 0.250000 0.500000 0.277392
O O6 0.500000 0.437494 0.250000
O O7 0.243846 0.379576 0.267368
O O8 0.378960 0.431020 0.377180
O O9 0.500000 0.282010 0.250000
O O10 0.264513 0.294486 0.170116
O O11 0.543582 0.315463 0.110451
O O12 0.250000 0.500000 0.081002
O O13 0.112127 0.398399 0.148616
O O14 0.357693 0.394020 0.070579
O O15 0.097913 0.402200 0.009344
O O16 0.500000 0.683086 0.250000
O O17 0.500000 0.924116 0.250000
O O18 0.750000 0.000000 0.277332
O O19 0.538170 0.969653 0.370498
O O20 0.250000 0.000000 0.917561
O O21 0.000000 0.000000 0.000000
#
# Coordination Sequence:
#
# PCOD9420624 Si02
#       8
#     8   8   8   8   8   8   8   8
#     4  10  21  36  63  91 120 168 206 251 301 372
#     4  12  22  38  61  90 116 157 204 259 322 385
#     4  10  20  43  62  84 122 162 212 247 305 373
#     4  11  24  39  57  88 120 153 203 259 323 388
#     4  11  23  38  63  88 123 160 210 261 316 369
#     4  11  23  40  59  83 120 161 193 257 317 371
#     4  10  18  32  55  86 124 156 197 249 302 360
#     4  11  21  37  59  91 127 161 198 252 317 364
#
# _framework density 18.646377000000001
#
# number of rings (size 3 to 8) (size 9 to 14) (size 15 to 20)
#    0.000    1.250    3.750    5.250    3.500    0.500 
#    0.000    5.000    0.000    0.000    0.000    0.000 
#    0.000    0.000    0.000    0.000    0.000    0.000 
#
# Total GULP energy -356639.212284 kJ/mol
# GULP energy per Si atom -5572.487692 kJ/mol
# Density = 1.860394 g / cm^3
# Si number density = 18.646377 Si / 1000 Ang^3
#
#
#
# Elastic Constant Matrix: (Units=GPa)
#
#
# Indices 1 2 3 4 5 6 
#
# 1 90.9393 37.2184 34.6606 0.0000 0.0000 0.0000
# 2 37.2184 101.5549 31.6302 0.0000 0.0000 0.0000
# 3 34.6606 31.6302 86.9088 0.0000 0.0000 0.0000
# 4 0.0000 0.0000 0.0000 17.7072 0.0000 0.0000
# 5 0.0000 0.0000 0.0000 0.0000 39.9109 0.0000
# 6 0.0000 0.0000 0.0000 0.0000 0.0000 15.3903
#
#
#
# Elastic Compliance Matrix: (Units=1/GPa)
#
#
# Indices 1 2 3 4 5 6 
#
# 1 0.014206 -0.003882 -0.004253 0.000000 0.000000 0.000000
# 2 -0.003882 0.012166 -0.002880 0.000000 0.000000 0.000000
# 3 -0.004253 -0.002880 0.014251 0.000000 0.000000 0.000000
# 4 0.000000 0.000000 0.000000 0.056474 0.000000 0.000000
# 5 0.000000 0.000000 0.000000 0.000000 0.025056 0.000000
# 6 0.000000 0.000000 0.000000 0.000000 0.000000 0.064976
#
#
# Mechanical properties :
#
#
# Convention : Reuss Voigt Hill
#
# Bulk Modulus (GPa) = 53.78038 54.04683 53.91360
# Shear Modulus (GPa) = 23.21743 26.32794 24.77269
#
# Velocity S-wave (km/s) = 3.53249 3.76168 3.64889
# Velocity P-wave (km/s) = 6.74854 6.92207 6.83586
#
# Compressibility (1/GPa) = 0.01859414
#
# Stress axis : x y z
#
# Youngs Moduli (GPa) = 70.39329 82.19331 70.17289
#
# Poissons Ratio (x) = 0.31905 0.29843
# Poissons Ratio (y) = 0.27324 0.20209
# Poissons Ratio (z) = 0.29937 0.23671
#
# Static dielectric constant tensor:
#      x y z
#    x 1.724270 0.000000 0.000000 
#    y 0.000000 1.672990 0.000000 
#    z 0.000000 0.000000 1.705070 
# 
# From -- ./inp_files/16879.got.cif
#   From: 2010.05.17/outbox.cif.g08.bks.cpg/sg54_9_cif.got.tgz:16879.got - 2010.06.03 13:09:01.
