data_PCOD9420242
_publ_section_title
;
Structure prediction by ZEFSAII (Michael W. Deem and Ramdas Pophale) SiO2 
 PCOD9420242
Probable space group: P M N A
;
_chemical_formula_sum "Si O2"
_cell_formula_units_Z 64
_cell_length_a 9.000000
_cell_length_b 15.000000
_cell_length_c 24.000000
_cell_angle_alpha 90.000000
_cell_angle_beta 90.000000
_cell_angle_gamma 90.000000
_cell_volume 3240.000000
_symmetry_space_group_name_H-M "P M N A"
_symmetry_group_IT_number 53
_symmetry_cell_setting 'orthorhombic'
loop_
_space_group_symop_operation_xyz
x,y,z
1/2-x,-y,1/2+z
x,-y,-z
1/2-x,y,1/2-z
-x,-y,-z
1/2+x,y,1/2-z
-x,y,z
1/2+x,-y,1/2+z
loop_
_atom_site_type_symbol
_atom_site_label
_atom_site_fract_x
_atom_site_fract_y
_atom_site_fract_z
Si Si1 0.175513 0.429427 0.868689
Si Si2 0.820880 0.103207 0.611056
Si Si3 0.829137 0.156037 0.491257
Si Si4 0.326509 0.793402 0.619134
Si Si5 0.176943 0.605504 0.606085
Si Si6 0.324342 0.960537 0.690646
Si Si7 0.321735 0.248550 0.690615
Si Si8 0.170968 0.633634 0.480159
O O1 0.258222 0.522653 0.860417
O O2 0.210056 0.351419 0.824820
O O3 0.227447 0.393108 0.928942
O O4 0.000000 0.444204 0.868769
O O5 0.779893 0.101849 0.545653
O O6 0.750481 0.188246 0.642422
O O7 0.000000 0.108056 0.613866
O O8 0.757274 0.020337 0.644827
O O9 0.732030 0.155357 0.435905
O O10 0.828626 0.259646 0.511079
O O11 0.000000 0.132111 0.477466
O O12 0.500000 0.774000 0.611699
O O13 0.239873 0.700866 0.624092
O O14 0.307078 0.858476 0.671321
O O15 0.216441 0.594525 0.540213
O O16 0.000000 0.607633 0.608870
O O17 0.250000 0.976857 0.750000
O O18 0.500000 0.981814 0.692092
O O19 0.250000 0.225113 0.750000
O O20 0.500000 0.235577 0.691772
O O21 0.000000 0.606600 0.468103
#
# Coordination Sequence:
#
# PCOD9420242 Si02
#       8
#     8   8   8   8   8   8   8   8
#     4  11  22  34  53  83 115 151 196 242 290 342
#     4  11  22  39  64  91 121 157 195 240 292 355
#     4   9  19  35  58  89 124 161 196 232 289 358
#     4  10  22  40  62  88 121 155 194 248 301 349
#     4  10  21  36  57  84 116 154 195 237 288 349
#     4  11  25  44  65  90 117 152 198 248 299 352
#     4  11  24  40  58  83 117 158 201 248 298 353
#     4   9  17  32  52  80 117 155 193 231 277 342
#
# _framework density 19.753086
#
# number of rings (size 3 to 8) (size 9 to 14) (size 15 to 20)
#    0.000    1.750    1.250    3.750    0.000    9.000 
#    0.000    3.125    0.000    0.000    0.000    0.000 
#    0.000    0.000    0.000    0.000    0.000    0.000 
#
# Total GULP energy -357704.057817 kJ/mol
# GULP energy per Si atom -5589.125903 kJ/mol
# Density = 1.970813 g / cm^3
# Si number density = 19.753086 Si / 1000 Ang^3
#
#
#
# Elastic Constant Matrix: (Units=GPa)
#
#
# Indices 1 2 3 4 5 6 
#
# 1 51.2251 28.0909 11.8926 0.0000 0.0000 0.0000
# 2 28.0909 61.5188 17.0777 0.0000 0.0000 0.0000
# 3 11.8926 17.0777 21.1572 0.0000 0.0000 0.0000
# 4 0.0000 0.0000 0.0000 19.0540 0.0000 0.0000
# 5 0.0000 0.0000 0.0000 0.0000 24.2415 0.0000
# 6 0.0000 0.0000 0.0000 0.0000 0.0000 73.0774
#
#
#
# Elastic Compliance Matrix: (Units=1/GPa)
#
#
# Indices 1 2 3 4 5 6 
#
# 1 0.026755 -0.010364 -0.006673 0.000000 0.000000 0.000000
# 2 -0.010364 0.024964 -0.014325 0.000000 0.000000 0.000000
# 3 -0.006673 -0.014325 0.062579 0.000000 0.000000 0.000000
# 4 0.000000 0.000000 0.000000 0.052482 0.000000 0.000000
# 5 0.000000 0.000000 0.000000 0.000000 0.041252 0.000000
# 6 0.000000 0.000000 0.000000 0.000000 0.000000 0.013684
#
#
# Mechanical properties :
#
#
# Convention : Reuss Voigt Hill
#
# Bulk Modulus (GPa) = 19.38985 27.55817 23.47401
# Shear Modulus (GPa) = 16.57650 28.39724 22.48687
#
# Velocity S-wave (km/s) = 2.90001 3.79570 3.37768
# Velocity P-wave (km/s) = 4.58812 5.76119 5.20779
#
# Compressibility (1/GPa) = 0.05157338
#
# Stress axis : x y z
#
# Youngs Moduli (GPa) = 37.37687 40.05702 15.97979
#
# Poissons Ratio (x) = 0.41516 0.10663
# Poissons Ratio (y) = 0.38739 0.22891
# Poissons Ratio (z) = 0.24942 0.57381
#
# Static dielectric constant tensor:
#      x y z
#    x 1.657080 0.000000 0.000000 
#    y 0.000000 1.737720 0.000000 
#    z 0.000000 0.000000 1.663360 
# 
# From -- ./inp_files/34175.got.cif
#   From: 2010.05.17/outbox.ucp.g08.bks.cvg/sg53_18_cif.got.tgz:34175.got - 2010.06.11 16:32:34.
