data_PCOD9420493
_publ_section_title
;
Structure prediction by ZEFSAII (Michael W. Deem and Ramdas Pophale) SiO2 
 PCOD9420493
Probable space group: P C C A
;
_chemical_formula_sum "Si O2"
_cell_formula_units_Z 48
_cell_length_a 8.067451
_cell_length_b 16.684098
_cell_length_c 15.925401
_cell_angle_alpha 90.000000
_cell_angle_beta 90.000000
_cell_angle_gamma 90.000000
_cell_volume 2143.529403
_symmetry_space_group_name_H-M "P C C A"
_symmetry_group_IT_number 54
_symmetry_cell_setting 'orthorhombic'
loop_
_space_group_symop_operation_xyz
x,y,z
1/2-x,-y,z
1/2+x,-y,1/2-z
-x,y,1/2-z
-x,-y,-z
1/2+x,y,-z
1/2-x,y,1/2+z
x,-y,1/2+z
loop_
_atom_site_type_symbol
_atom_site_label
_atom_site_fract_x
_atom_site_fract_y
_atom_site_fract_z
Si Si1 0.750000 0.000000 0.387346
Si Si2 0.785351 0.671025 0.460650
Si Si3 0.228330 0.162067 0.307496
Si Si4 0.500000 0.043239 0.250000
Si Si5 0.878881 0.167180 0.387180
Si Si6 0.500000 0.446150 0.250000
Si Si7 0.750000 0.500000 0.382168
Si Si8 0.359977 0.676518 0.870165
O O1 0.717790 0.911208 0.426952
O O2 0.906025 0.000409 0.324375
O O3 0.680594 0.749843 0.431221
O O4 0.726686 0.582537 0.432356
O O5 0.782471 0.666886 0.561065
O O6 0.966722 0.676696 0.420031
O O7 0.356427 0.089922 0.299708
O O8 0.171501 0.173428 0.211023
O O9 0.336566 0.238385 0.329217
O O10 0.078117 0.156428 0.374840
O O11 0.591735 0.493528 0.321918
O O12 0.631470 0.389428 0.202220
#
# Coordination Sequence:
#
# PCOD9420493 Si02
#       8
#     4   8   8   4   8   4   4   8
#     4  10  18  32  56  86 126 160 208 260 308 370
#     4  11  24  40  61  90 124 161 205 256 320 375
#     4  10  19  34  59  87 122 162 213 258 308 372
#     4  10  17  30  53  86 122 164 208 262 306 358
#     4  10  21  36  59  90 121 165 210 260 316 369
#     4  10  23  40  63  90 122 166 210 256 306 366
#     4  10  24  42  62  94 126 160 208 256 308 370
#     4  11  22  40  63  90 125 165 209 257 312 375
#
# _framework density 22.392973000000001
#
# number of rings (size 3 to 8) (size 9 to 14) (size 15 to 20)
#    0.000    1.667    0.000    7.500    0.000    7.333 
#    0.000    0.000    0.000   13.000    0.000    0.000 
#    0.000    0.000    0.000    0.000    0.000    0.000 
#
# Total GULP energy -267773.860438 kJ/mol
# GULP energy per Si atom -5578.622092 kJ/mol
# Density = 2.234201 g / cm^3
# Si number density = 22.392973 Si / 1000 Ang^3
#
#
#
# Elastic Constant Matrix: (Units=GPa)
#
#
# Indices 1 2 3 4 5 6 
#
# 1 47.6402 17.2015 -3.7719 0.0000 0.0000 0.0000
# 2 17.2015 146.6048 22.4876 0.0000 0.0000 0.0000
# 3 -3.7719 22.4876 41.0844 0.0000 0.0000 0.0000
# 4 0.0000 0.0000 0.0000 -0.1748 0.0000 0.0000
# 5 0.0000 0.0000 0.0000 0.0000 15.3402 0.0000
# 6 0.0000 0.0000 0.0000 0.0000 0.0000 5.3011
#
#
#
# Elastic Compliance Matrix: (Units=1/GPa)
#
#
# Indices 1 2 3 4 5 6 
#
# 1 0.022457 -0.003222 0.003825 0.000000 0.000000 0.000000
# 2 -0.003222 0.007908 -0.004624 0.000000 0.000000 0.000000
# 3 0.003825 -0.004624 0.027223 0.000000 0.000000 0.000000
# 4 0.000000 0.000000 0.000000 -5.722013 0.000000 0.000000
# 5 0.000000 0.000000 0.000000 0.000000 0.065188 0.000000
# 6 0.000000 0.000000 0.000000 0.000000 0.000000 0.188641
#
#
# Mechanical properties :
#
#
# Convention : Reuss Voigt Hill
#
# Bulk Modulus (GPa) = 20.18341 34.12932 27.15637
# Shear Modulus (GPa) = -0.92833 17.38744 8.22956
#
# Velocity S-wave (km/s) = -0.64456 2.78954 1.91913
# Velocity P-wave (km/s) = 2.91185 5.06454 4.13089
#
# Compressibility (1/GPa) = 0.04954563
#
# Stress axis : x y z
#
# Youngs Moduli (GPa) = 44.53005 126.44780 36.73432
#
# Poissons Ratio (x) = 0.40737 -0.14051
# Poissons Ratio (y) = 0.14346 0.16988
# Poissons Ratio (z) = -0.17033 0.58475
#
# Static dielectric constant tensor:
#      x y z
#    x 1.887000 0.000000 0.000000 
#    y 0.000000 2.108050 0.000000 
#    z 0.000000 0.000000 1.792400 
# 
# From -- ./inp_files/16722.got.cif
#   From: 2010.05.17/outbox.cif.g08.bks.cpg/sg54_9_cif.got.tgz:16722.got - 2010.06.03 13:09:01.
