data_PCOD9420253
_publ_section_title
;
Structure prediction by ZEFSAII (Michael W. Deem and Ramdas Pophale) SiO2 
 PCOD9420253
Probable space group: P M N A
;
_chemical_formula_sum "Si O2"
_cell_formula_units_Z 64
_cell_length_a 9.000000
_cell_length_b 24.000000
_cell_length_c 15.000000
_cell_angle_alpha 90.000000
_cell_angle_beta 90.000000
_cell_angle_gamma 90.000000
_cell_volume 3240.000000
_symmetry_space_group_name_H-M "P M N A"
_symmetry_group_IT_number 53
_symmetry_cell_setting 'orthorhombic'
loop_
_space_group_symop_operation_xyz
x,y,z
1/2-x,-y,1/2+z
x,-y,-z
1/2-x,y,1/2-z
-x,-y,-z
1/2+x,y,1/2-z
-x,y,z
1/2+x,-y,1/2+z
loop_
_atom_site_type_symbol
_atom_site_label
_atom_site_fract_x
_atom_site_fract_y
_atom_site_fract_z
Si Si1 0.828313 0.368371 0.331118
Si Si2 0.178139 0.266406 0.594978
Si Si3 0.177645 0.144344 0.341275
Si Si4 0.173514 0.375241 0.834094
Si Si5 0.822634 0.259948 0.098209
Si Si6 0.321912 0.858008 0.158000
Si Si7 0.833329 0.565365 0.485480
Si Si8 0.180147 0.937355 0.498617
O O1 0.750000 0.399644 0.250000
O O2 0.736211 0.312077 0.346185
O O3 0.822517 0.403628 0.420793
O O4 0.000000 0.355616 0.312028
O O5 0.241834 0.316798 0.651960
O O6 0.258705 0.269570 0.500322
O O7 0.213351 0.205969 0.634915
O O8 0.000000 0.271050 0.584131
O O9 0.250000 0.126082 0.250000
O O10 0.250908 0.202895 0.367543
O O11 0.212056 0.097767 0.413870
O O12 0.000000 0.151537 0.335570
O O13 0.250000 0.403975 0.750000
O O14 0.209305 0.411143 0.920699
O O15 0.000000 0.366265 0.821255
O O16 0.000000 0.256793 0.099081
O O17 0.250000 0.873684 0.250000
O O18 0.500000 0.861449 0.162385
O O19 0.266357 0.899827 0.082713
O O20 0.821261 0.500000 0.500000
O O21 0.000000 0.577751 0.448625
O O22 0.000000 0.940097 0.491394
O O23 0.237611 0.000000 0.500000
#
# Coordination Sequence:
#
# PCOD9420253 Si02
#       8
#     8   8   8   8   8   8   8   8
#     4  11  23  40  64  91 126 162 201 251 303 364
#     4  11  21  38  62  90 124 160 199 247 307 370
#     4  11  22  39  61  88 121 158 201 248 302 361
#     4  12  25  41  64  94 127 166 207 253 307 366
#     4  12  23  37  61  92 124 158 199 246 305 368
#     4  10  21  37  59  88 118 155 195 240 297 356
#     4  10  23  44  67  91 123 165 209 258 310 360
#     4   9  19  38  61  83 114 159 204 246 299 360
#
# _framework density 19.753086
#
# number of rings (size 3 to 8) (size 9 to 14) (size 15 to 20)
#    0.000    1.250    2.500    4.125    0.000    3.750 
#    0.000    1.250    0.000    2.625    0.000    0.000 
#    0.000    0.000    0.000    0.000    0.000    0.000 
#
# Total GULP energy -357542.324792 kJ/mol
# GULP energy per Si atom -5586.598825 kJ/mol
# Density = 1.970813 g / cm^3
# Si number density = 19.753086 Si / 1000 Ang^3
#
#
#
# Elastic Constant Matrix: (Units=GPa)
#
#
# Indices 1 2 3 4 5 6 
#
# 1 98.8524 40.1482 53.2867 0.0000 0.0000 0.0000
# 2 40.1482 95.9751 30.2179 0.0000 0.0000 0.0000
# 3 53.2867 30.2179 119.4516 0.0000 0.0000 0.0000
# 4 0.0000 0.0000 0.0000 -249.0768 0.0000 0.0000
# 5 0.0000 0.0000 0.0000 0.0000 34.6179 0.0000
# 6 0.0000 0.0000 0.0000 0.0000 0.0000 -26.1806
#
#
#
# Elastic Compliance Matrix: (Units=1/GPa)
#
#
# Indices 1 2 3 4 5 6 
#
# 1 0.014919 -0.004504 -0.005516 0.000000 0.000000 0.000000
# 2 -0.004504 0.012681 -0.001199 0.000000 0.000000 0.000000
# 3 -0.005516 -0.001199 0.011135 0.000000 0.000000 0.000000
# 4 0.000000 0.000000 0.000000 -0.004015 0.000000 0.000000
# 5 0.000000 0.000000 0.000000 0.000000 0.028887 0.000000
# 6 0.000000 0.000000 0.000000 0.000000 0.000000 -0.038196
#
#
# Mechanical properties :
#
#
# Convention : Reuss Voigt Hill
#
# Bulk Modulus (GPa) = 61.35741 62.39829 61.87785
# Shear Modulus (GPa) = 93.84316 -35.41947 29.21185
#
# Velocity S-wave (km/s) = 6.90009 -4.23911 3.84975
# Velocity P-wave (km/s) = 9.72683 2.77447 7.15224
#
# Compressibility (1/GPa) = 0.01629795
#
# Stress axis : x y z
#
# Youngs Moduli (GPa) = 67.03008 78.85860 89.80409
#
# Poissons Ratio (x) = 0.35519 0.49533
# Poissons Ratio (y) = 0.30191 0.10764
# Poissons Ratio (z) = 0.36972 0.09452
#
# Static dielectric constant tensor:
#      x y z
#    x 1.661160 0.000000 0.000000 
#    y 0.000000 1.705880 0.000000 
#    z 0.000000 0.000000 1.752220 
# 
# From -- ./inp_files/20804.got.cif
#   From: 2010.05.17/outbox.ucp.g08.bks.cvg/sg53_11_cif.got.tgz:20804.got - 2010.06.11 16:32:34.
