data_PCOD9420806
_publ_section_title
;
Structure prediction by ZEFSAII (Michael W. Deem and Ramdas Pophale) SiO2 
 PCOD9420806
Probable space group: P C C A
;
_chemical_formula_sum "Si O2"
_cell_formula_units_Z 40
_cell_length_a 8.655377
_cell_length_b 8.792674
_cell_length_c 24.955571
_cell_angle_alpha 90.000000
_cell_angle_beta 90.000000
_cell_angle_gamma 90.000000
_cell_volume 1899.216487
_symmetry_space_group_name_H-M "P C C A"
_symmetry_group_IT_number 54
_symmetry_cell_setting 'orthorhombic'
loop_
_space_group_symop_operation_xyz
x,y,z
1/2-x,-y,z
1/2+x,-y,1/2-z
-x,y,1/2-z
-x,-y,-z
1/2+x,y,-z
1/2-x,y,1/2+z
x,-y,1/2+z
loop_
_atom_site_type_symbol
_atom_site_label
_atom_site_fract_x
_atom_site_fract_y
_atom_site_fract_z
Si Si1 0.750000 0.500000 0.358560
Si Si2 0.207700 0.820597 0.460207
Si Si3 0.349285 0.230699 0.212408
Si Si4 0.449835 0.271585 0.568250
Si Si5 0.250000 0.000000 0.290897
Si Si6 0.982834 0.043070 0.875785
O O1 0.831933 0.609955 0.316057
O O2 0.629339 0.597434 0.395363
O O3 0.135529 0.736665 0.511098
O O4 0.362852 0.733308 0.440608
O O5 0.073967 0.842797 0.415711
O O6 0.250000 0.000000 0.472638
O O7 0.500000 0.230917 0.250000
O O8 0.360583 0.127748 0.159893
O O9 0.232287 0.146709 0.252497
O O10 0.425920 0.104465 0.593630
O O11 0.107590 0.003590 0.331111
#
# Coordination Sequence:
#
# PCOD9420806 Si02
#       6
#     4   8   8   8   4   8
#     4  12  28  42  58  94 136 184 212 254 336 392
#     4  10  21  40  67 100 123 164 217 279 322 379
#     4  10  24  41  63  94 127 169 217 265 320 391
#     4  11  24  40  66  94 135 165 218 261 329 397
#     4  10  18  40  70  98 120 156 224 280 326 372
#     4  10  19  41  70  98 120 163 223 278 334 366
#
# _framework density 21.061316000000001
#
# number of rings (size 3 to 8) (size 9 to 14) (size 15 to 20)
#    0.000    1.600    3.000    3.600    5.600    2.400 
#    0.000    0.000    0.000    0.000    0.000    0.000 
#    0.000    0.000    0.000    0.000    0.000    0.000 
#
# Total GULP energy -222958.501244 kJ/mol
# GULP energy per Si atom -5573.962531 kJ/mol
# Density = 2.101338 g / cm^3
# Si number density = 21.061316 Si / 1000 Ang^3
#
#
#
# Elastic Constant Matrix: (Units=GPa)
#
#
# Indices 1 2 3 4 5 6 
#
# 1 47.4765 9.4992 25.9949 0.0000 0.0000 0.0000
# 2 9.4992 54.5306 34.7007 0.0000 0.0000 0.0000
# 3 25.9949 34.7007 140.1663 0.0000 0.0000 0.0000
# 4 0.0000 0.0000 0.0000 -62.2981 0.0000 0.0000
# 5 0.0000 0.0000 0.0000 0.0000 34.0283 0.0000
# 6 0.0000 0.0000 0.0000 0.0000 0.0000 25.2005
#
#
#
# Elastic Compliance Matrix: (Units=1/GPa)
#
#
# Indices 1 2 3 4 5 6 
#
# 1 0.023556 -0.001571 -0.003980 0.000000 0.000000 0.000000
# 2 -0.001571 0.021872 -0.005124 0.000000 0.000000 0.000000
# 3 -0.003980 -0.005124 0.009141 0.000000 0.000000 0.000000
# 4 0.000000 0.000000 0.000000 -0.016052 0.000000 0.000000
# 5 0.000000 0.000000 0.000000 0.000000 0.029387 0.000000
# 6 0.000000 0.000000 0.000000 0.000000 0.000000 0.039682
#
#
# Mechanical properties :
#
#
# Convention : Reuss Voigt Hill
#
# Bulk Modulus (GPa) = 30.10135 42.50700 36.30417
# Shear Modulus (GPa) = 35.71195 10.85140 23.28167
#
# Velocity S-wave (km/s) = 4.12226 2.27233 3.32840
# Velocity P-wave (km/s) = 6.08117 5.20682 5.66090
#
# Compressibility (1/GPa) = 0.03322110
#
# Stress axis : x y z
#
# Youngs Moduli (GPa) = 42.45118 45.71982 109.39849
#
# Poissons Ratio (x) = 0.07182 0.43539
# Poissons Ratio (y) = 0.06669 0.56051
# Poissons Ratio (z) = 0.16895 0.23425
#
# Static dielectric constant tensor:
#      x y z
#    x 0.872050 0.000000 0.000000 
#    y 0.000000 1.573160 0.000000 
#    z 0.000000 0.000000 1.728570 
# 
# From -- ./inp_files/23292.got.cif
#   From: 2010.05.17/outbox.cif.g08.bks.cpg/sg54_12_cif.got.tgz:23292.got - 2010.06.03 13:09:01.
