data_PCOD9420839
_publ_section_title
;
Structure prediction by ZEFSAII (Michael W. Deem and Ramdas Pophale) SiO2 
 PCOD9420839
Probable space group: P C C A
;
_chemical_formula_sum "Si O2"
_cell_formula_units_Z 60
_cell_length_a 27.134475
_cell_length_b 21.404149
_cell_length_c 5.428825
_cell_angle_alpha 90.000000
_cell_angle_beta 90.000000
_cell_angle_gamma 90.000000
_cell_volume 3153.009150
_symmetry_space_group_name_H-M "P C C A"
_symmetry_group_IT_number 54
_symmetry_cell_setting 'orthorhombic'
loop_
_space_group_symop_operation_xyz
x,y,z
1/2-x,-y,z
1/2+x,-y,1/2-z
-x,y,1/2-z
-x,-y,-z
1/2+x,y,-z
1/2-x,y,1/2+z
x,-y,1/2+z
loop_
_atom_site_type_symbol
_atom_site_label
_atom_site_fract_x
_atom_site_fract_y
_atom_site_fract_z
Si Si1 0.116637 0.960946 0.691288
Si Si2 0.000000 0.251423 0.250000
Si Si3 0.378609 0.217615 0.135117
Si Si4 0.776250 0.099150 0.373138
Si Si5 0.922464 0.835892 0.882408
Si Si6 0.447954 0.671205 0.610579
Si Si7 0.943129 0.524936 0.472319
Si Si8 0.763262 0.239314 0.887142
O O1 0.168494 0.923311 0.671475
O O2 0.074061 0.909434 0.658813
O O3 0.114915 0.007245 0.458489
O O4 0.027442 0.202959 0.070833
O O5 0.040827 0.299062 0.345481
O O6 0.390381 0.175497 0.372823
O O7 0.403561 0.284894 0.198894
O O8 0.400564 0.190473 0.878100
O O9 0.320422 0.222506 0.104915
O O10 0.743765 0.077243 0.138895
O O11 0.768747 0.174642 0.378932
O O12 0.500000 0.681417 0.750000
O O13 0.440563 0.597679 0.594435
O O14 0.921112 0.512168 0.741062
O O15 0.000000 0.500000 0.500000
O O16 0.748389 0.273737 0.134804
#
# Coordination Sequence:
#
# PCOD9420839 Si02
#       8
#     8   4   8   8   8   8   8   8
#     4  12  25  39  54  76 102 132 175 225 281 354
#     4  10  22  36  58  82 106 152 190 242 276 332
#     4  11  22  36  60  84 113 148 184 235 283 333
#     4  10  19  33  52  72  98 125 161 203 270 338
#     4  11  22  39  57  78 109 138 186 231 291 331
#     4  11  20  34  55  88 120 152 196 227 267 329
#     4  10  19  30  50  76 121 164 183 214 270 309
#     4  10  19  34  55  77 107 141 176 219 285 340
#
# _framework density 19.029440000000001
#
# number of rings (size 3 to 8) (size 9 to 14) (size 15 to 20)
#    0.000    1.333    2.667    6.400    0.000    1.600 
#    0.000    0.667    0.000    0.000    0.000    0.000 
#    0.000    3.200    0.000    0.000    0.000    0.000 
#
# Total GULP energy -334434.674068 kJ/mol
# GULP energy per Si atom -5573.911234 kJ/mol
# Density = 1.898613 g / cm^3
# Si number density = 19.029440 Si / 1000 Ang^3
#
#
#
# Elastic Constant Matrix: (Units=GPa)
#
#
# Indices 1 2 3 4 5 6 
#
# 1 21.1029 14.4589 4.3179 0.0000 0.0000 0.0000
# 2 14.4589 75.4157 1.4767 0.0000 0.0000 0.0000
# 3 4.3179 1.4767 125.5460 0.0000 0.0000 0.0000
# 4 0.0000 0.0000 0.0000 22.9254 0.0000 0.0000
# 5 0.0000 0.0000 0.0000 0.0000 21.6745 0.0000
# 6 0.0000 0.0000 0.0000 0.0000 0.0000 12.9994
#
#
#
# Elastic Compliance Matrix: (Units=1/GPa)
#
#
# Indices 1 2 3 4 5 6 
#
# 1 0.054942 -0.010499 -0.001766 0.000000 0.000000 0.000000
# 2 -0.010499 0.015269 0.000181 0.000000 0.000000 0.000000
# 3 -0.001766 0.000181 0.008024 0.000000 0.000000 0.000000
# 4 0.000000 0.000000 0.000000 0.043620 0.000000 0.000000
# 5 0.000000 0.000000 0.000000 0.000000 0.046137 0.000000
# 6 0.000000 0.000000 0.000000 0.000000 0.000000 0.076927
#
#
# Mechanical properties :
#
#
# Convention : Reuss Voigt Hill
#
# Bulk Modulus (GPa) = 18.49541 29.17462 23.83501
# Shear Modulus (GPa) = 17.41506 24.97393 21.19450
#
# Velocity S-wave (km/s) = 3.02845 3.62661 3.34095
# Velocity P-wave (km/s) = 4.68713 5.73594 5.23785
#
# Compressibility (1/GPa) = 0.05406747
#
# Stress axis : x y z
#
# Youngs Moduli (GPa) = 18.20114 65.49141 124.62904
#
# Poissons Ratio (x) = 0.68759 0.22011
# Poissons Ratio (y) = 0.19109 -0.02262
# Poissons Ratio (z) = 0.03215 -0.01189
#
# Static dielectric constant tensor:
#      x y z
#    x 1.664240 0.000000 0.000000 
#    y 0.000000 1.647190 0.000000 
#    z 0.000000 0.000000 1.317150 
# 
# From -- ./inp_files/2220.got.cif
#   From: 2010.05.17/outbox.cif.g08.bks.cpg/sg54_2_cif.got.tgz:2220.got - 2010.06.03 13:09:01.
