data_PCOD9420618
_publ_section_title
;
Structure prediction by ZEFSAII (Michael W. Deem and Ramdas Pophale) SiO2 
 PCOD9420618
Probable space group: P C C A
;
_chemical_formula_sum "Si O2"
_cell_formula_units_Z 56
_cell_length_a 24.172424
_cell_length_b 16.735089
_cell_length_c 5.437604
_cell_angle_alpha 90.000000
_cell_angle_beta 90.000000
_cell_angle_gamma 90.000000
_cell_volume 2199.661260
_symmetry_space_group_name_H-M "P C C A"
_symmetry_group_IT_number 54
_symmetry_cell_setting 'orthorhombic'
loop_
_space_group_symop_operation_xyz
x,y,z
1/2-x,-y,z
1/2+x,-y,1/2-z
-x,y,1/2-z
-x,-y,-z
1/2+x,y,-z
1/2-x,y,1/2+z
x,-y,1/2+z
loop_
_atom_site_type_symbol
_atom_site_label
_atom_site_fract_x
_atom_site_fract_y
_atom_site_fract_z
Si Si1 0.889595 0.809781 0.453421
Si Si2 0.729745 0.209819 0.623131
Si Si3 0.842285 0.971513 0.337881
Si Si4 0.500000 0.446477 0.750000
Si Si5 0.500000 0.198637 0.250000
Si Si6 0.616644 0.448067 0.831490
Si Si7 0.553464 0.079456 0.858026
Si Si8 0.768158 0.612771 0.698499
O O1 0.834499 0.772104 0.566637
O O2 0.860293 0.879637 0.286245
O O3 0.942379 0.760845 0.345530
O O4 0.918058 0.861149 0.665602
O O5 0.758408 0.170109 0.386406
O O6 0.755404 0.298208 0.657222
O O7 0.814551 0.983378 0.607675
O O8 0.899525 0.016431 0.415083
O O9 0.500000 0.500000 0.500000
O O10 0.558494 0.402696 0.780482
O O11 0.472665 0.139027 0.445793
O O12 0.617871 0.512676 0.604727
O O13 0.669999 0.393991 0.798310
O O14 0.500000 0.035088 0.750000
O O15 0.767708 0.577614 0.422843
#
# Coordination Sequence:
#
# PCOD9420618 Si02
#       8
#     8   8   8   4   4   8   8   8
#     4  10  21  34  57  81 111 144 190 231 285 346
#     4  10  24  43  65  78 103 155 207 244 275 337
#     4  10  19  30  48  77 111 136 172 220 276 352
#     4   8  16  30  48  77 115 158 192 202 246 332
#     4  10  18  32  54  87 117 144 170 230 298 358
#     4  10  19  32  57  88 123 155 183 226 275 336
#     4   9  19  30  49  82 116 144 172 218 290 360
#     4  10  21  38  58  86 113 146 194 242 288 325
#
# _framework density 25.458465
#
# number of rings (size 3 to 8) (size 9 to 14) (size 15 to 20)
#    0.000    2.286    1.429    0.857    3.000    3.429 
#    0.000    0.000    4.714   13.714    0.000    0.000 
#    0.000    0.000    0.000    0.000    0.000    0.000 
#
# Total GULP energy -311987.018321 kJ/mol
# GULP energy per Si atom -5571.196756 kJ/mol
# Density = 2.540052 g / cm^3
# Si number density = 25.458465 Si / 1000 Ang^3
#
#
#
# Elastic Constant Matrix: (Units=GPa)
#
#
# Indices 1 2 3 4 5 6 
#
# 1 147.5806 -9.5972 19.5376 0.0000 0.0000 0.0000
# 2 -9.5972 16.7468 -2.8594 0.0000 0.0000 0.0000
# 3 19.5376 -2.8594 154.3830 0.0000 0.0000 0.0000
# 4 0.0000 0.0000 0.0000 13.0333 0.0000 0.0000
# 5 0.0000 0.0000 0.0000 0.0000 30.8822 0.0000
# 6 0.0000 0.0000 0.0000 0.0000 0.0000 13.7989
#
#
#
# Elastic Compliance Matrix: (Units=1/GPa)
#
#
# Indices 1 2 3 4 5 6 
#
# 1 0.007143 0.003952 -0.000831 0.000000 0.000000 0.000000
# 2 0.003952 0.062088 0.000650 0.000000 0.000000 0.000000
# 3 -0.000831 0.000650 0.006595 0.000000 0.000000 0.000000
# 4 0.000000 0.000000 0.000000 0.076726 0.000000 0.000000
# 5 0.000000 0.000000 0.000000 0.000000 0.032381 0.000000
# 6 0.000000 0.000000 0.000000 0.000000 0.000000 0.072469
#
#
# Mechanical properties :
#
#
# Convention : Reuss Voigt Hill
#
# Bulk Modulus (GPa) = 11.99509 36.98581 24.49045
# Shear Modulus (GPa) = 18.00824 32.31818 25.16321
#
# Velocity S-wave (km/s) = 2.66251 3.56680 3.14730
# Velocity P-wave (km/s) = 3.76481 5.61446 4.77995
#
# Compressibility (1/GPa) = 0.08336743
#
# Stress axis : x y z
#
# Youngs Moduli (GPa) = 139.99884 16.10605 151.63994
#
# Poissons Ratio (x) = -0.06364 0.12598
# Poissons Ratio (y) = -0.55322 -0.09855
# Poissons Ratio (z) = 0.11631 -0.01047
#
# Static dielectric constant tensor:
#      x y z
#    x 2.097140 0.000000 0.000000 
#    y 0.000000 2.012440 0.000000 
#    z 0.000000 0.000000 2.234480 
# 
# From -- ./inp_files/1444.got.cif
#   From: 2010.05.17/outbox.cif.g08.bks.cpg/sg54_1_cif.got.tgz:1444.got - 2010.06.03 13:09:01.
