data_PCOD9420221
_publ_section_title
;
Structure prediction by ZEFSAII (Michael W. Deem and Ramdas Pophale) SiO2 
 PCOD9420221
Probable space group: P M N A
;
_chemical_formula_sum "Si O2"
_cell_formula_units_Z 40
_cell_length_a 9.000000
_cell_length_b 24.000000
_cell_length_c 9.000000
_cell_angle_alpha 90.000000
_cell_angle_beta 90.000000
_cell_angle_gamma 90.000000
_cell_volume 1944.000000
_symmetry_space_group_name_H-M "P M N A"
_symmetry_group_IT_number 53
_symmetry_cell_setting 'orthorhombic'
loop_
_space_group_symop_operation_xyz
x,y,z
1/2-x,-y,1/2+z
x,-y,-z
1/2-x,y,1/2-z
-x,-y,-z
1/2+x,y,1/2-z
-x,y,z
1/2+x,-y,1/2+z
loop_
_atom_site_type_symbol
_atom_site_label
_atom_site_fract_x
_atom_site_fract_y
_atom_site_fract_z
Si Si1 0.833596 0.447851 0.605194
Si Si2 0.680056 0.824410 0.586094
Si Si3 0.323661 0.638451 0.596284
Si Si4 0.831721 0.948253 0.894940
Si Si5 0.677758 0.730894 0.093380
O O1 0.850251 0.500000 0.500000
O O2 0.750000 0.467617 0.750000
O O3 0.722506 0.405183 0.528436
O O4 0.000000 0.423982 0.631597
O O5 0.750000 0.811898 0.750000
O O6 0.500000 0.815518 0.588347
O O7 0.721456 0.888431 0.551748
O O8 0.756280 0.789729 0.455866
O O9 0.250000 0.620182 0.750000
O O10 0.500000 0.645652 0.609604
O O11 0.239760 0.693152 0.540263
O O12 0.750000 0.965588 0.750000
O O13 0.000000 0.936985 0.852572
O O14 0.823754 0.000000 0.000000
O O15 0.750000 0.712983 0.250000
O O16 0.500000 0.729519 0.102063
#
# Coordination Sequence:
#
# PCOD9420221 Si02
#       5
#     8   8   8   8   8
#     4  11  24  42  65  94 128 165 205 249 298 351
#     4  10  20  37  59  84 115 152 195 240 290 348
#     4  12  25  43  66  92 123 159 201 246 296 352
#     4   9  19  35  55  81 113 149 190 236 286 343
#     4  12  25  42  62  87 119 154 195 242 296 352
#
# _framework density 20.576132000000001
#
# number of rings (size 3 to 8) (size 9 to 14) (size 15 to 20)
#    0.000    1.200    0.000    6.600    0.000    5.200 
#    0.000    2.000    0.000    0.000    0.000    0.000 
#    0.000    0.000    0.000    0.000    0.000    0.000 
#
# Total GULP energy -223068.314259 kJ/mol
# GULP energy per Si atom -5576.707856 kJ/mol
# Density = 2.052930 g / cm^3
# Si number density = 20.576132 Si / 1000 Ang^3
#
#
#
# Elastic Constant Matrix: (Units=GPa)
#
#
# Indices 1 2 3 4 5 6 
#
# 1 151.4248 5.0931 54.1377 0.0000 0.0000 0.0000
# 2 5.0931 80.2321 22.8748 0.0000 0.0000 0.0000
# 3 54.1377 22.8748 49.1745 0.0000 0.0000 0.0000
# 4 0.0000 0.0000 0.0000 -142.1546 0.0000 0.0000
# 5 0.0000 0.0000 0.0000 0.0000 12.1033 0.0000
# 6 0.0000 0.0000 0.0000 0.0000 0.0000 5.6208
#
#
#
# Elastic Compliance Matrix: (Units=1/GPa)
#
#
# Indices 1 2 3 4 5 6 
#
# 1 0.011625 0.003356 -0.014359 0.000000 0.000000 0.000000
# 2 0.003356 0.015338 -0.010830 0.000000 0.000000 0.000000
# 3 -0.014359 -0.010830 0.041182 0.000000 0.000000 0.000000
# 4 0.000000 0.000000 0.000000 -0.007035 0.000000 0.000000
# 5 0.000000 0.000000 0.000000 0.000000 0.082622 0.000000
# 6 0.000000 0.000000 0.000000 0.000000 0.000000 0.177911
#
#
# Mechanical properties :
#
#
# Convention : Reuss Voigt Hill
#
# Bulk Modulus (GPa) = 40.85100 49.44919 45.15009
# Shear Modulus (GPa) = 13.38798 -11.63771 0.87514
#
# Velocity S-wave (km/s) = 2.55356 -2.38080 0.65287
# Velocity P-wave (km/s) = 5.34705 4.06533 4.74962
#
# Compressibility (1/GPa) = 0.02447920
#
# Stress axis : x y z
#
# Youngs Moduli (GPa) = 86.02318 65.19560 24.28250
#
# Poissons Ratio (x) = -0.21879 0.34868
# Poissons Ratio (y) = -0.28869 0.26297
# Poissons Ratio (z) = 1.23522 0.70605
#
# Static dielectric constant tensor:
#      x y z
#    x 1.741470 0.000000 0.000000 
#    y 0.000000 1.752080 0.000000 
#    z 0.000000 0.000000 1.279220 
# 
# From -- ./inp_files/6252.got.cif
#   From: 2010.05.17/outbox.ucp.g08.bks.cvg/sg53_4_cif.got.tgz:6252.got - 2010.06.11 16:32:34.
