data_PCOD9420737
_publ_section_title
;
Structure prediction by ZEFSAII (Michael W. Deem and Ramdas Pophale) SiO2 
 PCOD9420737
Probable space group: P C C A
;
_chemical_formula_sum "Si O2"
_cell_formula_units_Z 44
_cell_length_a 10.807572
_cell_length_b 11.910217
_cell_length_c 13.590119
_cell_angle_alpha 90.000000
_cell_angle_beta 90.000000
_cell_angle_gamma 90.000000
_cell_volume 1749.327290
_symmetry_space_group_name_H-M "P C C A"
_symmetry_group_IT_number 54
_symmetry_cell_setting 'orthorhombic'
loop_
_space_group_symop_operation_xyz
x,y,z
1/2-x,-y,z
1/2+x,-y,1/2-z
-x,y,1/2-z
-x,-y,-z
1/2+x,y,-z
1/2-x,y,1/2+z
x,-y,1/2+z
loop_
_atom_site_type_symbol
_atom_site_label
_atom_site_fract_x
_atom_site_fract_y
_atom_site_fract_z
Si Si1 0.980189 0.636809 0.409451
Si Si2 0.850602 0.114136 0.397139
Si Si3 0.905080 0.116502 0.834045
Si Si4 0.142515 0.563639 0.706162
Si Si5 0.764482 0.675008 0.997229
Si Si6 0.000000 0.240228 0.250000
O O1 0.951733 0.760253 0.363922
O O2 0.947107 0.530901 0.340720
O O3 0.879982 0.640242 0.499997
O O4 0.124139 0.632561 0.435583
O O5 0.742269 0.124209 0.312637
O O6 0.794132 0.191057 0.483527
O O7 0.967170 0.171875 0.346140
O O8 0.890621 0.985514 0.413301
O O9 0.000000 0.077885 0.750000
O O10 0.250000 0.500000 0.760303
O O11 0.199635 0.623288 0.609654
O O12 0.103632 0.667450 0.772087
#
# Coordination Sequence:
#
# PCOD9420737 Si02
#       6
#     8   8   8   8   8   4
#     4  10  20  36  56  83 113 149 185 234 278 336
#     4   9  19  37  58  79 112 152 181 235 287 328
#     4  10  20  36  58  81 116 146 186 236 283 334
#     4   9  19  35  55  78 113 148 183 233 283 332
#     4   9  19  37  57  77 112 149 188 224 286 330
#     4  10  18  36  58  80 108 150 190 222 282 348
#
# _framework density 25.152526000000002
#
# number of rings (size 3 to 8) (size 9 to 14) (size 15 to 20)
#    0.000    2.545    0.909    1.636    1.273    0.727 
#    6.545    0.000    0.000    0.000    0.000    0.000 
#    0.000    0.000    0.000    0.000    0.000    0.000 
#
# Total GULP energy -244951.062550 kJ/mol
# GULP energy per Si atom -5567.069603 kJ/mol
# Density = 2.509528 g / cm^3
# Si number density = 25.152526 Si / 1000 Ang^3
#
#
#
# Elastic Constant Matrix: (Units=GPa)
#
#
# Indices 1 2 3 4 5 6 
#
# 1 77.1444 12.5811 22.9044 0.0000 0.0000 0.0000
# 2 12.5811 160.3137 14.2211 0.0000 0.0000 0.0000
# 3 22.9044 14.2211 34.9186 0.0000 0.0000 0.0000
# 4 0.0000 0.0000 0.0000 7.9735 0.0000 0.0000
# 5 0.0000 0.0000 0.0000 0.0000 20.5130 0.0000
# 6 0.0000 0.0000 0.0000 0.0000 0.0000 38.0302
#
#
#
# Elastic Compliance Matrix: (Units=1/GPa)
#
#
# Indices 1 2 3 4 5 6 
#
# 1 0.016115 -0.000339 -0.010433 0.000000 0.000000 0.000000
# 2 -0.000339 0.006479 -0.002416 0.000000 0.000000 0.000000
# 3 -0.010433 -0.002416 0.036465 0.000000 0.000000 0.000000
# 4 0.000000 0.000000 0.000000 0.125415 0.000000 0.000000
# 5 0.000000 0.000000 0.000000 0.000000 0.048750 0.000000
# 6 0.000000 0.000000 0.000000 0.000000 0.000000 0.026295
#
#
# Mechanical properties :
#
#
# Convention : Reuss Voigt Hill
#
# Bulk Modulus (GPa) = 30.59638 41.30998 35.95318
# Shear Modulus (GPa) = 16.84701 28.14801 22.49751
#
# Velocity S-wave (km/s) = 2.59085 3.34891 2.99397
# Velocity P-wave (km/s) = 4.59790 5.60474 5.12610
#
# Compressibility (1/GPa) = 0.03268361
#
# Stress axis : x y z
#
# Youngs Moduli (GPa) = 62.05216 154.35158 27.42352
#
# Poissons Ratio (x) = 0.05237 0.28610
# Poissons Ratio (y) = 0.02105 0.06626
# Poissons Ratio (z) = 0.64736 0.37292
#
# Static dielectric constant tensor:
#      x y z
#    x -0.484570 0.000000 0.000000 
#    y 0.000000 2.048170 0.000000 
#    z 0.000000 0.000000 2.017070 
# 
# From -- ./inp_files/17224.got.cif
#   From: 2010.05.17/outbox.cif.g08.bks.cpg/sg54_9_cif.got.tgz:17224.got - 2010.06.03 13:09:01.
