data_PCOD9420627
_publ_section_title
;
Structure prediction by ZEFSAII (Michael W. Deem and Ramdas Pophale) SiO2 
 PCOD9420627
Probable space group: P C C A
;
_chemical_formula_sum "Si O2"
_cell_formula_units_Z 52
_cell_length_a 20.266132
_cell_length_b 8.935898
_cell_length_c 14.920076
_cell_angle_alpha 90.000000
_cell_angle_beta 90.000000
_cell_angle_gamma 90.000000
_cell_volume 2701.967402
_symmetry_space_group_name_H-M "P C C A"
_symmetry_group_IT_number 54
_symmetry_cell_setting 'orthorhombic'
loop_
_space_group_symop_operation_xyz
x,y,z
1/2-x,-y,z
1/2+x,-y,1/2-z
-x,y,1/2-z
-x,-y,-z
1/2+x,y,-z
1/2-x,y,1/2+z
x,-y,1/2+z
loop_
_atom_site_type_symbol
_atom_site_label
_atom_site_fract_x
_atom_site_fract_y
_atom_site_fract_z
Si Si1 0.334603 0.198199 0.179672
Si Si2 0.755794 0.323434 0.665299
Si Si3 0.900943 0.913945 0.038938
Si Si4 0.357995 0.094839 0.785912
Si Si5 0.500000 0.907785 0.250000
Si Si6 0.229943 0.172599 0.025229
Si Si7 0.534956 0.857934 0.905613
O O1 0.317375 0.281375 0.271339
O O2 0.276140 0.221818 0.107544
O O3 0.406399 0.237694 0.138698
O O4 0.338289 0.022100 0.207549
O O5 0.750000 0.500000 0.670633
O O6 0.696206 0.221551 0.703149
O O7 0.758786 0.272643 0.562327
O O8 0.962160 0.805774 0.064569
O O9 0.865696 0.987016 0.126230
O O10 0.849449 0.835758 0.972136
O O11 0.931342 0.056957 0.988243
O O12 0.430090 0.167236 0.769889
O O13 0.484476 0.016574 0.167099
O O14 0.250000 0.000000 0.007652
#
# Coordination Sequence:
#
# PCOD9420627 Si02
#       7
#     8   8   8   8   4   8   8
#     4  11  21  36  63  89 112 150 198 249 301 345
#     4  12  25  37  54  82 122 159 196 240 290 357
#     4  10  18  32  56  91 117 141 185 244 303 343
#     4  10  18  36  57  84 113 143 192 245 288 348
#     4   8  18  28  54  84 114 142 184 236 302 338
#     4  12  20  36  61  87 110 150 193 248 296 339
#     4   9  18  30  53  92 119 140 180 248 302 345
#
# _framework density 19.245235999999998
#
# number of rings (size 3 to 8) (size 9 to 14) (size 15 to 20)
#    0.000    1.538    4.615    1.385    2.154    0.615 
#    0.000    0.000    3.385    0.000    0.000    5.385 
#    0.000    0.000    0.000    0.000    0.000    0.000 
#
# Total GULP energy -289621.440078 kJ/mol
# GULP energy per Si atom -5569.643078 kJ/mol
# Density = 1.920143 g / cm^3
# Si number density = 19.245236 Si / 1000 Ang^3
#
#
#
# Elastic Constant Matrix: (Units=GPa)
#
#
# Indices 1 2 3 4 5 6 
#
# 1 94.5957 3.6856 25.8273 0.0000 0.0000 0.0000
# 2 3.6856 54.4284 12.7809 0.0000 0.0000 0.0000
# 3 25.8273 12.7809 98.0630 0.0000 0.0000 0.0000
# 4 0.0000 0.0000 0.0000 1.2722 0.0000 0.0000
# 5 0.0000 0.0000 0.0000 0.0000 36.2588 0.0000
# 6 0.0000 0.0000 0.0000 0.0000 0.0000 0.1087
#
#
#
# Elastic Compliance Matrix: (Units=1/GPa)
#
#
# Indices 1 2 3 4 5 6 
#
# 1 0.011391 -0.000069 -0.002991 0.000000 0.000000 0.000000
# 2 -0.000069 0.018953 -0.002452 0.000000 0.000000 0.000000
# 3 -0.002991 -0.002452 0.011305 0.000000 0.000000 0.000000
# 4 0.000000 0.000000 0.000000 0.786071 0.000000 0.000000
# 5 0.000000 0.000000 0.000000 0.000000 0.027579 0.000000
# 6 0.000000 0.000000 0.000000 0.000000 0.000000 9.195790
#
#
# Mechanical properties :
#
#
# Convention : Reuss Voigt Hill
#
# Bulk Modulus (GPa) = 32.65347 36.85273 34.75310
# Shear Modulus (GPa) = 0.49641 21.18084 10.83862
#
# Velocity S-wave (km/s) = 0.50843 3.32109 2.37573
# Velocity P-wave (km/s) = 4.16516 5.82209 5.06188
#
# Compressibility (1/GPa) = 0.03062462
#
# Stress axis : x y z
#
# Youngs Moduli (GPa) = 87.79149 52.76151 88.45744
#
# Poissons Ratio (x) = 0.00364 0.26458
# Poissons Ratio (y) = 0.00605 0.21690
# Poissons Ratio (z) = 0.26259 0.12937
#
# Static dielectric constant tensor:
#      x y z
#    x 1.834790 0.000000 0.000000 
#    y 0.000000 1.607170 0.000000 
#    z 0.000000 0.000000 1.975090 
# 
# From -- ./inp_files/14598.got.cif
#   From: 2010.05.17/outbox.cif.g08.bks.cpg/sg54_8_cif.got.tgz:14598.got - 2010.06.03 13:09:01.
