data_PCOD9420893
_publ_section_title
;
Structure prediction by ZEFSAII (Michael W. Deem and Ramdas Pophale) SiO2 
 PCOD9420893
Probable space group: P C C A
;
_chemical_formula_sum "Si O2"
_cell_formula_units_Z 52
_cell_length_a 5.121930
_cell_length_b 32.438891
_cell_length_c 14.901026
_cell_angle_alpha 90.000000
_cell_angle_beta 90.000000
_cell_angle_gamma 90.000000
_cell_volume 2475.801431
_symmetry_space_group_name_H-M "P C C A"
_symmetry_group_IT_number 54
_symmetry_cell_setting 'orthorhombic'
loop_
_space_group_symop_operation_xyz
x,y,z
1/2-x,-y,z
1/2+x,-y,1/2-z
-x,y,1/2-z
-x,-y,-z
1/2+x,y,-z
1/2-x,y,1/2+z
x,-y,1/2+z
loop_
_atom_site_type_symbol
_atom_site_label
_atom_site_fract_x
_atom_site_fract_y
_atom_site_fract_z
Si Si1 0.017182 0.201696 0.561619
Si Si2 0.750000 0.500000 0.564280
Si Si3 0.030063 0.626123 0.142480
Si Si4 0.963235 0.417338 0.143131
Si Si5 0.396811 0.887041 0.559233
Si Si6 0.336250 0.287488 0.061242
Si Si7 0.001486 0.974749 0.142038
O O1 0.724961 0.202243 0.521761
O O2 0.058768 0.157240 0.606451
O O3 0.093262 0.244251 0.610201
O O4 0.500000 0.500000 0.500000
O O5 0.682406 0.460184 0.623764
O O6 0.246355 0.593060 0.108286
O O7 0.000000 0.622416 0.250000
O O8 0.741162 0.616401 0.106935
O O9 0.120858 0.671629 0.118231
O O10 0.000000 0.414262 0.250000
O O11 0.099426 0.887705 0.524588
O O12 0.471669 0.927634 0.613090
O O13 0.047012 0.287919 0.020106
O O14 0.000000 0.975600 0.250000
O O15 0.750000 0.000000 0.110333
O O16 0.250000 0.000000 0.109192
#
# Coordination Sequence:
#
# PCOD9420893 Si02
#       7
#     8   4   8   8   8   8   8
#     4   8  16  30  47  72 102 131 165 206 257 308
#     4  12  26  40  60  90 116 138 182 242 274 304
#     4  10  21  37  56  81 109 140 180 220 257 308
#     4  10  23  41  59  78 110 152 181 210 268 333
#     4  10  19  32  52  74  98 129 170 216 251 299
#     4  10  19  32  54  79 105 139 173 210 261 315
#     4  10  21  35  49  69 100 133 164 206 262 315
#
# _framework density 21.003301
#
# number of rings (size 3 to 8) (size 9 to 14) (size 15 to 20)
#    0.000    2.154    0.000    2.769    0.000    8.000 
#    0.000    0.769    0.000    0.000    0.000   19.385 
#    0.000    0.000    0.000    0.000    0.000    0.000 
#
# Total GULP energy -289985.226832 kJ/mol
# GULP energy per Si atom -5576.638978 kJ/mol
# Density = 2.095550 g / cm^3
# Si number density = 21.003301 Si / 1000 Ang^3
#
#
#
# Elastic Constant Matrix: (Units=GPa)
#
#
# Indices 1 2 3 4 5 6 
#
# 1 137.2067 38.3119 14.1785 0.0000 0.0000 0.0000
# 2 38.3119 160.4152 6.7309 0.0000 0.0000 0.0000
# 3 14.1785 6.7309 23.3679 0.0000 0.0000 0.0000
# 4 0.0000 0.0000 0.0000 -371.9138 0.0000 0.0000
# 5 0.0000 0.0000 0.0000 0.0000 -9.2418 0.0000
# 6 0.0000 0.0000 0.0000 0.0000 0.0000 36.5789
#
#
#
# Elastic Compliance Matrix: (Units=1/GPa)
#
#
# Indices 1 2 3 4 5 6 
#
# 1 0.008250 -0.001782 -0.004492 0.000000 0.000000 0.000000
# 2 -0.001782 0.006695 -0.000847 0.000000 0.000000 0.000000
# 3 -0.004492 -0.000847 0.045764 0.000000 0.000000 0.000000
# 4 0.000000 0.000000 0.000000 -0.002689 0.000000 0.000000
# 5 0.000000 0.000000 0.000000 0.000000 -0.108204 0.000000
# 6 0.000000 0.000000 0.000000 0.000000 0.000000 0.027338
#
#
# Mechanical properties :
#
#
# Convention : Reuss Voigt Hill
#
# Bulk Modulus (GPa) = 21.52136 48.82580 35.17358
# Shear Modulus (GPa) = 726.09827 -51.46413 337.31707
#
# Velocity S-wave (km/s) = 18.61336 -4.95541 12.68663
# Velocity P-wave (km/s) = 21.73044 3.07315 15.21131
#
# Compressibility (1/GPa) = 0.04646546
#
# Stress axis : x y z
#
# Youngs Moduli (GPa) = 121.21135 149.36667 21.85139
#
# Poissons Ratio (x) = 0.26615 0.09817
# Poissons Ratio (y) = 0.21598 0.01851
# Poissons Ratio (z) = 0.54454 0.12655
#
# Static dielectric constant tensor:
#      x y z
#    x 1.747880 0.000000 0.000000 
#    y 0.000000 1.821610 0.000000 
#    z 0.000000 0.000000 1.743790 
# 
# From -- ./inp_files/15964.got.cif
#   From: 2010.05.17/outbox.cif.g08.bks.cpg/sg54_8_cif.got.tgz:15964.got - 2010.06.03 13:09:01.
