data_PCOD9420087
_publ_section_title
;
Structure prediction by ZEFSAII (Michael W. Deem and Ramdas Pophale) SiO2 
 PCOD9420087
Probable space group: P M N A
;
_chemical_formula_sum "Si O2"
_cell_formula_units_Z 64
_cell_length_a 9.000000
_cell_length_b 12.000000
_cell_length_c 30.000000
_cell_angle_alpha 90.000000
_cell_angle_beta 90.000000
_cell_angle_gamma 90.000000
_cell_volume 3240.000000
_symmetry_space_group_name_H-M "P M N A"
_symmetry_group_IT_number 53
_symmetry_cell_setting 'orthorhombic'
loop_
_space_group_symop_operation_xyz
x,y,z
1/2-x,-y,1/2+z
x,-y,-z
1/2-x,y,1/2-z
-x,-y,-z
1/2+x,y,1/2-z
-x,y,z
1/2+x,-y,1/2+z
loop_
_atom_site_type_symbol
_atom_site_label
_atom_site_fract_x
_atom_site_fract_y
_atom_site_fract_z
Si Si1 0.825501 0.561527 0.293467
Si Si2 0.331003 0.493035 0.429923
Si Si3 0.671528 0.173142 0.128863
Si Si4 0.167426 0.631418 0.833185
Si Si5 0.666324 0.071384 0.893788
Si Si6 0.669889 0.673628 0.118275
Si Si7 0.325962 0.286842 0.033007
Si Si8 0.829399 0.889238 0.022663
O O1 0.750000 0.606445 0.250000
O O2 0.779210 0.434472 0.301864
O O3 0.766348 0.625470 0.336270
O O4 0.000000 0.573326 0.290941
O O5 0.500000 0.506472 0.443489
O O6 0.325732 0.427401 0.382092
O O7 0.259065 0.612846 0.420811
O O8 0.248405 0.406731 0.461732
O O9 0.500000 0.206020 0.137425
O O10 0.781161 0.243223 0.159207
O O11 0.702294 0.211452 0.077597
O O12 0.684539 0.040828 0.133846
O O13 0.000000 0.620933 0.816569
O O14 0.500000 0.057675 0.915629
O O15 0.664048 0.194967 0.874777
O O16 0.804746 0.082198 0.926464
O O17 0.500000 0.633799 0.112576
O O18 0.500000 0.301838 0.028848
O O19 0.263519 0.215383 0.992724
O O20 0.000000 0.873091 0.010113
O O21 0.768273 0.000000 0.000000
#
# Coordination Sequence:
#
# PCOD9420087 Si02
#       8
#     8   8   8   8   8   8   8   8
#     4  10  19  33  55  82 108 133 163 202 248 296
#     4   9  17  30  49  72 100 131 165 210 261 308
#     4   9  17  29  48  73  99 130 167 208 253 301
#     4   9  17  29  48  75 104 131 161 200 246 297
#     4  10  20  35  53  73 100 138 181 217 255 305
#     4   9  19  35  54  76 103 135 174 214 250 302
#     4  10  18  30  50  72  96 129 172 217 263 312
#     4  11  22  33  47  71 103 134 171 221 272 314
#
# _framework density 19.753086
#
# number of rings (size 3 to 8) (size 9 to 14) (size 15 to 20)
#    0.000    2.375    1.250    1.875    0.000    5.500 
#    0.000    0.625    0.000    4.500    0.000    1.750 
#    0.000    0.000    0.000    0.000    0.000    0.000 
#
# Total GULP energy -356372.931135 kJ/mol
# GULP energy per Si atom -5568.327049 kJ/mol
# Density = 1.970813 g / cm^3
# Si number density = 19.753086 Si / 1000 Ang^3
#
#
#
# Elastic Constant Matrix: (Units=GPa)
#
#
# Indices 1 2 3 4 5 6 
#
# 1 17.8071 36.6118 16.3764 0.0000 0.0000 0.0000
# 2 36.6118 107.5106 24.7507 0.0000 0.0000 0.0000
# 3 16.3764 24.7507 20.9884 0.0000 0.0000 0.0000
# 4 0.0000 0.0000 0.0000 -1.9244 0.0000 0.0000
# 5 0.0000 0.0000 0.0000 0.0000 14.9313 0.0000
# 6 0.0000 0.0000 0.0000 0.0000 0.0000 113.3972
#
#
#
# Elastic Compliance Matrix: (Units=1/GPa)
#
#
# Indices 1 2 3 4 5 6 
#
# 1 0.827781 -0.182837 -0.430274 0.000000 0.000000 0.000000
# 2 -0.182837 0.053152 0.079981 0.000000 0.000000 0.000000
# 3 -0.430274 0.079981 0.289054 0.000000 0.000000 0.000000
# 4 0.000000 0.000000 0.000000 -0.519629 0.000000 0.000000
# 5 0.000000 0.000000 0.000000 0.000000 0.066973 0.000000
# 6 0.000000 0.000000 0.000000 0.000000 0.000000 0.008819
#
#
# Mechanical properties :
#
#
# Convention : Reuss Voigt Hill
#
# Bulk Modulus (GPa) = 9.64076 33.53154 21.58615
# Shear Modulus (GPa) = 2.73675 29.85196 16.29435
#
# Velocity S-wave (km/s) = 1.17834 3.89170 2.87523
# Velocity P-wave (km/s) = 2.59664 6.09967 4.68767
#
# Compressibility (1/GPa) = 0.10372631
#
# Stress axis : x y z
#
# Youngs Moduli (GPa) = 1.20805 18.81397 3.45956
#
# Poissons Ratio (x) = 3.43989 1.48856
# Poissons Ratio (y) = 0.22088 -0.27670
# Poissons Ratio (z) = 0.51979 -1.50476
#
# Static dielectric constant tensor:
#      x y z
#    x 1.721260 0.000000 0.000000 
#    y 0.000000 1.671340 0.000000 
#    z 0.000000 0.000000 1.636990 
# 
# From -- ./inp_files/38280.got.cif
#   From: 2010.05.17/outbox.ucp.g08.bks.cvg/sg53_20_cif.got.tgz:38280.got - 2010.06.11 16:32:34.
