data_PCOD9420363
_publ_section_title
;
Structure prediction by ZEFSAII (Michael W. Deem and Ramdas Pophale) SiO2 
 PCOD9420363
Probable space group: P C C A
;
_chemical_formula_sum "Si O2"
_cell_formula_units_Z 32
_cell_length_a 5.439025
_cell_length_b 18.122217
_cell_length_c 14.167918
_cell_angle_alpha 90.000000
_cell_angle_beta 90.000000
_cell_angle_gamma 90.000000
_cell_volume 1396.491884
_symmetry_space_group_name_H-M "P C C A"
_symmetry_group_IT_number 54
_symmetry_cell_setting 'orthorhombic'
loop_
_space_group_symop_operation_xyz
x,y,z
1/2-x,-y,z
1/2+x,-y,1/2-z
-x,y,1/2-z
-x,-y,-z
1/2+x,y,-z
1/2-x,y,1/2+z
x,-y,1/2+z
loop_
_atom_site_type_symbol
_atom_site_label
_atom_site_fract_x
_atom_site_fract_y
_atom_site_fract_z
Si Si1 0.618139 0.767685 0.105354
Si Si2 0.247327 0.083848 0.312542
Si Si3 0.506196 0.531358 0.893107
Si Si4 0.893342 0.705688 0.390963
O O1 0.689276 0.853789 0.109944
O O2 0.360394 0.739553 0.147711
O O3 0.855179 0.732869 0.155017
O O4 0.606855 0.737130 0.998516
O O5 0.500000 0.095299 0.250000
O O6 0.000000 0.088771 0.250000
O O7 0.250000 0.000000 0.349981
O O8 0.250000 0.500000 0.854167
O O9 0.562657 0.618252 0.895871
O O10 0.750000 0.500000 0.846221
O O11 0.500000 0.500000 0.000000
#
# Coordination Sequence:
#
# PCOD9420363 Si02
#       4
#     8   8   8   8
#     4  10  18  32  49  70 102 132 158 203 255 298
#     4  10  21  37  55  73  94 126 171 216 252 295
#     4  10  16  25  41  65 102 137 162 188 227 288
#     4  10  19  30  47  76 108 133 159 199 251 307
#
# _framework density 22.914560999999999
#
# number of rings (size 3 to 8) (size 9 to 14) (size 15 to 20)
#    0.000    2.000    0.000    9.000    0.000    0.000 
#    0.000    5.000    0.000    0.000    0.000    0.000 
#    0.000  182.000    0.000    0.000    0.000    0.000 
#
# Total GULP energy -178255.119449 kJ/mol
# GULP energy per Si atom -5570.472483 kJ/mol
# Density = 2.286241 g / cm^3
# Si number density = 22.914561 Si / 1000 Ang^3
#
#
#
# Elastic Constant Matrix: (Units=GPa)
#
#
# Indices 1 2 3 4 5 6 
#
# 1 280.4985 69.1499 39.9630 0.0000 0.0000 0.0000
# 2 69.1499 226.4713 36.2460 0.0000 0.0000 0.0000
# 3 39.9630 36.2460 79.2432 0.0000 0.0000 0.0000
# 4 0.0000 0.0000 0.0000 497.7772 0.0000 0.0000
# 5 0.0000 0.0000 0.0000 0.0000 4.4664 0.0000
# 6 0.0000 0.0000 0.0000 0.0000 0.0000 36.8807
#
#
#
# Elastic Compliance Matrix: (Units=1/GPa)
#
#
# Indices 1 2 3 4 5 6 
#
# 1 0.004032 -0.000977 -0.001586 0.000000 0.000000 0.000000
# 2 -0.000977 0.005001 -0.001795 0.000000 0.000000 0.000000
# 3 -0.001586 -0.001795 0.014240 0.000000 0.000000 0.000000
# 4 0.000000 0.000000 0.000000 0.002009 0.000000 0.000000
# 5 0.000000 0.000000 0.000000 0.000000 0.223895 0.000000
# 6 0.000000 0.000000 0.000000 0.000000 0.000000 0.027114
#
#
# Mechanical properties :
#
#
# Convention : Reuss Voigt Hill
#
# Bulk Modulus (GPa) = 68.69627 97.43675 83.06651
# Shear Modulus (GPa) = 17.24968 137.21514 77.23241
#
# Velocity S-wave (km/s) = 2.74666 7.74669 5.81186
# Velocity P-wave (km/s) = 6.33271 11.07380 9.02032
#
# Compressibility (1/GPa) = 0.01455683
#
# Stress axis : x y z
#
# Youngs Moduli (GPa) = 248.01554 199.95234 70.22311
#
# Poissons Ratio (x) = 0.19540 0.11140
# Poissons Ratio (y) = 0.24237 0.12603
# Poissons Ratio (z) = 0.39345 0.35886
#
# Static dielectric constant tensor:
#      x y z
#    x 1.951360 0.000000 0.000000 
#    y 0.000000 1.985240 0.000000 
#    z 0.000000 0.000000 1.683040 
# 
# From -- ./inp_files/15665.got.cif
#   From: 2010.05.17/outbox.cif.g08.bks.cpg/sg54_8_cif.got.tgz:15665.got - 2010.06.03 13:09:01.
