data_PCOD9420470
_publ_section_title
;
Structure prediction by ZEFSAII (Michael W. Deem and Ramdas Pophale) SiO2 
 PCOD9420470
Probable space group: P C C A
;
_chemical_formula_sum "Si O2"
_cell_formula_units_Z 40
_cell_length_a 8.273908
_cell_length_b 13.816175
_cell_length_c 13.393832
_cell_angle_alpha 90.000000
_cell_angle_beta 90.000000
_cell_angle_gamma 90.000000
_cell_volume 1531.099308
_symmetry_space_group_name_H-M "P C C A"
_symmetry_group_IT_number 54
_symmetry_cell_setting 'orthorhombic'
loop_
_space_group_symop_operation_xyz
x,y,z
1/2-x,-y,z
1/2+x,-y,1/2-z
-x,y,1/2-z
-x,-y,-z
1/2+x,y,-z
1/2-x,y,1/2+z
x,-y,1/2+z
loop_
_atom_site_type_symbol
_atom_site_label
_atom_site_fract_x
_atom_site_fract_y
_atom_site_fract_z
Si Si1 0.371036 0.122029 0.373120
Si Si2 0.793807 0.183193 0.846148
Si Si3 0.121317 0.569220 0.437769
Si Si4 0.972207 0.902597 0.629855
Si Si5 0.798874 0.610514 0.364372
O O1 0.335848 0.122964 0.253149
O O2 0.529768 0.183985 0.397647
O O3 0.189858 0.152643 0.404509
O O4 0.427486 0.012763 0.396195
O O5 0.646622 0.134297 0.905989
O O6 0.741917 0.291444 0.811882
O O7 0.250000 0.500000 0.384876
O O8 0.221472 0.624160 0.523446
O O9 0.000000 0.500000 0.500000
O O10 0.993514 0.616562 0.365488
O O11 0.000000 0.894540 0.750000
O O12 0.750000 0.500000 0.336949
#
# Coordination Sequence:
#
# PCOD9420470 Si02
#       5
#     8   8   8   8   8
#     4   9  17  28  46  71  99 122 159 202 236 279
#     4  10  17  27  49  72  98 126 159 201 239 289
#     4   7  13  29  49  64  87 121 157 208 245 271
#     4   9  15  28  47  68  98 119 155 206 233 268
#     4   9  17  31  49  71  96 127 163 201 248 294
#
# _framework density 26.125019000000002
#
# number of rings (size 3 to 8) (size 9 to 14) (size 15 to 20)
#    0.000    3.600    2.000    0.600    0.000    0.000 
#   10.800    0.000   13.200    0.000    0.000    5.600 
#    0.000    0.000    0.000    0.000    0.000    0.000 
#
# Total GULP energy -222782.414203 kJ/mol
# GULP energy per Si atom -5569.560355 kJ/mol
# Density = 2.606556 g / cm^3
# Si number density = 26.125019 Si / 1000 Ang^3
#
#
#
# Elastic Constant Matrix: (Units=GPa)
#
#
# Indices 1 2 3 4 5 6 
#
# 1 260.3394 65.9107 30.8461 0.0000 0.0000 0.0000
# 2 65.9107 123.1345 -6.0720 0.0000 0.0000 0.0000
# 3 30.8461 -6.0720 90.7240 0.0000 0.0000 0.0000
# 4 0.0000 0.0000 0.0000 3.0528 0.0000 0.0000
# 5 0.0000 0.0000 0.0000 0.0000 17.8436 0.0000
# 6 0.0000 0.0000 0.0000 0.0000 0.0000 20.0835
#
#
#
# Elastic Compliance Matrix: (Units=1/GPa)
#
#
# Indices 1 2 3 4 5 6 
#
# 1 0.004712 -0.002610 -0.001777 0.000000 0.000000 0.000000
# 2 -0.002610 0.009594 0.001530 0.000000 0.000000 0.000000
# 3 -0.001777 0.001530 0.011729 0.000000 0.000000 0.000000
# 4 0.000000 0.000000 0.000000 0.327573 0.000000 0.000000
# 5 0.000000 0.000000 0.000000 0.000000 0.056043 0.000000
# 6 0.000000 0.000000 0.000000 0.000000 0.000000 0.049792
#
#
# Mechanical properties :
#
#
# Convention : Reuss Voigt Hill
#
# Bulk Modulus (GPa) = 49.21215 72.84084 61.02649
# Shear Modulus (GPa) = 10.59476 33.76350 22.17913
#
# Velocity S-wave (km/s) = 2.01599 3.59887 2.91685
# Velocity P-wave (km/s) = 4.92920 6.72394 5.89527
#
# Compressibility (1/GPa) = 0.02032018
#
# Stress axis : x y z
#
# Youngs Moduli (GPa) = 212.20243 104.23462 85.25904
#
# Poissons Ratio (x) = 0.27206 0.15150
# Poissons Ratio (y) = 0.55387 -0.13041
# Poissons Ratio (z) = 0.37707 -0.15943
#
# Static dielectric constant tensor:
#      x y z
#    x 2.128700 0.000000 0.000000 
#    y 0.000000 1.712060 0.000000 
#    z 0.000000 0.000000 2.226390 
# 
# From -- ./inp_files/25795.got.cif
#   From: 2010.05.17/outbox.cif.g08.bks.cpg/sg54_13_cif.got.tgz:25795.got - 2010.06.03 13:09:01.
