data_PCOD9420023
_publ_section_title
;
Structure prediction by ZEFSAII (Michael W. Deem and Ramdas Pophale) SiO2 
 PCOD9420023
Probable space group: P M N A
;
_chemical_formula_sum "Si O2"
_cell_formula_units_Z 24
_cell_length_a 9.834304
_cell_length_b 8.012713
_cell_length_c 13.936057
_cell_angle_alpha 90.000000
_cell_angle_beta 90.000000
_cell_angle_gamma 90.000000
_cell_volume 1098.153704
_symmetry_space_group_name_H-M "P M N A"
_symmetry_group_IT_number 53
_symmetry_cell_setting 'orthorhombic'
loop_
_space_group_symop_operation_xyz
x,y,z
1/2-x,-y,1/2+z
x,-y,-z
1/2-x,y,1/2-z
-x,-y,-z
1/2+x,y,1/2-z
-x,y,z
1/2+x,-y,1/2+z
loop_
_atom_site_type_symbol
_atom_site_label
_atom_site_fract_x
_atom_site_fract_y
_atom_site_fract_z
Si Si1 0.756067 0.858178 0.068688
Si Si2 0.750000 0.067010 0.250000
Si Si3 0.500000 0.705858 0.736464
Si Si4 0.000000 0.394883 0.901654
Si Si5 0.500000 0.310444 0.033578
O O1 0.867418 0.722257 0.098481
O O2 0.700950 0.949633 0.163750
O O3 0.633042 0.777847 0.009365
O O4 0.818980 0.000000 0.000000
O O5 0.631920 0.185979 0.289533
O O6 0.500000 0.528292 0.684380
O O7 0.500000 0.691635 0.851532
O O8 0.000000 0.500000 0.000000
O O9 0.500000 0.500000 0.000000
#
# Coordination Sequence:
#
# PCOD9420023 Si02
#       5
#     8   4   4   4   4
#     4  12  25  49  75 108 146 192 248 298 371 436
#     4  12  26  46  78 106 144 194 246 310 360 444
#     4  12  28  50  73 110 149 193 248 304 376 433
#     4  12  28  46  74 110 150 192 240 309 370 441
#     4  12  28  47  75 107 150 196 244 307 363 446
#
# _framework density 21.854862000000001
#
# number of rings (size 3 to 8) (size 9 to 14) (size 15 to 20)
#    0.000    0.000    3.333    6.000    9.333    0.000 
#    0.000    0.000    0.000    0.000    0.000    0.000 
#    0.000    0.000    0.000    0.000    0.000    0.000 
#
# Total GULP energy -134515.257172 kJ/mol
# GULP energy per Si atom -5604.802382 kJ/mol
# Density = 2.180512 g / cm^3
# Si number density = 21.854862 Si / 1000 Ang^3
#
#
#
# Elastic Constant Matrix: (Units=GPa)
#
#
# Indices 1 2 3 4 5 6 
#
# 1 141.5526 74.6237 29.4266 0.0000 0.0000 0.0000
# 2 74.6237 168.5387 73.9505 0.0000 0.0000 0.0000
# 3 29.4266 73.9505 144.4294 0.0000 0.0000 0.0000
# 4 0.0000 0.0000 0.0000 67.5325 0.0000 0.0000
# 5 0.0000 0.0000 0.0000 0.0000 32.6820 0.0000
# 6 0.0000 0.0000 0.0000 0.0000 0.0000 59.1637
#
#
#
# Elastic Compliance Matrix: (Units=1/GPa)
#
#
# Indices 1 2 3 4 5 6 
#
# 1 0.009224 -0.004204 0.000273 0.000000 0.000000 0.000000
# 2 -0.004204 0.009569 -0.004043 0.000000 0.000000 0.000000
# 3 0.000273 -0.004043 0.008938 0.000000 0.000000 0.000000
# 4 0.000000 0.000000 0.000000 0.014808 0.000000 0.000000
# 5 0.000000 0.000000 0.000000 0.000000 0.030598 0.000000
# 6 0.000000 0.000000 0.000000 0.000000 0.000000 0.016902
#
#
# Mechanical properties :
#
#
# Convention : Reuss Voigt Hill
#
# Bulk Modulus (GPa) = 84.86381 90.05804 87.46092
# Shear Modulus (GPa) = 45.49035 50.31031 47.90033
#
# Velocity S-wave (km/s) = 4.56727 4.80314 4.68669
# Velocity P-wave (km/s) = 8.16873 8.48864 8.33022
#
# Compressibility (1/GPa) = 0.01178359
#
# Stress axis : x y z
#
# Youngs Moduli (GPa) = 108.41335 104.50849 111.88039
#
# Poissons Ratio (x) = 0.43935 -0.03056
# Poissons Ratio (y) = 0.45576 0.45231
# Poissons Ratio (z) = -0.02962 0.42250
#
# Static dielectric constant tensor:
#      x y z
#    x 1.773600 0.000000 0.000000 
#    y 0.000000 1.768730 0.000000 
#    z 0.000000 0.000000 2.205260 
# 
# From -- ./inp_files/19398.got.cif
#   From: 2010.05.17/outbox.cif.g08.bks.cpg/sg53_10_cif.got.tgz:19398.got - 2010.06.03 12:45:16.
