data_PCOD9420764
_publ_section_title
;
Structure prediction by ZEFSAII (Michael W. Deem and Ramdas Pophale) SiO2 
 PCOD9420764
Probable space group: P C C A
;
_chemical_formula_sum "Si O2"
_cell_formula_units_Z 52
_cell_length_a 14.557827
_cell_length_b 8.149885
_cell_length_c 19.836152
_cell_angle_alpha 90.000000
_cell_angle_beta 90.000000
_cell_angle_gamma 90.000000
_cell_volume 2353.452635
_symmetry_space_group_name_H-M "P C C A"
_symmetry_group_IT_number 54
_symmetry_cell_setting 'orthorhombic'
loop_
_space_group_symop_operation_xyz
x,y,z
1/2-x,-y,z
1/2+x,-y,1/2-z
-x,y,1/2-z
-x,-y,-z
1/2+x,y,-z
1/2-x,y,1/2+z
x,-y,1/2+z
loop_
_atom_site_type_symbol
_atom_site_label
_atom_site_fract_x
_atom_site_fract_y
_atom_site_fract_z
Si Si1 0.141238 0.789732 0.333799
Si Si2 0.571988 0.814770 0.032500
Si Si3 0.750000 0.000000 0.059654
Si Si4 0.125660 0.608824 0.694671
Si Si5 0.538303 0.906365 0.895817
Si Si6 0.301972 0.233590 0.184057
Si Si7 0.913831 0.586705 0.655253
O O1 0.204980 0.864793 0.391332
O O2 0.183872 0.822463 0.260923
O O3 0.123125 0.597925 0.345651
O O4 0.040396 0.869324 0.341241
O O5 0.602222 0.676001 0.084725
O O6 0.663749 0.923820 0.020723
O O7 0.494704 0.924496 0.070135
O O8 0.534594 0.775935 0.958234
O O9 0.157819 0.420479 0.684799
O O10 0.197183 0.735585 0.662450
O O11 0.128503 0.653003 0.774585
O O12 0.022495 0.605946 0.668568
O O13 0.636167 0.881626 0.861949
#
# Coordination Sequence:
#
# PCOD9420764 Si02
#       7
#     8   8   4   8   8   8   8
#     4  10  20  38  66  87 120 159 204 258 320 376
#     4  10  23  41  59  84 123 165 211 247 310 380
#     4  10  22  42  58  86 118 162 206 256 306 386
#     4   9  19  34  62  92 123 148 201 257 308 362
#     4  10  21  41  59  84 123 167 200 254 312 369
#     4  10  18  37  60  91 121 159 199 253 308 371
#     4  10  19  39  63  88 121 162 196 258 315 369
#
# _framework density 22.095198
#
# number of rings (size 3 to 8) (size 9 to 14) (size 15 to 20)
#    0.000    2.154    1.538    1.385    0.000    2.462 
#   22.154    1.538    0.000    0.000    0.000    0.000 
#    0.000    0.000    0.000    0.000    0.000    0.000 
#
# Total GULP energy -290246.404966 kJ/mol
# GULP energy per Si atom -5581.661634 kJ/mol
# Density = 2.204491 g / cm^3
# Si number density = 22.095198 Si / 1000 Ang^3
#
#
#
# Elastic Constant Matrix: (Units=GPa)
#
#
# Indices 1 2 3 4 5 6 
#
# 1 115.9786 25.3270 13.5011 0.0000 0.0000 0.0000
# 2 25.3270 39.1069 26.8210 0.0000 0.0000 0.0000
# 3 13.5011 26.8210 47.2257 0.0000 0.0000 0.0000
# 4 0.0000 0.0000 0.0000 16.3711 0.0000 0.0000
# 5 0.0000 0.0000 0.0000 0.0000 21.5756 0.0000
# 6 0.0000 0.0000 0.0000 0.0000 0.0000 29.3449
#
#
#
# Elastic Compliance Matrix: (Units=1/GPa)
#
#
# Indices 1 2 3 4 5 6 
#
# 1 0.010095 -0.007467 0.001355 0.000000 0.000000 0.000000
# 2 -0.007467 0.047409 -0.024790 0.000000 0.000000 0.000000
# 3 0.001355 -0.024790 0.034867 0.000000 0.000000 0.000000
# 4 0.000000 0.000000 0.000000 0.061083 0.000000 0.000000
# 5 0.000000 0.000000 0.000000 0.000000 0.046349 0.000000
# 6 0.000000 0.000000 0.000000 0.000000 0.000000 0.034077
#
#
# Mechanical properties :
#
#
# Convention : Reuss Voigt Hill
#
# Bulk Modulus (GPa) = 32.71651 37.06770 34.89211
# Shear Modulus (GPa) = 16.34657 22.56912 19.45784
#
# Velocity S-wave (km/s) = 2.72292 3.19948 2.97077
# Velocity P-wave (km/s) = 4.97242 5.51921 5.25293
#
# Compressibility (1/GPa) = 0.03056561
#
# Stress axis : x y z
#
# Youngs Moduli (GPa) = 99.05667 21.09304 28.68057
#
# Poissons Ratio (x) = 0.15751 -0.03886
# Poissons Ratio (y) = 0.73967 0.71100
# Poissons Ratio (z) = -0.13420 0.52290
#
# Static dielectric constant tensor:
#      x y z
#    x 1.860560 0.000000 0.000000 
#    y 0.000000 1.819300 0.000000 
#    z 0.000000 0.000000 1.801650 
# 
# From -- ./inp_files/21561.got.cif
#   From: 2010.05.17/outbox.cif.g08.bks.cpg/sg54_11_cif.got.tgz:21561.got - 2010.06.03 13:09:01.
