data_PCOD9420198
_publ_section_title
;
Structure prediction by ZEFSAII (Michael W. Deem and Ramdas Pophale) SiO2 
 PCOD9420198
Probable space group: P M N A
;
_chemical_formula_sum "Si O2"
_cell_formula_units_Z 56
_cell_length_a 9.000000
_cell_length_b 21.000000
_cell_length_c 15.000000
_cell_angle_alpha 90.000000
_cell_angle_beta 90.000000
_cell_angle_gamma 90.000000
_cell_volume 2835.000000
_symmetry_space_group_name_H-M "P M N A"
_symmetry_group_IT_number 53
_symmetry_cell_setting 'orthorhombic'
loop_
_space_group_symop_operation_xyz
x,y,z
1/2-x,-y,1/2+z
x,-y,-z
1/2-x,y,1/2-z
-x,-y,-z
1/2+x,y,1/2-z
-x,y,z
1/2+x,-y,1/2+z
loop_
_atom_site_type_symbol
_atom_site_label
_atom_site_fract_x
_atom_site_fract_y
_atom_site_fract_z
Si Si1 0.669387 0.201790 0.604732
Si Si2 0.322493 0.668439 0.841450
Si Si3 0.319639 0.573549 0.998439
Si Si4 0.833093 0.796696 0.896027
Si Si5 0.178275 0.667141 0.340130
Si Si6 0.179329 0.069334 0.651086
Si Si7 0.320482 0.059087 0.348356
O O1 0.500000 0.194643 0.641052
O O2 0.657838 0.216014 0.500543
O O3 0.753637 0.262404 0.644889
O O4 0.759085 0.135733 0.612974
O O5 0.250000 0.647538 0.750000
O O6 0.500000 0.668060 0.838319
O O7 0.269590 0.741130 0.858324
O O8 0.272225 0.617939 0.916057
O O9 0.500000 0.570449 0.995266
O O10 0.281312 0.616603 0.083637
O O11 0.266547 0.500000 0.000000
O O12 0.786937 0.870713 0.886723
O O13 0.000000 0.791483 0.856350
O O14 0.250000 0.642512 0.250000
O O15 0.000000 0.672441 0.335945
O O16 0.250000 0.069425 0.750000
O O17 0.000000 0.067414 0.652219
O O18 0.245826 0.004017 0.609004
O O19 0.250000 0.062094 0.250000
O O20 0.500000 0.050948 0.346972
#
# Coordination Sequence:
#
# PCOD9420198 Si02
#       7
#     8   8   8   8   8   8   8
#     4  11  22  38  59  84 117 155 198 251 304 358
#     4  11  22  38  63  92 124 163 205 251 300 359
#     4   9  20  40  64  91 126 164 201 245 299 360
#     4  10  22  38  59  85 117 155 199 251 303 358
#     4  11  22  39  63  92 123 161 206 250 302 359
#     4  11  22  37  56  80 111 150 197 248 301 359
#     4  10  20  36  55  79 110 149 194 244 301 357
#
# _framework density 19.753086
#
# number of rings (size 3 to 8) (size 9 to 14) (size 15 to 20)
#    0.000    1.571    1.429    4.714    0.000    4.000 
#    0.000    2.857    0.000    6.000    0.000    0.000 
#    0.000    0.000    0.000    0.000    0.000    0.000 
#
# Total GULP energy -312442.472663 kJ/mol
# GULP energy per Si atom -5579.329869 kJ/mol
# Density = 1.970813 g / cm^3
# Si number density = 19.753086 Si / 1000 Ang^3
#
#
#
# Elastic Constant Matrix: (Units=GPa)
#
#
# Indices 1 2 3 4 5 6 
#
# 1 112.3929 66.8574 42.8216 0.0000 0.0000 0.0000
# 2 66.8574 173.9555 66.3793 0.0000 0.0000 0.0000
# 3 42.8216 66.3793 120.9299 0.0000 0.0000 0.0000
# 4 0.0000 0.0000 0.0000 26.6261 0.0000 0.0000
# 5 0.0000 0.0000 0.0000 0.0000 19.9808 0.0000
# 6 0.0000 0.0000 0.0000 0.0000 0.0000 16.7813
#
#
#
# Elastic Compliance Matrix: (Units=1/GPa)
#
#
# Indices 1 2 3 4 5 6 
#
# 1 0.011967 -0.003773 -0.002167 0.000000 0.000000 0.000000
# 2 -0.003773 0.008461 -0.003308 0.000000 0.000000 0.000000
# 3 -0.002167 -0.003308 0.010853 0.000000 0.000000 0.000000
# 4 0.000000 0.000000 0.000000 0.037557 0.000000 0.000000
# 5 0.000000 0.000000 0.000000 0.000000 0.050048 0.000000
# 6 0.000000 0.000000 0.000000 0.000000 0.000000 0.059590
#
#
# Mechanical properties :
#
#
# Convention : Reuss Voigt Hill
#
# Bulk Modulus (GPa) = 78.21644 84.37723 81.29683
# Shear Modulus (GPa) = 24.84681 28.09230 26.46956
#
# Velocity S-wave (km/s) = 3.55049 3.77526 3.66460
# Velocity P-wave (km/s) = 7.51605 7.86207 7.69101
#
# Compressibility (1/GPa) = 0.01278504
#
# Stress axis : x y z
#
# Youngs Moduli (GPa) = 83.56303 118.18972 92.14443
#
# Poissons Ratio (x) = 0.44588 0.19966
# Poissons Ratio (y) = 0.31525 0.30485
# Poissons Ratio (z) = 0.18106 0.39102
#
# Static dielectric constant tensor:
#      x y z
#    x 1.705970 0.000000 0.000000 
#    y 0.000000 1.697530 0.000000 
#    z 0.000000 0.000000 1.778670 
# 
# From -- ./inp_files/20449.got.cif
#   From: 2010.05.17/outbox.ucp.g08.bks.cvg/sg53_11_cif.got.tgz:20449.got - 2010.06.11 16:32:34.
