data_PCOD9420459
_publ_section_title
;
Structure prediction by ZEFSAII (Michael W. Deem and Ramdas Pophale) SiO2 
 PCOD9420459
Probable space group: P C C A
;
_chemical_formula_sum "Si O2"
_cell_formula_units_Z 56
_cell_length_a 16.317914
_cell_length_b 11.526521
_cell_length_c 14.229875
_cell_angle_alpha 90.000000
_cell_angle_beta 90.000000
_cell_angle_gamma 90.000000
_cell_volume 2676.479805
_symmetry_space_group_name_H-M "P C C A"
_symmetry_group_IT_number 54
_symmetry_cell_setting 'orthorhombic'
loop_
_space_group_symop_operation_xyz
x,y,z
1/2-x,-y,z
1/2+x,-y,1/2-z
-x,y,1/2-z
-x,-y,-z
1/2+x,y,-z
1/2-x,y,1/2+z
x,-y,1/2+z
loop_
_atom_site_type_symbol
_atom_site_label
_atom_site_fract_x
_atom_site_fract_y
_atom_site_fract_z
Si Si1 0.055523 0.107950 0.530176
Si Si2 0.703121 0.202865 0.575474
Si Si3 0.087677 0.958508 0.695744
Si Si4 0.282034 0.373069 0.565255
Si Si5 0.500000 0.408005 0.750000
Si Si6 0.818152 0.590279 0.719765
Si Si7 0.750000 0.000000 0.682035
Si Si8 0.555636 0.734728 0.428233
O O1 0.129184 0.121643 0.457457
O O2 0.084130 0.075576 0.633680
O O3 0.002302 0.222051 0.511293
O O4 0.000000 0.000000 0.500000
O O5 0.730141 0.273586 0.483964
O O6 0.678234 0.299194 0.651765
O O7 0.768309 0.113863 0.619177
O O8 0.000000 0.946957 0.750000
O O9 0.169343 0.965913 0.758261
O O10 0.093129 0.848379 0.624660
O O11 0.250000 0.500000 0.540432
O O12 0.286452 0.367724 0.678154
O O13 0.374481 0.348876 0.533241
O O14 0.590640 0.463419 0.736161
O O15 0.489624 0.331013 0.656274
O O16 0.750000 0.500000 0.684671
#
# Coordination Sequence:
#
# PCOD9420459 Si02
#       8
#     8   8   8   8   4   8   4   8
#     4  10  23  38  64  97 133 172 221 276 333 409
#     4  12  25  42  67  95 138 176 226 274 350 405
#     4  11  24  40  64  99 142 172 228 276 333 416
#     4  10  24  41  67  98 131 170 231 283 331 394
#     4  10  16  36  70  96 120 170 222 264 330 400
#     4  10  22  43  73  96 131 177 228 283 334 398
#     4  12  26  38  66 100 130 188 218 268 352 414
#     4  10  19  39  66  90 130 176 220 272 334 398
#
# _framework density 20.923005
#
# number of rings (size 3 to 8) (size 9 to 14) (size 15 to 20)
#    0.000    1.429    2.143    3.857   10.000    0.000 
#    0.000    0.714    7.857    0.000    0.000    0.000 
#    0.000    0.000    0.000    0.000    0.000    0.000 
#
# Total GULP energy -312464.283643 kJ/mol
# GULP energy per Si atom -5579.719351 kJ/mol
# Density = 2.087538 g / cm^3
# Si number density = 20.923005 Si / 1000 Ang^3
#
#
#
# Elastic Constant Matrix: (Units=GPa)
#
#
# Indices 1 2 3 4 5 6 
#
# 1 114.6422 51.5308 34.3355 0.0000 0.0000 0.0000
# 2 51.5308 56.9856 23.9565 0.0000 0.0000 0.0000
# 3 34.3355 23.9565 69.7712 0.0000 0.0000 0.0000
# 4 0.0000 0.0000 0.0000 10.0555 0.0000 0.0000
# 5 0.0000 0.0000 0.0000 0.0000 13.7631 0.0000
# 6 0.0000 0.0000 0.0000 0.0000 0.0000 41.3251
#
#
#
# Elastic Compliance Matrix: (Units=1/GPa)
#
#
# Indices 1 2 3 4 5 6 
#
# 1 0.015301 -0.012471 -0.003248 0.000000 0.000000 0.000000
# 2 -0.012471 0.030673 -0.004395 0.000000 0.000000 0.000000
# 3 -0.003248 -0.004395 0.017440 0.000000 0.000000 0.000000
# 4 0.000000 0.000000 0.000000 0.099448 0.000000 0.000000
# 5 0.000000 0.000000 0.000000 0.000000 0.072658 0.000000
# 6 0.000000 0.000000 0.000000 0.000000 0.000000 0.024198
#
#
# Mechanical properties :
#
#
# Convention : Reuss Voigt Hill
#
# Bulk Modulus (GPa) = 43.12789 51.22720 47.17754
# Shear Modulus (GPa) = 16.25092 21.80048 19.02570
#
# Velocity S-wave (km/s) = 2.78996 3.23141 3.01876
# Velocity P-wave (km/s) = 5.57099 6.20157 5.89472
#
# Compressibility (1/GPa) = 0.02318685
#
# Stress axis : x y z
#
# Youngs Moduli (GPa) = 65.35416 32.60172 57.33994
#
# Poissons Ratio (x) = 0.40658 0.18623
# Poissons Ratio (y) = 0.81504 0.25199
# Poissons Ratio (z) = 0.21226 0.14327
#
# Static dielectric constant tensor:
#      x y z
#    x 1.790930 0.000000 0.000000 
#    y 0.000000 1.756050 0.000000 
#    z 0.000000 0.000000 1.790130 
# 
# From -- ./inp_files/13545.got.cif
#   From: 2010.05.17/outbox.cif.g08.bks.cpg/sg54_7_cif.got.tgz:13545.got - 2010.06.03 13:09:01.
