data_PCOD9420982
_publ_section_title
;
Structure prediction by ZEFSAII (Michael W. Deem and Ramdas Pophale) SiO2 
 PCOD9420982
Probable space group: P C C A
;
_chemical_formula_sum "Si O2"
_cell_formula_units_Z 56
_cell_length_a 15.057415
_cell_length_b 5.264254
_cell_length_c 33.636877
_cell_angle_alpha 90.000000
_cell_angle_beta 90.000000
_cell_angle_gamma 90.000000
_cell_volume 2666.262614
_symmetry_space_group_name_H-M "P C C A"
_symmetry_group_IT_number 54
_symmetry_cell_setting 'orthorhombic'
loop_
_space_group_symop_operation_xyz
x,y,z
1/2-x,-y,z
1/2+x,-y,1/2-z
-x,y,1/2-z
-x,-y,-z
1/2+x,y,-z
1/2-x,y,1/2+z
x,-y,1/2+z
loop_
_atom_site_type_symbol
_atom_site_label
_atom_site_fract_x
_atom_site_fract_y
_atom_site_fract_z
Si Si1 0.022223 0.512504 0.953635
Si Si2 0.400427 0.974307 0.639276
Si Si3 0.602250 0.410710 0.234221
Si Si4 0.900518 0.920334 0.768744
Si Si5 0.194808 0.761247 0.341903
Si Si6 0.080458 0.017642 0.911838
Si Si7 0.845417 0.533133 0.900967
O O1 0.067990 0.248671 0.942098
O O2 0.928039 0.522167 0.930654
O O3 0.078719 0.751592 0.936020
O O4 0.000000 0.500000 0.000000
O O5 0.494942 0.990179 0.617187
O O6 0.363566 0.691061 0.631370
O O7 0.409711 0.068358 0.684244
O O8 0.342557 0.190301 0.618468
O O9 0.500000 0.425189 0.250000
O O10 0.641514 0.676578 0.248053
O O11 0.617090 0.337458 0.188227
O O12 0.646377 0.179999 0.257295
O O13 0.000000 0.933266 0.750000
O O14 0.250000 0.500000 0.349144
O O15 0.156955 0.891281 0.381793
O O16 0.250000 0.000000 0.323783
O O17 0.750000 0.500000 0.920925
#
# Coordination Sequence:
#
# PCOD9420982 Si02
#       7
#     8   8   8   8   8   8   8
#     4  10  21  39  66  97 125 160 204 247 301 380
#     4  10  20  36  61  84 111 157 206 244 294 375
#     4  10  21  37  59  83 114 159 208 251 309 369
#     4  10  19  33  56  82 107 143 199 252 294 348
#     4  12  25  42  62  89 125 164 211 269 318 369
#     4  10  21  39  64  89 121 164 206 247 304 377
#     4  10  21  38  59  88 121 155 195 248 306 356
#
# _framework density 21.003183
#
# number of rings (size 3 to 8) (size 9 to 14) (size 15 to 20)
#    0.000    1.714    0.000    5.143    0.000    6.857 
#    0.000    9.286    0.000    1.714    0.000    0.000 
#    0.000    0.000    0.000    0.000    0.000    0.000 
#
# Total GULP energy -312198.907721 kJ/mol
# GULP energy per Si atom -5574.980495 kJ/mol
# Density = 2.095538 g / cm^3
# Si number density = 21.003183 Si / 1000 Ang^3
#
#
#
# Elastic Constant Matrix: (Units=GPa)
#
#
# Indices 1 2 3 4 5 6 
#
# 1 70.8766 27.7511 20.5781 0.0000 0.0000 0.0000
# 2 27.7511 164.6033 31.2731 0.0000 0.0000 0.0000
# 3 20.5781 31.2731 120.3327 0.0000 0.0000 0.0000
# 4 0.0000 0.0000 0.0000 25.8546 0.0000 0.0000
# 5 0.0000 0.0000 0.0000 0.0000 9.4603 0.0000
# 6 0.0000 0.0000 0.0000 0.0000 0.0000 19.9137
#
#
#
# Elastic Compliance Matrix: (Units=1/GPa)
#
#
# Indices 1 2 3 4 5 6 
#
# 1 0.015588 -0.002232 -0.002086 0.000000 0.000000 0.000000
# 2 -0.002232 0.006710 -0.001362 0.000000 0.000000 0.000000
# 3 -0.002086 -0.001362 0.009021 0.000000 0.000000 0.000000
# 4 0.000000 0.000000 0.000000 0.038678 0.000000 0.000000
# 5 0.000000 0.000000 0.000000 0.000000 0.105705 0.000000
# 6 0.000000 0.000000 0.000000 0.000000 0.000000 0.050217
#
#
# Mechanical properties :
#
#
# Convention : Reuss Voigt Hill
#
# Bulk Modulus (GPa) = 50.10008 57.22414 53.66211
# Shear Modulus (GPa) = 20.49749 29.45975 24.97862
#
# Velocity S-wave (km/s) = 3.12737 3.74924 3.45233
# Velocity P-wave (km/s) = 6.07831 6.78579 6.44177
#
# Compressibility (1/GPa) = 0.01996005
#
# Stress axis : x y z
#
# Youngs Moduli (GPa) = 64.15005 149.02451 110.85233
#
# Poissons Ratio (x) = 0.33260 0.23121
# Poissons Ratio (y) = 0.14317 0.15101
# Poissons Ratio (z) = 0.13380 0.20301
#
# Static dielectric constant tensor:
#      x y z
#    x 1.730830 0.000000 0.000000 
#    y 0.000000 1.845270 0.000000 
#    z 0.000000 0.000000 1.740900 
# 
# From -- ./inp_files/28253.got.cif
#   From: 2010.05.17/outbox.cif.g08.bks.cpg/sg54_15_cif.got.tgz:28253.got - 2010.06.03 13:09:01.
