data_PCOD9420376
_publ_section_title
;
Structure prediction by ZEFSAII (Michael W. Deem and Ramdas Pophale) SiO2 
 PCOD9420376
Probable space group: P C C A
;
_chemical_formula_sum "Si O2"
_cell_formula_units_Z 44
_cell_length_a 35.175320
_cell_length_b 9.135566
_cell_length_c 5.555822
_cell_angle_alpha 90.000000
_cell_angle_beta 90.000000
_cell_angle_gamma 90.000000
_cell_volume 1785.343718
_symmetry_space_group_name_H-M "P C C A"
_symmetry_group_IT_number 54
_symmetry_cell_setting 'orthorhombic'
loop_
_space_group_symop_operation_xyz
x,y,z
1/2-x,-y,z
1/2+x,-y,1/2-z
-x,y,1/2-z
-x,-y,-z
1/2+x,y,-z
1/2-x,y,1/2+z
x,-y,1/2+z
loop_
_atom_site_type_symbol
_atom_site_label
_atom_site_fract_x
_atom_site_fract_y
_atom_site_fract_z
Si Si1 0.646335 0.172810 0.451846
Si Si2 0.764736 0.170344 0.051951
Si Si3 0.036075 0.841250 0.357887
Si Si4 0.074973 0.552414 0.240366
Si Si5 0.500000 0.362684 0.750000
Si Si6 0.615972 0.151470 0.949587
O O1 0.690765 0.186735 0.500262
O O2 0.633056 0.229863 0.188886
O O3 0.638710 0.999701 0.429051
O O4 0.623008 0.223564 0.689024
O O5 0.755802 0.233532 0.315397
O O6 0.750000 0.000000 0.067276
O O7 0.059999 0.719797 0.203557
O O8 0.072086 0.902562 0.507392
O O9 0.000000 0.931198 0.250000
O O10 0.012135 0.739820 0.534786
O O11 0.093420 0.522727 0.505473
O O12 0.036189 0.462416 0.291977
#
# Coordination Sequence:
#
# PCOD9420376 Si02
#       6
#     8   8   8   8   4   8
#     4  10  20  38  44  66 100 124 154 183 233 278
#     4  10  16  26  52  74  84 110 154 186 211 268
#     4  11  20  31  48  68  84 115 173 203 230 282
#     4  10  17  30  47  67  88 106 131 207 252 276
#     4  10  18  32  48  66  92 102 148 220 246 274
#     4  10  21  32  50  59  91 132 153 193 238 274
#
# _framework density 24.645115000000001
#
# number of rings (size 3 to 8) (size 9 to 14) (size 15 to 20)
#    0.000    1.818    2.727    6.545    2.545    0.000 
#    0.000    3.636    0.000    0.000    0.000    0.000 
#    0.000    0.000    0.000    0.000    0.000  887.273 
#
# Total GULP energy -245260.572790 kJ/mol
# GULP energy per Si atom -5574.103927 kJ/mol
# Density = 2.458902 g / cm^3
# Si number density = 24.645115 Si / 1000 Ang^3
#
#
#
# Elastic Constant Matrix: (Units=GPa)
#
#
# Indices 1 2 3 4 5 6 
#
# 1 89.0847 6.8923 10.4917 0.0000 0.0000 0.0000
# 2 6.8923 27.6440 16.6669 0.0000 0.0000 0.0000
# 3 10.4917 16.6669 189.7722 0.0000 0.0000 0.0000
# 4 0.0000 0.0000 0.0000 37.4769 0.0000 0.0000
# 5 0.0000 0.0000 0.0000 0.0000 39.9043 0.0000
# 6 0.0000 0.0000 0.0000 0.0000 0.0000 23.0238
#
#
#
# Elastic Compliance Matrix: (Units=1/GPa)
#
#
# Indices 1 2 3 4 5 6 
#
# 1 0.011475 -0.002617 -0.000405 0.000000 0.000000 0.000000
# 2 -0.002617 0.038794 -0.003262 0.000000 0.000000 0.000000
# 3 -0.000405 -0.003262 0.005578 0.000000 0.000000 0.000000
# 4 0.000000 0.000000 0.000000 0.026683 0.000000 0.000000
# 5 0.000000 0.000000 0.000000 0.000000 0.025060 0.000000
# 6 0.000000 0.000000 0.000000 0.000000 0.000000 0.043433
#
#
# Mechanical properties :
#
#
# Convention : Reuss Voigt Hill
#
# Bulk Modulus (GPa) = 23.10583 41.62254 32.36419
# Shear Modulus (GPa) = 28.08697 38.24432 33.16565
#
# Velocity S-wave (km/s) = 3.37954 3.94356 3.67240
# Velocity P-wave (km/s) = 4.96228 6.13686 5.58056
#
# Compressibility (1/GPa) = 0.04327912
#
# Stress axis : x y z
#
# Youngs Moduli (GPa) = 87.14288 25.77744 179.26398
#
# Poissons Ratio (x) = 0.06746 0.07253
# Poissons Ratio (y) = 0.22807 0.58483
# Poissons Ratio (z) = 0.03526 0.08410
#
# Static dielectric constant tensor:
#      x y z
#    x 1.989610 0.000000 0.000000 
#    y 0.000000 2.127530 0.000000 
#    z 0.000000 0.000000 2.279910 
# 
# From -- ./inp_files/1883.got.cif
#   From: 2010.05.17/outbox.cif.g08.bks.cpg/sg54_1_cif.got.tgz:1883.got - 2010.06.03 13:09:01.
