data_PCOD9420335
_publ_section_title
;
Structure prediction by ZEFSAII (Michael W. Deem and Ramdas Pophale) SiO2 
 PCOD9420335
Probable space group: P C C A
;
_chemical_formula_sum "Si O2"
_cell_formula_units_Z 56
_cell_length_a 13.775639
_cell_length_b 32.779658
_cell_length_c 5.301981
_cell_angle_alpha 90.000000
_cell_angle_beta 90.000000
_cell_angle_gamma 90.000000
_cell_volume 2394.166438
_symmetry_space_group_name_H-M "P C C A"
_symmetry_group_IT_number 54
_symmetry_cell_setting 'orthorhombic'
loop_
_space_group_symop_operation_xyz
x,y,z
1/2-x,-y,z
1/2+x,-y,1/2-z
-x,y,1/2-z
-x,-y,-z
1/2+x,y,-z
1/2-x,y,1/2+z
x,-y,1/2+z
loop_
_atom_site_type_symbol
_atom_site_label
_atom_site_fract_x
_atom_site_fract_y
_atom_site_fract_z
Si Si1 0.813881 0.398515 0.475246
Si Si2 0.888242 0.482680 0.301246
Si Si3 0.359354 0.807361 0.417219
Si Si4 0.313538 0.896489 0.589462
Si Si5 0.391583 0.017642 0.008279
Si Si6 0.186040 0.309819 0.094796
Si Si7 0.633989 0.224034 0.083977
O O1 0.768638 0.400058 0.755321
O O2 0.878660 0.437619 0.414629
O O3 0.862367 0.354025 0.442132
O O4 0.846816 0.512563 0.518110
O O5 0.000000 0.493152 0.250000
O O6 0.358729 0.852326 0.534946
O O7 0.248174 0.790196 0.380984
O O8 0.401815 0.805782 0.136631
O O9 0.405006 0.779147 0.633136
O O10 0.232659 0.899290 0.367459
O O11 0.385087 0.934484 0.556833
O O12 0.347261 0.007241 0.739307
O O13 0.500000 0.000000 0.000000
O O14 0.229810 0.308448 0.377140
O O15 0.127426 0.269174 0.030718
#
# Coordination Sequence:
#
# PCOD9420335 Si02
#       7
#     8   8   8   8   8   8   8
#     4  10  21  32  48  78 108 132 177 219 266 313
#     4  10  21  37  55  72  98 139 180 223 273 323
#     4  10  16  25  41  69 103 134 154 200 251 300
#     4  12  21  32  53  83 110 129 167 224 269 289
#     4  10  23  42  57  71 101 143 179 205 253 325
#     4  10  16  25  41  64  98 139 161 196 241 299
#     4  10  14  25  41  61 102 142 156 187 255 306
#
# _framework density 23.390187000000001
#
# number of rings (size 3 to 8) (size 9 to 14) (size 15 to 20)
#    0.000    1.714    5.714    1.714    0.000    3.429 
#    0.000    0.000    0.000    0.000    0.000    0.000 
#   12.857    0.000    0.000    0.000    0.000    0.000 
#
# Total GULP energy -312520.403573 kJ/mol
# GULP energy per Si atom -5580.721492 kJ/mol
# Density = 2.333695 g / cm^3
# Si number density = 23.390187 Si / 1000 Ang^3
#
#
#
# Elastic Constant Matrix: (Units=GPa)
#
#
# Indices 1 2 3 4 5 6 
#
# 1 39.0462 -17.8608 -7.6532 0.0000 0.0000 0.0000
# 2 -17.8608 136.2983 -10.1767 0.0000 0.0000 0.0000
# 3 -7.6532 -10.1767 129.9421 0.0000 0.0000 0.0000
# 4 0.0000 0.0000 0.0000 37.9229 0.0000 0.0000
# 5 0.0000 0.0000 0.0000 0.0000 5.0875 0.0000
# 6 0.0000 0.0000 0.0000 0.0000 0.0000 -6.9986
#
#
#
# Elastic Compliance Matrix: (Units=1/GPa)
#
#
# Indices 1 2 3 4 5 6 
#
# 1 0.027716 0.003776 0.001928 0.000000 0.000000 0.000000
# 2 0.003776 0.007894 0.000841 0.000000 0.000000 0.000000
# 3 0.001928 0.000841 0.007875 0.000000 0.000000 0.000000
# 4 0.000000 0.000000 0.000000 0.026369 0.000000 0.000000
# 5 0.000000 0.000000 0.000000 0.000000 0.196560 0.000000
# 6 0.000000 0.000000 0.000000 0.000000 0.000000 -0.142885
#
#
# Mechanical properties :
#
#
# Convention : Reuss Voigt Hill
#
# Bulk Modulus (GPa) = 17.67578 25.98946 21.83262
# Shear Modulus (GPa) = 38.67020 29.93418 34.30219
#
# Velocity S-wave (km/s) = 4.07045 3.58128 3.83367
# Velocity P-wave (km/s) = 5.44653 5.31377 5.38056
#
# Compressibility (1/GPa) = 0.05657459
#
# Stress axis : x y z
#
# Youngs Moduli (GPa) = 36.08055 126.67183 126.98195
#
# Poissons Ratio (x) = -0.47830 -0.24483
# Poissons Ratio (y) = -0.13624 -0.10675
# Poissons Ratio (z) = -0.06957 -0.10649
#
# Static dielectric constant tensor:
#      x y z
#    x 1.963440 0.000000 0.000000 
#    y 0.000000 1.878710 0.000000 
#    z 0.000000 0.000000 1.890970 
# 
# From -- ./inp_files/715.got.cif
#   From: 2010.05.17/outbox.cif.g08.bks.cpg/sg54_1_cif.got.tgz:715.got - 2010.06.03 13:09:01.
