data_PCOD9420230
_publ_section_title
;
Structure prediction by ZEFSAII (Michael W. Deem and Ramdas Pophale) SiO2 
 PCOD9420230
Probable space group: P M N A
;
_chemical_formula_sum "Si O2"
_cell_formula_units_Z 64
_cell_length_a 18.000000
_cell_length_b 12.000000
_cell_length_c 15.000000
_cell_angle_alpha 90.000000
_cell_angle_beta 90.000000
_cell_angle_gamma 90.000000
_cell_volume 3240.000000
_symmetry_space_group_name_H-M "P M N A"
_symmetry_group_IT_number 53
_symmetry_cell_setting 'orthorhombic'
loop_
_space_group_symop_operation_xyz
x,y,z
1/2-x,-y,1/2+z
x,-y,-z
1/2-x,y,1/2-z
-x,-y,-z
1/2+x,y,1/2-z
-x,y,z
1/2+x,-y,1/2+z
loop_
_atom_site_type_symbol
_atom_site_label
_atom_site_fract_x
_atom_site_fract_y
_atom_site_fract_z
Si Si1 0.644912 0.227079 0.901887
Si Si2 0.674497 0.512074 0.301701
Si Si3 0.178586 0.311717 0.076927
Si Si4 0.160721 0.844814 0.759858
Si Si5 0.413039 0.913710 0.260002
Si Si6 0.816921 0.245197 0.881875
Si Si7 0.914170 0.470817 0.632244
Si Si8 0.143018 0.293058 0.414026
O O1 0.600511 0.153657 0.831916
O O2 0.732273 0.201865 0.889676
O O3 0.633627 0.360101 0.886641
O O4 0.619728 0.214838 0.003988
O O5 0.750000 0.473083 0.250000
O O6 0.661460 0.434368 0.386529
O O7 0.685135 0.640047 0.326932
O O8 0.606551 0.501389 0.234128
O O9 0.150377 0.222363 0.148605
O O10 0.268499 0.308415 0.075220
O O11 0.153725 0.278677 0.979030
O O12 0.250000 0.859564 0.750000
O O13 0.131788 0.766872 0.679783
O O14 0.121156 0.963231 0.756059
O O15 0.500000 0.917727 0.279639
O O16 0.368092 0.843471 0.333337
O O17 0.893199 0.584584 0.581565
O O18 0.000000 0.444163 0.619127
#
# Coordination Sequence:
#
# PCOD9420230 Si02
#       8
#     8   8   8   8   8   8   8   8
#     4  11  22  39  63  94 123 161 206 252 301 368
#     4  12  18  36  64  91 126 165 200 246 296 360
#     4  10  20  38  66  96 119 155 212 256 300 351
#     4  10  21  42  66  88 118 158 207 262 304 364
#     4  12  26  43  61  85 122 164 206 258 320 374
#     4  11  22  38  66  95 120 159 207 259 301 361
#     4  12  23  35  58  93 133 167 194 237 304 373
#     4  10  21  38  64  94 125 157 203 251 304 364
#
# _framework density 19.753086
#
# number of rings (size 3 to 8) (size 9 to 14) (size 15 to 20)
#    0.000    1.000    5.000    2.625    0.000    5.000 
#    0.000    6.250    0.000    1.500    0.000    0.000 
#    0.000    0.000    0.000    0.000    0.000    0.000 
#
# Total GULP energy -357614.145832 kJ/mol
# GULP energy per Si atom -5587.721029 kJ/mol
# Density = 1.970813 g / cm^3
# Si number density = 19.753086 Si / 1000 Ang^3
#
#
#
# Elastic Constant Matrix: (Units=GPa)
#
#
# Indices 1 2 3 4 5 6 
#
# 1 64.4181 32.8483 27.4919 0.0000 0.0000 0.0000
# 2 32.8483 88.3416 18.8146 0.0000 0.0000 0.0000
# 3 27.4919 18.8146 95.8559 0.0000 0.0000 0.0000
# 4 0.0000 0.0000 0.0000 -3.4999 0.0000 0.0000
# 5 0.0000 0.0000 0.0000 0.0000 4.9732 0.0000
# 6 0.0000 0.0000 0.0000 0.0000 0.0000 4.5013
#
#
#
# Elastic Compliance Matrix: (Units=1/GPa)
#
#
# Indices 1 2 3 4 5 6 
#
# 1 0.020995 -0.006809 -0.004685 0.000000 0.000000 0.000000
# 2 -0.006809 0.014022 -0.000799 0.000000 0.000000 0.000000
# 3 -0.004685 -0.000799 0.011933 0.000000 0.000000 0.000000
# 4 0.000000 0.000000 0.000000 -0.285719 0.000000 0.000000
# 5 0.000000 0.000000 0.000000 0.000000 0.201077 0.000000
# 6 0.000000 0.000000 0.000000 0.000000 0.000000 0.222157
#
#
# Mechanical properties :
#
#
# Convention : Reuss Voigt Hill
#
# Bulk Modulus (GPa) = 44.71644 45.21392 44.96518
# Shear Modulus (GPa) = 23.09412 12.49230 17.79321
#
# Velocity S-wave (km/s) = 3.42298 2.51753 3.00456
# Velocity P-wave (km/s) = 6.18944 5.60266 5.90335
#
# Compressibility (1/GPa) = 0.02236314
#
# Stress axis : x y z
#
# Youngs Moduli (GPa) = 47.63040 71.31805 83.80181
#
# Poissons Ratio (x) = 0.48559 0.39261
# Poissons Ratio (y) = 0.32431 0.06699
# Poissons Ratio (z) = 0.22315 0.05701
#
# Static dielectric constant tensor:
#      x y z
#    x 1.675410 0.000000 0.000000 
#    y 0.000000 1.655290 0.000000 
#    z 0.000000 0.000000 1.763600 
# 
# From -- ./inp_files/23883.got.cif
#   From: 2010.05.17/outbox.ucp.g08.bks.cvg/sg53_12_cif.got.tgz:23883.got - 2010.06.11 16:32:34.
