data_PCOD9420403
_publ_section_title
;
Structure prediction by ZEFSAII (Michael W. Deem and Ramdas Pophale) SiO2 
 PCOD9420403
Probable space group: P C C A
;
_chemical_formula_sum "Si O2"
_cell_formula_units_Z 48
_cell_length_a 18.670511
_cell_length_b 20.991780
_cell_length_c 5.521006
_cell_angle_alpha 90.000000
_cell_angle_beta 90.000000
_cell_angle_gamma 90.000000
_cell_volume 2163.832751
_symmetry_space_group_name_H-M "P C C A"
_symmetry_group_IT_number 54
_symmetry_cell_setting 'orthorhombic'
loop_
_space_group_symop_operation_xyz
x,y,z
1/2-x,-y,z
1/2+x,-y,1/2-z
-x,y,1/2-z
-x,-y,-z
1/2+x,y,-z
1/2-x,y,1/2+z
x,-y,1/2+z
loop_
_atom_site_type_symbol
_atom_site_label
_atom_site_fract_x
_atom_site_fract_y
_atom_site_fract_z
Si Si1 0.500000 0.263935 0.750000
Si Si2 0.834108 0.524817 0.201588
Si Si3 0.347744 0.800979 0.799743
Si Si4 0.625859 0.839190 0.198479
Si Si5 0.581692 0.976338 0.037945
Si Si6 0.789569 0.338652 0.588013
Si Si7 0.000000 0.741746 0.250000
O O1 0.430600 0.218256 0.763721
O O2 0.499407 0.298553 0.494817
O O3 0.750000 0.500000 0.214898
O O4 0.864851 0.509387 0.464660
O O5 0.836428 0.599886 0.150080
O O6 0.323729 0.822105 0.530746
O O7 0.319840 0.731130 0.865291
O O8 0.432578 0.789017 0.759563
O O9 0.339137 0.844999 0.035697
O O10 0.586043 0.903360 0.119894
O O11 0.614046 0.013960 0.269199
O O12 0.500000 0.000000 0.000000
O O13 0.769831 0.343799 0.303739
#
# Coordination Sequence:
#
# PCOD9420403 Si02
#       7
#     4   8   8   8   8   8   4
#     4   8  14  24  44  59  82 131 164 196 224 286
#     4  10  16  30  49  75 106 135 165 213 281 319
#     4  10  21  33  50  73 102 152 175 210 268 323
#     4  10  18  32  45  67 106 136 172 205 261 327
#     4  10  19  28  44  71  99 132 170 215 266 314
#     4  12  21  33  53  80 113 136 181 225 262 330
#     4   8  16  30  44  63  92 129 182 196 234 314
#
# _framework density 22.182860999999999
#
# number of rings (size 3 to 8) (size 9 to 14) (size 15 to 20)
#    0.000    2.000    3.333    3.000    0.000    6.667 
#    0.000    0.000    0.000    0.000    0.000    1.167 
#    0.000   46.667    0.000    0.000    0.000    0.000 
#
# Total GULP energy -267308.363728 kJ/mol
# GULP energy per Si atom -5568.924244 kJ/mol
# Density = 2.213237 g / cm^3
# Si number density = 22.182861 Si / 1000 Ang^3
#
#
#
# Elastic Constant Matrix: (Units=GPa)
#
#
# Indices 1 2 3 4 5 6 
#
# 1 28.0552 -6.8541 -4.0192 0.0000 0.0000 0.0000
# 2 -6.8541 74.7009 8.6121 0.0000 0.0000 0.0000
# 3 -4.0192 8.6121 217.6158 0.0000 0.0000 0.0000
# 4 0.0000 0.0000 0.0000 29.7958 0.0000 0.0000
# 5 0.0000 0.0000 0.0000 0.0000 -5.1312 0.0000
# 6 0.0000 0.0000 0.0000 0.0000 0.0000 -0.1446
#
#
#
# Elastic Compliance Matrix: (Units=1/GPa)
#
#
# Indices 1 2 3 4 5 6 
#
# 1 0.036525 0.003289 0.000544 0.000000 0.000000 0.000000
# 2 0.003289 0.013744 -0.000483 0.000000 0.000000 0.000000
# 3 0.000544 -0.000483 0.004624 0.000000 0.000000 0.000000
# 4 0.000000 0.000000 0.000000 0.033562 0.000000 0.000000
# 5 0.000000 0.000000 0.000000 0.000000 -0.194884 0.000000
# 6 0.000000 0.000000 0.000000 0.000000 0.000000 -6.916977
#
#
# Mechanical properties :
#
#
# Convention : Reuss Voigt Hill
#
# Bulk Modulus (GPa) = 16.23540 35.09438 25.66489
# Shear Modulus (GPa) = -0.71331 26.41287 12.84978
#
# Velocity S-wave (km/s) = -0.56768 3.45438 2.40941
# Velocity P-wave (km/s) = 2.62776 5.63606 4.39717
#
# Compressibility (1/GPa) = 0.06159380
#
# Stress axis : x y z
#
# Youngs Moduli (GPa) = 27.37817 72.75811 216.24281
#
# Poissons Ratio (x) = -0.23927 -0.11773
# Poissons Ratio (y) = -0.09004 0.10449
# Poissons Ratio (z) = -0.01491 0.03516
#
# Static dielectric constant tensor:
#      x y z
#    x 1.865400 0.000000 0.000000 
#    y 0.000000 1.769940 0.000000 
#    z 0.000000 0.000000 1.981620 
# 
# From -- ./inp_files/1662.got.cif
#   From: 2010.05.17/outbox.cif.g08.bks.cpg/sg54_1_cif.got.tgz:1662.got - 2010.06.03 13:09:01.
