data_PCOD9420408
_publ_section_title
;
Structure prediction by ZEFSAII (Michael W. Deem and Ramdas Pophale) SiO2 
 PCOD9420408
Probable space group: P C C A
;
_chemical_formula_sum "Si O2"
_cell_formula_units_Z 52
_cell_length_a 5.364111
_cell_length_b 15.605449
_cell_length_c 31.887871
_cell_angle_alpha 90.000000
_cell_angle_beta 90.000000
_cell_angle_gamma 90.000000
_cell_volume 2669.313294
_symmetry_space_group_name_H-M "P C C A"
_symmetry_group_IT_number 54
_symmetry_cell_setting 'orthorhombic'
loop_
_space_group_symop_operation_xyz
x,y,z
1/2-x,-y,z
1/2+x,-y,1/2-z
-x,y,1/2-z
-x,-y,-z
1/2+x,y,-z
1/2-x,y,1/2+z
x,-y,1/2+z
loop_
_atom_site_type_symbol
_atom_site_label
_atom_site_fract_x
_atom_site_fract_y
_atom_site_fract_z
Si Si1 0.999972 0.368632 0.024523
Si Si2 0.500000 0.942827 0.750000
Si Si3 0.000028 0.665998 0.881349
Si Si4 0.500000 0.942385 0.841724
Si Si5 0.499974 0.178589 0.009232
Si Si6 1.000000 0.442901 0.203525
Si Si7 0.999971 0.773258 0.394574
O O1 0.999980 0.386795 0.074280
O O2 0.749969 0.396948 0.000001
O O3 0.999972 0.263993 0.020168
O O4 0.250000 0.000000 0.750000
O O5 0.499999 0.898957 0.795210
O O6 0.749175 0.722476 0.882270
O O7 0.000007 0.613818 0.838205
O O8 0.250907 0.722463 0.882270
O O9 0.500005 0.866969 0.874779
O O10 0.750000 0.000000 0.845307
O O11 0.250000 0.000000 0.845307
O O12 0.499975 0.214843 0.055700
O O13 0.749973 0.128792 1.000000
O O14 0.750000 0.500000 0.202116
O O15 0.250000 0.500000 0.202115
O O16 0.000000 0.399260 0.250000
#
# Coordination Sequence:
#
# PCOD9420408 Si02
#       7
#     8   4   8   8   8   8   8
#     4  10  16  30  51  82 111 149 183 232 280 353
#     4   8  16  34  56  68  92 144 184 208 276 368
#     4  12  21  35  61  94 111 145 204 247 279 330
#     4  10  21  38  55  77 112 155 192 231 299 366
#     4  10  16  30  49  77 107 152 184 224 281 359
#     4  10  23  45  66  84 120 166 191 222 292 366
#     4  12  21  33  58  90 114 144 195 256 286 324
#
# _framework density 19.480664000000001
#
# number of rings (size 3 to 8) (size 9 to 14) (size 15 to 20)
#    0.000    1.538    6.154    1.846    0.000    0.000 
#    2.769    0.000    0.000    5.538    0.000    0.000 
#    0.000    0.000    0.000    0.000    0.000    0.000 
#
# Total GULP energy -289930.438927 kJ/mol
# GULP energy per Si atom -5575.585364 kJ/mol
# Density = 1.943633 g / cm^3
# Si number density = 19.480664 Si / 1000 Ang^3
#
#
#
# Elastic Constant Matrix: (Units=GPa)
#
#
# Indices 1 2 3 4 5 6 
#
# 1 217.9477 39.0016 56.7651 0.0000 0.0000 0.0000
# 2 39.0016 34.8205 51.2219 0.0000 0.0000 0.0000
# 3 56.7651 51.2219 174.9897 0.0000 0.0000 0.0000
# 4 0.0000 0.0000 0.0000 -8.6032 0.0000 0.0000
# 5 0.0000 0.0000 0.0000 0.0000 17.1270 0.0000
# 6 0.0000 0.0000 0.0000 0.0000 0.0000 10.9604
#
#
#
# Elastic Compliance Matrix: (Units=1/GPa)
#
#
# Indices 1 2 3 4 5 6 
#
# 1 0.005739 -0.006479 0.000035 0.000000 0.000000 0.000000
# 2 -0.006479 0.057751 -0.014803 0.000000 0.000000 0.000000
# 3 0.000035 -0.014803 0.010036 0.000000 0.000000 0.000000
# 4 0.000000 0.000000 0.000000 -0.116236 0.000000 0.000000
# 5 0.000000 0.000000 0.000000 0.000000 0.058387 0.000000
# 6 0.000000 0.000000 0.000000 0.000000 0.000000 0.091238
#
#
# Mechanical properties :
#
#
# Convention : Reuss Voigt Hill
#
# Bulk Modulus (GPa) = 32.22460 80.19279 56.20870
# Shear Modulus (GPa) = 31.29815 22.61478 26.95647
#
# Velocity S-wave (km/s) = 4.01262 3.41087 3.72392
# Velocity P-wave (km/s) = 6.16814 7.53437 6.88523
#
# Compressibility (1/GPa) = 0.03103219
#
# Stress axis : x y z
#
# Youngs Moduli (GPa) = 174.25922 17.31563 99.63858
#
# Poissons Ratio (x) = 0.11219 -0.00349
# Poissons Ratio (y) = 1.12905 1.47493
# Poissons Ratio (z) = -0.00610 0.25632
#
# Static dielectric constant tensor:
#      x y z
#    x 1.742130 0.000000 0.000000 
#    y 0.000000 1.641950 0.000000 
#    z 0.000000 0.000000 1.795490 
# 
# From -- ./inp_files/27267.got.cif
#   From: 2010.05.17/outbox.cif.g08.bks.cpg/sg54_14_cif.got.tgz:27267.got - 2010.06.03 13:09:01.
