data_PCOD9420578
_publ_section_title
;
Structure prediction by ZEFSAII (Michael W. Deem and Ramdas Pophale) SiO2 
 PCOD9420578
Probable space group: P C C A
;
_chemical_formula_sum "Si O2"
_cell_formula_units_Z 52
_cell_length_a 5.055416
_cell_length_b 19.926602
_cell_length_c 26.908293
_cell_angle_alpha 90.000000
_cell_angle_beta 90.000000
_cell_angle_gamma 90.000000
_cell_volume 2710.667777
_symmetry_space_group_name_H-M "P C C A"
_symmetry_group_IT_number 54
_symmetry_cell_setting 'orthorhombic'
loop_
_space_group_symop_operation_xyz
x,y,z
1/2-x,-y,z
1/2+x,-y,1/2-z
-x,y,1/2-z
-x,-y,-z
1/2+x,y,-z
1/2-x,y,1/2+z
x,-y,1/2+z
loop_
_atom_site_type_symbol
_atom_site_label
_atom_site_fract_x
_atom_site_fract_y
_atom_site_fract_z
Si Si1 0.250000 0.000000 0.714083
Si Si2 0.386056 0.332798 0.318531
Si Si3 0.279479 0.217343 0.034196
Si Si4 0.913400 0.273595 0.366260
Si Si5 0.000000 0.454766 0.750000
Si Si6 0.176947 0.068361 0.533844
Si Si7 0.131171 0.144968 0.194539
Si Si8 0.000000 0.227474 0.750000
O O1 0.165315 0.933589 0.683660
O O2 0.500000 0.982838 0.750000
O O3 0.674628 0.307632 0.335485
O O4 0.408610 0.405571 0.294563
O O5 0.299588 0.280759 0.274602
O O6 0.170558 0.319857 0.360620
O O7 0.195041 0.265065 0.078440
O O8 0.270821 0.141126 0.056045
O O9 0.567775 0.224496 0.010232
O O10 0.981499 0.198711 0.344489
O O11 0.750000 0.500000 0.764380
O O12 0.378705 0.066500 0.486550
O O13 0.250000 0.000000 0.562205
O O14 0.414177 0.178124 0.206339
O O15 0.000000 0.147771 0.250000
#
# Coordination Sequence:
#
# PCOD9420578 Si02
#       8
#     4   8   8   8   4   8   8   4
#     4  10  20  30  46  66  98 138 184 238 294 330
#     4  10  21  34  55  83 116 146 189 210 258 331
#     4  10  20  35  52  74 105 140 186 247 302 334
#     4  11  21  34  55  80 109 149 193 233 278 338
#     4  11  22  38  62  92 133 164 180 210 261 320
#     4   8  14  26  45  64  86 124 171 224 295 360
#     4  10  18  31  48  70 101 139 183 234 281 338
#     4   9  16  30  48  70 101 140 172 218 257 316
#
# _framework density 19.183465999999999
#
# number of rings (size 3 to 8) (size 9 to 14) (size 15 to 20)
#    0.000    2.154    2.308    1.846    0.000    0.000 
#    1.385    0.000    0.000    0.000    2.000    0.000 
#    0.000   43.077    0.000    0.000    0.000    0.000 
#
# Total GULP energy -289495.051625 kJ/mol
# GULP energy per Si atom -5567.212531 kJ/mol
# Density = 1.913980 g / cm^3
# Si number density = 19.183466 Si / 1000 Ang^3
#
#
#
# Elastic Constant Matrix: (Units=GPa)
#
#
# Indices 1 2 3 4 5 6 
#
# 1 74.0398 17.9448 -7.2015 0.0000 0.0000 0.0000
# 2 17.9448 104.7649 16.6871 0.0000 0.0000 0.0000
# 3 -7.2015 16.6871 30.2009 0.0000 0.0000 0.0000
# 4 0.0000 0.0000 0.0000 11.7113 0.0000 0.0000
# 5 0.0000 0.0000 0.0000 0.0000 14.5132 0.0000
# 6 0.0000 0.0000 0.0000 0.0000 0.0000 26.3399
#
#
#
# Elastic Compliance Matrix: (Units=1/GPa)
#
#
# Indices 1 2 3 4 5 6 
#
# 1 0.014861 -0.003410 0.005428 0.000000 0.000000 0.000000
# 2 -0.003410 0.011249 -0.007028 0.000000 0.000000 0.000000
# 3 0.005428 -0.007028 0.038289 0.000000 0.000000 0.000000
# 4 0.000000 0.000000 0.000000 0.085388 0.000000 0.000000
# 5 0.000000 0.000000 0.000000 0.000000 0.068903 0.000000
# 6 0.000000 0.000000 0.000000 0.000000 0.000000 0.037965
#
#
# Mechanical properties :
#
#
# Convention : Reuss Voigt Hill
#
# Bulk Modulus (GPa) = 18.39003 29.31850 23.85426
# Shear Modulus (GPa) = 17.55608 22.61788 20.08698
#
# Velocity S-wave (km/s) = 3.02845 3.43743 3.23940
# Velocity P-wave (km/s) = 4.67289 5.57413 5.14329
#
# Compressibility (1/GPa) = 0.05437729
#
# Stress axis : x y z
#
# Youngs Moduli (GPa) = 67.29185 88.89858 26.11692
#
# Poissons Ratio (x) = 0.30314 -0.14175
# Poissons Ratio (y) = 0.22946 0.18356
# Poissons Ratio (z) = -0.36524 0.62482
#
# Static dielectric constant tensor:
#      x y z
#    x 1.750730 0.000000 0.000000 
#    y 0.000000 1.689310 0.000000 
#    z 0.000000 0.000000 1.684120 
# 
# From -- ./inp_files/25478.got.cif
#   From: 2010.05.17/outbox.cif.g08.bks.cpg/sg54_13_cif.got.tgz:25478.got - 2010.06.03 13:09:01.
