data_PCOD9420173
_publ_section_title
;
Structure prediction by ZEFSAII (Michael W. Deem and Ramdas Pophale) SiO2 
 PCOD9420173
Probable space group: P M N A
;
_chemical_formula_sum "Si O2"
_cell_formula_units_Z 64
_cell_length_a 9.000000
_cell_length_b 21.000000
_cell_length_c 18.000000
_cell_angle_alpha 90.000000
_cell_angle_beta 90.000000
_cell_angle_gamma 90.000000
_cell_volume 3402.000000
_symmetry_space_group_name_H-M "P M N A"
_symmetry_group_IT_number 53
_symmetry_cell_setting 'orthorhombic'
loop_
_space_group_symop_operation_xyz
x,y,z
1/2-x,-y,1/2+z
x,-y,-z
1/2-x,y,1/2-z
-x,-y,-z
1/2+x,y,1/2-z
-x,y,z
1/2+x,-y,1/2+z
loop_
_atom_site_type_symbol
_atom_site_label
_atom_site_fract_x
_atom_site_fract_y
_atom_site_fract_z
Si Si1 0.177260 0.846454 0.830974
Si Si2 0.319869 0.693009 0.168198
Si Si3 0.321476 0.025534 0.168393
Si Si4 0.326432 0.274124 0.098242
Si Si5 0.174304 0.799795 0.445951
Si Si6 0.178205 0.062105 0.946431
Si Si7 0.820926 0.590442 0.667734
Si Si8 0.320859 0.551489 0.167931
O O1 0.250000 0.845364 0.750000
O O2 0.253867 0.909060 0.867184
O O3 0.222466 0.778555 0.863847
O O4 0.000000 0.855200 0.829934
O O5 0.250000 0.695271 0.250000
O O6 0.500000 0.695019 0.171708
O O7 0.272346 0.755935 0.122763
O O8 0.280674 0.621817 0.135514
O O9 0.250000 0.022764 0.250000
O O10 0.500000 0.029677 0.170307
O O11 0.264302 0.963427 0.125968
O O12 0.500000 0.265739 0.122544
O O13 0.283782 0.346858 0.118588
O O14 0.320220 0.251303 0.013268
O O15 0.261193 0.866028 0.461982
O O16 0.000000 0.816891 0.435807
O O17 0.000000 0.066357 0.937269
O O18 0.204303 0.000000 0.000000
O O19 0.750000 0.597520 0.750000
O O20 0.779410 0.519330 0.636956
O O21 0.000000 0.590589 0.675388
O O22 0.250000 0.551363 0.250000
O O23 0.500000 0.551488 0.172736
#
# Coordination Sequence:
#
# PCOD9420173 Si02
#       8
#     8   8   8   8   8   8   8   8
#     4  11  21  34  53  78 108 142 180 218 260 311
#     4   9  18  34  56  80 105 136 175 220 269 321
#     4  11  22  38  60  84 110 138 172 217 269 322
#     4  10  20  34  50  72 106 144 181 221 265 314
#     4  10  22  38  55  77 106 140 177 218 269 326
#     4  11  24  41  60  82 108 140 180 223 268 322
#     4   9  17  29  48  75 105 139 178 219 261 307
#     4   8  14  27  48  74 103 134 172 216 262 311
#
# _framework density 18.812463000000001
#
# number of rings (size 3 to 8) (size 9 to 14) (size 15 to 20)
#    0.000    2.125    0.000    4.500    0.000    6.000 
#    0.000    1.875    0.000    3.750    0.000    0.000 
#    0.000   12.000    0.000    0.000    0.000    0.000 
#
# Total GULP energy -356356.583920 kJ/mol
# GULP energy per Si atom -5568.071624 kJ/mol
# Density = 1.876965 g / cm^3
# Si number density = 18.812463 Si / 1000 Ang^3
#
#
#
# Elastic Constant Matrix: (Units=GPa)
#
#
# Indices 1 2 3 4 5 6 
#
# 1 72.5616 45.2154 23.6581 0.0000 0.0000 0.0000
# 2 45.2154 177.9427 49.4561 0.0000 0.0000 0.0000
# 3 23.6581 49.4561 48.7074 0.0000 0.0000 0.0000
# 4 0.0000 0.0000 0.0000 32.4671 0.0000 0.0000
# 5 0.0000 0.0000 0.0000 0.0000 15.4945 0.0000
# 6 0.0000 0.0000 0.0000 0.0000 0.0000 27.0825
#
#
#
# Elastic Compliance Matrix: (Units=1/GPa)
#
#
# Indices 1 2 3 4 5 6 
#
# 1 0.017375 -0.002883 -0.005512 0.000000 0.000000 0.000000
# 2 -0.002883 0.008308 -0.007035 0.000000 0.000000 0.000000
# 3 -0.005512 -0.007035 0.030351 0.000000 0.000000 0.000000
# 4 0.000000 0.000000 0.000000 0.030800 0.000000 0.000000
# 5 0.000000 0.000000 0.000000 0.000000 0.064539 0.000000
# 6 0.000000 0.000000 0.000000 0.000000 0.000000 0.036924
#
#
# Mechanical properties :
#
#
# Convention : Reuss Voigt Hill
#
# Bulk Modulus (GPa) = 39.72392 59.54122 49.63257
# Shear Modulus (GPa) = 21.97329 27.06762 24.52046
#
# Velocity S-wave (km/s) = 3.42134 3.79728 3.61420
# Velocity P-wave (km/s) = 6.06374 7.13754 6.62244
#
# Compressibility (1/GPa) = 0.02517375
#
# Stress axis : x y z
#
# Youngs Moduli (GPa) = 57.55367 120.37141 32.94763
#
# Poissons Ratio (x) = 0.34704 0.18161
# Poissons Ratio (y) = 0.16593 0.23179
# Poissons Ratio (z) = 0.31724 0.84681
#
# Static dielectric constant tensor:
#      x y z
#    x 1.626580 0.000000 0.000000 
#    y 0.000000 1.697540 0.000000 
#    z 0.000000 0.000000 1.729730 
# 
# From -- ./inp_files/26892.got.cif
#   From: 2010.05.17/outbox.ucp.g08.bks.cvg/sg53_14_cif.got.tgz:26892.got - 2010.06.11 16:32:34.
