data_PCOD9420716
_publ_section_title
;
Structure prediction by ZEFSAII (Michael W. Deem and Ramdas Pophale) SiO2 
 PCOD9420716
Probable space group: P C C A
;
_chemical_formula_sum "Si O2"
_cell_formula_units_Z 44
_cell_length_a 10.179494
_cell_length_b 10.365519
_cell_length_c 24.857061
_cell_angle_alpha 90.000000
_cell_angle_beta 90.000000
_cell_angle_gamma 90.000000
_cell_volume 2622.811148
_symmetry_space_group_name_H-M "P C C A"
_symmetry_group_IT_number 54
_symmetry_cell_setting 'orthorhombic'
loop_
_space_group_symop_operation_xyz
x,y,z
1/2-x,-y,z
1/2+x,-y,1/2-z
-x,y,1/2-z
-x,-y,-z
1/2+x,y,-z
1/2-x,y,1/2+z
x,-y,1/2+z
loop_
_atom_site_type_symbol
_atom_site_label
_atom_site_fract_x
_atom_site_fract_y
_atom_site_fract_z
Si Si1 0.119789 0.082426 0.937392
Si Si2 0.507660 0.153127 0.172161
Si Si3 0.201122 0.788025 0.667441
Si Si4 0.500000 0.075628 0.750000
Si Si5 0.629907 0.100828 0.945806
Si Si6 0.500000 0.616143 0.750000
Si Si7 0.250000 0.500000 0.700481
O O1 0.073929 0.160625 0.885704
O O2 0.250000 0.000000 0.927331
O O3 0.134200 0.159162 0.993823
O O4 0.004171 0.978161 0.943414
O O5 0.554320 0.026234 0.205087
O O6 0.539386 0.283806 0.203412
O O7 0.347352 0.147766 0.170239
O O8 0.141980 0.819378 0.608886
O O9 0.122106 0.470244 0.735000
O O10 0.222987 0.634356 0.670310
O O11 0.108064 0.840710 0.716333
O O12 0.750000 0.000000 0.944954
#
# Coordination Sequence:
#
# PCOD9420716 Si02
#       7
#     8   8   8   4   8   4   4
#     4  10  20  31  53  87 114 135 169 214 284 337
#     4  10  20  35  55  80 114 138 167 224 289 321
#     4  11  20  36  56  75 110 147 181 221 260 333
#     4  11  19  30  54  84 103 135 178 220 272 321
#     4  10  18  35  56  80 110 142 172 220 276 331
#     4   9  21  38  56  74 105 145 180 226 264 321
#     4  10  22  38  54  74 100 152 190 212 264 312
#
# _framework density 16.775893
#
# number of rings (size 3 to 8) (size 9 to 14) (size 15 to 20)
#    0.000    1.818    3.636    1.091    0.000    4.364 
#    3.273    0.000    0.000    5.455    0.000    0.000 
#    0.000    0.000    0.000    0.000    0.000    0.000 
#
# Total GULP energy -244985.467350 kJ/mol
# GULP energy per Si atom -5567.851531 kJ/mol
# Density = 1.673771 g / cm^3
# Si number density = 16.775893 Si / 1000 Ang^3
#
#
#
# Elastic Constant Matrix: (Units=GPa)
#
#
# Indices 1 2 3 4 5 6 
#
# 1 98.7981 35.5568 49.6231 0.0000 0.0000 0.0000
# 2 35.5568 68.7986 50.4311 0.0000 0.0000 0.0000
# 3 49.6231 50.4311 158.3567 0.0000 0.0000 0.0000
# 4 0.0000 0.0000 0.0000 6.0988 0.0000 0.0000
# 5 0.0000 0.0000 0.0000 0.0000 26.0061 0.0000
# 6 0.0000 0.0000 0.0000 0.0000 0.0000 16.6822
#
#
#
# Elastic Compliance Matrix: (Units=1/GPa)
#
#
# Indices 1 2 3 4 5 6 
#
# 1 0.013184 -0.004938 -0.002559 0.000000 0.000000 0.000000
# 2 -0.004938 0.020811 -0.005080 0.000000 0.000000 0.000000
# 3 -0.002559 -0.005080 0.008735 0.000000 0.000000 0.000000
# 4 0.000000 0.000000 0.000000 0.163968 0.000000 0.000000
# 5 0.000000 0.000000 0.000000 0.000000 0.038452 0.000000
# 6 0.000000 0.000000 0.000000 0.000000 0.000000 0.059944
#
#
# Mechanical properties :
#
#
# Convention : Reuss Voigt Hill
#
# Bulk Modulus (GPa) = 56.89725 66.35281 61.62503
# Shear Modulus (GPa) = 14.87621 22.44692 18.66157
#
# Velocity S-wave (km/s) = 2.98108 3.66190 3.33889
# Velocity P-wave (km/s) = 6.77044 7.58404 7.18876
#
# Compressibility (1/GPa) = 0.01757554
#
# Stress axis : x y z
#
# Youngs Moduli (GPa) = 75.84923 48.05084 114.48796
#
# Poissons Ratio (x) = 0.23729 0.29294
# Poissons Ratio (y) = 0.37456 0.58162
# Poissons Ratio (z) = 0.19408 0.24411
#
# Static dielectric constant tensor:
#      x y z
#    x 1.568880 0.000000 0.000000 
#    y 0.000000 1.536730 0.000000 
#    z 0.000000 0.000000 1.657520 
# 
# From -- ./inp_files/24008.got.cif
#   From: 2010.05.17/outbox.cif.g08.bks.cpg/sg54_13_cif.got.tgz:24008.got - 2010.06.03 13:09:01.
