data_PCOD9420935
_publ_section_title
;
Structure prediction by ZEFSAII (Michael W. Deem and Ramdas Pophale) SiO2 
 PCOD9420935
Probable space group: P C C A
;
_chemical_formula_sum "Si O2"
_cell_formula_units_Z 40
_cell_length_a 16.601341
_cell_length_b 12.905583
_cell_length_c 8.865363
_cell_angle_alpha 90.000000
_cell_angle_beta 90.000000
_cell_angle_gamma 90.000000
_cell_volume 1899.403883
_symmetry_space_group_name_H-M "P C C A"
_symmetry_group_IT_number 54
_symmetry_cell_setting 'orthorhombic'
loop_
_space_group_symop_operation_xyz
x,y,z
1/2-x,-y,z
1/2+x,-y,1/2-z
-x,y,1/2-z
-x,-y,-z
1/2+x,y,-z
1/2-x,y,1/2+z
x,-y,1/2+z
loop_
_atom_site_type_symbol
_atom_site_label
_atom_site_fract_x
_atom_site_fract_y
_atom_site_fract_z
Si Si1 0.473428 0.362746 0.536666
Si Si2 0.500000 0.186312 0.750000
Si Si3 0.000000 0.544325 0.250000
Si Si4 0.250000 0.500000 0.212049
Si Si5 0.250000 0.000000 0.132482
Si Si6 0.337193 0.127063 0.885502
Si Si7 0.833066 0.638136 0.539652
O O1 0.451747 0.261784 0.632364
O O2 0.447938 0.385176 0.364884
O O3 0.455753 0.463256 0.638395
O O4 0.570466 0.356187 0.525773
O O5 0.431709 0.127138 0.842167
O O6 0.192303 0.434576 0.321749
O O7 0.293159 0.415802 0.104854
O O8 0.184053 0.947678 0.024169
O O9 0.289255 0.914691 0.240988
O O10 0.309473 0.243091 0.929140
#
# Coordination Sequence:
#
# PCOD9420935 Si02
#       7
#     8   4   4   4   4   8   8
#     4   9  17  30  48  72 105 146 180 226 271 317
#     4   9  20  36  56  81 114 142 178 233 290 335
#     4   9  16  28  46  71 102 140 186 211 258 323
#     4  10  20  30  50  80 110 154 186 214 264 332
#     4  10  22  40  64  82 106 148 192 234 294 338
#     4  10  21  40  60  85 113 146 188 239 284 337
#     4  10  19  33  50  76 112 142 183 224 266 322
#
# _framework density 21.059239000000002
#
# number of rings (size 3 to 8) (size 9 to 14) (size 15 to 20)
#    0.000    2.400    0.000    2.400    0.000    2.400 
#    0.000   10.000    0.000    0.000    0.000    0.000 
#    0.000    0.000    0.000    0.000    0.000    0.000 
#
# Total GULP energy -223241.788305 kJ/mol
# GULP energy per Si atom -5581.044708 kJ/mol
# Density = 2.101131 g / cm^3
# Si number density = 21.059239 Si / 1000 Ang^3
#
#
#
# Elastic Constant Matrix: (Units=GPa)
#
#
# Indices 1 2 3 4 5 6 
#
# 1 46.1425 26.7275 16.0399 0.0000 0.0000 0.0000
# 2 26.7275 104.2509 40.2164 0.0000 0.0000 0.0000
# 3 16.0399 40.2164 137.5053 0.0000 0.0000 0.0000
# 4 0.0000 0.0000 0.0000 20.5987 0.0000 0.0000
# 5 0.0000 0.0000 0.0000 0.0000 13.8146 0.0000
# 6 0.0000 0.0000 0.0000 0.0000 0.0000 29.9497
#
#
#
# Elastic Compliance Matrix: (Units=1/GPa)
#
#
# Indices 1 2 3 4 5 6 
#
# 1 0.025627 -0.006106 -0.001204 0.000000 0.000000 0.000000
# 2 -0.006106 0.012267 -0.002875 0.000000 0.000000 0.000000
# 3 -0.001204 -0.002875 0.008254 0.000000 0.000000 0.000000
# 4 0.000000 0.000000 0.000000 0.048547 0.000000 0.000000
# 5 0.000000 0.000000 0.000000 0.000000 0.072387 0.000000
# 6 0.000000 0.000000 0.000000 0.000000 0.000000 0.033389
#
#
# Mechanical properties :
#
#
# Convention : Reuss Voigt Hill
#
# Bulk Modulus (GPa) = 38.79281 50.42958 44.61119
# Shear Modulus (GPa) = 21.79281 26.53361 24.16321
#
# Velocity S-wave (km/s) = 3.22037 3.55343 3.39099
# Velocity P-wave (km/s) = 5.68230 6.39018 6.04661
#
# Compressibility (1/GPa) = 0.02577798
#
# Stress axis : x y z
#
# Youngs Moduli (GPa) = 39.02109 81.52004 121.15577
#
# Poissons Ratio (x) = 0.49775 0.14582
# Poissons Ratio (y) = 0.23826 0.34838
# Poissons Ratio (z) = 0.04697 0.23441
#
# Static dielectric constant tensor:
#      x y z
#    x 1.813180 0.000000 0.000000 
#    y 0.000000 1.767070 0.000000 
#    z 0.000000 0.000000 1.842400 
# 
# From -- ./inp_files/4028.got.cif
#   From: 2010.05.17/outbox.cif.g08.bks.cpg/sg54_3_cif.got.tgz:4028.got - 2010.06.03 13:09:01.
