data_PCOD9420992
_publ_section_title
;
Structure prediction by ZEFSAII (Michael W. Deem and Ramdas Pophale) SiO2 
 PCOD9420992
Probable space group: P C C A
;
_chemical_formula_sum "Si O2"
_cell_formula_units_Z 48
_cell_length_a 9.161085
_cell_length_b 8.362300
_cell_length_c 26.065096
_cell_angle_alpha 90.000000
_cell_angle_beta 90.000000
_cell_angle_gamma 90.000000
_cell_volume 1996.788126
_symmetry_space_group_name_H-M "P C C A"
_symmetry_group_IT_number 54
_symmetry_cell_setting 'orthorhombic'
loop_
_space_group_symop_operation_xyz
x,y,z
1/2-x,-y,z
1/2+x,-y,1/2-z
-x,y,1/2-z
-x,-y,-z
1/2+x,y,-z
1/2-x,y,1/2+z
x,-y,1/2+z
loop_
_atom_site_type_symbol
_atom_site_label
_atom_site_fract_x
_atom_site_fract_y
_atom_site_fract_z
Si Si1 0.788753 0.771532 0.598274
Si Si2 0.750000 0.500000 0.766482
Si Si3 0.771008 0.742453 0.441525
Si Si4 0.000000 0.266949 0.750000
Si Si5 0.250000 0.500000 0.978911
Si Si6 0.057134 0.595360 0.642729
Si Si7 0.509057 0.787326 0.859638
Si Si8 0.250000 0.000000 0.482676
O O1 0.710657 0.637110 0.561978
O O2 0.655222 0.838930 0.630460
O O3 0.848510 0.898769 0.556915
O O4 0.909189 0.692528 0.634223
O O5 0.637973 0.615919 0.737390
O O6 0.647296 0.393678 0.804333
O O7 0.841064 0.607934 0.479965
O O8 0.660814 0.657517 0.402703
O O9 0.690173 0.865197 0.479350
O O10 0.885429 0.836105 0.405877
O O11 0.955958 0.171123 0.800806
O O12 0.026822 0.406413 0.638548
#
# Coordination Sequence:
#
# PCOD9420992 Si02
#       8
#     8   4   8   4   4   8   8   4
#     4  11  24  37  61  90 133 167 217 256 317 372
#     4  10  21  35  62 102 134 150 209 269 344 378
#     4  11  21  39  61  85 134 166 215 256 317 366
#     4  10  22  36  62 100 126 158 202 274 334 384
#     4  10  19  33  58  86 116 178 207 245 304 386
#     4  11  19  38  59  91 125 169 198 264 313 379
#     4  11  21  39  62  94 126 165 210 272 317 381
#     4  10  28  42  58 100 128 182 212 264 306 394
#
# _framework density 24.038602999999998
#
# number of rings (size 3 to 8) (size 9 to 14) (size 15 to 20)
#    0.000    1.333    6.667    0.000    4.667    9.333 
#    0.000    0.000    0.000    1.000    0.000    1.167 
#    0.000    0.000    0.000    0.000    0.000    0.000 
#
# Total GULP energy -267378.457765 kJ/mol
# GULP energy per Si atom -5570.384537 kJ/mol
# Density = 2.398389 g / cm^3
# Si number density = 24.038603 Si / 1000 Ang^3
#
#
#
# Elastic Constant Matrix: (Units=GPa)
#
#
# Indices 1 2 3 4 5 6 
#
# 1 83.7642 3.2292 14.1114 0.0000 0.0000 0.0000
# 2 3.2292 54.5115 20.3134 0.0000 0.0000 0.0000
# 3 14.1114 20.3134 95.3300 0.0000 0.0000 0.0000
# 4 0.0000 0.0000 0.0000 21.8379 0.0000 0.0000
# 5 0.0000 0.0000 0.0000 0.0000 7.4883 0.0000
# 6 0.0000 0.0000 0.0000 0.0000 0.0000 6.3582
#
#
#
# Elastic Compliance Matrix: (Units=1/GPa)
#
#
# Indices 1 2 3 4 5 6 
#
# 1 0.012244 -0.000054 -0.001801 0.000000 0.000000 0.000000
# 2 -0.000054 0.019927 -0.004238 0.000000 0.000000 0.000000
# 3 -0.001801 -0.004238 0.011660 0.000000 0.000000 0.000000
# 4 0.000000 0.000000 0.000000 0.045792 0.000000 0.000000
# 5 0.000000 0.000000 0.000000 0.000000 0.133541 0.000000
# 6 0.000000 0.000000 0.000000 0.000000 0.000000 0.157278
#
#
# Mechanical properties :
#
#
# Convention : Reuss Voigt Hill
#
# Bulk Modulus (GPa) = 31.60150 34.32374 32.96262
# Shear Modulus (GPa) = 12.40151 20.20033 16.30092
#
# Velocity S-wave (km/s) = 2.27381 2.90199 2.60689
# Velocity P-wave (km/s) = 4.47976 5.05354 4.77528
#
# Compressibility (1/GPa) = 0.03164407
#
# Stress axis : x y z
#
# Youngs Moduli (GPa) = 81.67435 50.18247 85.76668
#
# Poissons Ratio (x) = 0.00272 0.15445
# Poissons Ratio (y) = 0.00443 0.36349
# Poissons Ratio (z) = 0.14708 0.21268
#
# Static dielectric constant tensor:
#      x y z
#    x 1.942540 0.000000 0.000000 
#    y 0.000000 1.981280 0.000000 
#    z 0.000000 0.000000 1.942670 
# 
# From -- ./inp_files/27848.got.cif
#   From: 2010.05.17/outbox.cif.g08.bks.cpg/sg54_14_cif.got.tgz:27848.got - 2010.06.03 13:09:01.
