data_PCOD9420234
_publ_section_title
;
Structure prediction by ZEFSAII (Michael W. Deem and Ramdas Pophale) SiO2 
 PCOD9420234
Probable space group: P M N A
;
_chemical_formula_sum "Si O2"
_cell_formula_units_Z 40
_cell_length_a 9.000000
_cell_length_b 12.000000
_cell_length_c 18.000000
_cell_angle_alpha 90.000000
_cell_angle_beta 90.000000
_cell_angle_gamma 90.000000
_cell_volume 1944.000000
_symmetry_space_group_name_H-M "P M N A"
_symmetry_group_IT_number 53
_symmetry_cell_setting 'orthorhombic'
loop_
_space_group_symop_operation_xyz
x,y,z
1/2-x,-y,1/2+z
x,-y,-z
1/2-x,y,1/2-z
-x,-y,-z
1/2+x,y,1/2-z
-x,y,z
1/2+x,-y,1/2+z
loop_
_atom_site_type_symbol
_atom_site_label
_atom_site_fract_x
_atom_site_fract_y
_atom_site_fract_z
Si Si1 0.320660 0.962095 0.082635
Si Si2 0.326647 0.489282 0.672997
Si Si3 0.172118 0.271161 0.909523
Si Si4 0.827358 0.643490 0.555343
Si Si5 0.827942 0.163407 0.323859
O O1 0.500000 0.966655 0.082408
O O2 0.266975 0.839187 0.099449
O O3 0.264648 0.048041 0.144562
O O4 0.272185 0.000000 0.000000
O O5 0.250000 0.519244 0.750000
O O6 0.500000 0.521678 0.672766
O O7 0.316705 0.357553 0.657882
O O8 0.241513 0.547549 0.605618
O O9 0.000000 0.242199 0.920330
O O10 0.232875 0.332885 0.982617
O O11 0.819882 0.751637 0.608034
O O12 0.000000 0.623494 0.536985
O O13 0.750000 0.204518 0.250000
O O14 0.000000 0.147711 0.305210
#
# Coordination Sequence:
#
# PCOD9420234 Si02
#       5
#     8   8   8   8   8
#     4  10  20  40  63  85 119 159 202 248 297 361
#     4  11  25  43  61  88 125 162 204 254 307 362
#     4  11  24  40  62  92 124 158 204 257 305 361
#     4  11  22  40  65  91 121 161 206 250 307 369
#     4  10  22  38  59  89 122 156 196 248 303 361
#
# _framework density 20.576132000000001
#
# number of rings (size 3 to 8) (size 9 to 14) (size 15 to 20)
#    0.000    1.400    2.000    3.000    0.000   10.800 
#    0.000    4.000    0.000    0.000    0.000    0.000 
#    0.000    0.000    0.000    0.000    0.000    0.000 
#
# Total GULP energy -223502.383481 kJ/mol
# GULP energy per Si atom -5587.559587 kJ/mol
# Density = 2.052930 g / cm^3
# Si number density = 20.576132 Si / 1000 Ang^3
#
#
#
# Elastic Constant Matrix: (Units=GPa)
#
#
# Indices 1 2 3 4 5 6 
#
# 1 2.3678 -11.8330 -1.3481 0.0000 0.0000 0.0000
# 2 -11.8330 60.9096 -1.2941 0.0000 0.0000 0.0000
# 3 -1.3481 -1.2941 42.9360 0.0000 0.0000 0.0000
# 4 0.0000 0.0000 0.0000 18.0956 0.0000 0.0000
# 5 0.0000 0.0000 0.0000 0.0000 70.1429 0.0000
# 6 0.0000 0.0000 0.0000 0.0000 0.0000 30.0248
#
#
#
# Elastic Compliance Matrix: (Units=1/GPa)
#
#
# Indices 1 2 3 4 5 6 
#
# 1 107.308020 20.931863 4.000158 0.000000 0.000000 0.000000
# 2 20.931863 4.099468 0.780779 0.000000 0.000000 0.000000
# 3 4.000158 0.780779 0.172421 0.000000 0.000000 0.000000
# 4 0.000000 0.000000 0.000000 0.055262 0.000000 0.000000
# 5 0.000000 0.000000 0.000000 0.000000 0.014257 0.000000
# 6 0.000000 0.000000 0.000000 0.000000 0.000000 0.033306
#
#
# Mechanical properties :
#
#
# Convention : Reuss Voigt Hill
#
# Bulk Modulus (GPa) = 0.00613 8.58478 4.29546
# Shear Modulus (GPa) = 0.04363 31.69856 15.87110
#
# Velocity S-wave (km/s) = 0.14578 3.92924 2.78031
# Velocity P-wave (km/s) = 0.17698 4.97660 3.52121
#
# Compressibility (1/GPa) = 163.00550961
#
# Stress axis : x y z
#
# Youngs Moduli (GPa) = 0.00932 0.24393 5.79977
#
# Poissons Ratio (x) = -5.10600 -23.19999
# Poissons Ratio (y) = -0.19506 -4.52834
# Poissons Ratio (z) = -0.03728 -0.19046
#
# Static dielectric constant tensor:
#      x y z
#    x 1.689430 0.000000 0.000000 
#    y 0.000000 1.781590 0.000000 
#    z 0.000000 0.000000 1.735500 
# 
# From -- ./inp_files/25826.got.cif
#   From: 2010.05.17/outbox.ucp.g08.bks.cvg/sg53_13_cif.got.tgz:25826.got - 2010.06.11 16:32:34.
