data_PCOD9420027
_publ_section_title
;
Structure prediction by ZEFSAII (Michael W. Deem and Ramdas Pophale) SiO2 
 PCOD9420027
Probable space group: P M N A
;
_chemical_formula_sum "Si O2"
_cell_formula_units_Z 20
_cell_length_a 14.669090
_cell_length_b 5.058446
_cell_length_c 11.824357
_cell_angle_alpha 90.000000
_cell_angle_beta 90.000000
_cell_angle_gamma 90.000000
_cell_volume 877.400393
_symmetry_space_group_name_H-M "P M N A"
_symmetry_group_IT_number 53
_symmetry_cell_setting 'orthorhombic'
loop_
_space_group_symop_operation_xyz
x,y,z
1/2-x,-y,1/2+z
x,-y,-z
1/2-x,y,1/2-z
-x,-y,-z
1/2+x,y,1/2-z
-x,y,z
1/2+x,-y,1/2+z
loop_
_atom_site_type_symbol
_atom_site_label
_atom_site_fract_x
_atom_site_fract_y
_atom_site_fract_z
Si Si1 0.337885 0.991074 0.198431
Si Si2 0.500000 0.750050 0.918362
Si Si3 0.319873 0.243291 0.575263
O O1 0.250000 0.144825 0.250000
O O2 0.411639 0.195946 0.157806
O O3 0.287895 0.812358 0.103357
O O4 0.365686 0.796013 0.301310
O O5 0.500000 0.500000 0.000000
O O6 0.500000 0.000000 0.000000
O O7 0.332222 0.500000 0.500000
O O8 0.352615 0.000000 0.500000
#
# Coordination Sequence:
#
# PCOD9420027 Si02
#       3
#     8   4   8
#     4   8  23  41  66 101 146 182 253 295 374 436
#     4  12  26  46  70 106 146 192 248 312 368 436
#     4   9  19  37  63  92 133 185 237 291 363 431
#
# _framework density 22.794609999999999
#
# number of rings (size 3 to 8) (size 9 to 14) (size 15 to 20)
#    2.400    0.000    0.000    1.200    0.000   16.000 
#    0.000    2.000    0.000    0.000    0.000    4.200 
#    0.000    0.000    0.000    0.000    0.000    0.000 
#
# Total GULP energy -111358.052203 kJ/mol
# GULP energy per Si atom -5567.902610 kJ/mol
# Density = 2.274273 g / cm^3
# Si number density = 22.794610 Si / 1000 Ang^3
#
#
#
# Elastic Constant Matrix: (Units=GPa)
#
#
# Indices 1 2 3 4 5 6 
#
# 1 111.5100 48.7475 35.3638 0.0000 0.0000 0.0000
# 2 48.7475 182.3024 80.5050 0.0000 0.0000 0.0000
# 3 35.3638 80.5050 123.7614 0.0000 0.0000 0.0000
# 4 0.0000 0.0000 0.0000 43.8582 0.0000 0.0000
# 5 0.0000 0.0000 0.0000 0.0000 29.2519 0.0000
# 6 0.0000 0.0000 0.0000 0.0000 0.0000 -5.3059
#
#
#
# Elastic Compliance Matrix: (Units=1/GPa)
#
#
# Indices 1 2 3 4 5 6 
#
# 1 0.010384 -0.002057 -0.001629 0.000000 0.000000 0.000000
# 2 -0.002057 0.008104 -0.004684 0.000000 0.000000 0.000000
# 3 -0.001629 -0.004684 0.011592 0.000000 0.000000 0.000000
# 4 0.000000 0.000000 0.000000 0.022801 0.000000 0.000000
# 5 0.000000 0.000000 0.000000 0.000000 0.034186 0.000000
# 6 0.000000 0.000000 0.000000 0.000000 0.000000 -0.188471
#
#
# Mechanical properties :
#
#
# Convention : Reuss Voigt Hill
#
# Bulk Modulus (GPa) = 74.96111 82.97848 78.96979
# Shear Modulus (GPa) = -62.32943 30.42468 -15.95238
#
# Velocity S-wave (km/s) = -5.23482 3.65736 -2.64830
# Velocity P-wave (km/s) = 1.89232 7.36999 5.03666
#
# Compressibility (1/GPa) = 0.01334025
#
# Stress axis : x y z
#
# Youngs Moduli (GPa) = 96.30450 123.39939 86.26602
#
# Poissons Ratio (x) = 0.25387 0.14051
# Poissons Ratio (y) = 0.19813 0.40403
# Poissons Ratio (z) = 0.15686 0.57794
#
# Static dielectric constant tensor:
#      x y z
#    x 2.221430 0.000000 0.000000 
#    y 0.000000 1.817070 0.000000 
#    z 0.000000 0.000000 2.121560 
# 
# From -- ./inp_files/16300.got.cif
#   From: 2010.05.17/outbox.cif.g08.bks.cpg/sg53_9_cif.got.tgz:16300.got - 2010.06.03 12:45:16.
