data_PCOD9420730
_publ_section_title
;
Structure prediction by ZEFSAII (Michael W. Deem and Ramdas Pophale) SiO2 
 PCOD9420730
Probable space group: P C C A
;
_chemical_formula_sum "Si O2"
_cell_formula_units_Z 40
_cell_length_a 28.686236
_cell_length_b 7.137553
_cell_length_c 8.973840
_cell_angle_alpha 90.000000
_cell_angle_beta 90.000000
_cell_angle_gamma 90.000000
_cell_volume 1837.389521
_symmetry_space_group_name_H-M "P C C A"
_symmetry_group_IT_number 54
_symmetry_cell_setting 'orthorhombic'
loop_
_space_group_symop_operation_xyz
x,y,z
1/2-x,-y,z
1/2+x,-y,1/2-z
-x,y,1/2-z
-x,-y,-z
1/2+x,y,-z
1/2-x,y,1/2+z
x,-y,1/2+z
loop_
_atom_site_type_symbol
_atom_site_label
_atom_site_fract_x
_atom_site_fract_y
_atom_site_fract_z
Si Si1 0.074851 0.571540 0.409025
Si Si2 0.860192 0.626754 0.345545
Si Si3 0.953945 0.756339 0.799342
Si Si4 0.303627 0.948098 0.498241
Si Si5 0.152893 0.792050 0.707752
O O1 0.105848 0.685499 0.289554
O O2 0.107942 0.441849 0.514990
O O3 0.046874 0.696495 0.527103
O O4 0.046071 0.428105 0.307119
O O5 0.823346 0.778839 0.399077
O O6 0.838978 0.430188 0.289632
O O7 0.901999 0.834474 0.770753
O O8 0.000000 0.866963 0.750000
O O9 0.315903 0.889079 0.331636
O O10 0.250000 0.000000 0.516844
O O11 0.332682 0.128295 0.548749
#
# Coordination Sequence:
#
# PCOD9420730 Si02
#       5
#     8   8   8   8   8
#     4   8  17  33  63  94 127 175 206 274 313 382
#     4  10  19  42  66  94 129 174 210 268 339 368
#     4  10  18  35  62  97 132 175 219 263 329 392
#     4  12  25  44  69  94 127 175 225 269 332 392
#     4  10  25  42  65  98 133 172 211 283 318 391
#
# _framework density 21.770018
#
# number of rings (size 3 to 8) (size 9 to 14) (size 15 to 20)
#    0.000    2.400    4.000    1.200    5.600    0.800 
#    0.000    3.000    0.000    0.000    0.000    0.000 
#    0.000    0.000    0.000    0.000    0.000    0.000 
#
# Total GULP energy -223182.803070 kJ/mol
# GULP energy per Si atom -5579.570077 kJ/mol
# Density = 2.172047 g / cm^3
# Si number density = 21.770018 Si / 1000 Ang^3
#
#
#
# Elastic Constant Matrix: (Units=GPa)
#
#
# Indices 1 2 3 4 5 6 
#
# 1 123.0845 2.7215 12.2997 0.0000 0.0000 0.0000
# 2 2.7215 28.2947 -4.2413 0.0000 0.0000 0.0000
# 3 12.2997 -4.2413 109.5254 0.0000 0.0000 0.0000
# 4 0.0000 0.0000 0.0000 32.3622 0.0000 0.0000
# 5 0.0000 0.0000 0.0000 0.0000 32.3420 0.0000
# 6 0.0000 0.0000 0.0000 0.0000 0.0000 28.1327
#
#
#
# Elastic Compliance Matrix: (Units=1/GPa)
#
#
# Indices 1 2 3 4 5 6 
#
# 1 0.008241 -0.000937 -0.000962 0.000000 0.000000 0.000000
# 2 -0.000937 0.035655 0.001486 0.000000 0.000000 0.000000
# 3 -0.000962 0.001486 0.009296 0.000000 0.000000 0.000000
# 4 0.000000 0.000000 0.000000 0.030900 0.000000 0.000000
# 5 0.000000 0.000000 0.000000 0.000000 0.030920 0.000000
# 6 0.000000 0.000000 0.000000 0.000000 0.000000 0.035546
#
#
# Mechanical properties :
#
#
# Convention : Reuss Voigt Hill
#
# Bulk Modulus (GPa) = 19.09606 31.38496 25.24051
# Shear Modulus (GPa) = 29.61402 35.24236 32.42819
#
# Velocity S-wave (km/s) = 3.69224 4.02786 3.86370
# Velocity P-wave (km/s) = 5.19304 6.00661 5.61458
#
# Compressibility (1/GPa) = 0.05236683
#
# Stress axis : x y z
#
# Youngs Moduli (GPa) = 121.33972 28.04648 107.57489
#
# Poissons Ratio (x) = 0.02628 0.10346
# Poissons Ratio (y) = 0.11368 -0.15985
# Poissons Ratio (z) = 0.11670 -0.04167
#
# Static dielectric constant tensor:
#      x y z
#    x 1.819490 0.000000 0.000000 
#    y 0.000000 1.838750 0.000000 
#    z 0.000000 0.000000 1.811770 
# 
# From -- ./inp_files/5738.got.cif
#   From: 2010.05.17/outbox.cif.g08.bks.cpg/sg54_3_cif.got.tgz:5738.got - 2010.06.03 13:09:01.
