data_PCOD9420021
_publ_section_title
;
Structure prediction by ZEFSAII (Michael W. Deem and Ramdas Pophale) SiO2 
 PCOD9420021
Probable space group: P M N A
;
_chemical_formula_sum "Si O2"
_cell_formula_units_Z 24
_cell_length_a 14.047708
_cell_length_b 8.772222
_cell_length_c 8.128626
_cell_angle_alpha 90.000000
_cell_angle_beta 90.000000
_cell_angle_gamma 90.000000
_cell_volume 1001.687438
_symmetry_space_group_name_H-M "P M N A"
_symmetry_group_IT_number 53
_symmetry_cell_setting 'orthorhombic'
loop_
_space_group_symop_operation_xyz
x,y,z
1/2-x,-y,1/2+z
x,-y,-z
1/2-x,y,1/2-z
-x,-y,-z
1/2+x,y,1/2-z
-x,y,z
1/2+x,-y,1/2+z
loop_
_atom_site_type_symbol
_atom_site_label
_atom_site_fract_x
_atom_site_fract_y
_atom_site_fract_z
Si Si1 0.676440 0.377088 0.382637
Si Si2 0.000000 0.419175 0.322551
Si Si3 0.672000 0.881861 0.375735
Si Si4 0.500000 0.049120 0.188333
O O1 0.726754 0.500000 0.500000
O O2 0.750000 0.311001 0.250000
O O3 0.593480 0.459179 0.281382
O O4 0.635192 0.250014 0.504431
O O5 0.000000 0.500000 0.500000
O O6 0.000000 0.233308 0.321294
O O7 0.750000 0.820091 0.250000
O O8 0.722305 0.000000 0.500000
O O9 0.590221 0.974473 0.281643
O O10 0.500000 0.000000 0.000000
#
# Coordination Sequence:
#
# PCOD9420021 Si02
#       4
#     8   4   8   4
#     4  12  27  48  73 106 146 191 243 296 362 437
#     4  12  28  48  74 104 146 191 244 298 363 432
#     4  12  25  46  74 106 145 186 240 301 363 431
#     4  12  28  45  74 110 142 187 242 303 364 430
#
# _framework density 23.959571
#
# number of rings (size 3 to 8) (size 9 to 14) (size 15 to 20)
#    0.000    0.000    3.333    6.000    9.333    0.000 
#    0.000    0.000    0.000    0.000    0.000    0.000 
#    0.000    0.000    0.000    0.000    0.000    0.000 
#
# Total GULP energy -134323.633271 kJ/mol
# GULP energy per Si atom -5596.818053 kJ/mol
# Density = 2.390504 g / cm^3
# Si number density = 23.959571 Si / 1000 Ang^3
#
#
#
# Elastic Constant Matrix: (Units=GPa)
#
#
# Indices 1 2 3 4 5 6 
#
# 1 104.5653 10.7509 64.1463 0.0000 0.0000 0.0000
# 2 10.7509 109.0543 72.1312 0.0000 0.0000 0.0000
# 3 64.1463 72.1312 191.1198 0.0000 0.0000 0.0000
# 4 0.0000 0.0000 0.0000 68.3294 0.0000 0.0000
# 5 0.0000 0.0000 0.0000 0.0000 44.8301 0.0000
# 6 0.0000 0.0000 0.0000 0.0000 0.0000 -7.9366
#
#
#
# Elastic Compliance Matrix: (Units=1/GPa)
#
#
# Indices 1 2 3 4 5 6 
#
# 1 0.012373 0.002035 -0.004921 0.000000 0.000000 0.000000
# 2 0.002035 0.012555 -0.005421 0.000000 0.000000 0.000000
# 3 -0.004921 -0.005421 0.008930 0.000000 0.000000 0.000000
# 4 0.000000 0.000000 0.000000 0.014635 0.000000 0.000000
# 5 0.000000 0.000000 0.000000 0.000000 0.022306 0.000000
# 6 0.000000 0.000000 0.000000 0.000000 0.000000 -0.125998
#
#
# Mechanical properties :
#
#
# Convention : Reuss Voigt Hill
#
# Bulk Modulus (GPa) = 57.99318 77.64402 67.81860
# Shear Modulus (GPa) = -152.26786 38.22531 -57.02127
#
# Velocity S-wave (km/s) = -7.98060 3.99859 -4.88371
# Velocity P-wave (km/s) = 7.78863 7.33450 1.85309
#
# Compressibility (1/GPa) = 0.01724341
#
# Stress axis : x y z
#
# Youngs Moduli (GPa) = 80.82207 79.64953 111.98184
#
# Poissons Ratio (x) = -0.16208 0.55104
# Poissons Ratio (y) = -0.16447 0.60710
# Poissons Ratio (z) = 0.39771 0.43181
#
# Static dielectric constant tensor:
#      x y z
#    x 1.860420 0.000000 0.000000 
#    y 0.000000 1.980700 0.000000 
#    z 0.000000 0.000000 1.908290 
# 
# From -- ./inp_files/7797.got.cif
#   From: 2010.05.17/outbox.cif.g08.bks.cpg/sg53_4_cif.got.tgz:7797.got - 2010.06.03 12:45:16.
