data_PCOD9420016
_publ_section_title
;
Structure prediction by ZEFSAII (Michael W. Deem and Ramdas Pophale) SiO2 
 PCOD9420016
Probable space group: P M N A
;
_chemical_formula_sum "Si O2"
_cell_formula_units_Z 30
_cell_length_a 21.456194
_cell_length_b 4.845182
_cell_length_c 10.879233
_cell_angle_alpha 90.000000
_cell_angle_beta 90.000000
_cell_angle_gamma 90.000000
_cell_volume 1130.995978
_symmetry_space_group_name_H-M "P M N A"
_symmetry_group_IT_number 53
_symmetry_cell_setting 'orthorhombic'
loop_
_space_group_symop_operation_xyz
x,y,z
1/2-x,-y,1/2+z
x,-y,-z
1/2-x,y,1/2-z
-x,-y,-z
1/2+x,y,1/2-z
-x,y,z
1/2+x,-y,1/2+z
loop_
_atom_site_type_symbol
_atom_site_label
_atom_site_fract_x
_atom_site_fract_y
_atom_site_fract_z
Si Si1 0.234215 0.819273 0.621964
Si Si2 0.929089 0.158755 0.834469
Si Si3 0.000000 0.000000 0.500000
Si Si4 0.338843 0.500000 0.500000
Si Si5 0.904211 0.342442 0.332351
O O1 0.250000 0.972901 0.750000
O O2 0.291720 0.614544 0.602170
O O3 0.167814 0.671593 0.631509
O O4 0.233126 0.000000 0.500000
O O5 0.923807 0.355456 0.713673
O O6 0.000000 0.176680 0.878406
O O7 0.914853 0.853835 0.786848
O O8 0.881849 0.274826 0.934237
O O9 0.053789 0.201232 0.435919
#
# Coordination Sequence:
#
# PCOD9420016 Si02
#       5
#     8   8   2   4   8
#     4  12  27  49  77 114 159 212 265 331 404 486
#     4  12  26  51  78 115 158 206 265 328 401 480
#     4  12  24  50  76 112 148 206 266 326 398 470
#     4  12  29  46  80 115 158 214 262 334 402 495
#     4  12  27  47  79 113 156 207 264 333 398 474
#
# _framework density 26.525289999999998
#
# number of rings (size 3 to 8) (size 9 to 14) (size 15 to 20)
#    0.000    0.000    6.667    2.000    3.733    3.200 
#    0.000    2.667    0.000    0.000    0.000    0.000 
#    0.000    0.000    0.000    0.000    0.000    0.000 
#
# Total GULP energy -168075.944843 kJ/mol
# GULP energy per Si atom -5602.531495 kJ/mol
# Density = 2.646492 g / cm^3
# Si number density = 26.525290 Si / 1000 Ang^3
#
#
#
# Elastic Constant Matrix: (Units=GPa)
#
#
# Indices 1 2 3 4 5 6 
#
# 1 252.4453 21.4032 41.9465 0.0000 0.0000 0.0000
# 2 21.4032 82.9176 24.4063 0.0000 0.0000 0.0000
# 3 41.9465 24.4063 155.3855 0.0000 0.0000 0.0000
# 4 0.0000 0.0000 0.0000 60.9448 0.0000 0.0000
# 5 0.0000 0.0000 0.0000 0.0000 60.6860 0.0000
# 6 0.0000 0.0000 0.0000 0.0000 0.0000 3.4547
#
#
#
# Elastic Compliance Matrix: (Units=1/GPa)
#
#
# Indices 1 2 3 4 5 6 
#
# 1 0.004196 -0.000786 -0.001009 0.000000 0.000000 0.000000
# 2 -0.000786 0.012792 -0.001797 0.000000 0.000000 0.000000
# 3 -0.001009 -0.001797 0.006990 0.000000 0.000000 0.000000
# 4 0.000000 0.000000 0.000000 0.016408 0.000000 0.000000
# 5 0.000000 0.000000 0.000000 0.000000 0.016478 0.000000
# 6 0.000000 0.000000 0.000000 0.000000 0.000000 0.289463
#
#
# Mechanical properties :
#
#
# Convention : Reuss Voigt Hill
#
# Bulk Modulus (GPa) = 59.54671 74.02892 66.78781
# Shear Modulus (GPa) = 13.92331 51.88326 32.90328
#
# Velocity S-wave (km/s) = 2.29357 4.42746 3.52582
# Velocity P-wave (km/s) = 5.43247 7.35567 6.46597
#
# Compressibility (1/GPa) = 0.01679354
#
# Stress axis : x y z
#
# Youngs Moduli (GPa) = 238.34664 78.17385 143.05553
#
# Poissons Ratio (x) = 0.06144 0.14436
# Poissons Ratio (y) = 0.18733 0.25708
# Poissons Ratio (z) = 0.24053 0.14048
#
# Static dielectric constant tensor:
#      x y z
#    x 1.977200 0.000000 0.000000 
#    y 0.000000 2.047980 0.000000 
#    z 0.000000 0.000000 2.182730 
# 
# From -- ./inp_files/17411.got.cif
#   From: 2010.05.17/outbox.cif.g08.bks.cpg/sg53_9_cif.got.tgz:17411.got - 2010.06.03 12:45:16.
