data_PCOD9420134
_publ_section_title
;
Structure prediction by ZEFSAII (Michael W. Deem and Ramdas Pophale) SiO2 
 PCOD9420134
Probable space group: P M N A
;
_chemical_formula_sum "Si O2"
_cell_formula_units_Z 64
_cell_length_a 9.000000
_cell_length_b 15.000000
_cell_length_c 24.000000
_cell_angle_alpha 90.000000
_cell_angle_beta 90.000000
_cell_angle_gamma 90.000000
_cell_volume 3240.000000
_symmetry_space_group_name_H-M "P M N A"
_symmetry_group_IT_number 53
_symmetry_cell_setting 'orthorhombic'
loop_
_space_group_symop_operation_xyz
x,y,z
1/2-x,-y,1/2+z
x,-y,-z
1/2-x,y,1/2-z
-x,-y,-z
1/2+x,y,1/2-z
-x,y,z
1/2+x,-y,1/2+z
loop_
_atom_site_type_symbol
_atom_site_label
_atom_site_fract_x
_atom_site_fract_y
_atom_site_fract_z
Si Si1 0.331424 0.181612 0.806069
Si Si2 0.321077 0.642400 0.350039
Si Si3 0.668424 0.850689 0.609490
Si Si4 0.178002 0.539010 0.803819
Si Si5 0.317861 0.346535 0.407315
Si Si6 0.330413 0.132135 0.523181
Si Si7 0.819506 0.664133 0.030015
Si Si8 0.334277 0.017821 0.890298
O O1 0.250000 0.155379 0.750000
O O2 0.500000 0.208573 0.793750
O O3 0.247710 0.264906 0.832633
O O4 0.332095 0.099257 0.847722
O O5 0.500000 0.649490 0.349396
O O6 0.275937 0.563423 0.309726
O O7 0.275494 0.617433 0.413198
O O8 0.500000 0.847791 0.629956
O O9 0.732799 0.751753 0.611221
O O10 0.666500 0.872542 0.543310
O O11 0.752869 0.932922 0.635275
O O12 0.250000 0.581536 0.750000
O O13 0.225640 0.585342 0.860516
O O14 0.000000 0.543546 0.800206
O O15 0.500000 0.343013 0.409277
O O16 0.267387 0.368269 0.469886
O O17 0.500000 0.124265 0.543489
O O18 0.276183 0.232085 0.535951
O O19 0.238397 0.058580 0.554570
O O20 0.000000 0.662481 0.027869
O O21 0.500000 0.989589 0.903810
#
# Coordination Sequence:
#
# PCOD9420134 Si02
#       8
#     8   8   8   8   8   8   8   8
#     4  11  24  39  54  74 104 143 182 223 269 319
#     4  10  19  33  57  85 109 137 171 214 270 325
#     4   9  18  32  53  77 103 139 178 214 258 309
#     4  10  21  36  56  81 107 138 179 222 266 314
#     4   8  16  33  54  79 109 138 176 224 264 309
#     4   9  16  29  50  76 106 140 175 209 250 312
#     4   8  14  27  51  81 110 137 170 213 261 314
#     4  11  22  33  48  75 107 137 173 218 265 311
#
# _framework density 19.753086
#
# number of rings (size 3 to 8) (size 9 to 14) (size 15 to 20)
#    0.000    2.500    1.250    3.000    0.000    5.500 
#    0.000    3.750    0.000    4.500    0.000    1.750 
#    0.000    0.000    0.000    0.000    0.000    0.000 
#
# Total GULP energy -356448.248945 kJ/mol
# GULP energy per Si atom -5569.503890 kJ/mol
# Density = 1.970813 g / cm^3
# Si number density = 19.753086 Si / 1000 Ang^3
#
#
#
# Elastic Constant Matrix: (Units=GPa)
#
#
# Indices 1 2 3 4 5 6 
#
# 1 12.7182 27.8986 16.8356 0.0000 0.0000 0.0000
# 2 27.8986 45.7565 53.9388 0.0000 0.0000 0.0000
# 3 16.8356 53.9388 29.8005 0.0000 0.0000 0.0000
# 4 0.0000 0.0000 0.0000 -2.2175 0.0000 0.0000
# 5 0.0000 0.0000 0.0000 0.0000 451.0739 0.0000
# 6 0.0000 0.0000 0.0000 0.0000 0.0000 1.1165
#
#
#
# Elastic Compliance Matrix: (Units=1/GPa)
#
#
# Indices 1 2 3 4 5 6 
#
# 1 0.299872 -0.014878 -0.142481 0.000000 0.000000 0.000000
# 2 -0.014878 -0.018540 0.041963 0.000000 0.000000 0.000000
# 3 -0.142481 0.041963 0.038098 0.000000 0.000000 0.000000
# 4 0.000000 0.000000 0.000000 -0.450966 0.000000 0.000000
# 5 0.000000 0.000000 0.000000 0.000000 0.002217 0.000000
# 6 0.000000 0.000000 0.000000 0.000000 0.000000 0.895688
#
#
# Mechanical properties :
#
#
# Convention : Reuss Voigt Hill
#
# Bulk Modulus (GPa) = 11.28199 31.73570 21.50884
# Shear Modulus (GPa) = 4.86994 89.30140 47.08567
#
# Velocity S-wave (km/s) = 1.57186 6.73105 4.88762
# Velocity P-wave (km/s) = 3.00304 8.74702 6.53944
#
# Compressibility (1/GPa) = 0.08863688
#
# Stress axis : x y z
#
# Youngs Moduli (GPa) = 3.33476 -53.93791 26.24819
#
# Poissons Ratio (x) = -0.80252 3.73986
# Poissons Ratio (y) = 0.04962 -1.10144
# Poissons Ratio (z) = 0.47514 2.26337
#
# Static dielectric constant tensor:
#      x y z
#    x 1.701040 0.000000 0.000000 
#    y 0.000000 1.720330 0.000000 
#    z 0.000000 0.000000 1.706190 
# 
# From -- ./inp_files/34299.got.cif
#   From: 2010.05.17/outbox.ucp.g08.bks.cvg/sg53_18_cif.got.tgz:34299.got - 2010.06.11 16:32:34.
