data_PCOD9420768
_publ_section_title
;
Structure prediction by ZEFSAII (Michael W. Deem and Ramdas Pophale) SiO2 
 PCOD9420768
Probable space group: P C C A
;
_chemical_formula_sum "Si O2"
_cell_formula_units_Z 48
_cell_length_a 8.017325
_cell_length_b 18.460298
_cell_length_c 14.781338
_cell_angle_alpha 90.000000
_cell_angle_beta 90.000000
_cell_angle_gamma 90.000000
_cell_volume 2187.670671
_symmetry_space_group_name_H-M "P C C A"
_symmetry_group_IT_number 54
_symmetry_cell_setting 'orthorhombic'
loop_
_space_group_symop_operation_xyz
x,y,z
1/2-x,-y,z
1/2+x,-y,1/2-z
-x,y,1/2-z
-x,-y,-z
1/2+x,y,-z
1/2-x,y,1/2+z
x,-y,1/2+z
loop_
_atom_site_type_symbol
_atom_site_label
_atom_site_fract_x
_atom_site_fract_y
_atom_site_fract_z
Si Si1 0.194960 0.304416 0.592249
Si Si2 0.325725 0.145939 0.628223
Si Si3 0.993143 0.083006 0.972473
Si Si4 0.704692 0.301542 0.114265
Si Si5 0.699945 0.583178 0.759699
Si Si6 0.676500 0.852102 0.694122
O O1 0.283539 0.231272 0.626721
O O2 0.227000 0.309179 0.486119
O O3 0.251137 0.374148 0.649423
O O4 0.996911 0.298557 0.607965
O O5 0.306139 0.119065 0.731071
O O6 0.179652 0.105080 0.573245
O O7 0.480595 0.129424 0.563840
O O8 0.127983 0.101937 0.894085
O O9 0.000000 0.000000 0.000000
O O10 0.762749 0.367965 0.176358
O O11 0.743875 0.225215 0.160624
O O12 0.750000 0.500000 0.758306
O O13 0.500000 0.585366 0.750000
O O14 0.500000 0.842452 0.750000
#
# Coordination Sequence:
#
# PCOD9420768 Si02
#       6
#     8   8   8   8   8   8
#     4  11  20  37  67  94 118 169 217 257 307 384
#     4  11  20  40  67  89 122 169 212 256 313 379
#     4  11  23  39  62  94 129 160 205 267 319 371
#     4  11  20  38  65  92 122 166 214 256 314 378
#     4  10  23  41  63  91 131 168 208 266 323 377
#     4  10  18  37  66  86 118 169 215 249 311 384
#
# _framework density 21.941146
#
# number of rings (size 3 to 8) (size 9 to 14) (size 15 to 20)
#    0.000    1.333    6.667    1.000    0.000    2.000 
#    0.000   14.167    0.000    0.000    0.000    0.000 
#    0.000    0.000    0.000    0.000    0.000    0.000 
#
# Total GULP energy -268483.789549 kJ/mol
# GULP energy per Si atom -5593.412282 kJ/mol
# Density = 2.189121 g / cm^3
# Si number density = 21.941146 Si / 1000 Ang^3
#
#
#
# Elastic Constant Matrix: (Units=GPa)
#
#
# Indices 1 2 3 4 5 6 
#
# 1 40.0163 16.1648 14.9028 0.0000 0.0000 0.0000
# 2 16.1648 162.7369 71.3808 0.0000 0.0000 0.0000
# 3 14.9028 71.3808 177.9659 0.0000 0.0000 0.0000
# 4 0.0000 0.0000 0.0000 39.0099 0.0000 0.0000
# 5 0.0000 0.0000 0.0000 0.0000 33.0741 0.0000
# 6 0.0000 0.0000 0.0000 0.0000 0.0000 24.1742
#
#
#
# Elastic Compliance Matrix: (Units=1/GPa)
#
#
# Indices 1 2 3 4 5 6 
#
# 1 0.026320 -0.001999 -0.001402 0.000000 0.000000 0.000000
# 2 -0.001999 0.007609 -0.002884 0.000000 0.000000 0.000000
# 3 -0.001402 -0.002884 0.006893 0.000000 0.000000 0.000000
# 4 0.000000 0.000000 0.000000 0.025635 0.000000 0.000000
# 5 0.000000 0.000000 0.000000 0.000000 0.030235 0.000000
# 6 0.000000 0.000000 0.000000 0.000000 0.000000 0.041366
#
#
# Mechanical properties :
#
#
# Convention : Reuss Voigt Hill
#
# Bulk Modulus (GPa) = 35.39816 65.06844 50.23330
# Shear Modulus (GPa) = 31.24104 37.80302 34.52203
#
# Velocity S-wave (km/s) = 3.77750 4.15532 3.97090
# Velocity P-wave (km/s) = 5.93247 7.26241 6.63087
#
# Compressibility (1/GPa) = 0.02825005
#
# Stress axis : x y z
#
# Youngs Moduli (GPa) = 37.99447 131.42963 145.06739
#
# Poissons Ratio (x) = 0.26278 0.20339
# Poissons Ratio (y) = 0.07597 0.41842
# Poissons Ratio (z) = 0.05327 0.37909
#
# Static dielectric constant tensor:
#      x y z
#    x 1.903290 0.000000 0.000000 
#    y 0.000000 1.766500 0.000000 
#    z 0.000000 0.000000 1.802180 
# 
# From -- ./inp_files/12627.got.cif
#   From: 2010.05.17/outbox.cif.g08.bks.cpg/sg54_7_cif.got.tgz:12627.got - 2010.06.03 13:09:01.
