data_PCOD9420879
_publ_section_title
;
Structure prediction by ZEFSAII (Michael W. Deem and Ramdas Pophale) SiO2 
 PCOD9420879
Probable space group: P C C A
;
_chemical_formula_sum "Si O2"
_cell_formula_units_Z 48
_cell_length_a 14.665552
_cell_length_b 8.589041
_cell_length_c 18.503869
_cell_angle_alpha 90.000000
_cell_angle_beta 90.000000
_cell_angle_gamma 90.000000
_cell_volume 2330.803358
_symmetry_space_group_name_H-M "P C C A"
_symmetry_group_IT_number 54
_symmetry_cell_setting 'orthorhombic'
loop_
_space_group_symop_operation_xyz
x,y,z
1/2-x,-y,z
1/2+x,-y,1/2-z
-x,y,1/2-z
-x,-y,-z
1/2+x,y,-z
1/2-x,y,1/2+z
x,-y,1/2+z
loop_
_atom_site_type_symbol
_atom_site_label
_atom_site_fract_x
_atom_site_fract_y
_atom_site_fract_z
Si Si1 0.500000 0.829767 0.250000
Si Si2 0.033555 0.356947 0.590581
Si Si3 0.391888 0.319539 0.523888
Si Si4 0.750000 0.500000 0.566849
Si Si5 0.396397 0.543744 0.316237
Si Si6 0.168264 0.882485 0.659941
Si Si7 0.804580 0.364625 0.818132
O O1 0.448311 0.704409 0.300952
O O2 0.578646 0.923328 0.292797
O O3 0.071088 0.517269 0.555905
O O4 0.121036 0.284967 0.630169
O O5 0.972725 0.268227 0.531389
O O6 0.966280 0.416725 0.652654
O O7 0.302163 0.369502 0.479280
O O8 0.368336 0.200825 0.587483
O O9 0.675614 0.427319 0.620438
O O10 0.351780 0.458457 0.247009
O O11 0.226924 0.754780 0.705559
O O12 0.250000 0.000000 0.642620
O O13 0.750000 0.500000 0.860631
#
# Coordination Sequence:
#
# PCOD9420879 Si02
#       7
#     4   8   8   4   8   8   8
#     4  12  20  42  66  92 128 166 220 272 342 386
#     4  10  19  31  59  94 120 156 209 278 323 374
#     4  10  19  35  56  88 126 164 216 258 324 387
#     4  10  20  28  60 100 128 160 206 272 328 382
#     4  11  17  33  62 100 127 153 209 286 332 366
#     4  12  26  43  63  89 135 183 214 264 336 407
#     4  12  18  35  63  96 123 160 215 270 325 377
#
# _framework density 20.593757
#
# number of rings (size 3 to 8) (size 9 to 14) (size 15 to 20)
#    0.000    1.000    7.500    1.000    0.000    0.000 
#    3.000    0.833    0.000    4.000    0.000    0.000 
#    0.000    0.000    0.000    0.000    0.000    0.000 
#
# Total GULP energy -267579.371351 kJ/mol
# GULP energy per Si atom -5574.570236 kJ/mol
# Density = 2.054689 g / cm^3
# Si number density = 20.593757 Si / 1000 Ang^3
#
#
#
# Elastic Constant Matrix: (Units=GPa)
#
#
# Indices 1 2 3 4 5 6 
#
# 1 155.5047 24.3085 65.4615 0.0000 0.0000 0.0000
# 2 24.3085 29.2160 15.8431 0.0000 0.0000 0.0000
# 3 65.4615 15.8431 95.9303 0.0000 0.0000 0.0000
# 4 0.0000 0.0000 0.0000 17.2738 0.0000 0.0000
# 5 0.0000 0.0000 0.0000 0.0000 55.9436 0.0000
# 6 0.0000 0.0000 0.0000 0.0000 0.0000 28.5981
#
#
#
# Elastic Compliance Matrix: (Units=1/GPa)
#
#
# Indices 1 2 3 4 5 6 
#
# 1 0.009617 -0.004880 -0.005756 0.000000 0.000000 0.000000
# 2 -0.004880 0.040071 -0.003288 0.000000 0.000000 0.000000
# 3 -0.005756 -0.003288 0.014895 0.000000 0.000000 0.000000
# 4 0.000000 0.000000 0.000000 0.057891 0.000000 0.000000
# 5 0.000000 0.000000 0.000000 0.000000 0.017875 0.000000
# 6 0.000000 0.000000 0.000000 0.000000 0.000000 0.034967
#
#
# Mechanical properties :
#
#
# Convention : Reuss Voigt Hill
#
# Bulk Modulus (GPa) = 27.22217 54.65301 40.93759
# Shear Modulus (GPa) = 23.21159 32.03229 27.62194
#
# Velocity S-wave (km/s) = 3.36090 3.94818 3.66632
# Velocity P-wave (km/s) = 5.32055 6.88334 6.15177
#
# Compressibility (1/GPa) = 0.03673477
#
# Stress axis : x y z
#
# Youngs Moduli (GPa) = 103.98563 24.95576 67.13512
#
# Poissons Ratio (x) = 0.12178 0.38646
# Poissons Ratio (y) = 0.50743 0.22073
# Poissons Ratio (z) = 0.59858 0.08205
#
# Static dielectric constant tensor:
#      x y z
#    x 1.828880 0.000000 0.000000 
#    y 0.000000 1.749000 0.000000 
#    z 0.000000 0.000000 1.774550 
# 
# From -- ./inp_files/18067.got.cif
#   From: 2010.05.17/outbox.cif.g08.bks.cpg/sg54_10_cif.got.tgz:18067.got - 2010.06.03 13:09:01.
