data_PCOD9420803
_publ_section_title
;
Structure prediction by ZEFSAII (Michael W. Deem and Ramdas Pophale) SiO2 
 PCOD9420803
Probable space group: P C C A
;
_chemical_formula_sum "Si O2"
_cell_formula_units_Z 32
_cell_length_a 13.054131
_cell_length_b 8.464651
_cell_length_c 13.545034
_cell_angle_alpha 90.000000
_cell_angle_beta 90.000000
_cell_angle_gamma 90.000000
_cell_volume 1496.708148
_symmetry_space_group_name_H-M "P C C A"
_symmetry_group_IT_number 54
_symmetry_cell_setting 'orthorhombic'
loop_
_space_group_symop_operation_xyz
x,y,z
1/2-x,-y,z
1/2+x,-y,1/2-z
-x,y,1/2-z
-x,-y,-z
1/2+x,y,-z
1/2-x,y,1/2+z
x,-y,1/2+z
loop_
_atom_site_type_symbol
_atom_site_label
_atom_site_fract_x
_atom_site_fract_y
_atom_site_fract_z
Si Si1 0.750000 0.000000 0.923996
Si Si2 0.111282 0.732801 0.490002
Si Si3 0.641296 0.459448 0.827644
Si Si4 0.750000 0.500000 0.141091
Si Si5 0.562752 0.190598 0.341183
O O1 0.666142 0.904069 0.861374
O O2 0.811709 0.874732 0.988545
O O3 0.085162 0.653765 0.596148
O O4 0.172655 0.607479 0.421516
O O5 0.010794 0.796229 0.435693
O O6 0.750000 0.500000 0.879271
O O7 0.678422 0.402063 0.719621
O O8 0.588952 0.627881 0.815477
O O9 0.500000 0.120315 0.250000
#
# Coordination Sequence:
#
# PCOD9420803 Si02
#       5
#     4   8   8   4   8
#     4  12  26  46  66 100 152 180 232 280 344 430
#     4  12  23  42  70 102 138 185 225 288 350 410
#     4  10  20  41  68  99 129 171 232 291 335 398
#     4  10  18  40  68  98 136 178 224 288 346 392
#     4  12  24  45  71 101 140 183 235 281 351 421
#
# _framework density 21.380253
#
# number of rings (size 3 to 8) (size 9 to 14) (size 15 to 20)
#    0.750    0.000    6.250    1.500    0.000    1.000 
#    0.000    1.250    0.000    0.000    0.000    0.000 
#    0.000    0.000    0.000    0.000    0.000    0.000 
#
# Total GULP energy -178612.350258 kJ/mol
# GULP energy per Si atom -5581.635946 kJ/mol
# Density = 2.133159 g / cm^3
# Si number density = 21.380253 Si / 1000 Ang^3
#
#
#
# Elastic Constant Matrix: (Units=GPa)
#
#
# Indices 1 2 3 4 5 6 
#
# 1 122.6352 36.6089 22.9268 0.0000 0.0000 0.0000
# 2 36.6089 63.5783 22.7570 0.0000 0.0000 0.0000
# 3 22.9268 22.7570 60.2849 0.0000 0.0000 0.0000
# 4 0.0000 0.0000 0.0000 -413.6416 0.0000 0.0000
# 5 0.0000 0.0000 0.0000 0.0000 41.3004 0.0000
# 6 0.0000 0.0000 0.0000 0.0000 0.0000 6.4158
#
#
#
# Elastic Compliance Matrix: (Units=1/GPa)
#
#
# Indices 1 2 3 4 5 6 
#
# 1 0.010030 -0.005099 -0.001890 0.000000 0.000000 0.000000
# 2 -0.005099 0.020778 -0.005904 0.000000 0.000000 0.000000
# 3 -0.001890 -0.005904 0.019535 0.000000 0.000000 0.000000
# 4 0.000000 0.000000 0.000000 -0.002418 0.000000 0.000000
# 5 0.000000 0.000000 0.000000 0.000000 0.024213 0.000000
# 6 0.000000 0.000000 0.000000 0.000000 0.000000 0.155866
#
#
# Mechanical properties :
#
#
# Convention : Reuss Voigt Hill
#
# Bulk Modulus (GPa) = 40.72087 45.67598 43.19842
# Shear Modulus (GPa) = 19.08573 -62.23806 -21.57617
#
# Velocity S-wave (km/s) = 2.99102 -5.40123 -3.18018
# Velocity P-wave (km/s) = 5.56917 4.18183 2.60076
#
# Compressibility (1/GPa) = 0.02455743
#
# Stress axis : x y z
#
# Youngs Moduli (GPa) = 99.70475 48.12794 51.18914
#
# Poissons Ratio (x) = 0.24539 0.09673
# Poissons Ratio (y) = 0.50837 0.30224
# Poissons Ratio (z) = 0.18840 0.28417
#
# Static dielectric constant tensor:
#      x y z
#    x 1.804310 0.000000 0.000000 
#    y 0.000000 1.775880 0.000000 
#    z 0.000000 0.000000 1.807510 
# 
# From -- ./inp_files/12244.got.cif
#   From: 2010.05.17/outbox.cif.g08.bks.cpg/sg54_7_cif.got.tgz:12244.got - 2010.06.03 13:09:01.
