data_PCOD9420329
_publ_section_title
;
Structure prediction by ZEFSAII (Michael W. Deem and Ramdas Pophale) SiO2 
 PCOD9420329
Probable space group: P C C A
;
_chemical_formula_sum "Si O2"
_cell_formula_units_Z 40
_cell_length_a 5.258466
_cell_length_b 23.660878
_cell_length_c 13.551263
_cell_angle_alpha 90.000000
_cell_angle_beta 90.000000
_cell_angle_gamma 90.000000
_cell_volume 1686.047092
_symmetry_space_group_name_H-M "P C C A"
_symmetry_group_IT_number 54
_symmetry_cell_setting 'orthorhombic'
loop_
_space_group_symop_operation_xyz
x,y,z
1/2-x,-y,z
1/2+x,-y,1/2-z
-x,y,1/2-z
-x,-y,-z
1/2+x,y,-z
1/2-x,y,1/2+z
x,-y,1/2+z
loop_
_atom_site_type_symbol
_atom_site_label
_atom_site_fract_x
_atom_site_fract_y
_atom_site_fract_z
Si Si1 0.558302 0.294001 0.380796
Si Si2 0.935674 0.661569 0.601654
Si Si3 0.762008 0.938301 0.567392
Si Si4 0.498653 0.535912 0.132029
Si Si5 0.096978 0.175940 0.930438
O O1 0.598858 0.306062 0.497827
O O2 0.839500 0.305602 0.343092
O O3 0.433632 0.232566 0.367151
O O4 0.341980 0.337928 0.349936
O O5 0.012434 0.597257 0.583198
O O6 0.545200 0.936601 0.480128
O O7 0.673329 0.882180 0.625431
O O8 0.750000 0.000000 0.616743
O O9 0.250000 0.500000 0.109370
O O10 0.500000 0.547031 0.250000
O O11 0.750000 0.500000 0.109358
O O12 0.329017 0.176835 0.009847
#
# Coordination Sequence:
#
# PCOD9420329 Si02
#       5
#     8   8   8   8   8
#     4  10  17  28  41  65  88 109 132 162 202 247
#     4  10  18  30  46  63  84 104 130 164 198 242
#     4   8  14  20  29  45  67 100 141 174 186 211
#     4  10  21  37  52  64  79 103 134 165 200 244
#     4  10  14  23  36  51  78 108 137 167 191 232
#
# _framework density 23.724129000000001
#
# number of rings (size 3 to 8) (size 9 to 14) (size 15 to 20)
#    0.000    2.400    4.000    1.200    0.000    0.000 
#    0.000   12.000    0.000    0.000    0.000    0.000 
#    0.000    0.000    0.000    0.000    0.000    6.000 
#
# Total GULP energy -222955.590355 kJ/mol
# GULP energy per Si atom -5573.889759 kJ/mol
# Density = 2.367013 g / cm^3
# Si number density = 23.724129 Si / 1000 Ang^3
#
#
#
# Elastic Constant Matrix: (Units=GPa)
#
#
# Indices 1 2 3 4 5 6 
#
# 1 201.9344 29.8060 -1.9669 0.0000 0.0000 0.0000
# 2 29.8060 189.5551 -13.4851 0.0000 0.0000 0.0000
# 3 -1.9669 -13.4851 66.7694 0.0000 0.0000 0.0000
# 4 0.0000 0.0000 0.0000 -61.1559 0.0000 0.0000
# 5 0.0000 0.0000 0.0000 0.0000 593.6687 0.0000
# 6 0.0000 0.0000 0.0000 0.0000 0.0000 33.3335
#
#
#
# Elastic Compliance Matrix: (Units=1/GPa)
#
#
# Indices 1 2 3 4 5 6 
#
# 1 0.005070 -0.000798 -0.000012 0.000000 0.000000 0.000000
# 2 -0.000798 0.005478 0.001083 0.000000 0.000000 0.000000
# 3 -0.000012 0.001083 0.015195 0.000000 0.000000 0.000000
# 4 0.000000 0.000000 0.000000 -0.016352 0.000000 0.000000
# 5 0.000000 0.000000 0.000000 0.000000 0.001684 0.000000
# 6 0.000000 0.000000 0.000000 0.000000 0.000000 0.030000
#
#
# Mechanical properties :
#
#
# Convention : Reuss Voigt Hill
#
# Bulk Modulus (GPa) = 38.03857 54.10743 46.07300
# Shear Modulus (GPa) = 101.43479 142.76293 122.09886
#
# Velocity S-wave (km/s) = 6.54590 7.76575 7.18177
# Velocity P-wave (km/s) = 8.55571 10.16197 9.39324
#
# Compressibility (1/GPa) = 0.02628911
#
# Stress axis : x y z
#
# Youngs Moduli (GPa) = 197.24726 182.54744 65.80994
#
# Poissons Ratio (x) = 0.14568 0.00078
# Poissons Ratio (y) = 0.15741 -0.07126
# Poissons Ratio (z) = 0.00233 -0.19767
#
# Static dielectric constant tensor:
#      x y z
#    x 1.907170 0.000000 0.000000 
#    y 0.000000 1.992020 0.000000 
#    z 0.000000 0.000000 2.151790 
# 
# From -- ./inp_files/19738.got.cif
#   From: 2010.05.17/outbox.cif.g08.bks.cpg/sg54_10_cif.got.tgz:19738.got - 2010.06.03 13:09:01.
