data_PCOD9420418
_publ_section_title
;
Structure prediction by ZEFSAII (Michael W. Deem and Ramdas Pophale) SiO2 
 PCOD9420418
Probable space group: P C C A
;
_chemical_formula_sum "Si O2"
_cell_formula_units_Z 32
_cell_length_a 5.258788
_cell_length_b 7.060109
_cell_length_c 35.193941
_cell_angle_alpha 90.000000
_cell_angle_beta 90.000000
_cell_angle_gamma 90.000000
_cell_volume 1306.667144
_symmetry_space_group_name_H-M "P C C A"
_symmetry_group_IT_number 54
_symmetry_cell_setting 'orthorhombic'
loop_
_space_group_symop_operation_xyz
x,y,z
1/2-x,-y,z
1/2+x,-y,1/2-z
-x,y,1/2-z
-x,-y,-z
1/2+x,y,-z
1/2-x,y,1/2+z
x,-y,1/2+z
loop_
_atom_site_type_symbol
_atom_site_label
_atom_site_fract_x
_atom_site_fract_y
_atom_site_fract_z
Si Si1 0.677761 0.282934 0.178805
Si Si2 0.487830 0.216336 0.016687
Si Si3 0.329472 0.276442 0.712066
Si Si4 0.495975 0.126302 0.102517
O O1 0.750000 0.500000 0.188702
O O2 0.457153 0.198020 0.206236
O O3 0.558499 0.266435 0.137150
O O4 0.964313 0.201613 0.181262
O O5 0.445692 0.217714 0.061543
O O6 0.254969 0.301232 0.994264
O O7 0.500000 0.000000 0.000000
O O8 0.250000 0.500000 0.709065
O O9 0.500000 0.252479 0.750000
O O10 0.750000 0.000000 0.097945
O O11 0.250000 0.000000 0.111119
#
# Coordination Sequence:
#
# PCOD9420418 Si02
#       4
#     8   8   8   8
#     4  10  22  36  54  84 117 143 179 237 295 337
#     4  10  16  30  50  79 100 132 187 246 260 306
#     4  10  18  34  59  83 105 143 194 235 268 330
#     4  12  21  34  57  82 111 148 187 234 283 344
#
# _framework density 24.489784
#
# number of rings (size 3 to 8) (size 9 to 14) (size 15 to 20)
#    0.000    1.500    5.000    4.500    0.000    0.000 
#    0.000    0.000    0.000   16.500    0.000    0.000 
#    0.000    0.000    0.000    0.000    0.000    0.000 
#
# Total GULP energy -178486.112591 kJ/mol
# GULP energy per Si atom -5577.691018 kJ/mol
# Density = 2.443404 g / cm^3
# Si number density = 24.489784 Si / 1000 Ang^3
#
#
#
# Elastic Constant Matrix: (Units=GPa)
#
#
# Indices 1 2 3 4 5 6 
#
# 1 229.6614 34.4728 55.3346 0.0000 0.0000 0.0000
# 2 34.4728 71.1049 1.7357 0.0000 0.0000 0.0000
# 3 55.3346 1.7357 165.1306 0.0000 0.0000 0.0000
# 4 0.0000 0.0000 0.0000 67.7103 0.0000 0.0000
# 5 0.0000 0.0000 0.0000 0.0000 59.4515 0.0000
# 6 0.0000 0.0000 0.0000 0.0000 0.0000 -2.9271
#
#
#
# Elastic Compliance Matrix: (Units=1/GPa)
#
#
# Indices 1 2 3 4 5 6 
#
# 1 0.005129 -0.002445 -0.001693 0.000000 0.000000 0.000000
# 2 -0.002445 0.015233 0.000659 0.000000 0.000000 0.000000
# 3 -0.001693 0.000659 0.006616 0.000000 0.000000 0.000000
# 4 0.000000 0.000000 0.000000 0.014769 0.000000 0.000000
# 5 0.000000 0.000000 0.000000 0.000000 0.016820 0.000000
# 6 0.000000 0.000000 0.000000 0.000000 0.000000 -0.341641
#
#
# Mechanical properties :
#
#
# Convention : Reuss Voigt Hill
#
# Bulk Modulus (GPa) = 49.94917 72.10921 61.02919
# Shear Modulus (GPa) = -18.55695 49.80386 15.62346
#
# Velocity S-wave (km/s) = -2.75570 4.51450 2.52852
# Velocity P-wave (km/s) = 3.21170 7.52880 5.78783
#
# Compressibility (1/GPa) = 0.02002035
#
# Stress axis : x y z
#
# Youngs Moduli (GPa) = 194.96110 65.64610 151.14350
#
# Poissons Ratio (x) = 0.16053 0.25590
# Poissons Ratio (y) = 0.47676 -0.09965
# Poissons Ratio (z) = 0.33008 -0.04328
#
# Static dielectric constant tensor:
#      x y z
#    x 1.964910 0.000000 0.000000 
#    y 0.000000 1.986230 0.000000 
#    z 0.000000 0.000000 1.972620 
# 
# From -- ./inp_files/26861.got.cif
#   From: 2010.05.17/outbox.cif.g08.bks.cpg/sg54_14_cif.got.tgz:26861.got - 2010.06.03 13:09:01.
