data_PCOD9420014
_publ_section_title
;
Structure prediction by ZEFSAII (Michael W. Deem and Ramdas Pophale) SiO2 
 PCOD9420014
Probable space group: P M N A
;
_chemical_formula_sum "Si O2"
_cell_formula_units_Z 54
_cell_length_a 14.982721
_cell_length_b 5.538361
_cell_length_c 26.585477
_cell_angle_alpha 90.000000
_cell_angle_beta 90.000000
_cell_angle_gamma 90.000000
_cell_volume 2206.055375
_symmetry_space_group_name_H-M "P M N A"
_symmetry_group_IT_number 53
_symmetry_cell_setting 'orthorhombic'
loop_
_space_group_symop_operation_xyz
x,y,z
1/2-x,-y,1/2+z
x,-y,-z
1/2-x,y,1/2-z
-x,-y,-z
1/2+x,y,1/2-z
-x,y,z
1/2+x,-y,1/2+z
loop_
_atom_site_type_symbol
_atom_site_label
_atom_site_fract_x
_atom_site_fract_y
_atom_site_fract_z
Si Si1 0.500000 0.754925 0.031919
Si Si2 0.633109 0.657859 0.452090
Si Si3 0.150456 0.409171 0.760481
Si Si4 0.760284 0.030543 0.827040
Si Si5 0.323083 0.363484 0.910825
Si Si6 0.398698 0.690618 0.831494
Si Si7 0.500000 0.000000 0.500000
Si Si8 0.404457 0.681482 0.640948
O O1 0.410569 0.755246 0.065599
O O2 0.500000 0.500000 0.000000
O O3 0.500000 0.000000 0.000000
O O4 0.603082 0.500000 0.500000
O O5 0.740807 0.650982 0.449630
O O6 0.603158 0.518368 0.402119
O O7 0.579604 0.903514 0.461055
O O8 0.250000 0.507093 0.750000
O O9 0.101758 0.466276 0.708255
O O10 0.104043 0.553652 0.804984
O O11 0.175427 0.149408 0.784941
O O12 0.672297 0.884168 0.811298
O O13 0.822131 0.860961 0.860803
O O14 0.721987 0.237912 0.862577
O O15 0.360993 0.609692 0.885993
O O16 0.500000 0.779229 0.835525
O O17 0.500000 0.805078 0.637546
#
# Coordination Sequence:
#
# PCOD9420014 Si02
#       8
#     4   8   8   8   8   8   2   8
#     4  12  32  54  84 125 166 215 280 353 423 515
#     4  12  27  48  72 110 149 204 259 328 400 470
#     4  12  24  49  72 109 153 202 260 320 401 489
#     4  12  26  46  81 108 156 213 258 329 405 485
#     4  12  27  49  80 114 158 205 268 334 411 497
#     4  12  27  48  79 114 160 203 263 334 404 494
#     4  12  30  44  80 102 148 198 266 322 388 492
#     4  12  27  48  73 110 155 198 264 330 398 478
#
# _framework density 24.478081
#
# number of rings (size 3 to 8) (size 9 to 14) (size 15 to 20)
#    0.000    0.000    7.407    1.111    8.296    1.185 
#    0.000    0.000    0.000    0.000    0.000    0.000 
#    0.000    0.000    0.000    0.000    0.000    0.000 
#
# Total GULP energy -301330.034526 kJ/mol
# GULP energy per Si atom -5580.185825 kJ/mol
# Density = 2.442237 g / cm^3
# Si number density = 24.478081 Si / 1000 Ang^3
#
#
#
# Elastic Constant Matrix: (Units=GPa)
#
#
# Indices 1 2 3 4 5 6 
#
# 1 196.4128 15.3343 23.1575 0.0000 0.0000 0.0000
# 2 15.3343 48.4885 9.8487 0.0000 0.0000 0.0000
# 3 23.1575 9.8487 84.7731 0.0000 0.0000 0.0000
# 4 0.0000 0.0000 0.0000 51.7370 0.0000 0.0000
# 5 0.0000 0.0000 0.0000 0.0000 67.8083 0.0000
# 6 0.0000 0.0000 0.0000 0.0000 0.0000 -0.4608
#
#
#
# Elastic Compliance Matrix: (Units=1/GPa)
#
#
# Indices 1 2 3 4 5 6 
#
# 1 0.005356 -0.001430 -0.001297 0.000000 0.000000 0.000000
# 2 -0.001430 0.021504 -0.002108 0.000000 0.000000 0.000000
# 3 -0.001297 -0.002108 0.012395 0.000000 0.000000 0.000000
# 4 0.000000 0.000000 0.000000 0.019329 0.000000 0.000000
# 5 0.000000 0.000000 0.000000 0.000000 0.014747 0.000000
# 6 0.000000 0.000000 0.000000 0.000000 0.000000 -2.170086
#
#
# Mechanical properties :
#
#
# Convention : Reuss Voigt Hill
#
# Bulk Modulus (GPa) = 33.80036 47.37282 40.58659
# Shear Modulus (GPa) = -2.40706 42.57250 20.08272
#
# Velocity S-wave (km/s) = -0.99272 4.17491 2.86743
# Velocity P-wave (km/s) = 3.53898 6.52955 5.25164
#
# Compressibility (1/GPa) = 0.02958549
#
# Stress axis : x y z
#
# Youngs Moduli (GPa) = 186.71018 46.50330 80.67560
#
# Poissons Ratio (x) = 0.06652 0.10463
# Poissons Ratio (y) = 0.26706 0.17003
# Poissons Ratio (z) = 0.24214 0.09801
#
# Static dielectric constant tensor:
#      x y z
#    x 1.863220 0.000000 0.000000 
#    y 0.000000 2.043090 0.000000 
#    z 0.000000 0.000000 1.966180 
# 
# From -- ./inp_files/38905.got.cif
#   From: 2010.05.17/outbox.cif.g08.bks.cpg/sg53_20_cif.got.tgz:38905.got - 2010.06.03 12:45:16.
