data_PCOD9420862
_publ_section_title
;
Structure prediction by ZEFSAII (Michael W. Deem and Ramdas Pophale) SiO2 
 PCOD9420862
Probable space group: P C C A
;
_chemical_formula_sum "Si O2"
_cell_formula_units_Z 48
_cell_length_a 16.911173
_cell_length_b 4.956509
_cell_length_c 28.884881
_cell_angle_alpha 90.000000
_cell_angle_beta 90.000000
_cell_angle_gamma 90.000000
_cell_volume 2421.141736
_symmetry_space_group_name_H-M "P C C A"
_symmetry_group_IT_number 54
_symmetry_cell_setting 'orthorhombic'
loop_
_space_group_symop_operation_xyz
x,y,z
1/2-x,-y,z
1/2+x,-y,1/2-z
-x,y,1/2-z
-x,-y,-z
1/2+x,y,-z
1/2-x,y,1/2+z
x,-y,1/2+z
loop_
_atom_site_type_symbol
_atom_site_label
_atom_site_fract_x
_atom_site_fract_y
_atom_site_fract_z
Si Si1 0.305065 0.740284 0.641767
Si Si2 0.663219 0.379335 0.612763
Si Si3 0.101204 0.116417 0.832842
Si Si4 0.694185 0.741246 0.753690
Si Si5 0.963995 0.982266 0.394220
Si Si6 0.522292 0.519466 0.053365
O O1 0.250000 0.500000 0.622911
O O2 0.330461 0.659086 0.694284
O O3 0.380469 0.841469 0.613713
O O4 0.250000 0.000000 0.645543
O O5 0.750000 0.500000 0.605277
O O6 0.616819 0.593309 0.644571
O O7 0.610119 0.371775 0.566196
O O8 0.658067 0.098359 0.640652
O O9 0.124111 0.165609 0.779890
O O10 0.013821 0.014682 0.846324
O O11 0.750000 0.500000 0.734289
O O12 0.750000 0.000000 0.756738
O O13 0.012742 0.781700 0.427238
O O14 0.965711 0.274768 0.417946
O O15 0.500000 0.500000 0.000000
#
# Coordination Sequence:
#
# PCOD9420862 Si02
#       6
#     8   8   8   8   8   8
#     4  10  21  37  55  77 109 148 188 227 265 315
#     4  10  19  32  52  78 108 138 173 219 273 332
#     4  10  19  31  52  79 107 141 178 220 270 325
#     4  10  19  31  50  77 110 147 183 220 263 311
#     4  10  21  37  57  79 105 141 181 224 280 332
#     4  10  21  38  58  80 107 139 175 224 282 337
#
# _framework density 19.825358999999999
#
# number of rings (size 3 to 8) (size 9 to 14) (size 15 to 20)
#    0.000    2.000    0.000    4.500    0.000    0.667 
#    0.000    2.500    0.000   14.000    0.000    0.000 
#    0.000    0.000    0.000    0.000    0.000    0.000 
#
# Total GULP energy -267581.936546 kJ/mol
# GULP energy per Si atom -5574.623678 kJ/mol
# Density = 1.978024 g / cm^3
# Si number density = 19.825359 Si / 1000 Ang^3
#
#
#
# Elastic Constant Matrix: (Units=GPa)
#
#
# Indices 1 2 3 4 5 6 
#
# 1 74.2268 2.2427 4.8979 0.0000 0.0000 0.0000
# 2 2.2427 101.5029 -9.4898 0.0000 0.0000 0.0000
# 3 4.8979 -9.4898 24.1472 0.0000 0.0000 0.0000
# 4 0.0000 0.0000 0.0000 25.7996 0.0000 0.0000
# 5 0.0000 0.0000 0.0000 0.0000 21.9352 0.0000
# 6 0.0000 0.0000 0.0000 0.0000 0.0000 31.4898
#
#
#
# Elastic Compliance Matrix: (Units=1/GPa)
#
#
# Indices 1 2 3 4 5 6 
#
# 1 0.013688 -0.000583 -0.003006 0.000000 0.000000 0.000000
# 2 -0.000583 0.010253 0.004148 0.000000 0.000000 0.000000
# 3 -0.003006 0.004148 0.043652 0.000000 0.000000 0.000000
# 4 0.000000 0.000000 0.000000 0.038760 0.000000 0.000000
# 5 0.000000 0.000000 0.000000 0.000000 0.045589 0.000000
# 6 0.000000 0.000000 0.000000 0.000000 0.000000 0.031756
#
#
# Mechanical properties :
#
#
# Convention : Reuss Voigt Hill
#
# Bulk Modulus (GPa) = 14.55398 21.68653 18.12025
# Shear Modulus (GPa) = 24.33268 29.32667 26.82967
#
# Velocity S-wave (km/s) = 3.50716 3.85027 3.68271
# Velocity P-wave (km/s) = 4.87414 5.54335 5.21948
#
# Compressibility (1/GPa) = 0.06870974
#
# Stress axis : x y z
#
# Youngs Moduli (GPa) = 73.05570 97.53628 22.90833
#
# Poissons Ratio (x) = 0.05691 0.06886
# Poissons Ratio (y) = 0.04262 -0.09501
# Poissons Ratio (z) = 0.21959 -0.40454
#
# Static dielectric constant tensor:
#      x y z
#    x 1.741850 0.000000 0.000000 
#    y 0.000000 1.695900 0.000000 
#    z 0.000000 0.000000 1.733740 
# 
# From -- ./inp_files/26446.got.cif
#   From: 2010.05.17/outbox.cif.g08.bks.cpg/sg54_14_cif.got.tgz:26446.got - 2010.06.03 13:09:01.
