data_PCOD9420643
_publ_section_title
;
Structure prediction by ZEFSAII (Michael W. Deem and Ramdas Pophale) SiO2 
 PCOD9420643
Probable space group: P C C A
;
_chemical_formula_sum "Si O2"
_cell_formula_units_Z 48
_cell_length_a 22.001250
_cell_length_b 12.594975
_cell_length_c 8.629968
_cell_angle_alpha 90.000000
_cell_angle_beta 90.000000
_cell_angle_gamma 90.000000
_cell_volume 2391.408954
_symmetry_space_group_name_H-M "P C C A"
_symmetry_group_IT_number 54
_symmetry_cell_setting 'orthorhombic'
loop_
_space_group_symop_operation_xyz
x,y,z
1/2-x,-y,z
1/2+x,-y,1/2-z
-x,y,1/2-z
-x,-y,-z
1/2+x,y,-z
1/2-x,y,1/2+z
x,-y,1/2+z
loop_
_atom_site_type_symbol
_atom_site_label
_atom_site_fract_x
_atom_site_fract_y
_atom_site_fract_z
Si Si1 0.613366 0.621848 0.666822
Si Si2 0.762933 0.383261 0.520589
Si Si3 0.455554 0.553094 0.124705
Si Si4 0.148857 0.847068 0.283107
Si Si5 0.821664 0.964163 0.906487
Si Si6 0.712720 0.235249 0.738450
O O1 0.685113 0.597711 0.650285
O O2 0.587962 0.616601 0.490762
O O3 0.581294 0.536617 0.778581
O O4 0.607757 0.742816 0.724138
O O5 0.750000 0.500000 0.459234
O O6 0.706629 0.316826 0.594870
O O7 0.789995 0.306623 0.391004
O O8 0.500000 0.608938 0.250000
O O9 0.500000 0.500000 0.000000
O O10 0.148865 0.910386 0.444368
O O11 0.218245 0.805402 0.277083
O O12 0.143182 0.931655 0.147110
O O13 0.750000 0.000000 0.932948
O O14 0.822543 0.873690 0.771432
#
# Coordination Sequence:
#
# PCOD9420643 Si02
#       6
#     8   8   8   8   8   8
#     4  10  21  37  57  90 115 149 193 242 297 356
#     4  11  23  31  49  81 130 165 192 227 277 348
#     4   9  20  41  65  85 109 143 190 248 310 366
#     4  10  21  32  52  79 112 155 202 246 266 324
#     4  10  18  33  50  72 111 168 211 240 258 313
#     4  10  19  34  46  71 115 169 204 228 269 314
#
# _framework density 20.071849
#
# number of rings (size 3 to 8) (size 9 to 14) (size 15 to 20)
#    0.000    2.000    3.333    2.000    9.333    0.000 
#    0.000    3.333    0.000    0.000    0.000   15.167 
#    0.000    0.000    0.000    0.000    0.000    0.000 
#
# Total GULP energy -267382.194678 kJ/mol
# GULP energy per Si atom -5570.462389 kJ/mol
# Density = 2.002616 g / cm^3
# Si number density = 20.071849 Si / 1000 Ang^3
#
#
#
# Elastic Constant Matrix: (Units=GPa)
#
#
# Indices 1 2 3 4 5 6 
#
# 1 21.3930 11.7155 17.0685 0.0000 0.0000 0.0000
# 2 11.7155 115.2314 22.7028 0.0000 0.0000 0.0000
# 3 17.0685 22.7028 57.2053 0.0000 0.0000 0.0000
# 4 0.0000 0.0000 0.0000 47.3228 0.0000 0.0000
# 5 0.0000 0.0000 0.0000 0.0000 23.0472 0.0000
# 6 0.0000 0.0000 0.0000 0.0000 0.0000 1.8991
#
#
#
# Elastic Compliance Matrix: (Units=1/GPa)
#
#
# Indices 1 2 3 4 5 6 
#
# 1 0.062226 -0.002895 -0.017418 0.000000 0.000000 0.000000
# 2 -0.002895 0.009549 -0.002926 0.000000 0.000000 0.000000
# 3 -0.017418 -0.002926 0.023839 0.000000 0.000000 0.000000
# 4 0.000000 0.000000 0.000000 0.021131 0.000000 0.000000
# 5 0.000000 0.000000 0.000000 0.000000 0.043389 0.000000
# 6 0.000000 0.000000 0.000000 0.000000 0.000000 0.526558
#
#
# Mechanical properties :
#
#
# Convention : Reuss Voigt Hill
#
# Bulk Modulus (GPa) = 20.35110 32.97813 26.66462
# Shear Modulus (GPa) = 6.67068 23.94336 15.30702
#
# Velocity S-wave (km/s) = 1.82500 3.45756 2.76454
# Velocity P-wave (km/s) = 3.82125 5.69257 4.84806
#
# Compressibility (1/GPa) = 0.04913739
#
# Stress axis : x y z
#
# Youngs Moduli (GPa) = 16.07033 104.72336 41.94789
#
# Poissons Ratio (x) = 0.30316 0.73064
# Poissons Ratio (y) = 0.04652 0.12274
# Poissons Ratio (z) = 0.27991 0.30641
#
# Static dielectric constant tensor:
#      x y z
#    x 1.749310 0.000000 0.000000 
#    y 0.000000 1.755790 0.000000 
#    z 0.000000 0.000000 1.793030 
# 
# From -- ./inp_files/5146.got.cif
#   From: 2010.05.17/outbox.cif.g08.bks.cpg/sg54_3_cif.got.tgz:5146.got - 2010.06.03 13:09:01.
