data_PCOD9420923
_publ_section_title
;
Structure prediction by ZEFSAII (Michael W. Deem and Ramdas Pophale) SiO2 
 PCOD9420923
Probable space group: P C C A
;
_chemical_formula_sum "Si O2"
_cell_formula_units_Z 48
_cell_length_a 13.876338
_cell_length_b 30.214947
_cell_length_c 5.256262
_cell_angle_alpha 90.000000
_cell_angle_beta 90.000000
_cell_angle_gamma 90.000000
_cell_volume 2203.807777
_symmetry_space_group_name_H-M "P C C A"
_symmetry_group_IT_number 54
_symmetry_cell_setting 'orthorhombic'
loop_
_space_group_symop_operation_xyz
x,y,z
1/2-x,-y,z
1/2+x,-y,1/2-z
-x,y,1/2-z
-x,-y,-z
1/2+x,y,-z
1/2-x,y,1/2+z
x,-y,1/2+z
loop_
_atom_site_type_symbol
_atom_site_label
_atom_site_fract_x
_atom_site_fract_y
_atom_site_fract_z
Si Si1 0.435068 0.889791 0.499644
Si Si2 0.641707 0.018250 0.606676
Si Si3 0.185924 0.705561 0.003436
Si Si4 0.186072 0.801686 0.932117
Si Si5 0.108186 0.518803 0.980681
Si Si6 0.684109 0.387717 0.620987
O O1 0.500000 0.893145 0.750000
O O2 0.362592 0.931384 0.484822
O O3 0.381165 0.843106 0.487215
O O4 0.500000 0.892884 0.250000
O O5 0.750000 0.000000 0.644555
O O6 0.596800 0.988355 0.384454
O O7 0.272318 0.704901 0.790804
O O8 0.137605 0.753266 0.964106
O O9 0.133783 0.659631 0.935375
O O10 0.230630 0.803698 0.648853
O O11 0.152258 0.510502 0.256241
O O12 0.116554 0.569917 0.910676
O O13 0.000000 0.500000 0.000000
O O14 0.765836 0.389540 0.398067
#
# Coordination Sequence:
#
# PCOD9420923 Si02
#       6
#     8   8   8   8   8   8
#     4  12  26  41  63  94 130 158 194 251 308 342
#     4  10  23  40  63  87 119 158 209 241 281 353
#     4   8  16  32  54  86 109 139 188 240 280 332
#     4  10  21  38  67  89 118 161 203 238 292 361
#     4  10  21  35  50  70 110 147 185 222 281 346
#     4  10  19  32  55  82 110 140 188 242 286 322
#
# _framework density 21.780484000000001
#
# number of rings (size 3 to 8) (size 9 to 14) (size 15 to 20)
#    0.000    2.000    0.000    3.000    4.667    4.000 
#    0.000    0.000    7.333    0.000    0.000    0.000 
#    0.000    0.000    0.000    0.000    0.000    0.000 
#
# Total GULP energy -267846.732311 kJ/mol
# GULP energy per Si atom -5580.140256 kJ/mol
# Density = 2.173091 g / cm^3
# Si number density = 21.780484 Si / 1000 Ang^3
#
#
#
# Elastic Constant Matrix: (Units=GPa)
#
#
# Indices 1 2 3 4 5 6 
#
# 1 48.3888 22.8099 -5.2580 0.0000 0.0000 0.0000
# 2 22.8099 190.7524 -12.4854 0.0000 0.0000 0.0000
# 3 -5.2580 -12.4854 136.8473 0.0000 0.0000 0.0000
# 4 0.0000 0.0000 0.0000 33.2974 0.0000 0.0000
# 5 0.0000 0.0000 0.0000 0.0000 13.1278 0.0000
# 6 0.0000 0.0000 0.0000 0.0000 0.0000 7.7648
#
#
#
# Elastic Compliance Matrix: (Units=1/GPa)
#
#
# Indices 1 2 3 4 5 6 
#
# 1 0.021951 -0.002585 0.000608 0.000000 0.000000 0.000000
# 2 -0.002585 0.005578 0.000410 0.000000 0.000000 0.000000
# 3 0.000608 0.000410 0.007368 0.000000 0.000000 0.000000
# 4 0.000000 0.000000 0.000000 0.030032 0.000000 0.000000
# 5 0.000000 0.000000 0.000000 0.000000 0.076174 0.000000
# 6 0.000000 0.000000 0.000000 0.000000 0.000000 0.128786
#
#
# Mechanical properties :
#
#
# Convention : Reuss Voigt Hill
#
# Bulk Modulus (GPa) = 31.48495 42.90239 37.19367
# Shear Modulus (GPa) = 17.62969 35.56615 26.59792
#
# Velocity S-wave (km/s) = 2.84813 4.04534 3.49833
# Velocity P-wave (km/s) = 5.03018 6.44672 5.78199
#
# Compressibility (1/GPa) = 0.03176121
#
# Stress axis : x y z
#
# Youngs Moduli (GPa) = 45.55703 179.26525 135.71960
#
# Poissons Ratio (x) = 0.46341 -0.08246
# Poissons Ratio (y) = 0.11777 -0.05559
# Poissons Ratio (z) = -0.02768 -0.07343
#
# Static dielectric constant tensor:
#      x y z
#    x 1.287040 0.000000 0.000000 
#    y 0.000000 1.832550 0.000000 
#    z 0.000000 0.000000 1.863130 
# 
# From -- ./inp_files/612.got.cif
#   From: 2010.05.17/outbox.cif.g08.bks.cpg/sg54_1_cif.got.tgz:612.got - 2010.06.03 13:09:01.
