data_PCOD9420322
_publ_section_title
;
Structure prediction by ZEFSAII (Michael W. Deem and Ramdas Pophale) SiO2 
 PCOD9420322
Probable space group: P C C A
;
_chemical_formula_sum "Si O2"
_cell_formula_units_Z 40
_cell_length_a 13.178788
_cell_length_b 26.281977
_cell_length_c 5.401862
_cell_angle_alpha 90.000000
_cell_angle_beta 90.000000
_cell_angle_gamma 90.000000
_cell_volume 1871.013788
_symmetry_space_group_name_H-M "P C C A"
_symmetry_group_IT_number 54
_symmetry_cell_setting 'orthorhombic'
loop_
_space_group_symop_operation_xyz
x,y,z
1/2-x,-y,z
1/2+x,-y,1/2-z
-x,y,1/2-z
-x,-y,-z
1/2+x,y,-z
1/2-x,y,1/2+z
x,-y,1/2+z
loop_
_atom_site_type_symbol
_atom_site_label
_atom_site_fract_x
_atom_site_fract_y
_atom_site_fract_z
Si Si1 0.683205 0.257490 0.723087
Si Si2 0.000000 0.112977 0.750000
Si Si3 0.814099 0.629908 0.786859
Si Si4 0.867272 0.480178 0.154186
Si Si5 0.634006 0.979622 0.844246
Si Si6 0.500000 0.821185 0.250000
O O1 0.741477 0.253176 0.460033
O O2 0.637628 0.314717 0.745061
O O3 0.598292 0.214797 0.740130
O O4 0.899829 0.076659 0.763067
O O5 0.996411 0.145552 0.499946
O O6 0.729031 0.628036 0.566907
O O7 0.626263 0.578155 0.238572
O O8 0.750000 0.500000 0.127861
O O9 0.908034 0.486885 0.880184
O O10 0.750000 0.000000 0.868768
O O11 0.593350 0.013633 0.620014
#
# Coordination Sequence:
#
# PCOD9420322 Si02
#       6
#     8   4   8   8   8   4
#     4  10  23  43  64  90 127 167 218 273 318 387
#     4  12  24  43  70  98 132 171 214 260 312 372
#     4  10  16  27  47  73 109 151 197 247 312 375
#     4  10  14  20  36  68 107 138 183 250 299 370
#     4  10  21  41  65  98 134 171 208 249 300 374
#     4  12  26  47  66 100 132 171 220 272 322 360
#
# _framework density 21.378785000000001
#
# number of rings (size 3 to 8) (size 9 to 14) (size 15 to 20)
#    0.000    1.600    4.000    3.000    0.000    0.000 
#   21.600    0.000    0.000    0.000    0.000    1.400 
#    0.000    0.000    0.000    0.000    0.000    0.000 
#
# Total GULP energy -222978.322705 kJ/mol
# GULP energy per Si atom -5574.458068 kJ/mol
# Density = 2.133013 g / cm^3
# Si number density = 21.378785 Si / 1000 Ang^3
#
#
#
# Elastic Constant Matrix: (Units=GPa)
#
#
# Indices 1 2 3 4 5 6 
#
# 1 86.1181 34.2127 20.3867 0.0000 0.0000 0.0000
# 2 34.2127 155.9770 27.7665 0.0000 0.0000 0.0000
# 3 20.3867 27.7665 139.5230 0.0000 0.0000 0.0000
# 4 0.0000 0.0000 0.0000 46.3575 0.0000 0.0000
# 5 0.0000 0.0000 0.0000 0.0000 21.4487 0.0000
# 6 0.0000 0.0000 0.0000 0.0000 0.0000 -60.0492
#
#
#
# Elastic Compliance Matrix: (Units=1/GPa)
#
#
# Indices 1 2 3 4 5 6 
#
# 1 0.012971 -0.002600 -0.001378 0.000000 0.000000 0.000000
# 2 -0.002600 0.007168 -0.001047 0.000000 0.000000 0.000000
# 3 -0.001378 -0.001047 0.007577 0.000000 0.000000 0.000000
# 4 0.000000 0.000000 0.000000 0.021571 0.000000 0.000000
# 5 0.000000 0.000000 0.000000 0.000000 0.046623 0.000000
# 6 0.000000 0.000000 0.000000 0.000000 0.000000 -0.016653
#
#
# Mechanical properties :
#
#
# Convention : Reuss Voigt Hill
#
# Bulk Modulus (GPa) = 56.60253 60.70554 58.65403
# Shear Modulus (GPa) = 52.52398 21.50155 37.01276
#
# Velocity S-wave (km/s) = 4.96202 3.17478 4.16538
# Velocity P-wave (km/s) = 7.70469 6.47270 7.11541
#
# Compressibility (1/GPa) = 0.01766706
#
# Stress axis : x y z
#
# Youngs Moduli (GPa) = 77.09507 139.51343 131.98026
#
# Poissons Ratio (x) = 0.36271 0.18185
# Poissons Ratio (y) = 0.20043 0.13813
# Poissons Ratio (z) = 0.10623 0.14601
#
# Static dielectric constant tensor:
#      x y z
#    x 1.663550 0.000000 0.000000 
#    y 0.000000 1.772340 0.000000 
#    z 0.000000 0.000000 1.780210 
# 
# From -- ./inp_files/553.got.cif
#   From: 2010.05.17/outbox.cif.g08.bks.cpg/sg54_1_cif.got.tgz:553.got - 2010.06.03 13:09:01.
