data_PCOD9420148
_publ_section_title
;
Structure prediction by ZEFSAII (Michael W. Deem and Ramdas Pophale) SiO2 
 PCOD9420148
Probable space group: P M N A
;
_chemical_formula_sum "Si O2"
_cell_formula_units_Z 56
_cell_length_a 15.000000
_cell_length_b 9.000000
_cell_length_c 21.000000
_cell_angle_alpha 90.000000
_cell_angle_beta 90.000000
_cell_angle_gamma 90.000000
_cell_volume 2835.000000
_symmetry_space_group_name_H-M "P M N A"
_symmetry_group_IT_number 53
_symmetry_cell_setting 'orthorhombic'
loop_
_space_group_symop_operation_xyz
x,y,z
1/2-x,-y,1/2+z
x,-y,-z
1/2-x,y,1/2-z
-x,-y,-z
1/2+x,y,1/2-z
-x,y,z
1/2+x,-y,1/2+z
loop_
_atom_site_type_symbol
_atom_site_label
_atom_site_fract_x
_atom_site_fract_y
_atom_site_fract_z
Si Si1 0.600887 0.093013 0.229966
Si Si2 0.900190 0.108575 0.855154
Si Si3 0.646470 0.638439 0.263647
Si Si4 0.758596 0.872076 0.045733
Si Si5 0.898303 0.668127 0.818368
Si Si6 0.894316 0.662515 0.967302
Si Si7 0.894995 0.834159 0.358987
O O1 0.500000 0.134756 0.209374
O O2 0.647858 0.229732 0.264604
O O3 0.595421 0.985469 0.290965
O O4 0.636374 0.991814 0.172757
O O5 0.865503 0.263014 0.827053
O O6 0.828615 0.052818 0.905052
O O7 0.000000 0.120288 0.881881
O O8 0.750000 0.614107 0.250000
O O9 0.600073 0.488805 0.284108
O O10 0.609790 0.719136 0.200341
O O11 0.676507 0.801663 0.085627
O O12 0.823143 0.761776 0.006018
O O13 0.721891 0.000000 0.000000
O O14 0.867811 0.659196 0.891880
O O15 0.000000 0.725485 0.824668
O O16 0.000000 0.710840 0.971170
O O17 0.891828 0.500000 0.000000
O O18 0.000000 0.843902 0.377845
#
# Coordination Sequence:
#
# PCOD9420148 Si02
#       7
#     8   8   8   8   8   8   8
#     4   8  17  34  56  83 115 147 187 246 306 355
#     4  10  19  35  58  84 119 153 189 242 300 357
#     4  11  20  36  59  93 118 152 197 250 301 357
#     4  12  24  38  59  89 119 159 208 246 286 351
#     4  10  19  35  58  88 120 152 189 239 311 368
#     4  10  22  39  60  88 128 165 193 236 297 367
#     4  10  22  42  63  85 117 158 207 254 296 349
#
# _framework density 19.753086
#
# number of rings (size 3 to 8) (size 9 to 14) (size 15 to 20)
#    0.000    1.857    1.429    4.286    0.000    3.714 
#    5.143    0.000    0.000    0.429    0.000    0.000 
#    0.000    0.000    0.000    0.000    0.000    0.000 
#
# Total GULP energy -311789.033342 kJ/mol
# GULP energy per Si atom -5567.661310 kJ/mol
# Density = 1.970813 g / cm^3
# Si number density = 19.753086 Si / 1000 Ang^3
#
#
#
# Elastic Constant Matrix: (Units=GPa)
#
#
# Indices 1 2 3 4 5 6 
#
# 1 102.4838 14.4004 44.6073 0.0000 0.0000 0.0000
# 2 14.4004 69.9682 44.3219 0.0000 0.0000 0.0000
# 3 44.6073 44.3219 69.3734 0.0000 0.0000 0.0000
# 4 0.0000 0.0000 0.0000 23.4349 0.0000 0.0000
# 5 0.0000 0.0000 0.0000 0.0000 20.1281 0.0000
# 6 0.0000 0.0000 0.0000 0.0000 0.0000 15.7636
#
#
#
# Elastic Compliance Matrix: (Units=1/GPa)
#
#
# Indices 1 2 3 4 5 6 
#
# 1 0.014487 0.004904 -0.012448 0.000000 0.000000 0.000000
# 2 0.004904 0.025669 -0.019552 0.000000 0.000000 0.000000
# 3 -0.012448 -0.019552 0.034911 0.000000 0.000000 0.000000
# 4 0.000000 0.000000 0.000000 0.042671 0.000000 0.000000
# 5 0.000000 0.000000 0.000000 0.000000 0.049682 0.000000
# 6 0.000000 0.000000 0.000000 0.000000 0.000000 0.063437
#
#
# Mechanical properties :
#
#
# Convention : Reuss Voigt Hill
#
# Bulk Modulus (GPa) = 47.90975 49.83160 48.87068
# Shear Modulus (GPa) = 17.12286 21.09837 19.11062
#
# Velocity S-wave (km/s) = 2.94742 3.27173 3.11380
# Velocity P-wave (km/s) = 5.99083 6.28922 6.14184
#
# Compressibility (1/GPa) = 0.02087258
#
# Stress axis : x y z
#
# Youngs Moduli (GPa) = 69.02882 38.95805 28.64460
#
# Poissons Ratio (x) = -0.19104 0.35656
# Poissons Ratio (y) = -0.33849 0.56007
# Poissons Ratio (z) = 0.85926 0.76173
#
# Static dielectric constant tensor:
#      x y z
#    x 1.688680 0.000000 0.000000 
#    y 0.000000 1.872550 0.000000 
#    z 0.000000 0.000000 1.721830 
# 
# From -- ./inp_files/32493.got.cif
#   From: 2010.05.17/outbox.ucp.g08.bks.cvg/sg53_17_cif.got.tgz:32493.got - 2010.06.11 16:32:34.
