data_PCOD9420100
_publ_section_title
;
Structure prediction by ZEFSAII (Michael W. Deem and Ramdas Pophale) SiO2 
 PCOD9420100
Probable space group: P M N A
;
_chemical_formula_sum "Si O2"
_cell_formula_units_Z 64
_cell_length_a 9.000000
_cell_length_b 15.000000
_cell_length_c 24.000000
_cell_angle_alpha 90.000000
_cell_angle_beta 90.000000
_cell_angle_gamma 90.000000
_cell_volume 3240.000000
_symmetry_space_group_name_H-M "P M N A"
_symmetry_group_IT_number 53
_symmetry_cell_setting 'orthorhombic'
loop_
_space_group_symop_operation_xyz
x,y,z
1/2-x,-y,1/2+z
x,-y,-z
1/2-x,y,1/2-z
-x,-y,-z
1/2+x,y,1/2-z
-x,y,z
1/2+x,-y,1/2+z
loop_
_atom_site_type_symbol
_atom_site_label
_atom_site_fract_x
_atom_site_fract_y
_atom_site_fract_z
Si Si1 0.677051 0.938538 0.808461
Si Si2 0.171868 0.284836 0.503995
Si Si3 0.675798 0.343019 0.195053
Si Si4 0.323490 0.147355 0.808616
Si Si5 0.822383 0.296284 0.878319
Si Si6 0.169522 0.519483 0.167554
Si Si7 0.841281 0.571265 0.951575
Si Si8 0.818871 0.795897 0.603268
O O1 0.750000 0.912565 0.750000
O O2 0.500000 0.925825 0.803056
O O3 0.728160 0.880749 0.860891
O O4 0.705605 0.042837 0.817713
O O5 0.264867 0.304102 0.558823
O O6 0.198003 0.369969 0.464300
O O7 0.226391 0.208300 0.461335
O O8 0.000000 0.272217 0.518697
O O9 0.750000 0.303335 0.250000
O O10 0.500000 0.334650 0.198347
O O11 0.722955 0.446127 0.193053
O O12 0.730282 0.288299 0.141172
O O13 0.250000 0.172254 0.750000
O O14 0.500000 0.161435 0.807023
O O15 0.247724 0.206858 0.854927
O O16 0.776909 0.379288 0.838592
O O17 0.000000 0.295696 0.877878
O O18 0.161970 0.484116 0.104476
O O19 0.000000 0.515856 0.190464
O O20 0.000000 0.623109 0.952553
O O21 0.846926 0.500000 0.000000
O O22 0.000000 0.793255 0.601531
#
# Coordination Sequence:
#
# PCOD9420100 Si02
#       8
#     8   8   8   8   8   8   8   8
#     4   9  18  36  61  86 113 142 182 229 278 334
#     4  11  21  34  54  83 116 149 189 230 277 331
#     4  11  22  36  53  78 112 148 188 232 280 331
#     4  10  21  39  64  90 111 141 181 230 284 335
#     4  11  23  40  59  82 113 150 190 235 281 331
#     4  10  21  36  54  75 104 145 187 226 274 325
#     4  10  18  33  53  75 105 143 188 230 274 324
#     4   9  19  35  55  82 115 149 183 225 274 333
#
# _framework density 19.753086
#
# number of rings (size 3 to 8) (size 9 to 14) (size 15 to 20)
#    0.000    1.875    2.500    1.875    0.000    2.250 
#    0.000    2.500    0.000    3.750    0.000    0.000 
#    0.000    0.000    0.000    0.000    0.000    0.000 
#
# Total GULP energy -356612.647230 kJ/mol
# GULP energy per Si atom -5572.072613 kJ/mol
# Density = 1.970813 g / cm^3
# Si number density = 19.753086 Si / 1000 Ang^3
#
#
#
# Elastic Constant Matrix: (Units=GPa)
#
#
# Indices 1 2 3 4 5 6 
#
# 1 28.7738 28.2307 14.9123 0.0000 0.0000 0.0000
# 2 28.2307 60.2455 22.5102 0.0000 0.0000 0.0000
# 3 14.9123 22.5102 46.5600 0.0000 0.0000 0.0000
# 4 0.0000 0.0000 0.0000 45.6100 0.0000 0.0000
# 5 0.0000 0.0000 0.0000 0.0000 24.2986 0.0000
# 6 0.0000 0.0000 0.0000 0.0000 0.0000 19.5784
#
#
#
# Elastic Compliance Matrix: (Units=1/GPa)
#
#
# Indices 1 2 3 4 5 6 
#
# 1 0.066464 -0.028304 -0.007603 0.000000 0.000000 0.000000
# 2 -0.028304 0.032311 -0.006556 0.000000 0.000000 0.000000
# 3 -0.007603 -0.006556 0.027083 0.000000 0.000000 0.000000
# 4 0.000000 0.000000 0.000000 0.021925 0.000000 0.000000
# 5 0.000000 0.000000 0.000000 0.000000 0.041155 0.000000
# 6 0.000000 0.000000 0.000000 0.000000 0.000000 0.051077
#
#
# Mechanical properties :
#
#
# Convention : Reuss Voigt Hill
#
# Bulk Modulus (GPa) = 24.43121 29.65397 27.04259
# Shear Modulus (GPa) = 14.76738 22.55912 18.66325
#
# Velocity S-wave (km/s) = 2.73719 3.38310 3.07714
# Velocity P-wave (km/s) = 4.73125 5.50503 5.13275
#
# Compressibility (1/GPa) = 0.04093125
#
# Stress axis : x y z
#
# Youngs Moduli (GPa) = 15.04584 30.94884 36.92402
#
# Poissons Ratio (x) = 0.87596 0.28074
# Poissons Ratio (y) = 0.42585 0.24209
# Poissons Ratio (z) = 0.11440 0.20291
#
# Static dielectric constant tensor:
#      x y z
#    x 1.703020 0.000000 0.000000 
#    y 0.000000 1.722740 0.000000 
#    z 0.000000 0.000000 2.445000 
# 
# From -- ./inp_files/34266.got.cif
#   From: 2010.05.17/outbox.ucp.g08.bks.cvg/sg53_18_cif.got.tgz:34266.got - 2010.06.11 16:32:34.
