data_PCOD9420689
_publ_section_title
;
Structure prediction by ZEFSAII (Michael W. Deem and Ramdas Pophale) SiO2 
 PCOD9420689
Probable space group: P C C A
;
_chemical_formula_sum "Si O2"
_cell_formula_units_Z 64
_cell_length_a 28.679047
_cell_length_b 8.350144
_cell_length_c 10.693672
_cell_angle_alpha 90.000000
_cell_angle_beta 90.000000
_cell_angle_gamma 90.000000
_cell_volume 2560.858250
_symmetry_space_group_name_H-M "P C C A"
_symmetry_group_IT_number 54
_symmetry_cell_setting 'orthorhombic'
loop_
_space_group_symop_operation_xyz
x,y,z
1/2-x,-y,z
1/2+x,-y,1/2-z
-x,y,1/2-z
-x,-y,-z
1/2+x,y,-z
1/2-x,y,1/2+z
x,-y,1/2+z
loop_
_atom_site_type_symbol
_atom_site_label
_atom_site_fract_x
_atom_site_fract_y
_atom_site_fract_z
Si Si1 0.131704 0.545893 0.615861
Si Si2 0.258349 0.693016 0.447210
Si Si3 0.284000 0.343745 0.212246
Si Si4 0.843850 0.816996 0.724698
Si Si5 0.417637 0.355347 0.940505
Si Si6 0.050291 0.956691 0.057296
Si Si7 0.948920 0.591982 0.231304
Si Si8 0.904345 0.078038 0.687251
O O1 0.166627 0.418881 0.678145
O O2 0.153839 0.717159 0.646271
O O3 0.123550 0.478462 0.478874
O O4 0.079595 0.516194 0.669295
O O5 0.250000 0.500000 0.467013
O O6 0.217910 0.736869 0.348455
O O7 0.265608 0.751686 0.589734
O O8 0.302402 0.755904 0.364353
O O9 0.250000 0.500000 0.224676
O O10 0.891208 0.756208 0.657916
O O11 0.854478 0.005233 0.730222
O O12 0.438431 0.232504 0.040334
O O13 0.456550 0.464262 0.879948
O O14 0.084937 0.039390 0.957684
O O15 0.060827 0.992198 0.202447
O O16 0.000000 0.000000 0.000000
O O17 0.914537 0.734790 0.195637
O O18 0.000000 0.661721 0.250000
#
# Coordination Sequence:
#
# PCOD9420689 Si02
#       8
#     8   8   8   8   8   8   8   8
#     4  11  20  39  64  97 134 178 231 296 356 414
#     4  10  18  34  58  99 137 173 223 294 345 423
#     4  10  19  32  63  97 137 169 220 291 356 415
#     4  10  21  38  61  96 135 180 233 286 354 427
#     4  10  23  39  66  96 135 178 232 308 352 424
#     4  11  23  44  68  96 136 187 241 292 365 436
#     4  11  25  43  65  99 141 185 243 307 369 427
#     4  11  25  43  64  96 136 188 233 293 357 442
#
# _framework density 24.991622
#
# number of rings (size 3 to 8) (size 9 to 14) (size 15 to 20)
#    0.000    1.500    5.000    1.125    1.750    3.500 
#    0.000    0.625    0.000    0.750    0.000    1.750 
#    0.000    0.000    0.000    0.000    0.000    0.000 
#
# Total GULP energy -356420.744103 kJ/mol
# GULP energy per Si atom -5569.074127 kJ/mol
# Density = 2.493474 g / cm^3
# Si number density = 24.991622 Si / 1000 Ang^3
#
#
#
# Elastic Constant Matrix: (Units=GPa)
#
#
# Indices 1 2 3 4 5 6 
#
# 1 79.7546 17.5054 -7.6620 0.0000 0.0000 0.0000
# 2 17.5054 56.7150 -6.6499 0.0000 0.0000 0.0000
# 3 -7.6620 -6.6499 98.1900 0.0000 0.0000 0.0000
# 4 0.0000 0.0000 0.0000 26.6389 0.0000 0.0000
# 5 0.0000 0.0000 0.0000 0.0000 25.3889 0.0000
# 6 0.0000 0.0000 0.0000 0.0000 0.0000 27.4835
#
#
#
# Elastic Compliance Matrix: (Units=1/GPa)
#
#
# Indices 1 2 3 4 5 6 
#
# 1 0.013508 -0.004078 0.000778 0.000000 0.000000 0.000000
# 2 -0.004078 0.019004 0.000969 0.000000 0.000000 0.000000
# 3 0.000778 0.000969 0.010311 0.000000 0.000000 0.000000
# 4 0.000000 0.000000 0.000000 0.037539 0.000000 0.000000
# 5 0.000000 0.000000 0.000000 0.000000 0.039387 0.000000
# 6 0.000000 0.000000 0.000000 0.000000 0.000000 0.036385
#
#
# Mechanical properties :
#
#
# Convention : Reuss Voigt Hill
#
# Bulk Modulus (GPa) = 26.20518 26.78295 26.49406
# Shear Modulus (GPa) = 28.81540 31.33333 30.07436
#
# Velocity S-wave (km/s) = 3.39927 3.54468 3.47274
# Velocity P-wave (km/s) = 5.09069 5.24338 5.16760
#
# Compressibility (1/GPa) = 0.03816039
#
# Stress axis : x y z
#
# Youngs Moduli (GPa) = 74.02840 52.61947 96.98704
#
# Poissons Ratio (x) = 0.21459 -0.07544
# Poissons Ratio (y) = 0.30190 -0.09397
# Poissons Ratio (z) = -0.05759 -0.05098
#
# Static dielectric constant tensor:
#      x y z
#    x 2.019620 0.000000 0.000000 
#    y 0.000000 2.145310 0.000000 
#    z 0.000000 0.000000 2.181720 
# 
# From -- ./inp_files/10542.got.cif
#   From: 2010.05.17/outbox.cif.g08.bks.cpg/sg54_6_cif.got.tgz:10542.got - 2010.06.03 13:09:01.
