data_PCOD9420615
_publ_section_title
;
Structure prediction by ZEFSAII (Michael W. Deem and Ramdas Pophale) SiO2 
 PCOD9420615
Probable space group: P C C A
;
_chemical_formula_sum "Si O2"
_cell_formula_units_Z 32
_cell_length_a 7.981850
_cell_length_b 10.503824
_cell_length_c 18.046513
_cell_angle_alpha 90.000000
_cell_angle_beta 90.000000
_cell_angle_gamma 90.000000
_cell_volume 1513.018704
_symmetry_space_group_name_H-M "P C C A"
_symmetry_group_IT_number 54
_symmetry_cell_setting 'orthorhombic'
loop_
_space_group_symop_operation_xyz
x,y,z
1/2-x,-y,z
1/2+x,-y,1/2-z
-x,y,1/2-z
-x,-y,-z
1/2+x,y,-z
1/2-x,y,1/2+z
x,-y,1/2+z
loop_
_atom_site_type_symbol
_atom_site_label
_atom_site_fract_x
_atom_site_fract_y
_atom_site_fract_z
Si Si1 0.118096 0.890185 0.056875
Si Si2 0.104456 0.715397 0.539135
Si Si3 0.132838 0.118170 0.813162
Si Si4 0.286570 0.635859 0.387826
O O1 0.238234 0.774005 0.082244
O O2 0.981954 0.925450 0.117515
O O3 0.250000 0.000000 0.038284
O O4 0.017186 0.830616 0.988377
O O5 0.177540 0.650883 0.464482
O O6 0.980665 0.633975 0.588260
O O7 0.238048 0.240968 0.839607
O O8 0.000000 0.151434 0.750000
O O9 0.250000 0.000000 0.790750
O O10 0.250000 0.500000 0.352210
#
# Coordination Sequence:
#
# PCOD9420615 Si02
#       4
#     8   8   8   8
#     4  10  18  32  54  83 114 148 189 235 287 344
#     4   9  19  32  55  88 120 149 181 231 294 352
#     4  11  24  41  58  79 110 152 198 243 288 342
#     4  10  20  37  60  88 120 153 190 235 290 352
#
# _framework density 21.14977
#
# number of rings (size 3 to 8) (size 9 to 14) (size 15 to 20)
#    0.000    2.000    0.000    3.750    0.000    7.000 
#    0.000    3.750    0.000    0.000    0.000    0.000 
#    0.000    0.000    0.000    0.000    0.000    0.000 
#
# Total GULP energy -178601.152786 kJ/mol
# GULP energy per Si atom -5581.286025 kJ/mol
# Density = 2.110163 g / cm^3
# Si number density = 21.149770 Si / 1000 Ang^3
#
#
#
# Elastic Constant Matrix: (Units=GPa)
#
#
# Indices 1 2 3 4 5 6 
#
# 1 86.1927 18.4344 -4.4555 0.0000 0.0000 0.0000
# 2 18.4344 88.5000 2.5376 0.0000 0.0000 0.0000
# 3 -4.4555 2.5376 21.9198 0.0000 0.0000 0.0000
# 4 0.0000 0.0000 0.0000 5.7462 0.0000 0.0000
# 5 0.0000 0.0000 0.0000 0.0000 14.7395 0.0000
# 6 0.0000 0.0000 0.0000 0.0000 0.0000 23.0451
#
#
#
# Elastic Compliance Matrix: (Units=1/GPa)
#
#
# Indices 1 2 3 4 5 6 
#
# 1 0.012313 -0.002645 0.002809 0.000000 0.000000 0.000000
# 2 -0.002645 0.011905 -0.001916 0.000000 0.000000 0.000000
# 3 0.002809 -0.001916 0.046414 0.000000 0.000000 0.000000
# 4 0.000000 0.000000 0.000000 0.174027 0.000000 0.000000
# 5 0.000000 0.000000 0.000000 0.000000 0.067845 0.000000
# 6 0.000000 0.000000 0.000000 0.000000 0.000000 0.043393
#
#
# Mechanical properties :
#
#
# Convention : Reuss Voigt Hill
#
# Bulk Modulus (GPa) = 14.89707 25.51619 20.20663
# Shear Modulus (GPa) = 13.09663 20.71256 16.90460
#
# Velocity S-wave (km/s) = 2.49114 3.13282 2.83022
# Velocity P-wave (km/s) = 3.91577 5.01765 4.50056
#
# Compressibility (1/GPa) = 0.06712728
#
# Stress axis : x y z
#
# Youngs Moduli (GPa) = 81.21582 83.99565 21.54542
#
# Poissons Ratio (x) = 0.22219 -0.06052
# Poissons Ratio (y) = 0.21484 0.04128
# Poissons Ratio (z) = -0.22813 0.16093
#
# Static dielectric constant tensor:
#      x y z
#    x 1.794110 0.000000 0.000000 
#    y 0.000000 1.858040 0.000000 
#    z 0.000000 0.000000 1.762650 
# 
# From -- ./inp_files/23152.got.cif
#   From: 2010.05.17/outbox.cif.g08.bks.cpg/sg54_12_cif.got.tgz:23152.got - 2010.06.03 13:09:01.
