data_PCOD9420910
_publ_section_title
;
Structure prediction by ZEFSAII (Michael W. Deem and Ramdas Pophale) SiO2 
 PCOD9420910
Probable space group: P C C A
;
_chemical_formula_sum "Si O2"
_cell_formula_units_Z 56
_cell_length_a 29.615753
_cell_length_b 6.241171
_cell_length_c 17.260562
_cell_angle_alpha 90.000000
_cell_angle_beta 90.000000
_cell_angle_gamma 90.000000
_cell_volume 3190.390132
_symmetry_space_group_name_H-M "P C C A"
_symmetry_group_IT_number 54
_symmetry_cell_setting 'orthorhombic'
loop_
_space_group_symop_operation_xyz
x,y,z
1/2-x,-y,z
1/2+x,-y,1/2-z
-x,y,1/2-z
-x,-y,-z
1/2+x,y,-z
1/2-x,y,1/2+z
x,-y,1/2+z
loop_
_atom_site_type_symbol
_atom_site_label
_atom_site_fract_x
_atom_site_fract_y
_atom_site_fract_z
Si Si1 0.624348 0.350127 0.301732
Si Si2 0.961003 0.515557 0.888782
Si Si3 0.208805 0.116086 0.694615
Si Si4 0.750000 0.500000 0.201942
Si Si5 0.000000 0.198674 0.250000
Si Si6 0.165504 0.264551 0.295207
Si Si7 0.969300 0.807169 0.032464
Si Si8 0.585868 0.971993 0.672520
O O1 0.583016 0.397248 0.357570
O O2 0.664564 0.218788 0.343482
O O3 0.644313 0.570753 0.267195
O O4 0.606980 0.210668 0.228151
O O5 0.981459 0.653920 0.818901
O O6 0.998009 0.347718 0.918428
O O7 0.950818 0.673480 0.959979
O O8 0.229639 0.311375 0.744428
O O9 0.250000 0.000000 0.650195
O O10 0.189493 0.933269 0.751605
O O11 0.705949 0.606126 0.161707
O O12 0.958459 0.061168 0.216666
O O13 0.123120 0.158738 0.338311
O O14 0.930815 0.887346 0.090195
O O15 0.000000 0.000000 0.000000
#
# Coordination Sequence:
#
# PCOD9420910 Si02
#       8
#     8   8   8   4   4   8   8   8
#     4  10  19  32  53  79 107 143 194 230 276 337
#     4  11  23  36  53  75 106 153 194 236 280 335
#     4   8  15  27  47  77 114 139 162 227 293 335
#     4   8  14  28  46  76 116 140 162 222 296 336
#     4  12  20  36  56  76 108 148 188 240 282 330
#     4   9  17  29  50  78 111 139 178 229 282 334
#     4  11  24  39  51  72 113 154 190 232 285 328
#     4  11  21  33  53  77 108 151 192 233 284 334
#
# _framework density 17.552712
#
# number of rings (size 3 to 8) (size 9 to 14) (size 15 to 20)
#    0.000    2.000    2.857    1.714    0.000    0.000 
#    0.000    0.000    0.000    0.000    0.000    0.000 
#    0.000  370.286    0.000    0.000    0.000    0.000 
#
# Total GULP energy -311942.914802 kJ/mol
# GULP energy per Si atom -5570.409193 kJ/mol
# Density = 1.751276 g / cm^3
# Si number density = 17.552712 Si / 1000 Ang^3
#
#
#
# Elastic Constant Matrix: (Units=GPa)
#
#
# Indices 1 2 3 4 5 6 
#
# 1 118.8503 43.4203 40.2484 0.0000 0.0000 0.0000
# 2 43.4203 87.3160 28.4337 0.0000 0.0000 0.0000
# 3 40.2484 28.4337 68.2221 0.0000 0.0000 0.0000
# 4 0.0000 0.0000 0.0000 20.8256 0.0000 0.0000
# 5 0.0000 0.0000 0.0000 0.0000 7.1933 0.0000
# 6 0.0000 0.0000 0.0000 0.0000 0.0000 50.8196
#
#
#
# Elastic Compliance Matrix: (Units=1/GPa)
#
#
# Indices 1 2 3 4 5 6 
#
# 1 0.011669 -0.004120 -0.005167 0.000000 0.000000 0.000000
# 2 -0.004120 0.014706 -0.003698 0.000000 0.000000 0.000000
# 3 -0.005167 -0.003698 0.019248 0.000000 0.000000 0.000000
# 4 0.000000 0.000000 0.000000 0.048018 0.000000 0.000000
# 5 0.000000 0.000000 0.000000 0.000000 0.139018 0.000000
# 6 0.000000 0.000000 0.000000 0.000000 0.000000 0.019677
#
#
# Mechanical properties :
#
#
# Convention : Reuss Voigt Hill
#
# Bulk Modulus (GPa) = 50.88683 55.39925 53.14304
# Shear Modulus (GPa) = 17.55265 26.58677 22.06971
#
# Velocity S-wave (km/s) = 3.16570 3.89611 3.54974
# Velocity P-wave (km/s) = 6.51276 7.20207 6.86607
#
# Compressibility (1/GPa) = 0.01965145
#
# Stress axis : x y z
#
# Youngs Moduli (GPa) = 85.69720 68.00012 51.95401
#
# Poissons Ratio (x) = 0.28017 0.26845
# Poissons Ratio (y) = 0.35308 0.19215
# Poissons Ratio (z) = 0.44280 0.25149
#
# Static dielectric constant tensor:
#      x y z
#    x 1.657070 0.000000 0.000000 
#    y 0.000000 1.625470 0.000000 
#    z 0.000000 0.000000 1.550140 
# 
# From -- ./inp_files/15405.got.cif
#   From: 2010.05.17/outbox.cif.g08.bks.cpg/sg54_8_cif.got.tgz:15405.got - 2010.06.03 13:09:01.
