data_PCOD9420541
_publ_section_title
;
Structure prediction by ZEFSAII (Michael W. Deem and Ramdas Pophale) SiO2 
 PCOD9420541
Probable space group: P C C A
;
_chemical_formula_sum "Si O2"
_cell_formula_units_Z 60
_cell_length_a 29.993538
_cell_length_b 11.571001
_cell_length_c 9.371257
_cell_angle_alpha 90.000000
_cell_angle_beta 90.000000
_cell_angle_gamma 90.000000
_cell_volume 3252.344018
_symmetry_space_group_name_H-M "P C C A"
_symmetry_group_IT_number 54
_symmetry_cell_setting 'orthorhombic'
loop_
_space_group_symop_operation_xyz
x,y,z
1/2-x,-y,z
1/2+x,-y,1/2-z
-x,y,1/2-z
-x,-y,-z
1/2+x,y,-z
1/2-x,y,1/2+z
x,-y,1/2+z
loop_
_atom_site_type_symbol
_atom_site_label
_atom_site_fract_x
_atom_site_fract_y
_atom_site_fract_z
Si Si1 0.307936 0.168358 0.753110
Si Si2 0.000000 0.510886 0.750000
Si Si3 0.628770 0.210538 0.509457
Si Si4 0.507107 0.143071 0.902565
Si Si5 0.041539 0.351836 0.515459
Si Si6 0.769499 0.120967 0.520179
Si Si7 0.653792 0.915980 0.747548
Si Si8 0.573662 0.022682 0.070070
O O1 0.283470 0.204725 0.608285
O O2 0.332111 0.046617 0.709816
O O3 0.344975 0.235058 0.844240
O O4 0.268989 0.152599 0.868928
O O5 0.971627 0.580859 0.630489
O O6 0.031130 0.430882 0.650796
O O7 0.591972 0.306853 0.484161
O O8 0.659080 0.177627 0.372985
O O9 0.603431 0.086994 0.527581
O O10 0.500000 0.201155 0.750000
O O11 0.488820 0.235051 0.016300
O O12 0.473550 0.033800 0.886414
O O13 0.557012 0.105046 0.942222
O O14 0.813558 0.105708 0.615210
O O15 0.750000 0.000000 0.456274
O O16 0.602895 0.914527 0.689679
#
# Coordination Sequence:
#
# PCOD9420541 Si02
#       8
#     8   4   8   8   8   8   8   8
#     4  10  18  30  46  70 109 148 185 211 244 297
#     4  10  22  44  58  78  96 128 180 232 296 346
#     4  10  20  33  49  78 106 142 178 220 266 308
#     4  10  18  31  47  72  99 142 175 214 266 312
#     4  10  22  38  61  75 100 134 171 231 285 335
#     4  10  18  28  45  67 103 160 190 210 243 283
#     4  10  18  28  43  69 104 144 185 217 240 294
#     4   9  19  28  43  70 109 143 178 211 244 310
#
# _framework density 18.448232000000001
#
# number of rings (size 3 to 8) (size 9 to 14) (size 15 to 20)
#    0.000    2.133    0.667    5.200    1.867    2.133 
#    2.400    0.000    0.000    0.000    0.000    0.000 
#    0.000   12.800    0.000    0.000    0.000    0.000 
#
# Total GULP energy -334051.078230 kJ/mol
# GULP energy per Si atom -5567.517970 kJ/mol
# Density = 1.840624 g / cm^3
# Si number density = 18.448232 Si / 1000 Ang^3
#
#
#
# Elastic Constant Matrix: (Units=GPa)
#
#
# Indices 1 2 3 4 5 6 
#
# 1 70.3814 14.9396 26.6975 0.0000 0.0000 0.0000
# 2 14.9396 36.4092 19.8291 0.0000 0.0000 0.0000
# 3 26.6975 19.8291 91.5832 0.0000 0.0000 0.0000
# 4 0.0000 0.0000 0.0000 -4.3761 0.0000 0.0000
# 5 0.0000 0.0000 0.0000 0.0000 30.6018 0.0000
# 6 0.0000 0.0000 0.0000 0.0000 0.0000 17.9534
#
#
#
# Elastic Compliance Matrix: (Units=1/GPa)
#
#
# Indices 1 2 3 4 5 6 
#
# 1 0.016670 -0.004754 -0.003830 0.000000 0.000000 0.000000
# 2 -0.004754 0.032493 -0.005649 0.000000 0.000000 0.000000
# 3 -0.003830 -0.005649 0.013259 0.000000 0.000000 0.000000
# 4 0.000000 0.000000 0.000000 -0.228515 0.000000 0.000000
# 5 0.000000 0.000000 0.000000 0.000000 0.032678 0.000000
# 6 0.000000 0.000000 0.000000 0.000000 0.000000 0.055700
#
#
# Mechanical properties :
#
#
# Convention : Reuss Voigt Hill
#
# Bulk Modulus (GPa) = 29.45107 35.70069 32.57588
# Shear Modulus (GPa) = -131.82471 17.96300 -56.93085
#
# Velocity S-wave (km/s) = -8.46237 3.12380 -5.56119
# Velocity P-wave (km/s) = 8.91535 5.69251 4.85174
#
# Compressibility (1/GPa) = 0.03395463
#
# Stress axis : x y z
#
# Youngs Moduli (GPa) = 59.98663 30.77577 75.42196
#
# Poissons Ratio (x) = 0.14632 0.28888
# Poissons Ratio (y) = 0.28519 0.42608
# Poissons Ratio (z) = 0.22976 0.17386
#
# Static dielectric constant tensor:
#      x y z
#    x 1.670810 0.000000 0.000000 
#    y 0.000000 1.648270 0.000000 
#    z 0.000000 0.000000 1.767560 
# 
# From -- ./inp_files/5952.got.cif
#   From: 2010.05.17/outbox.cif.g08.bks.cpg/sg54_3_cif.got.tgz:5952.got - 2010.06.03 13:09:01.
