data_PCOD9420248
_publ_section_title
;
Structure prediction by ZEFSAII (Michael W. Deem and Ramdas Pophale) SiO2 
 PCOD9420248
Probable space group: P M N A
;
_chemical_formula_sum "Si O2"
_cell_formula_units_Z 48
_cell_length_a 9.000000
_cell_length_b 30.000000
_cell_length_c 9.000000
_cell_angle_alpha 90.000000
_cell_angle_beta 90.000000
_cell_angle_gamma 90.000000
_cell_volume 2430.000000
_symmetry_space_group_name_H-M "P M N A"
_symmetry_group_IT_number 53
_symmetry_cell_setting 'orthorhombic'
loop_
_space_group_symop_operation_xyz
x,y,z
1/2-x,-y,1/2+z
x,-y,-z
1/2-x,y,1/2-z
-x,-y,-z
1/2+x,y,1/2-z
-x,y,z
1/2+x,-y,1/2+z
loop_
_atom_site_type_symbol
_atom_site_label
_atom_site_fract_x
_atom_site_fract_y
_atom_site_fract_z
Si Si1 0.171023 0.892900 0.095763
Si Si2 0.827529 0.213384 0.905817
Si Si3 0.178661 0.543645 0.590916
Si Si4 0.178112 0.629840 0.408237
Si Si5 0.336395 0.041215 0.109738
Si Si6 0.822974 0.715580 0.594777
O O1 0.250000 0.904332 0.250000
O O2 0.180479 0.839779 0.076584
O O3 0.000000 0.906174 0.104392
O O4 0.250670 0.918393 0.964693
O O5 0.750000 0.224975 0.750000
O O6 0.000000 0.226608 0.902400
O O7 0.742430 0.238370 0.035569
O O8 0.222847 0.500000 0.500000
O O9 0.250000 0.541363 0.750000
O O10 0.226068 0.588957 0.510900
O O11 0.000000 0.544019 0.602064
O O12 0.250000 0.624624 0.250000
O O13 0.218294 0.677069 0.478987
O O14 0.000000 0.628256 0.395974
O O15 0.250000 0.024228 0.250000
O O16 0.500000 0.056359 0.151925
O O17 0.345027 0.000000 0.000000
O O18 0.750000 0.703840 0.750000
O O19 0.000000 0.717749 0.607741
#
# Coordination Sequence:
#
# PCOD9420248 Si02
#       6
#     8   8   8   8   8   8
#     4  10  21  38  61  87 116 150 188 232 281 334
#     4  10  21  38  60  86 115 149 189 232 280 335
#     4  10  21  37  57  83 114 147 186 230 277 331
#     4  10  22  38  57  83 112 145 187 232 280 336
#     4  11  24  40  60  86 116 151 190 233 281 334
#     4  11  23  38  57  82 113 149 189 234 284 337
#
# _framework density 19.753086
#
# number of rings (size 3 to 8) (size 9 to 14) (size 15 to 20)
#    0.000    1.667    0.000    4.000    0.000    9.000 
#    0.000    0.000    0.000    0.000    0.000    0.000 
#    0.000    0.000    0.000    0.000    0.000    0.000 
#
# Total GULP energy -268100.663638 kJ/mol
# GULP energy per Si atom -5585.430492 kJ/mol
# Density = 1.970813 g / cm^3
# Si number density = 19.753086 Si / 1000 Ang^3
#
#
#
# Elastic Constant Matrix: (Units=GPa)
#
#
# Indices 1 2 3 4 5 6 
#
# 1 79.1436 44.2077 50.8285 0.0000 0.0000 0.0000
# 2 44.2077 19.9831 28.0921 0.0000 0.0000 0.0000
# 3 50.8285 28.0921 109.5512 0.0000 0.0000 0.0000
# 4 0.0000 0.0000 0.0000 42.7397 0.0000 0.0000
# 5 0.0000 0.0000 0.0000 0.0000 31.6386 0.0000
# 6 0.0000 0.0000 0.0000 0.0000 0.0000 3.1288
#
#
#
# Elastic Compliance Matrix: (Units=1/GPa)
#
#
# Indices 1 2 3 4 5 6 
#
# 1 -0.048820 0.119090 -0.007887 0.000000 0.000000 0.000000
# 2 0.119090 -0.212254 -0.000826 0.000000 0.000000 0.000000
# 3 -0.007887 -0.000826 0.012999 0.000000 0.000000 0.000000
# 4 0.000000 0.000000 0.000000 0.023397 0.000000 0.000000
# 5 0.000000 0.000000 0.000000 0.000000 0.031607 0.000000
# 6 0.000000 0.000000 0.000000 0.000000 0.000000 0.319611
#
#
# Mechanical properties :
#
#
# Convention : Reuss Voigt Hill
#
# Bulk Modulus (GPa) = -36.60231 50.54827 6.97298
# Shear Modulus (GPa) = -48.39346 21.20474 -13.59436
#
# Velocity S-wave (km/s) = -4.95504 3.27997 -2.62623
# Velocity P-wave (km/s) = 7.16287 6.32376 2.37874
#
# Compressibility (1/GPa) = -0.02732068
#
# Stress axis : x y z
#
# Youngs Moduli (GPa) = -20.48323 -4.71135 76.92654
#
# Poissons Ratio (x) = 0.56108 0.60672
# Poissons Ratio (y) = 2.43936 0.06357
# Poissons Ratio (z) = -0.16155 -0.00389
#
# Static dielectric constant tensor:
#      x y z
#    x 1.677450 0.000000 0.000000 
#    y 0.000000 1.663940 0.000000 
#    z 0.000000 0.000000 1.654320 
# 
# From -- ./inp_files/6628.got.cif
#   From: 2010.05.17/outbox.ucp.g08.bks.cvg/sg53_4_cif.got.tgz:6628.got - 2010.06.11 16:32:34.
