data_PCOD9420535
_publ_section_title
;
Structure prediction by ZEFSAII (Michael W. Deem and Ramdas Pophale) SiO2 
 PCOD9420535
Probable space group: P C C A
;
_chemical_formula_sum "Si O2"
_cell_formula_units_Z 32
_cell_length_a 5.436945
_cell_length_b 7.156385
_cell_length_c 32.413973
_cell_angle_alpha 90.000000
_cell_angle_beta 90.000000
_cell_angle_gamma 90.000000
_cell_volume 1261.191115
_symmetry_space_group_name_H-M "P C C A"
_symmetry_group_IT_number 54
_symmetry_cell_setting 'orthorhombic'
loop_
_space_group_symop_operation_xyz
x,y,z
1/2-x,-y,z
1/2+x,-y,1/2-z
-x,y,1/2-z
-x,-y,-z
1/2+x,y,-z
1/2-x,y,1/2+z
x,-y,1/2+z
loop_
_atom_site_type_symbol
_atom_site_label
_atom_site_fract_x
_atom_site_fract_y
_atom_site_fract_z
Si Si1 0.952714 0.278770 0.390598
Si Si2 0.541626 0.786457 0.484385
Si Si3 0.244411 0.284462 0.767292
Si Si4 0.946513 0.705564 0.139512
O O1 0.722692 0.212654 0.362445
O O2 0.000080 0.496279 0.377963
O O3 0.875787 0.239509 0.437292
O O4 0.230023 0.201445 0.386840
O O5 0.768434 0.705192 0.510321
O O6 0.500000 0.000000 0.500000
O O7 0.250000 0.500000 0.751680
O O8 0.500000 0.208205 0.750000
O O9 0.000000 0.192479 0.750000
O O10 0.184144 0.292663 0.815786
#
# Coordination Sequence:
#
# PCOD9420535 Si02
#       4
#     8   8   8   8
#     4  10  19  32  50  70 100 138 173 218 262 313
#     4  10  21  38  56  73  94 128 175 231 279 319
#     4  10  18  26  43  66 100 148 180 199 232 293
#     4  10  19  32  46  73 109 142 175 206 255 319
#
# _framework density 25.372837000000001
#
# number of rings (size 3 to 8) (size 9 to 14) (size 15 to 20)
#    0.000    2.000    2.500    3.000    7.000    0.000 
#    0.000   15.000    0.000    0.000    0.000    0.000 
#    0.000    0.000    0.000  450.000    0.000    1.000 
#
# Total GULP energy -178328.600411 kJ/mol
# GULP energy per Si atom -5572.768763 kJ/mol
# Density = 2.531509 g / cm^3
# Si number density = 25.372837 Si / 1000 Ang^3
#
#
#
# Elastic Constant Matrix: (Units=GPa)
#
#
# Indices 1 2 3 4 5 6 
#
# 1 286.2730 13.5518 44.3628 0.0000 0.0000 0.0000
# 2 13.5518 135.1511 22.8543 0.0000 0.0000 0.0000
# 3 44.3628 22.8543 119.6256 0.0000 0.0000 0.0000
# 4 0.0000 0.0000 0.0000 -1.0066 0.0000 0.0000
# 5 0.0000 0.0000 0.0000 0.0000 53.8021 0.0000
# 6 0.0000 0.0000 0.0000 0.0000 0.0000 -32.8851
#
#
#
# Elastic Compliance Matrix: (Units=1/GPa)
#
#
# Indices 1 2 3 4 5 6 
#
# 1 0.003709 -0.000144 -0.001348 0.000000 0.000000 0.000000
# 2 -0.000144 0.007652 -0.001408 0.000000 0.000000 0.000000
# 3 -0.001348 -0.001408 0.009128 0.000000 0.000000 0.000000
# 4 0.000000 0.000000 0.000000 -0.993413 0.000000 0.000000
# 5 0.000000 0.000000 0.000000 0.000000 0.018587 0.000000
# 6 0.000000 0.000000 0.000000 0.000000 0.000000 -0.030409
#
#
# Mechanical properties :
#
#
# Convention : Reuss Voigt Hill
#
# Bulk Modulus (GPa) = 68.08147 78.06528 73.07338
# Shear Modulus (GPa) = -5.13321 34.66747 14.76713
#
# Velocity S-wave (km/s) = -1.42390 3.70039 2.41510
# Velocity P-wave (km/s) = 4.91806 7.00651 6.05304
#
# Compressibility (1/GPa) = 0.01468828
#
# Stress axis : x y z
#
# Youngs Moduli (GPa) = 269.62422 130.68932 109.54859
#
# Poissons Ratio (x) = 0.01881 0.14766
# Poissons Ratio (y) = 0.03881 0.15430
# Poissons Ratio (z) = 0.36343 0.18407
#
# Static dielectric constant tensor:
#      x y z
#    x 1.744460 0.000000 0.000000 
#    y 0.000000 2.278290 0.000000 
#    z 0.000000 0.000000 2.122800 
# 
# From -- ./inp_files/26938.got.cif
#   From: 2010.05.17/outbox.cif.g08.bks.cpg/sg54_14_cif.got.tgz:26938.got - 2010.06.03 13:09:01.
