data_PCOD9420540
_publ_section_title
;
Structure prediction by ZEFSAII (Michael W. Deem and Ramdas Pophale) SiO2 
 PCOD9420540
Probable space group: P C C A
;
_chemical_formula_sum "Si O2"
_cell_formula_units_Z 40
_cell_length_a 7.365566
_cell_length_b 13.193764
_cell_length_c 15.313732
_cell_angle_alpha 90.000000
_cell_angle_beta 90.000000
_cell_angle_gamma 90.000000
_cell_volume 1488.181424
_symmetry_space_group_name_H-M "P C C A"
_symmetry_group_IT_number 54
_symmetry_cell_setting 'orthorhombic'
loop_
_space_group_symop_operation_xyz
x,y,z
1/2-x,-y,z
1/2+x,-y,1/2-z
-x,y,1/2-z
-x,-y,-z
1/2+x,y,-z
1/2-x,y,1/2+z
x,-y,1/2+z
loop_
_atom_site_type_symbol
_atom_site_label
_atom_site_fract_x
_atom_site_fract_y
_atom_site_fract_z
Si Si1 0.510243 0.083247 0.146057
Si Si2 0.113063 0.650001 0.844107
Si Si3 0.062637 0.133949 0.352986
Si Si4 0.167586 0.720157 0.180488
Si Si5 0.981711 0.445551 0.591151
O O1 0.500000 0.066548 0.250000
O O2 0.718387 0.121022 0.134576
O O3 0.361196 0.171373 0.133078
O O4 0.484399 0.970690 0.107047
O O5 0.024027 0.751680 0.886537
O O6 0.297808 0.619225 0.896649
O O7 0.179197 0.687669 0.748972
O O8 0.019925 0.540727 0.843901
O O9 0.000000 0.131912 0.250000
O O10 0.000000 0.718379 0.250000
O O11 0.140566 0.631848 0.111696
O O12 0.000000 0.500000 0.500000
#
# Coordination Sequence:
#
# PCOD9420540 Si02
#       5
#     8   8   8   8   8
#     4   9  15  30  53  85 123 155 182 234 303 360
#     4  10  20  37  57  84 121 154 197 253 304 358
#     4  10  18  27  52  92 124 145 189 240 302 362
#     4   9  16  35  60  82 114 156 193 243 300 355
#     4  10  21  37  56  81 117 161 208 250 303 358
#
# _framework density 26.878443000000001
#
# number of rings (size 3 to 8) (size 9 to 14) (size 15 to 20)
#    0.000    2.400    6.000    0.000    0.000    4.000 
#    0.000   16.000    0.000    1.200    0.000    0.000 
#    0.000    0.200    0.000    0.000    0.000    0.000 
#
# Total GULP energy -223275.153703 kJ/mol
# GULP energy per Si atom -5581.878843 kJ/mol
# Density = 2.681727 g / cm^3
# Si number density = 26.878443 Si / 1000 Ang^3
#
#
#
# Elastic Constant Matrix: (Units=GPa)
#
#
# Indices 1 2 3 4 5 6 
#
# 1 79.7300 79.3348 16.8900 0.0000 0.0000 0.0000
# 2 79.3348 312.7764 55.2809 0.0000 0.0000 0.0000
# 3 16.8900 55.2809 73.1402 0.0000 0.0000 0.0000
# 4 0.0000 0.0000 0.0000 -0.5684 0.0000 0.0000
# 5 0.0000 0.0000 0.0000 0.0000 13.9577 0.0000
# 6 0.0000 0.0000 0.0000 0.0000 0.0000 51.2744
#
#
#
# Elastic Compliance Matrix: (Units=1/GPa)
#
#
# Indices 1 2 3 4 5 6 
#
# 1 0.016813 -0.004130 -0.000761 0.000000 0.000000 0.000000
# 2 -0.004130 0.004705 -0.002602 0.000000 0.000000 0.000000
# 3 -0.000761 -0.002602 0.015815 0.000000 0.000000 0.000000
# 4 0.000000 0.000000 0.000000 -1.759395 0.000000 0.000000
# 5 0.000000 0.000000 0.000000 0.000000 0.071645 0.000000
# 6 0.000000 0.000000 0.000000 0.000000 0.000000 0.019503
#
#
# Mechanical properties :
#
#
# Convention : Reuss Voigt Hill
#
# Bulk Modulus (GPa) = 44.75027 85.40643 65.07835
# Shear Modulus (GPa) = -3.10853 33.87547 15.38347
#
# Velocity S-wave (km/s) = -1.07658 3.55395 2.39495
# Velocity P-wave (km/s) = 3.89100 6.97745 5.64910
#
# Compressibility (1/GPa) = 0.02234623
#
# Stress axis : x y z
#
# Youngs Moduli (GPa) = 59.47720 212.55483 63.23172
#
# Poissons Ratio (x) = 0.87787 0.04812
# Poissons Ratio (y) = 0.24565 0.16454
# Poissons Ratio (z) = 0.04526 0.55310
#
# Static dielectric constant tensor:
#      x y z
#    x 3.400230 0.000000 0.000000 
#    y 0.000000 2.165940 0.000000 
#    z 0.000000 0.000000 2.141870 
# 
# From -- ./inp_files/12563.got.cif
#   From: 2010.05.17/outbox.cif.g08.bks.cpg/sg54_7_cif.got.tgz:12563.got - 2010.06.03 13:09:01.
