data_PCOD9420857
_publ_section_title
;
Structure prediction by ZEFSAII (Michael W. Deem and Ramdas Pophale) SiO2 
 PCOD9420857
Probable space group: P C C A
;
_chemical_formula_sum "Si O2"
_cell_formula_units_Z 56
_cell_length_a 24.628081
_cell_length_b 6.230775
_cell_length_c 22.209131
_cell_angle_alpha 90.000000
_cell_angle_beta 90.000000
_cell_angle_gamma 90.000000
_cell_volume 3408.036267
_symmetry_space_group_name_H-M "P C C A"
_symmetry_group_IT_number 54
_symmetry_cell_setting 'orthorhombic'
loop_
_space_group_symop_operation_xyz
x,y,z
1/2-x,-y,z
1/2+x,-y,1/2-z
-x,y,1/2-z
-x,-y,-z
1/2+x,y,-z
1/2-x,y,1/2+z
x,-y,1/2+z
loop_
_atom_site_type_symbol
_atom_site_label
_atom_site_fract_x
_atom_site_fract_y
_atom_site_fract_z
Si Si1 0.046045 0.398689 0.361348
Si Si2 0.542526 0.925137 0.418294
Si Si3 0.031838 0.690811 0.466525
Si Si4 0.148550 0.228751 0.296654
Si Si5 0.500000 0.671119 0.750000
Si Si6 0.198373 0.382868 0.721253
Si Si7 0.896029 0.910817 0.306175
Si Si8 0.250000 0.000000 0.299200
O O1 0.061773 0.574192 0.411815
O O2 0.098406 0.271433 0.339665
O O3 0.000881 0.237266 0.387842
O O4 0.021739 0.523336 0.304050
O O5 0.562760 0.816354 0.480342
O O6 0.510268 0.139838 0.437608
O O7 0.587065 0.981746 0.368792
O O8 0.000000 0.500000 0.500000
O O9 0.170926 0.448803 0.267445
O O10 0.128121 0.082978 0.240806
O O11 0.197899 0.106524 0.329920
O O12 0.450404 0.811907 0.723938
O O13 0.250000 0.500000 0.690150
O O14 0.149160 0.274833 0.684886
O O15 0.225945 0.189678 0.758121
#
# Coordination Sequence:
#
# PCOD9420857 Si02
#       8
#     8   8   8   8   4   8   8   4
#     4  11  20  31  48  73 109 144 176 212 271 328
#     4  10  20  34  49  70 105 145 182 214 259 313
#     4   9  20  35  49  66 101 144 181 219 249 311
#     4  10  19  31  49  75 106 142 171 214 273 326
#     4  12  20  30  44  82 114 144 162 212 270 340
#     4   9  18  33  48  70 105 140 174 212 265 321
#     4  11  20  30  48  75 109 144 176 214 269 329
#     4   8  18  32  48  68 104 136 172 218 258 328
#
# _framework density 16.431751999999999
#
# number of rings (size 3 to 8) (size 9 to 14) (size 15 to 20)
#    0.000    2.000    2.857    1.714    0.000    0.000 
#    0.000    0.000    0.000    0.000    0.000    0.000 
#    0.000  309.714    0.000    0.000    0.000    0.000 
#
# Total GULP energy -311931.205224 kJ/mol
# GULP energy per Si atom -5570.200093 kJ/mol
# Density = 1.639435 g / cm^3
# Si number density = 16.431752 Si / 1000 Ang^3
#
#
#
# Elastic Constant Matrix: (Units=GPa)
#
#
# Indices 1 2 3 4 5 6 
#
# 1 87.8622 28.3788 30.9311 0.0000 0.0000 0.0000
# 2 28.3788 77.0587 27.3741 0.0000 0.0000 0.0000
# 3 30.9311 27.3741 84.6119 0.0000 0.0000 0.0000
# 4 0.0000 0.0000 0.0000 28.0869 0.0000 0.0000
# 5 0.0000 0.0000 0.0000 0.0000 7.0325 0.0000
# 6 0.0000 0.0000 0.0000 0.0000 0.0000 38.6685
#
#
#
# Elastic Compliance Matrix: (Units=1/GPa)
#
#
# Indices 1 2 3 4 5 6 
#
# 1 0.013965 -0.003762 -0.003888 0.000000 0.000000 0.000000
# 2 -0.003762 0.015676 -0.003696 0.000000 0.000000 0.000000
# 3 -0.003888 -0.003696 0.014436 0.000000 0.000000 0.000000
# 4 0.000000 0.000000 0.000000 0.035604 0.000000 0.000000
# 5 0.000000 0.000000 0.000000 0.000000 0.142196 0.000000
# 6 0.000000 0.000000 0.000000 0.000000 0.000000 0.025861
#
#
# Mechanical properties :
#
#
# Convention : Reuss Voigt Hill
#
# Bulk Modulus (GPa) = 46.76345 46.98897 46.87621
# Shear Modulus (GPa) = 18.01426 25.61417 21.81422
#
# Velocity S-wave (km/s) = 3.31465 3.95248 3.64753
# Velocity P-wave (km/s) = 6.57040 7.03477 6.80654
#
# Compressibility (1/GPa) = 0.02138422
#
# Stress axis : x y z
#
# Youngs Moduli (GPa) = 71.60606 63.79361 69.27184
#
# Poissons Ratio (x) = 0.23998 0.26934
# Poissons Ratio (y) = 0.26937 0.25605
# Poissons Ratio (z) = 0.27842 0.23580
#
# Static dielectric constant tensor:
#      x y z
#    x 1.565380 0.000000 0.000000 
#    y 0.000000 1.587960 0.000000 
#    z 0.000000 0.000000 1.536970 
# 
# From -- ./inp_files/22308.got.cif
#   From: 2010.05.17/outbox.cif.g08.bks.cpg/sg54_12_cif.got.tgz:22308.got - 2010.06.03 13:09:01.
