data_PCOD9420950
_publ_section_title
;
Structure prediction by ZEFSAII (Michael W. Deem and Ramdas Pophale) SiO2 
 PCOD9420950
Probable space group: P C C A
;
_chemical_formula_sum "Si O2"
_cell_formula_units_Z 64
_cell_length_a 18.329157
_cell_length_b 30.652407
_cell_length_c 5.359789
_cell_angle_alpha 90.000000
_cell_angle_beta 90.000000
_cell_angle_gamma 90.000000
_cell_volume 3011.305156
_symmetry_space_group_name_H-M "P C C A"
_symmetry_group_IT_number 54
_symmetry_cell_setting 'orthorhombic'
loop_
_space_group_symop_operation_xyz
x,y,z
1/2-x,-y,z
1/2+x,-y,1/2-z
-x,y,1/2-z
-x,-y,-z
1/2+x,y,-z
1/2-x,y,1/2+z
x,-y,1/2+z
loop_
_atom_site_type_symbol
_atom_site_label
_atom_site_fract_x
_atom_site_fract_y
_atom_site_fract_z
Si Si1 0.265879 0.837791 0.771241
Si Si2 0.079730 0.903309 0.707420
Si Si3 0.910873 0.474741 0.749201
Si Si4 0.422574 0.153060 0.206914
Si Si5 0.791634 0.256944 0.233378
Si Si6 0.587386 0.322519 0.750755
Si Si7 0.333908 0.983411 0.360482
Si Si8 0.588599 0.374391 0.250791
O O1 0.248210 0.863456 0.522125
O O2 0.348547 0.821029 0.755165
O O3 0.214017 0.795642 0.766576
O O4 0.080232 0.883287 0.428901
O O5 0.145904 0.936051 0.756631
O O6 0.000000 0.925145 0.750000
O O7 0.081243 0.866941 0.928640
O O8 0.888085 0.500290 0.500170
O O9 0.886402 0.424517 0.746823
O O10 0.000000 0.474402 0.750000
O O11 0.500000 0.176083 0.250000
O O12 0.748215 0.271417 0.480088
O O13 0.871683 0.276557 0.242798
O O14 0.500000 0.317668 0.750000
O O15 0.609363 0.349899 0.505164
O O16 0.609532 0.348381 0.001362
O O17 0.250000 0.000000 0.389271
O O18 0.365751 0.986541 0.638949
O O19 0.500000 0.375621 0.250000
#
# Coordination Sequence:
#
# PCOD9420950 Si02
#       8
#     8   8   8   8   8   8   8   8
#     4  10  21  40  58  88 117 148 183 229 285 336
#     4  10  21  38  61  86 114 152 192 235 281 332
#     4   9  15  23  37  61  99 144 180 218 278 340
#     4  10  21  40  62  88 118 150 193 236 284 338
#     4  10  21  38  58  79 116 142 181 228 279 340
#     4  10  19  33  53  78 108 145 184 228 281 332
#     4  10  21  38  53  80 121 150 193 234 278 331
#     4   9  17  28  45  72 107 143 185 232 279 335
#
# _framework density 21.253242
#
# number of rings (size 3 to 8) (size 9 to 14) (size 15 to 20)
#    0.000    2.250    0.000    3.000    0.000    3.500 
#   13.500    5.000    0.000    0.000    0.000    0.000 
#    0.000   35.000    0.000    0.000    0.000    0.000 
#
# Total GULP energy -356828.199729 kJ/mol
# GULP energy per Si atom -5575.440621 kJ/mol
# Density = 2.120487 g / cm^3
# Si number density = 21.253242 Si / 1000 Ang^3
#
#
#
# Elastic Constant Matrix: (Units=GPa)
#
#
# Indices 1 2 3 4 5 6 
#
# 1 62.7472 28.4877 18.2949 0.0000 0.0000 0.0000
# 2 28.4877 42.6327 11.1033 0.0000 0.0000 0.0000
# 3 18.2949 11.1033 169.7991 0.0000 0.0000 0.0000
# 4 0.0000 0.0000 0.0000 -144.8479 0.0000 0.0000
# 5 0.0000 0.0000 0.0000 0.0000 23.7161 0.0000
# 6 0.0000 0.0000 0.0000 0.0000 0.0000 6.6533
#
#
#
# Elastic Compliance Matrix: (Units=1/GPa)
#
#
# Indices 1 2 3 4 5 6 
#
# 1 0.023254 -0.015144 -0.001515 0.000000 0.000000 0.000000
# 2 -0.015144 0.033725 -0.000574 0.000000 0.000000 0.000000
# 3 -0.001515 -0.000574 0.006090 0.000000 0.000000 0.000000
# 4 0.000000 0.000000 0.000000 -0.006904 0.000000 0.000000
# 5 0.000000 0.000000 0.000000 0.000000 0.042165 0.000000
# 6 0.000000 0.000000 0.000000 0.000000 0.000000 0.150302
#
#
# Mechanical properties :
#
#
# Convention : Reuss Voigt Hill
#
# Bulk Modulus (GPa) = 34.96085 43.43899 39.19992
# Shear Modulus (GPa) = 17.08621 -8.40950 4.33836
#
# Velocity S-wave (km/s) = 2.83845 -1.99133 1.43028
# Velocity P-wave (km/s) = 5.21802 3.89820 4.60563
#
# Compressibility (1/GPa) = 0.02860342
#
# Stress axis : x y z
#
# Youngs Moduli (GPa) = 43.00270 29.65150 164.20148
#
# Poissons Ratio (x) = 0.44905 0.24880
# Poissons Ratio (y) = 0.65124 0.09419
# Poissons Ratio (z) = 0.06516 0.01701
#
# Static dielectric constant tensor:
#      x y z
#    x 1.734330 0.000000 0.000000 
#    y 0.000000 1.747770 0.000000 
#    z 0.000000 0.000000 1.859220 
# 
# From -- ./inp_files/1096.got.cif
#   From: 2010.05.17/outbox.cif.g08.bks.cpg/sg54_1_cif.got.tgz:1096.got - 2010.06.03 13:09:01.
