data_PCOD9420851
_publ_section_title
;
Structure prediction by ZEFSAII (Michael W. Deem and Ramdas Pophale) SiO2 
 PCOD9420851
Probable space group: P C C A
;
_chemical_formula_sum "Si O2"
_cell_formula_units_Z 32
_cell_length_a 5.294311
_cell_length_b 7.244120
_cell_length_c 35.400527
_cell_angle_alpha 90.000000
_cell_angle_beta 90.000000
_cell_angle_gamma 90.000000
_cell_volume 1357.703109
_symmetry_space_group_name_H-M "P C C A"
_symmetry_group_IT_number 54
_symmetry_cell_setting 'orthorhombic'
loop_
_space_group_symop_operation_xyz
x,y,z
1/2-x,-y,z
1/2+x,-y,1/2-z
-x,y,1/2-z
-x,-y,-z
1/2+x,y,-z
1/2-x,y,1/2+z
x,-y,1/2+z
loop_
_atom_site_type_symbol
_atom_site_label
_atom_site_fract_x
_atom_site_fract_y
_atom_site_fract_z
Si Si1 0.252871 0.776687 0.902499
Si Si2 0.244818 0.224600 0.140860
Si Si3 0.248275 0.224984 0.727744
Si Si4 0.562376 0.293475 0.514383
O O1 0.522998 0.717331 0.885942
O O2 0.178787 0.710828 0.944085
O O3 0.025832 0.718459 0.875131
O O4 0.250000 0.000000 0.903990
O O5 0.268372 0.283375 0.184228
O O6 0.250000 0.000000 0.140766
O O7 0.500000 0.281766 0.750000
O O8 0.000000 0.283758 0.750000
O O9 0.250000 0.000000 0.727390
O O10 0.500000 0.500000 0.500000
O O11 0.282250 0.207827 0.511826
#
# Coordination Sequence:
#
# PCOD9420851 Si02
#       4
#     8   8   8   8
#     4  10  19  31  48  69  95 128 165 205 250 298
#     4   9  17  28  42  65  96 129 167 206 241 285
#     4   9  15  23  37  58  88 129 169 198 230 277
#     4  10  21  36  52  70  93 124 158 204 255 301
#
# _framework density 23.569217999999999
#
# number of rings (size 3 to 8) (size 9 to 14) (size 15 to 20)
#    0.000    2.500    0.000    3.000    0.000    7.000 
#    0.000    0.000    0.000    0.000    0.000    0.000 
#    0.000    0.000    0.000  252.000    0.000  112.000 
#
# Total GULP energy -178924.213945 kJ/mol
# GULP energy per Si atom -5591.381686 kJ/mol
# Density = 2.351557 g / cm^3
# Si number density = 23.569218 Si / 1000 Ang^3
#
#
#
# Elastic Constant Matrix: (Units=GPa)
#
#
# Indices 1 2 3 4 5 6 
#
# 1 221.2688 9.7810 88.6351 0.0000 0.0000 0.0000
# 2 9.7810 107.7168 8.7725 0.0000 0.0000 0.0000
# 3 88.6351 8.7725 194.7096 0.0000 0.0000 0.0000
# 4 0.0000 0.0000 0.0000 9.2695 0.0000 0.0000
# 5 0.0000 0.0000 0.0000 0.0000 51.2572 0.0000
# 6 0.0000 0.0000 0.0000 0.0000 0.0000 -12.7386
#
#
#
# Elastic Compliance Matrix: (Units=1/GPa)
#
#
# Indices 1 2 3 4 5 6 
#
# 1 0.005537 -0.000299 -0.002507 0.000000 0.000000 0.000000
# 2 -0.000299 0.009334 -0.000285 0.000000 0.000000 0.000000
# 3 -0.002507 -0.000285 0.006290 0.000000 0.000000 0.000000
# 4 0.000000 0.000000 0.000000 0.107881 0.000000 0.000000
# 5 0.000000 0.000000 0.000000 0.000000 0.019509 0.000000
# 6 0.000000 0.000000 0.000000 0.000000 0.000000 -0.078501
#
#
# Mechanical properties :
#
#
# Convention : Reuss Voigt Hill
#
# Bulk Modulus (GPa) = 66.75464 82.00802 74.38133
# Shear Modulus (GPa) = 61.55851 37.32471 49.44161
#
# Velocity S-wave (km/s) = 5.11614 3.98379 4.58506
# Velocity P-wave (km/s) = 7.95513 7.48538 7.72383
#
# Compressibility (1/GPa) = 0.01498023
#
# Stress axis : x y z
#
# Youngs Moduli (GPa) = 180.60852 107.13638 158.98480
#
# Poissons Ratio (x) = 0.03199 0.39858
# Poissons Ratio (y) = 0.05393 0.04525
# Poissons Ratio (z) = 0.45279 0.03049
#
# Static dielectric constant tensor:
#      x y z
#    x 1.955490 0.000000 0.000000 
#    y 0.000000 2.019020 0.000000 
#    z 0.000000 0.000000 1.833520 
# 
# From -- ./inp_files/26851.got.cif
#   From: 2010.05.17/outbox.cif.g08.bks.cpg/sg54_14_cif.got.tgz:26851.got - 2010.06.03 13:09:01.
