data_PCOD9420406
_publ_section_title
;
Structure prediction by ZEFSAII (Michael W. Deem and Ramdas Pophale) SiO2 
 PCOD9420406
Probable space group: P C C A
;
_chemical_formula_sum "Si O2"
_cell_formula_units_Z 48
_cell_length_a 16.898257
_cell_length_b 28.272820
_cell_length_c 5.318474
_cell_angle_alpha 90.000000
_cell_angle_beta 90.000000
_cell_angle_gamma 90.000000
_cell_volume 2540.961470
_symmetry_space_group_name_H-M "P C C A"
_symmetry_group_IT_number 54
_symmetry_cell_setting 'orthorhombic'
loop_
_space_group_symop_operation_xyz
x,y,z
1/2-x,-y,z
1/2+x,-y,1/2-z
-x,y,1/2-z
-x,-y,-z
1/2+x,y,-z
1/2-x,y,1/2+z
x,-y,1/2+z
loop_
_atom_site_type_symbol
_atom_site_label
_atom_site_fract_x
_atom_site_fract_y
_atom_site_fract_z
Si Si1 0.695978 0.295746 0.974572
Si Si2 0.447189 0.630972 0.998906
Si Si3 0.533315 0.946756 0.500002
Si Si4 0.590292 0.479342 0.003739
Si Si5 0.198635 0.911950 0.540219
Si Si6 0.200030 0.808375 0.453159
O O1 0.744204 0.300385 0.712534
O O2 0.661014 0.242224 0.994356
O O3 0.626560 0.333673 0.991829
O O4 0.500000 0.638972 0.750000
O O5 0.500000 0.636074 0.250000
O O6 0.416603 0.576848 0.989794
O O7 0.500000 0.922984 0.250000
O O8 0.627355 0.947936 0.493712
O O9 0.500000 0.000000 0.500000
O O10 0.500000 0.923152 0.750000
O O11 0.628717 0.498967 0.751308
O O12 0.500000 0.500000 0.000000
O O13 0.260770 0.916608 0.311876
O O14 0.161538 0.859087 0.509005
O O15 0.229196 0.808702 0.163357
#
# Coordination Sequence:
#
# PCOD9420406 Si02
#       6
#     8   8   8   8   8   8
#     4  10  21  38  55  77 113 148 168 209 284 335
#     4  12  21  33  56  84 104 133 184 230 253 315
#     4  10  21  38  53  76 116 150 172 213 287 336
#     4  10  16  30  49  75  94 132 176 218 255 303
#     4  10  19  35  60  84 100 136 198 234 244 302
#     4   8  16  32  55  77 102 138 180 218 259 316
#
# _framework density 18.890488000000001
#
# number of rings (size 3 to 8) (size 9 to 14) (size 15 to 20)
#    0.000    2.000    3.333    2.000    0.000    0.000 
#    0.000   11.667    0.000    3.000    0.000    0.000 
#    0.000    0.000    0.000    0.000    0.000    0.000 
#
# Total GULP energy -267431.801213 kJ/mol
# GULP energy per Si atom -5571.495859 kJ/mol
# Density = 1.884749 g / cm^3
# Si number density = 18.890488 Si / 1000 Ang^3
#
#
#
# Elastic Constant Matrix: (Units=GPa)
#
#
# Indices 1 2 3 4 5 6 
#
# 1 45.1991 42.7554 17.2339 0.0000 0.0000 0.0000
# 2 42.7554 103.3795 0.6807 0.0000 0.0000 0.0000
# 3 17.2339 0.6807 161.0929 0.0000 0.0000 0.0000
# 4 0.0000 0.0000 0.0000 -121.6238 0.0000 0.0000
# 5 0.0000 0.0000 0.0000 0.0000 15.7595 0.0000
# 6 0.0000 0.0000 0.0000 0.0000 0.0000 40.5342
#
#
#
# Elastic Compliance Matrix: (Units=1/GPa)
#
#
# Indices 1 2 3 4 5 6 
#
# 1 0.038862 -0.016045 -0.004090 0.000000 0.000000 0.000000
# 2 -0.016045 0.016298 0.001648 0.000000 0.000000 0.000000
# 3 -0.004090 0.001648 0.006638 0.000000 0.000000 0.000000
# 4 0.000000 0.000000 0.000000 -0.008222 0.000000 0.000000
# 5 0.000000 0.000000 0.000000 0.000000 0.063454 0.000000
# 6 0.000000 0.000000 0.000000 0.000000 0.000000 0.024671
#
#
# Mechanical properties :
#
#
# Convention : Reuss Voigt Hill
#
# Bulk Modulus (GPa) = 40.28468 47.89015 44.08741
# Shear Modulus (GPa) = 26.74525 3.53408 15.13966
#
# Velocity S-wave (km/s) = 3.76680 1.36926 2.83405
# Velocity P-wave (km/s) = 6.34744 5.28265 5.83937
#
# Compressibility (1/GPa) = 0.02482333
#
# Stress axis : x y z
#
# Youngs Moduli (GPa) = 25.73238 61.35632 150.64436
#
# Poissons Ratio (x) = 0.98448 0.61608
# Poissons Ratio (y) = 0.41288 -0.24821
# Poissons Ratio (z) = 0.10524 -0.10110
#
# Static dielectric constant tensor:
#      x y z
#    x 1.613880 0.000000 0.000000 
#    y 0.000000 1.679950 0.000000 
#    z 0.000000 0.000000 1.672240 
# 
# From -- ./inp_files/614.got.cif
#   From: 2010.05.17/outbox.cif.g08.bks.cpg/sg54_1_cif.got.tgz:614.got - 2010.06.03 13:09:01.
