data_PCOD9420734
_publ_section_title
;
Structure prediction by ZEFSAII (Michael W. Deem and Ramdas Pophale) SiO2 
 PCOD9420734
Probable space group: P C C A
;
_chemical_formula_sum "Si O2"
_cell_formula_units_Z 44
_cell_length_a 8.787560
_cell_length_b 11.582378
_cell_length_c 25.877447
_cell_angle_alpha 90.000000
_cell_angle_beta 90.000000
_cell_angle_gamma 90.000000
_cell_volume 2633.828335
_symmetry_space_group_name_H-M "P C C A"
_symmetry_group_IT_number 54
_symmetry_cell_setting 'orthorhombic'
loop_
_space_group_symop_operation_xyz
x,y,z
1/2-x,-y,z
1/2+x,-y,1/2-z
-x,y,1/2-z
-x,-y,-z
1/2+x,y,-z
1/2-x,y,1/2+z
x,-y,1/2+z
loop_
_atom_site_type_symbol
_atom_site_label
_atom_site_fract_x
_atom_site_fract_y
_atom_site_fract_z
Si Si1 0.030468 0.701883 0.355397
Si Si2 0.793991 0.366020 0.940210
Si Si3 0.725433 0.122880 0.605851
Si Si4 0.250000 0.500000 0.886788
Si Si5 0.000000 0.166659 0.750000
Si Si6 0.750000 0.000000 0.705375
Si Si7 0.050807 0.680362 0.952099
O O1 0.119854 0.806779 0.383509
O O2 0.150490 0.594566 0.355503
O O3 0.885388 0.665430 0.388804
O O4 0.985549 0.751219 0.299764
O O5 0.750000 0.500000 0.941307
O O6 0.629296 0.309327 0.946259
O O7 0.900735 0.335536 0.988665
O O8 0.621463 0.206659 0.573599
O O9 0.750000 0.000000 0.578927
O O10 0.666204 0.084261 0.663276
O O11 0.129987 0.572137 0.921940
O O12 0.141045 0.080926 0.761392
#
# Coordination Sequence:
#
# PCOD9420734 Si02
#       7
#     8   8   8   4   4   4   8
#     4  10  21  37  58  84 115 147 195 241 285 340
#     4  12  22  36  55  90 118 155 195 233 285 365
#     4   8  18  38  58  81 112 153 189 236 282 344
#     4  10  18  36  56  80 114 154 186 230 286 342
#     4  10  20  40  62  84 112 150 194 248 288 340
#     4   8  18  36  64  78 112 148 192 234 294 344
#     4  11  20  34  60  83 119 155 189 229 291 345
#
# _framework density 16.705719999999999
#
# number of rings (size 3 to 8) (size 9 to 14) (size 15 to 20)
#    0.545    1.455    2.727    2.727    0.000    1.455 
#    1.636    3.636    0.000    0.000    0.000    0.000 
#    0.000    0.000    0.000    0.000    0.000    0.000 
#
# Total GULP energy -244997.835014 kJ/mol
# GULP energy per Si atom -5568.132614 kJ/mol
# Density = 1.666770 g / cm^3
# Si number density = 16.705720 Si / 1000 Ang^3
#
#
#
# Elastic Constant Matrix: (Units=GPa)
#
#
# Indices 1 2 3 4 5 6 
#
# 1 99.1404 39.3445 61.4066 0.0000 0.0000 0.0000
# 2 39.3445 113.1995 54.0695 0.0000 0.0000 0.0000
# 3 61.4066 54.0695 116.9608 0.0000 0.0000 0.0000
# 4 0.0000 0.0000 0.0000 -13.6708 0.0000 0.0000
# 5 0.0000 0.0000 0.0000 0.0000 25.3589 0.0000
# 6 0.0000 0.0000 0.0000 0.0000 0.0000 12.7675
#
#
#
# Elastic Compliance Matrix: (Units=1/GPa)
#
#
# Indices 1 2 3 4 5 6 
#
# 1 0.015258 -0.001895 -0.007134 0.000000 0.000000 0.000000
# 2 -0.001895 0.011573 -0.004355 0.000000 0.000000 0.000000
# 3 -0.007134 -0.004355 0.014309 0.000000 0.000000 0.000000
# 4 0.000000 0.000000 0.000000 -0.073149 0.000000 0.000000
# 5 0.000000 0.000000 0.000000 0.000000 0.039434 0.000000
# 6 0.000000 0.000000 0.000000 0.000000 0.000000 0.078324
#
#
# Mechanical properties :
#
#
# Convention : Reuss Voigt Hill
#
# Bulk Modulus (GPa) = 69.58891 70.99352 70.29121
# Shear Modulus (GPa) = 42.62266 16.52311 29.57288
#
# Velocity S-wave (km/s) = 5.05660 3.14836 4.21197
# Velocity P-wave (km/s) = 8.70853 7.47027 8.11306
#
# Compressibility (1/GPa) = 0.01437011
#
# Stress axis : x y z
#
# Youngs Moduli (GPa) = 65.53967 86.40932 69.88709
#
# Poissons Ratio (x) = 0.16378 0.49861
# Poissons Ratio (y) = 0.12422 0.30435
# Poissons Ratio (z) = 0.46759 0.37630
#
# Static dielectric constant tensor:
#      x y z
#    x 1.617810 0.000000 0.000000 
#    y 0.000000 1.588140 0.000000 
#    z 0.000000 0.000000 1.552100 
# 
# From -- ./inp_files/23437.got.cif
#   From: 2010.05.17/outbox.cif.g08.bks.cpg/sg54_12_cif.got.tgz:23437.got - 2010.06.03 13:09:01.
