data_PCOD9420003
_publ_section_title
;
Structure prediction by ZEFSAII (Michael W. Deem and Ramdas Pophale) SiO2 
 PCOD9420003
Probable space group: P M N A
;
_chemical_formula_sum "Si O2"
_cell_formula_units_Z 40
_cell_length_a 14.421406
_cell_length_b 13.506054
_cell_length_c 9.721404
_cell_angle_alpha 90.000000
_cell_angle_beta 90.000000
_cell_angle_gamma 90.000000
_cell_volume 1893.498987
_symmetry_space_group_name_H-M "P M N A"
_symmetry_group_IT_number 53
_symmetry_cell_setting 'orthorhombic'
loop_
_space_group_symop_operation_xyz
x,y,z
1/2-x,-y,1/2+z
x,-y,-z
1/2-x,y,1/2-z
-x,-y,-z
1/2+x,y,1/2-z
-x,y,z
1/2+x,-y,1/2+z
loop_
_atom_site_type_symbol
_atom_site_label
_atom_site_fract_x
_atom_site_fract_y
_atom_site_fract_z
Si Si1 0.111159 0.393491 0.690331
Si Si2 0.680626 0.794941 0.360517
Si Si3 0.388966 0.387436 0.139524
Si Si4 0.000000 0.932240 0.131796
Si Si5 0.000000 0.919176 0.614300
Si Si6 0.305840 0.810312 0.868053
O O1 0.154651 0.312832 0.793325
O O2 0.139018 0.508417 0.707340
O O3 0.129287 0.379618 0.526006
O O4 0.000000 0.386119 0.706572
O O5 0.750000 0.842171 0.250000
O O6 0.588860 0.860457 0.367081
O O7 0.737459 0.793941 0.503070
O O8 0.500000 0.381081 0.154151
O O9 0.339070 0.292997 0.199763
O O10 0.000000 0.014964 0.249569
O O11 0.000000 0.000000 0.000000
O O12 0.095105 0.858148 0.596469
O O13 0.000000 0.000000 0.500000
O O14 0.250000 0.868274 0.750000
#
# Coordination Sequence:
#
# PCOD9420003 Si02
#       6
#     8   8   8   4   4   8
#     4   9  18  37  68 103 134 176 228 283 330 410
#     4  12  24  42  74 103 135 179 242 288 347 430
#     4   9  18  38  68  97 138 180 220 270 344 412
#     4  12  28  48  69  99 140 180 231 317 368 399
#     4  12  28  48  73  95 134 179 242 296 353 430
#     4  12  26  44  68 101 141 185 225 286 358 423
#
# _framework density 21.124912999999999
#
# number of rings (size 3 to 8) (size 9 to 14) (size 15 to 20)
#    0.000    1.200    4.000    3.600    0.000    5.600 
#    0.000    0.000    0.000    2.400    0.000    0.000 
#    0.000    0.000    0.000    0.000    0.000    0.000 
#
# Total GULP energy -223205.409551 kJ/mol
# GULP energy per Si atom -5580.135239 kJ/mol
# Density = 2.107683 g / cm^3
# Si number density = 21.124913 Si / 1000 Ang^3
#
#
#
# Elastic Constant Matrix: (Units=GPa)
#
#
# Indices 1 2 3 4 5 6 
#
# 1 163.8990 68.1555 44.8797 0.0000 0.0000 0.0000
# 2 68.1555 118.2690 31.9324 0.0000 0.0000 0.0000
# 3 44.8797 31.9324 105.5237 0.0000 0.0000 0.0000
# 4 0.0000 0.0000 0.0000 11.9003 0.0000 0.0000
# 5 0.0000 0.0000 0.0000 0.0000 36.3028 0.0000
# 6 0.0000 0.0000 0.0000 0.0000 0.0000 -64.5328
#
#
#
# Elastic Compliance Matrix: (Units=1/GPa)
#
#
# Indices 1 2 3 4 5 6 
#
# 1 0.008519 -0.004281 -0.002328 0.000000 0.000000 0.000000
# 2 -0.004281 0.011359 -0.001617 0.000000 0.000000 0.000000
# 3 -0.002328 -0.001617 0.010956 0.000000 0.000000 0.000000
# 4 0.000000 0.000000 0.000000 0.084032 0.000000 0.000000
# 5 0.000000 0.000000 0.000000 0.000000 0.027546 0.000000
# 6 0.000000 0.000000 0.000000 0.000000 0.000000 -0.015496
#
#
# Mechanical properties :
#
#
# Convention : Reuss Voigt Hill
#
# Bulk Modulus (GPa) = 69.52594 75.29187 72.40890
# Shear Modulus (GPa) = 33.74745 12.91567 23.33156
#
# Velocity S-wave (km/s) = 4.00123 2.47532 3.32694
# Velocity P-wave (km/s) = 7.37087 6.62482 7.00778
#
# Compressibility (1/GPa) = 0.01438312
#
# Stress axis : x y z
#
# Youngs Moduli (GPa) = 117.38773 88.03869 91.27639
#
# Poissons Ratio (x) = 0.37687 0.21246
# Poissons Ratio (y) = 0.50250 0.14756
# Poissons Ratio (z) = 0.27324 0.14233
#
# Static dielectric constant tensor:
#      x y z
#    x 1.786810 0.000000 0.000000 
#    y 0.000000 1.802560 0.000000 
#    z 0.000000 0.000000 1.759350 
# 
# From -- ./inp_files/8471.got.cif
#   From: 2010.05.17/outbox.cif.g08.bks.cpg/sg53_5_cif.got.tgz:8471.got - 2010.06.03 12:45:16.
