data_PCOD9420103
_publ_section_title
;
Structure prediction by ZEFSAII (Michael W. Deem and Ramdas Pophale) SiO2 
 PCOD9420103
Probable space group: P M N A
;
_chemical_formula_sum "Si O2"
_cell_formula_units_Z 48
_cell_length_a 18.000000
_cell_length_b 9.000000
_cell_length_c 15.000000
_cell_angle_alpha 90.000000
_cell_angle_beta 90.000000
_cell_angle_gamma 90.000000
_cell_volume 2430.000000
_symmetry_space_group_name_H-M "P M N A"
_symmetry_group_IT_number 53
_symmetry_cell_setting 'orthorhombic'
loop_
_space_group_symop_operation_xyz
x,y,z
1/2-x,-y,1/2+z
x,-y,-z
1/2-x,y,1/2-z
-x,-y,-z
1/2+x,y,1/2-z
-x,y,z
1/2+x,-y,1/2+z
loop_
_atom_site_type_symbol
_atom_site_label
_atom_site_fract_x
_atom_site_fract_y
_atom_site_fract_z
Si Si1 0.322360 0.741834 0.212930
Si Si2 0.861903 0.331006 0.081964
Si Si3 0.161422 0.790887 0.731140
Si Si4 0.910902 0.965790 0.396721
Si Si5 0.196809 0.457822 0.401962
Si Si6 0.085781 0.663621 0.110208
O O1 0.250000 0.828706 0.250000
O O2 0.373834 0.815676 0.138342
O O3 0.289284 0.600508 0.160001
O O4 0.370736 0.708021 0.300551
O O5 0.872786 0.232584 0.170387
O O6 0.775002 0.376558 0.078468
O O7 0.904764 0.485702 0.098898
O O8 0.883941 0.272187 0.984234
O O9 0.250000 0.808046 0.750000
O O10 0.152092 0.649101 0.665075
O O11 0.124094 0.919318 0.673768
O O12 0.000000 0.963803 0.390558
O O13 0.891201 0.000000 0.500000
O O14 0.165402 0.500000 0.500000
O O15 0.000000 0.703069 0.119525
#
# Coordination Sequence:
#
# PCOD9420103 Si02
#       6
#     8   8   8   8   8   8
#     4  12  21  40  64  90 117 156 203 250 297 347
#     4  10  18  34  58  90 124 153 183 234 295 359
#     4  10  21  39  62  92 117 153 202 246 297 351
#     4  11  26  45  60  81 119 165 205 247 302 352
#     4  11  18  34  63  94 120 147 199 250 294 344
#     4  11  21  34  56  92 128 157 185 232 302 366
#
# _framework density 19.753086
#
# number of rings (size 3 to 8) (size 9 to 14) (size 15 to 20)
#    0.000    1.167    5.000    3.500    0.000    2.667 
#    0.000    0.833    0.000    5.500    0.000    0.000 
#    0.000    0.000    0.000    0.000    0.000    0.000 
#
# Total GULP energy -267715.702598 kJ/mol
# GULP energy per Si atom -5577.410471 kJ/mol
# Density = 1.970813 g / cm^3
# Si number density = 19.753086 Si / 1000 Ang^3
#
#
#
# Elastic Constant Matrix: (Units=GPa)
#
#
# Indices 1 2 3 4 5 6 
#
# 1 69.7867 1.5597 53.1283 0.0000 0.0000 0.0000
# 2 1.5597 18.1745 11.0114 0.0000 0.0000 0.0000
# 3 53.1283 11.0114 178.1012 0.0000 0.0000 0.0000
# 4 0.0000 0.0000 0.0000 34.1103 0.0000 0.0000
# 5 0.0000 0.0000 0.0000 0.0000 32.0245 0.0000
# 6 0.0000 0.0000 0.0000 0.0000 0.0000 9.1323
#
#
#
# Elastic Compliance Matrix: (Units=1/GPa)
#
#
# Indices 1 2 3 4 5 6 
#
# 1 0.018598 0.001834 -0.005661 0.000000 0.000000 0.000000
# 2 0.001834 0.057344 -0.004093 0.000000 0.000000 0.000000
# 3 -0.005661 -0.004093 0.007557 0.000000 0.000000 0.000000
# 4 0.000000 0.000000 0.000000 0.029317 0.000000 0.000000
# 5 0.000000 0.000000 0.000000 0.000000 0.031226 0.000000
# 6 0.000000 0.000000 0.000000 0.000000 0.000000 0.109501
#
#
# Mechanical properties :
#
#
# Convention : Reuss Voigt Hill
#
# Bulk Modulus (GPa) = 14.77986 44.16234 29.47110
# Shear Modulus (GPa) = 17.12704 28.41098 22.76901
#
# Velocity S-wave (km/s) = 2.94778 3.79661 3.39880
# Velocity P-wave (km/s) = 4.36857 6.45173 5.50950
#
# Compressibility (1/GPa) = 0.06765966
#
# Stress axis : x y z
#
# Youngs Moduli (GPa) = 53.76825 17.43850 132.33444
#
# Poissons Ratio (x) = -0.03198 0.74919
# Poissons Ratio (y) = -0.09861 0.54158
# Poissons Ratio (z) = 0.30440 0.07137
#
# Static dielectric constant tensor:
#      x y z
#    x 1.691580 0.000000 0.000000 
#    y 0.000000 1.794980 0.000000 
#    z 0.000000 0.000000 1.859020 
# 
# From -- ./inp_files/23691.got.cif
#   From: 2010.05.17/outbox.ucp.g08.bks.cvg/sg53_12_cif.got.tgz:23691.got - 2010.06.11 16:32:34.
