data_PCOD9420294
_publ_section_title
;
Structure prediction by ZEFSAII (Michael W. Deem and Ramdas Pophale) SiO2 
 PCOD9420294
Probable space group: P M N A
;
_chemical_formula_sum "Si O2"
_cell_formula_units_Z 48
_cell_length_a 9.000000
_cell_length_b 30.000000
_cell_length_c 9.000000
_cell_angle_alpha 90.000000
_cell_angle_beta 90.000000
_cell_angle_gamma 90.000000
_cell_volume 2430.000000
_symmetry_space_group_name_H-M "P M N A"
_symmetry_group_IT_number 53
_symmetry_cell_setting 'orthorhombic'
loop_
_space_group_symop_operation_xyz
x,y,z
1/2-x,-y,1/2+z
x,-y,-z
1/2-x,y,1/2-z
-x,-y,-z
1/2+x,y,1/2-z
-x,y,z
1/2+x,-y,1/2+z
loop_
_atom_site_type_symbol
_atom_site_label
_atom_site_fract_x
_atom_site_fract_y
_atom_site_fract_z
Si Si1 0.329292 0.044199 0.401935
Si Si2 0.826936 0.291196 0.403136
Si Si3 0.178335 0.880154 0.409749
Si Si4 0.178653 0.214721 0.910682
Si Si5 0.330658 0.455460 0.403078
Si Si6 0.170897 0.380448 0.592883
O O1 0.250000 0.032406 0.250000
O O2 0.500000 0.059237 0.381411
O O3 0.232499 0.082401 0.478291
O O4 0.331377 0.000000 0.500000
O O5 0.750000 0.304744 0.250000
O O6 0.733791 0.251012 0.472986
O O7 0.822387 0.332581 0.514921
O O8 0.000000 0.278734 0.381081
O O9 0.250000 0.891302 0.250000
O O10 0.250777 0.832881 0.452086
O O11 0.000000 0.877039 0.399516
O O12 0.250000 0.226051 0.750000
O O13 0.000000 0.212426 0.899970
O O14 0.328771 0.500000 0.500000
O O15 0.250000 0.464714 0.250000
O O16 0.500000 0.442087 0.374422
O O17 0.249289 0.416314 0.489443
O O18 0.250000 0.378719 0.750000
O O19 0.000000 0.393288 0.613758
#
# Coordination Sequence:
#
# PCOD9420294 Si02
#       6
#     8   8   8   8   8   8
#     4  11  24  41  62  89 121 157 199 246 297 354
#     4  11  24  41  61  89 122 158 200 247 300 355
#     4  11  22  39  63  90 122 158 199 246 297 354
#     4  11  22  39  63  90 121 158 200 245 296 354
#     4  11  24  41  63  91 124 161 202 249 300 356
#     4  11  24  41  64  91 122 159 201 249 300 358
#
# _framework density 19.753086
#
# number of rings (size 3 to 8) (size 9 to 14) (size 15 to 20)
#    0.000    1.000    0.000    8.000    0.000   11.333 
#    0.000    3.333    0.000    0.000    0.000    0.000 
#    0.000    0.000    0.000    0.000    0.000    0.000 
#
# Total GULP energy -268470.494417 kJ/mol
# GULP energy per Si atom -5593.135300 kJ/mol
# Density = 1.970813 g / cm^3
# Si number density = 19.753086 Si / 1000 Ang^3
#
#
#
# Elastic Constant Matrix: (Units=GPa)
#
#
# Indices 1 2 3 4 5 6 
#
# 1 222.0963 38.2610 78.6969 0.0000 0.0000 0.0000
# 2 38.2610 -8.9763 65.6159 0.0000 0.0000 0.0000
# 3 78.6969 65.6159 63.4643 0.0000 0.0000 0.0000
# 4 0.0000 0.0000 0.0000 -10.0731 0.0000 0.0000
# 5 0.0000 0.0000 0.0000 0.0000 41.5304 0.0000
# 6 0.0000 0.0000 0.0000 0.0000 0.0000 19.8339
#
#
#
# Elastic Compliance Matrix: (Units=1/GPa)
#
#
# Indices 1 2 3 4 5 6 
#
# 1 0.006725 -0.003774 -0.004438 0.000000 0.000000 0.000000
# 2 -0.003774 -0.010901 0.015949 0.000000 0.000000 0.000000
# 3 -0.004438 0.015949 0.004770 0.000000 0.000000 0.000000
# 4 0.000000 0.000000 0.000000 -0.099275 0.000000 0.000000
# 5 0.000000 0.000000 0.000000 0.000000 0.024079 0.000000
# 6 0.000000 0.000000 0.000000 0.000000 0.000000 0.050419
#
#
# Mechanical properties :
#
#
# Convention : Reuss Voigt Hill
#
# Bulk Modulus (GPa) = 62.22633 71.30356 66.76494
# Shear Modulus (GPa) = -145.76202 16.52560 -64.61821
#
# Velocity S-wave (km/s) = -8.59955 2.89556 -5.72573
# Velocity P-wave (km/s) = 8.18734 6.88148 3.13669
#
# Compressibility (1/GPa) = 0.01607037
#
# Stress axis : x y z
#
# Youngs Moduli (GPa) = 148.69742 -91.73883 209.66555
#
# Poissons Ratio (x) = -0.34619 0.93042
# Poissons Ratio (y) = 0.56113 -3.34405
# Poissons Ratio (z) = 0.65987 1.46318
#
# Static dielectric constant tensor:
#      x y z
#    x 1.670980 0.000000 0.000000 
#    y 0.000000 1.661630 0.000000 
#    z 0.000000 0.000000 4.227160 
# 
# From -- ./inp_files/6759.got.cif
#   From: 2010.05.17/outbox.ucp.g08.bks.cvg/sg53_4_cif.got.tgz:6759.got - 2010.06.11 16:32:34.
