data_PCOD9420352
_publ_section_title
;
Structure prediction by ZEFSAII (Michael W. Deem and Ramdas Pophale) SiO2 
 PCOD9420352
Probable space group: P C C A
;
_chemical_formula_sum "Si O2"
_cell_formula_units_Z 56
_cell_length_a 5.274423
_cell_length_b 33.257277
_cell_length_c 13.899136
_cell_angle_alpha 90.000000
_cell_angle_beta 90.000000
_cell_angle_gamma 90.000000
_cell_volume 2438.088403
_symmetry_space_group_name_H-M "P C C A"
_symmetry_group_IT_number 54
_symmetry_cell_setting 'orthorhombic'
loop_
_space_group_symop_operation_xyz
x,y,z
1/2-x,-y,z
1/2+x,-y,1/2-z
-x,y,1/2-z
-x,-y,-z
1/2+x,y,-z
1/2-x,y,1/2+z
x,-y,1/2+z
loop_
_atom_site_type_symbol
_atom_site_label
_atom_site_fract_x
_atom_site_fract_y
_atom_site_fract_z
Si Si1 0.505803 0.747042 0.634875
Si Si2 0.874703 0.129806 0.118501
Si Si3 0.754327 0.542170 0.813363
Si Si4 0.118128 0.835077 0.098577
Si Si5 0.990740 0.607531 0.948589
Si Si6 0.746704 0.955367 0.065218
Si Si7 0.510503 0.304016 0.864967
O O1 0.500000 0.755916 0.750000
O O2 0.423659 0.787972 0.581929
O O3 0.777022 0.726490 0.613428
O O4 0.280425 0.716115 0.615617
O O5 0.629785 0.152079 0.154283
O O6 0.825529 0.082530 0.130588
O O7 0.132306 0.149808 0.151382
O O8 0.877639 0.140967 0.003296
O O9 0.750000 0.500000 0.874216
O O10 0.500000 0.549439 0.750000
O O11 0.849028 0.581528 0.868120
O O12 0.000000 0.532621 0.750000
O O13 0.994984 0.654368 0.921610
O O14 0.789135 0.598467 0.034946
O O15 0.750000 0.000000 0.109812
O O16 0.523915 0.952546 0.984193
O O17 0.500000 0.312320 0.750000
#
# Coordination Sequence:
#
# PCOD9420352 Si02
#       7
#     8   8   8   8   8   8   8
#     4  10  21  38  57  76  99 139 194 239 277 327
#     4  10  17  30  43  70 102 131 162 203 271 340
#     4  10  22  42  69  97 125 168 217 247 288 368
#     4  10  18  30  46  68  96 129 165 212 266 325
#     4  12  25  41  61  96 132 159 196 256 317 358
#     4  10  16  25  41  61  94 133 161 199 240 311
#     4  10  22  42  61  78 109 156 201 241 285 352
#
# _framework density 22.968814999999999
#
# number of rings (size 3 to 8) (size 9 to 14) (size 15 to 20)
#    0.000    1.714    2.857    3.000    0.000    2.286 
#   15.429    0.000    0.000    0.000    0.000    0.000 
#    0.000    3.429    0.000    0.000    0.000    0.000 
#
# Total GULP energy -312294.964101 kJ/mol
# GULP energy per Si atom -5576.695788 kJ/mol
# Density = 2.291654 g / cm^3
# Si number density = 22.968815 Si / 1000 Ang^3
#
#
#
# Elastic Constant Matrix: (Units=GPa)
#
#
# Indices 1 2 3 4 5 6 
#
# 1 132.0968 4.1451 7.1072 0.0000 0.0000 0.0000
# 2 4.1451 110.1343 1.4494 0.0000 0.0000 0.0000
# 3 7.1072 1.4494 48.3305 0.0000 0.0000 0.0000
# 4 0.0000 0.0000 0.0000 20.4427 0.0000 0.0000
# 5 0.0000 0.0000 0.0000 0.0000 16.2741 0.0000
# 6 0.0000 0.0000 0.0000 0.0000 0.0000 39.0629
#
#
#
# Elastic Compliance Matrix: (Units=1/GPa)
#
#
# Indices 1 2 3 4 5 6 
#
# 1 0.007639 -0.000273 -0.001115 0.000000 0.000000 0.000000
# 2 -0.000273 0.009093 -0.000233 0.000000 0.000000 0.000000
# 3 -0.001115 -0.000233 0.020862 0.000000 0.000000 0.000000
# 4 0.000000 0.000000 0.000000 0.048917 0.000000 0.000000
# 5 0.000000 0.000000 0.000000 0.000000 0.061447 0.000000
# 6 0.000000 0.000000 0.000000 0.000000 0.000000 0.025600
#
#
# Mechanical properties :
#
#
# Convention : Reuss Voigt Hill
#
# Bulk Modulus (GPa) = 29.10979 35.10721 32.10850
# Shear Modulus (GPa) = 26.56042 33.67992 30.12017
#
# Velocity S-wave (km/s) = 3.40423 3.83343 3.62519
# Velocity P-wave (km/s) = 5.30593 5.90859 5.61535
#
# Compressibility (1/GPa) = 0.03435270
#
# Stress axis : x y z
#
# Youngs Moduli (GPa) = 130.91123 109.97283 47.93443
#
# Poissons Ratio (x) = 0.03000 0.05345
# Poissons Ratio (y) = 0.03572 0.01115
# Poissons Ratio (z) = 0.14598 0.02558
#
# Static dielectric constant tensor:
#      x y z
#    x 1.753170 0.000000 0.000000 
#    y 0.000000 1.675500 0.000000 
#    z 0.000000 0.000000 1.963730 
# 
# From -- ./inp_files/10995.got.cif
#   From: 2010.05.17/outbox.cif.g08.bks.cpg/sg54_6_cif.got.tgz:10995.got - 2010.06.03 13:09:01.
