data_PCOD9420628
_publ_section_title
;
Structure prediction by ZEFSAII (Michael W. Deem and Ramdas Pophale) SiO2 
 PCOD9420628
Probable space group: P C C A
;
_chemical_formula_sum "Si O2"
_cell_formula_units_Z 48
_cell_length_a 15.414090
_cell_length_b 9.057764
_cell_length_c 15.616302
_cell_angle_alpha 90.000000
_cell_angle_beta 90.000000
_cell_angle_gamma 90.000000
_cell_volume 2180.304196
_symmetry_space_group_name_H-M "P C C A"
_symmetry_group_IT_number 54
_symmetry_cell_setting 'orthorhombic'
loop_
_space_group_symop_operation_xyz
x,y,z
1/2-x,-y,z
1/2+x,-y,1/2-z
-x,y,1/2-z
-x,-y,-z
1/2+x,y,-z
1/2-x,y,1/2+z
x,-y,1/2+z
loop_
_atom_site_type_symbol
_atom_site_label
_atom_site_fract_x
_atom_site_fract_y
_atom_site_fract_z
Si Si1 0.399003 0.661999 0.220200
Si Si2 0.422656 0.182738 0.357537
Si Si3 0.387039 0.682886 0.689784
Si Si4 0.881322 0.843322 0.621212
Si Si5 0.174856 0.892382 0.055056
Si Si6 0.431674 0.173035 0.553599
O O1 0.500000 0.675855 0.250000
O O2 0.382967 0.491516 0.200940
O O3 0.353750 0.740006 0.300899
O O4 0.384340 0.749435 0.132453
O O5 0.516681 0.255906 0.336477
O O6 0.364566 0.250542 0.282466
O O7 0.405240 0.215828 0.457405
O O8 0.411183 0.005800 0.346677
O O9 0.330590 0.750672 0.614018
O O10 0.812694 0.856937 0.544955
O O11 0.968047 0.787329 0.571658
O O12 0.250000 0.000000 0.084857
O O13 0.088972 0.997773 0.060126
#
# Coordination Sequence:
#
# PCOD9420628 Si02
#       6
#     8   8   8   8   8   8
#     4  10  21  32  58  92 125 152 199 250 326 368
#     4  10  18  32  57  83 123 145 196 248 310 346
#     4  11  20  34  53  94 121 154 193 257 308 368
#     4  10  19  36  59  88 118 155 201 264 301 362
#     4  11  22  39  62  86 116 163 215 253 303 366
#     4  10  19  36  57  87 117 157 198 258 308 356
#
# _framework density 22.015276
#
# number of rings (size 3 to 8) (size 9 to 14) (size 15 to 20)
#    0.000    1.667    5.000    2.000    4.667    2.000 
#    0.000    8.333    0.000    0.000    0.000    0.000 
#    0.000    0.000    0.000    0.000    0.000    0.000 
#
# Total GULP energy -267824.849877 kJ/mol
# GULP energy per Si atom -5579.684372 kJ/mol
# Density = 2.196517 g / cm^3
# Si number density = 22.015276 Si / 1000 Ang^3
#
#
#
# Elastic Constant Matrix: (Units=GPa)
#
#
# Indices 1 2 3 4 5 6 
#
# 1 44.1471 4.3159 8.3393 0.0000 0.0000 0.0000
# 2 4.3159 137.2078 113.4293 0.0000 0.0000 0.0000
# 3 8.3393 113.4293 203.6903 0.0000 0.0000 0.0000
# 4 0.0000 0.0000 0.0000 -15.9019 0.0000 0.0000
# 5 0.0000 0.0000 0.0000 0.0000 -7.9108 0.0000
# 6 0.0000 0.0000 0.0000 0.0000 0.0000 -2.2360
#
#
#
# Elastic Compliance Matrix: (Units=1/GPa)
#
#
# Indices 1 2 3 4 5 6 
#
# 1 0.022829 0.000101 -0.000991 0.000000 0.000000 0.000000
# 2 0.000101 0.013506 -0.007525 0.000000 0.000000 0.000000
# 3 -0.000991 -0.007525 0.009141 0.000000 0.000000 0.000000
# 4 0.000000 0.000000 0.000000 -0.062886 0.000000 0.000000
# 5 0.000000 0.000000 0.000000 0.000000 -0.126409 0.000000
# 6 0.000000 0.000000 0.000000 0.000000 0.000000 -0.447224
#
#
# Mechanical properties :
#
#
# Convention : Reuss Voigt Hill
#
# Bulk Modulus (GPa) = 34.90971 70.80158 52.85564
# Shear Modulus (GPa) = -8.85483 12.05430 1.59974
#
# Velocity S-wave (km/s) = -2.00770 2.34250 0.85336
# Velocity P-wave (km/s) = 3.24299 6.28860 5.00317
#
# Compressibility (1/GPa) = 0.02864533
#
# Stress axis : x y z
#
# Youngs Moduli (GPa) = 43.80425 74.03978 109.40136
#
# Poissons Ratio (x) = -0.00749 0.10841
# Poissons Ratio (y) = -0.00443 0.82329
# Poissons Ratio (z) = 0.04341 0.55718
#
# Static dielectric constant tensor:
#      x y z
#    x 1.888850 0.000000 0.000000 
#    y 0.000000 1.764670 0.000000 
#    z 0.000000 0.000000 1.821200 
# 
# From -- ./inp_files/14158.got.cif
#   From: 2010.05.17/outbox.cif.g08.bks.cpg/sg54_8_cif.got.tgz:14158.got - 2010.06.03 13:09:01.
