data_PCOD9420318
_publ_section_title
;
Structure prediction by ZEFSAII (Michael W. Deem and Ramdas Pophale) SiO2 
 PCOD9420318
Probable space group: P C C A
;
_chemical_formula_sum "Si O2"
_cell_formula_units_Z 48
_cell_length_a 13.642721
_cell_length_b 30.218527
_cell_length_c 5.355069
_cell_angle_alpha 90.000000
_cell_angle_beta 90.000000
_cell_angle_gamma 90.000000
_cell_volume 2207.696452
_symmetry_space_group_name_H-M "P C C A"
_symmetry_group_IT_number 54
_symmetry_cell_setting 'orthorhombic'
loop_
_space_group_symop_operation_xyz
x,y,z
1/2-x,-y,z
1/2+x,-y,1/2-z
-x,y,1/2-z
-x,-y,-z
1/2+x,y,-z
1/2-x,y,1/2+z
x,-y,1/2+z
loop_
_atom_site_type_symbol
_atom_site_label
_atom_site_fract_x
_atom_site_fract_y
_atom_site_fract_z
Si Si1 0.062472 0.704648 0.499383
Si Si2 0.314294 0.114384 0.470716
Si Si3 0.187730 0.207482 0.078405
Si Si4 0.364246 0.017331 0.396189
Si Si5 0.187726 0.616541 0.424391
Si Si6 0.863542 0.517895 0.119330
O O1 0.128532 0.747917 0.537492
O O2 0.123021 0.659806 0.460483
O O3 0.000000 0.711548 0.250000
O O4 0.000000 0.699400 0.750000
O O5 0.233755 0.114095 0.694324
O O6 0.367774 0.161095 0.520916
O O7 0.368572 0.067819 0.486598
O O8 0.271445 0.207180 0.861639
O O9 0.250000 0.000000 0.367502
O O10 0.405203 0.987608 0.618905
O O11 0.267067 0.617298 0.647003
O O12 0.135047 0.569280 0.450237
O O13 0.750000 0.500000 0.145692
O O14 0.905522 0.510414 0.392948
#
# Coordination Sequence:
#
# PCOD9420318 Si02
#       6
#     8   8   8   8   8   8
#     4  12  26  43  59  82 119 154 187 234 295 344
#     4  10  16  25  42  69  99 138 170 215 267 327
#     4  10  21  38  60  83 110 142 193 244 279 328
#     4  10  14  20  34  58 100 142 155 191 271 348
#     4  12  21  36  65  92 114 146 199 236 274 329
#     4  10  16  30  52  91 113 141 176 237 262 318
#
# _framework density 21.74212
#
# number of rings (size 3 to 8) (size 9 to 14) (size 15 to 20)
#    0.000    1.333    6.667    3.000    0.000    0.000 
#    0.000    0.000    0.000    3.000    0.000    0.000 
#    0.000    4.000    0.000    0.000    0.000    0.000 
#
# Total GULP energy -268008.956783 kJ/mol
# GULP energy per Si atom -5583.519933 kJ/mol
# Density = 2.169263 g / cm^3
# Si number density = 21.742120 Si / 1000 Ang^3
#
#
#
# Elastic Constant Matrix: (Units=GPa)
#
#
# Indices 1 2 3 4 5 6 
#
# 1 16.1838 10.3683 3.7090 0.0000 0.0000 0.0000
# 2 10.3683 163.7686 -17.5563 0.0000 0.0000 0.0000
# 3 3.7090 -17.5563 116.3332 0.0000 0.0000 0.0000
# 4 0.0000 0.0000 0.0000 42.7876 0.0000 0.0000
# 5 0.0000 0.0000 0.0000 0.0000 31.8333 0.0000
# 6 0.0000 0.0000 0.0000 0.0000 0.0000 -5.0670
#
#
#
# Elastic Compliance Matrix: (Units=1/GPa)
#
#
# Indices 1 2 3 4 5 6 
#
# 1 0.065256 -0.004426 -0.002748 0.000000 0.000000 0.000000
# 2 -0.004426 0.006507 0.001123 0.000000 0.000000 0.000000
# 3 -0.002748 0.001123 0.008853 0.000000 0.000000 0.000000
# 4 0.000000 0.000000 0.000000 0.023371 0.000000 0.000000
# 5 0.000000 0.000000 0.000000 0.000000 0.031414 0.000000
# 6 0.000000 0.000000 0.000000 0.000000 0.000000 -0.197356
#
#
# Mechanical properties :
#
#
# Convention : Reuss Voigt Hill
#
# Bulk Modulus (GPa) = 14.59579 32.14750 23.37164
# Shear Modulus (GPa) = -185.07999 33.89510 -75.59245
#
# Velocity S-wave (km/s) = -9.23634 3.95265 -5.90281
# Velocity P-wave (km/s) = 10.34499 5.97069 5.97368
#
# Compressibility (1/GPa) = 0.06851290
#
# Stress axis : x y z
#
# Youngs Moduli (GPa) = 15.32432 153.68577 112.95467
#
# Poissons Ratio (x) = 0.68021 0.31045
# Poissons Ratio (y) = 0.06783 -0.12686
# Poissons Ratio (z) = 0.04212 -0.17260
#
# Static dielectric constant tensor:
#      x y z
#    x 1.987110 0.000000 0.000000 
#    y 0.000000 1.870530 0.000000 
#    z 0.000000 0.000000 1.793690 
# 
# From -- ./inp_files/625.got.cif
#   From: 2010.05.17/outbox.cif.g08.bks.cpg/sg54_1_cif.got.tgz:625.got - 2010.06.03 13:09:01.
