data_PCOD9420899
_publ_section_title
;
Structure prediction by ZEFSAII (Michael W. Deem and Ramdas Pophale) SiO2 
 PCOD9420899
Probable space group: P C C A
;
_chemical_formula_sum "Si O2"
_cell_formula_units_Z 56
_cell_length_a 14.251662
_cell_length_b 36.028752
_cell_length_c 5.198539
_cell_angle_alpha 90.000000
_cell_angle_beta 90.000000
_cell_angle_gamma 90.000000
_cell_volume 2669.291719
_symmetry_space_group_name_H-M "P C C A"
_symmetry_group_IT_number 54
_symmetry_cell_setting 'orthorhombic'
loop_
_space_group_symop_operation_xyz
x,y,z
1/2-x,-y,z
1/2+x,-y,1/2-z
-x,y,1/2-z
-x,-y,-z
1/2+x,y,-z
1/2-x,y,1/2+z
x,-y,1/2+z
loop_
_atom_site_type_symbol
_atom_site_label
_atom_site_fract_x
_atom_site_fract_y
_atom_site_fract_z
Si Si1 0.814010 0.175780 0.004774
Si Si2 0.433971 0.408455 0.001607
Si Si3 0.064853 0.326154 0.500680
Si Si4 0.111428 0.019124 0.280460
Si Si5 0.689790 0.744993 0.100596
Si Si6 0.144457 0.484482 0.383942
Si Si7 0.686660 0.098692 0.635764
O O1 0.729084 0.175344 0.217415
O O2 0.861761 0.215629 0.048739
O O3 0.866293 0.137386 0.071948
O O4 0.500000 0.409257 0.750000
O O5 0.389948 0.367255 0.021178
O O6 0.500000 0.413672 0.250000
O O7 0.361749 0.442207 0.973851
O O8 0.133231 0.291738 0.466010
O O9 0.000000 0.326909 0.250000
O O10 0.000000 0.321179 0.750000
O O11 0.131014 0.060464 0.378496
O O12 0.000000 0.014724 0.250000
O O13 0.148009 0.990448 0.495779
O O14 0.724629 0.745072 0.394826
O O15 0.250000 0.500000 0.346039
O O16 0.099649 0.490337 0.105670
O O17 0.767818 0.098937 0.418841
#
# Coordination Sequence:
#
# PCOD9420899 Si02
#       7
#     8   8   8   8   8   8   8
#     4   8  16  30  50  74 106 133 166 215 262 310
#     4  10  21  37  57  79 106 144 179 212 262 322
#     4  10  21  38  57  82 117 146 178 225 274 318
#     4  10  21  35  49  68 100 137 168 211 267 316
#     4  10  19  35  57  85 109 144 186 218 265 330
#     4  10  21  37  53  78 108 137 172 223 268 297
#     4  10  19  32  52  76  98 131 173 218 261 301
#
# _framework density 20.97935
#
# number of rings (size 3 to 8) (size 9 to 14) (size 15 to 20)
#    0.000    2.286    0.000    2.571    0.000    3.429 
#    5.143    0.714    0.000    2.571    0.000    0.000 
#    0.000    0.000    0.000    0.000    0.000    0.000 
#
# Total GULP energy -312228.957337 kJ/mol
# GULP energy per Si atom -5575.517095 kJ/mol
# Density = 2.093160 g / cm^3
# Si number density = 20.979350 Si / 1000 Ang^3
#
#
#
# Elastic Constant Matrix: (Units=GPa)
#
#
# Indices 1 2 3 4 5 6 
#
# 1 22.0413 15.4181 4.0161 0.0000 0.0000 0.0000
# 2 15.4181 164.9758 16.7859 0.0000 0.0000 0.0000
# 3 4.0161 16.7859 129.0721 0.0000 0.0000 0.0000
# 4 0.0000 0.0000 0.0000 33.2407 0.0000 0.0000
# 5 0.0000 0.0000 0.0000 0.0000 12.8759 0.0000
# 6 0.0000 0.0000 0.0000 0.0000 0.0000 -25.6065
#
#
#
# Elastic Compliance Matrix: (Units=1/GPa)
#
#
# Indices 1 2 3 4 5 6 
#
# 1 0.048654 -0.004452 -0.000935 0.000000 0.000000 0.000000
# 2 -0.004452 0.006550 -0.000713 0.000000 0.000000 0.000000
# 3 -0.000935 -0.000713 0.007869 0.000000 0.000000 0.000000
# 4 0.000000 0.000000 0.000000 0.030084 0.000000 0.000000
# 5 0.000000 0.000000 0.000000 0.000000 0.077665 0.000000
# 6 0.000000 0.000000 0.000000 0.000000 0.000000 -0.039053
#
#
# Mechanical properties :
#
#
# Convention : Reuss Voigt Hill
#
# Bulk Modulus (GPa) = 19.65674 43.16993 31.41334
# Shear Modulus (GPa) = 31.07001 22.75996 26.91498
#
# Velocity S-wave (km/s) = 3.85253 3.29732 3.58568
# Velocity P-wave (km/s) = 5.40178 5.92608 5.66999
#
# Compressibility (1/GPa) = 0.05087313
#
# Stress axis : x y z
#
# Youngs Moduli (GPa) = 20.55339 152.66858 127.07343
#
# Poissons Ratio (x) = 0.67967 0.11880
# Poissons Ratio (y) = 0.09150 0.09065
# Poissons Ratio (z) = 0.01922 0.10890
#
# Static dielectric constant tensor:
#      x y z
#    x 1.747060 0.000000 0.000000 
#    y 0.000000 1.832590 0.000000 
#    z 0.000000 0.000000 1.778460 
# 
# From -- ./inp_files/754.got.cif
#   From: 2010.05.17/outbox.cif.g08.bks.cpg/sg54_1_cif.got.tgz:754.got - 2010.06.03 13:09:01.
