data_PCOD9420399
_publ_section_title
;
Structure prediction by ZEFSAII (Michael W. Deem and Ramdas Pophale) SiO2 
 PCOD9420399
Probable space group: P C C A
;
_chemical_formula_sum "Si O2"
_cell_formula_units_Z 40
_cell_length_a 5.196847
_cell_length_b 14.384119
_cell_length_c 34.018658
_cell_angle_alpha 90.000000
_cell_angle_beta 90.000000
_cell_angle_gamma 90.000000
_cell_volume 2542.964957
_symmetry_space_group_name_H-M "P C C A"
_symmetry_group_IT_number 54
_symmetry_cell_setting 'orthorhombic'
loop_
_space_group_symop_operation_xyz
x,y,z
1/2-x,-y,z
1/2+x,-y,1/2-z
-x,y,1/2-z
-x,-y,-z
1/2+x,y,-z
1/2-x,y,1/2+z
x,-y,1/2+z
loop_
_atom_site_type_symbol
_atom_site_label
_atom_site_fract_x
_atom_site_fract_y
_atom_site_fract_z
Si Si1 0.951071 0.300265 0.679162
Si Si2 0.506118 0.562612 0.892054
Si Si3 0.977647 0.394569 0.982489
Si Si4 0.460014 0.192981 0.703123
Si Si5 0.500000 0.439737 0.250000
Si Si6 0.750000 0.000000 0.776174
O O1 0.957775 0.354636 0.638250
O O2 0.723985 0.224558 0.682745
O O3 0.226801 0.255119 0.687788
O O4 0.911464 0.375901 0.713711
O O5 0.250000 0.500000 0.893948
O O6 0.561380 0.598035 0.936184
O O7 0.750000 0.500000 0.879381
O O8 0.243499 0.348755 0.994727
O O9 0.000000 0.500000 0.000000
O O10 0.500000 0.207204 0.750000
O O11 0.366432 0.086319 0.699938
O O12 0.750000 0.500000 0.261636
O O13 0.500000 0.967828 0.750000
#
# Coordination Sequence:
#
# PCOD9420399 Si02
#       6
#     8   8   8   8   4   4
#     4  12  23  34  50  69 100 135 166 222 244 284
#     4  12  21  33  48  70  97 132 182 206 241 293
#     4  10  16  30  49  67  88 122 165 208 258 287
#     4  11  20  38  53  73  97 125 164 210 269 297
#     4  12  22  36  46  60  92 142 186 202 234 266
#     4  10  20  34  60  82  90 118 166 214 262 340
#
# _framework density 15.72967
#
# number of rings (size 3 to 8) (size 9 to 14) (size 15 to 20)
#    0.000    0.800    6.000    6.000    0.000    0.000 
#    0.000    0.000    0.000    0.000    0.000    0.000 
#    0.000    0.000    0.000   18.000    0.000    0.000 
#
# Total GULP energy -223187.785086 kJ/mol
# GULP energy per Si atom -5579.694627 kJ/mol
# Density = 1.569387 g / cm^3
# Si number density = 15.729670 Si / 1000 Ang^3
#
#
#
# Elastic Constant Matrix: (Units=GPa)
#
#
# Indices 1 2 3 4 5 6 
#
# 1 103.3570 11.1299 -1.9514 0.0000 0.0000 0.0000
# 2 11.1299 49.0621 28.1072 0.0000 0.0000 0.0000
# 3 -1.9514 28.1072 82.2842 0.0000 0.0000 0.0000
# 4 0.0000 0.0000 0.0000 14.8580 0.0000 0.0000
# 5 0.0000 0.0000 0.0000 0.0000 13.6424 0.0000
# 6 0.0000 0.0000 0.0000 0.0000 0.0000 32.2081
#
#
#
# Elastic Compliance Matrix: (Units=1/GPa)
#
#
# Indices 1 2 3 4 5 6 
#
# 1 0.010022 -0.002996 0.001261 0.000000 0.000000 0.000000
# 2 -0.002996 0.026237 -0.009033 0.000000 0.000000 0.000000
# 3 0.001261 -0.009033 0.015269 0.000000 0.000000 0.000000
# 4 0.000000 0.000000 0.000000 0.067304 0.000000 0.000000
# 5 0.000000 0.000000 0.000000 0.000000 0.073301 0.000000
# 6 0.000000 0.000000 0.000000 0.000000 0.000000 0.031048
#
#
# Mechanical properties :
#
#
# Convention : Reuss Voigt Hill
#
# Bulk Modulus (GPa) = 33.34336 34.36384 33.85360
# Shear Modulus (GPa) = 19.62991 25.30286 22.46639
#
# Velocity S-wave (km/s) = 3.53647 4.01510 3.78336
# Velocity P-wave (km/s) = 6.15786 6.58700 6.37604
#
# Compressibility (1/GPa) = 0.02999098
#
# Stress axis : x y z
#
# Youngs Moduli (GPa) = 99.78427 38.11411 65.49416
#
# Poissons Ratio (x) = 0.11418 -0.08259
# Poissons Ratio (y) = 0.29894 0.59163
# Poissons Ratio (z) = -0.12583 0.34429
#
# Static dielectric constant tensor:
#      x y z
#    x 1.422140 0.000000 0.000000 
#    y 0.000000 1.502940 0.000000 
#    z 0.000000 0.000000 1.510570 
# 
# From -- ./inp_files/27095.got.cif
#   From: 2010.05.17/outbox.cif.g08.bks.cpg/sg54_14_cif.got.tgz:27095.got - 2010.06.03 13:09:01.
