data_PCOD9420911
_publ_section_title
;
Structure prediction by ZEFSAII (Michael W. Deem and Ramdas Pophale) SiO2 
 PCOD9420911
Probable space group: P C C A
;
_chemical_formula_sum "Si O2"
_cell_formula_units_Z 48
_cell_length_a 14.910010
_cell_length_b 28.679585
_cell_length_c 5.237158
_cell_angle_alpha 90.000000
_cell_angle_beta 90.000000
_cell_angle_gamma 90.000000
_cell_volume 2239.476316
_symmetry_space_group_name_H-M "P C C A"
_symmetry_group_IT_number 54
_symmetry_cell_setting 'orthorhombic'
loop_
_space_group_symop_operation_xyz
x,y,z
1/2-x,-y,z
1/2+x,-y,1/2-z
-x,y,1/2-z
-x,-y,-z
1/2+x,y,-z
1/2-x,y,1/2+z
x,-y,1/2+z
loop_
_atom_site_type_symbol
_atom_site_label
_atom_site_fract_x
_atom_site_fract_y
_atom_site_fract_z
Si Si1 0.313004 0.614088 0.381229
Si Si2 0.398300 0.480232 0.974447
Si Si3 0.811827 0.816816 0.568710
Si Si4 0.309089 0.283322 0.832074
Si Si5 0.284101 0.947683 0.720026
Si Si6 0.444876 0.901649 0.498413
O O1 0.246912 0.609738 0.625404
O O2 0.386219 0.573371 0.400687
O O3 0.353430 0.666451 0.378244
O O4 0.355700 0.510291 0.748534
O O5 0.500000 0.500000 0.000000
O O6 0.760568 0.819676 0.297750
O O7 0.856385 0.765619 0.606864
O O8 0.883004 0.858050 0.577974
O O9 0.272149 0.282710 0.541847
O O10 0.220981 0.925538 0.500579
O O11 0.380822 0.943213 0.596709
O O12 0.250000 0.000000 0.764977
O O13 0.500000 0.915721 0.250000
O O14 0.500000 0.888096 0.750000
#
# Coordination Sequence:
#
# PCOD9420911 Si02
#       6
#     8   8   8   8   8   8
#     4  10  19  32  53  80 105 131 177 235 273 311
#     4  10  21  35  50  68 103 140 177 215 266 336
#     4  10  19  36  62  85 112 155 194 228 281 354
#     4   8  16  30  52  81 105 133 177 226 274 322
#     4  10  21  41  63  84 114 158 206 242 276 351
#     4  12  24  38  59  90 126 151 191 247 299 331
#
# _framework density 21.433582999999999
#
# number of rings (size 3 to 8) (size 9 to 14) (size 15 to 20)
#    0.000    2.000    0.000    4.000    0.000    2.000 
#    0.000   10.000    7.333    0.000    0.000    0.000 
#    0.000    0.000    0.000    0.000    0.000    0.000 
#
# Total GULP energy -267671.759563 kJ/mol
# GULP energy per Si atom -5576.494991 kJ/mol
# Density = 2.138480 g / cm^3
# Si number density = 21.433583 Si / 1000 Ang^3
#
#
#
# Elastic Constant Matrix: (Units=GPa)
#
#
# Indices 1 2 3 4 5 6 
#
# 1 46.7158 24.6952 2.6735 0.0000 0.0000 0.0000
# 2 24.6952 120.3375 -13.5875 0.0000 0.0000 0.0000
# 3 2.6735 -13.5875 142.4412 0.0000 0.0000 0.0000
# 4 0.0000 0.0000 0.0000 28.4079 0.0000 0.0000
# 5 0.0000 0.0000 0.0000 0.0000 16.9598 0.0000
# 6 0.0000 0.0000 0.0000 0.0000 0.0000 10.1666
#
#
#
# Elastic Compliance Matrix: (Units=1/GPa)
#
#
# Indices 1 2 3 4 5 6 
#
# 1 0.024133 -0.005058 -0.000935 0.000000 0.000000 0.000000
# 2 -0.005058 0.009461 0.000997 0.000000 0.000000 0.000000
# 3 -0.000935 0.000997 0.007133 0.000000 0.000000 0.000000
# 4 0.000000 0.000000 0.000000 0.035201 0.000000 0.000000
# 5 0.000000 0.000000 0.000000 0.000000 0.058963 0.000000
# 6 0.000000 0.000000 0.000000 0.000000 0.000000 0.098362
#
#
# Mechanical properties :
#
#
# Convention : Reuss Voigt Hill
#
# Bulk Modulus (GPa) = 32.53660 37.45078 34.99369
# Shear Modulus (GPa) = 19.72459 30.82108 25.27283
#
# Velocity S-wave (km/s) = 3.03688 3.79619 3.43756
# Velocity P-wave (km/s) = 5.24500 6.06016 5.66726
#
# Compressibility (1/GPa) = 0.03073462
#
# Stress axis : x y z
#
# Youngs Moduli (GPa) = 41.43626 105.70146 140.19076
#
# Poissons Ratio (x) = 0.53466 0.13114
# Poissons Ratio (y) = 0.20959 -0.13982
# Poissons Ratio (z) = 0.03876 -0.10543
#
# Static dielectric constant tensor:
#      x y z
#    x 1.758490 0.000000 0.000000 
#    y 0.000000 1.871290 0.000000 
#    z 0.000000 0.000000 1.856320 
# 
# From -- ./inp_files/691.got.cif
#   From: 2010.05.17/outbox.cif.g08.bks.cpg/sg54_1_cif.got.tgz:691.got - 2010.06.03 13:09:01.
