data_PCOD9420984
_publ_section_title
;
Structure prediction by ZEFSAII (Michael W. Deem and Ramdas Pophale) SiO2 
 PCOD9420984
Probable space group: P C C A
;
_chemical_formula_sum "Si O2"
_cell_formula_units_Z 40
_cell_length_a 22.899086
_cell_length_b 7.359833
_cell_length_c 8.998142
_cell_angle_alpha 90.000000
_cell_angle_beta 90.000000
_cell_angle_gamma 90.000000
_cell_volume 1516.487904
_symmetry_space_group_name_H-M "P C C A"
_symmetry_group_IT_number 54
_symmetry_cell_setting 'orthorhombic'
loop_
_space_group_symop_operation_xyz
x,y,z
1/2-x,-y,z
1/2+x,-y,1/2-z
-x,y,1/2-z
-x,-y,-z
1/2+x,y,-z
1/2-x,y,1/2+z
x,-y,1/2+z
loop_
_atom_site_type_symbol
_atom_site_label
_atom_site_fract_x
_atom_site_fract_y
_atom_site_fract_z
Si Si1 0.055381 0.154117 0.850476
Si Si2 0.193762 0.112372 0.103622
Si Si3 0.775438 0.315726 0.116396
Si Si4 0.627399 0.749186 0.905637
Si Si5 0.977981 0.740107 0.604476
O O1 0.109767 0.243099 0.766833
O O2 0.000000 0.206339 0.750000
O O3 0.050503 0.934885 0.848658
O O4 0.036554 0.219742 0.011576
O O5 0.184859 0.233161 0.250665
O O6 0.221060 0.204717 0.956318
O O7 0.250000 0.000000 0.158992
O O8 0.143936 0.965087 0.066657
O O9 0.750000 0.500000 0.176501
O O10 0.816429 0.347622 0.972497
O O11 0.572846 0.669596 0.998138
O O12 0.000000 0.638727 0.750000
#
# Coordination Sequence:
#
# PCOD9420984 Si02
#       5
#     8   8   8   8   8
#     4   8  15  26  43  75 118 153 189 240 296 354
#     4  10  21  38  59  84 117 157 207 258 305 369
#     4  11  23  39  58  85 123 164 212 263 310 366
#     4  10  19  33  56  86 122 165 203 244 308 367
#     4   9  16  28  50  88 129 152 191 257 309 360
#
# _framework density 26.376738
#
# number of rings (size 3 to 8) (size 9 to 14) (size 15 to 20)
#    0.000    2.400    0.000    4.800    0.000    1.600 
#    0.000    0.000    0.000    0.000    0.000   14.000 
#    0.000  179.200    0.000    0.000    0.000    3.200 
#
# Total GULP energy -223210.291525 kJ/mol
# GULP energy per Si atom -5580.257288 kJ/mol
# Density = 2.631670 g / cm^3
# Si number density = 26.376738 Si / 1000 Ang^3
#
#
#
# Elastic Constant Matrix: (Units=GPa)
#
#
# Indices 1 2 3 4 5 6 
#
# 1 105.5766 1.4491 41.8870 0.0000 0.0000 0.0000
# 2 1.4491 49.3172 18.4342 0.0000 0.0000 0.0000
# 3 41.8870 18.4342 128.4558 0.0000 0.0000 0.0000
# 4 0.0000 0.0000 0.0000 2.7199 0.0000 0.0000
# 5 0.0000 0.0000 0.0000 0.0000 57.2827 0.0000
# 6 0.0000 0.0000 0.0000 0.0000 0.0000 -1.6605
#
#
#
# Elastic Compliance Matrix: (Units=1/GPa)
#
#
# Indices 1 2 3 4 5 6 
#
# 1 0.010932 0.001069 -0.003718 0.000000 0.000000 0.000000
# 2 0.001069 0.021531 -0.003438 0.000000 0.000000 0.000000
# 3 -0.003718 -0.003438 0.009491 0.000000 0.000000 0.000000
# 4 0.000000 0.000000 0.000000 0.367665 0.000000 0.000000
# 5 0.000000 0.000000 0.000000 0.000000 0.017457 0.000000
# 6 0.000000 0.000000 0.000000 0.000000 0.000000 -0.602218
#
#
# Mechanical properties :
#
#
# Convention : Reuss Voigt Hill
#
# Bulk Modulus (GPa) = 33.58186 45.21000 39.39593
# Shear Modulus (GPa) = -32.67112 26.44037 -3.11537
#
# Velocity S-wave (km/s) = -3.52324 3.16952 -1.08797
# Velocity P-wave (km/s) = 1.94723 5.52918 3.65924
#
# Compressibility (1/GPa) = 0.02977798
#
# Stress axis : x y z
#
# Youngs Moduli (GPa) = 91.47217 46.44536 105.36741
#
# Poissons Ratio (x) = -0.04963 0.39177
# Poissons Ratio (y) = -0.09775 0.36228
# Poissons Ratio (z) = 0.34011 0.15969
#
# Static dielectric constant tensor:
#      x y z
#    x 2.081880 0.000000 0.000000 
#    y 0.000000 2.132810 0.000000 
#    z 0.000000 0.000000 2.112720 
# 
# From -- ./inp_files/5021.got.cif
#   From: 2010.05.17/outbox.cif.g08.bks.cpg/sg54_3_cif.got.tgz:5021.got - 2010.06.03 13:09:01.
