data_PCOD9420524
_publ_section_title
;
Structure prediction by ZEFSAII (Michael W. Deem and Ramdas Pophale) SiO2 
 PCOD9420524
Probable space group: P C C A
;
_chemical_formula_sum "Si O2"
_cell_formula_units_Z 56
_cell_length_a 5.682515
_cell_length_b 15.680822
_cell_length_c 31.267179
_cell_angle_alpha 90.000000
_cell_angle_beta 90.000000
_cell_angle_gamma 90.000000
_cell_volume 2786.109080
_symmetry_space_group_name_H-M "P C C A"
_symmetry_group_IT_number 54
_symmetry_cell_setting 'orthorhombic'
loop_
_space_group_symop_operation_xyz
x,y,z
1/2-x,-y,z
1/2+x,-y,1/2-z
-x,y,1/2-z
-x,-y,-z
1/2+x,y,-z
1/2-x,y,1/2+z
x,-y,1/2+z
loop_
_atom_site_type_symbol
_atom_site_label
_atom_site_fract_x
_atom_site_fract_y
_atom_site_fract_z
Si Si1 0.850117 0.303965 0.690125
Si Si2 0.431546 0.922938 0.891820
Si Si3 0.500000 0.801411 0.250000
Si Si4 0.728713 0.840348 0.829077
Si Si5 0.591146 0.698208 0.012663
Si Si6 0.500000 0.548904 0.750000
Si Si7 0.373534 0.892112 0.519795
Si Si8 0.393673 0.757032 0.390443
O O1 0.677769 0.260830 0.724887
O O2 0.713774 0.307261 0.644909
O O3 0.057195 0.236260 0.684070
O O4 0.950281 0.390594 0.709192
O O5 0.574572 0.916588 0.847906
O O6 0.606448 0.920002 0.931540
O O7 0.288442 0.834676 0.896355
O O8 0.250000 0.000000 0.893669
O O9 0.382453 0.857167 0.212744
O O10 0.885873 0.801996 0.867446
O O11 0.564107 0.717358 0.063212
O O12 0.847792 0.656770 0.003976
O O13 0.616636 0.789387 0.987670
O O14 0.250000 0.500000 0.743646
O O15 0.121246 0.919884 0.501535
#
# Coordination Sequence:
#
# PCOD9420524 Si02
#       8
#     8   8   4   8   8   4   8   8
#     4  10  21  37  60  94 120 161 196 226 299 374
#     4  11  23  35  49  81 113 156 208 273 329 370
#     4  10  17  36  64  86 109 146 214 240 305 376
#     4  10  20  35  59  81 108 150 209 253 303 377
#     4  10  18  32  52  77 117 153 207 259 309 350
#     4  12  25  40  66 102 145 160 182 232 301 390
#     4  10  19  34  51  73 115 154 202 247 323 380
#     4  10  21  35  57  81 113 165 207 260 298 377
#
# _framework density 20.099716000000001
#
# number of rings (size 3 to 8) (size 9 to 14) (size 15 to 20)
#    0.000    1.714    4.286    2.143    4.000    1.143 
#    0.000    0.000    0.000    0.000  133.714    0.000 
#    0.000    3.429    0.000    0.000    0.000    0.000 
#
# Total GULP energy -312652.652921 kJ/mol
# GULP energy per Si atom -5583.083088 kJ/mol
# Density = 2.005397 g / cm^3
# Si number density = 20.099716 Si / 1000 Ang^3
#
#
#
# Elastic Constant Matrix: (Units=GPa)
#
#
# Indices 1 2 3 4 5 6 
#
# 1 122.6395 10.9330 40.4098 0.0000 0.0000 0.0000
# 2 10.9330 35.6064 19.1508 0.0000 0.0000 0.0000
# 3 40.4098 19.1508 142.0823 0.0000 0.0000 0.0000
# 4 0.0000 0.0000 0.0000 -40.6970 0.0000 0.0000
# 5 0.0000 0.0000 0.0000 0.0000 42.7447 0.0000
# 6 0.0000 0.0000 0.0000 0.0000 0.0000 11.3820
#
#
#
# Elastic Compliance Matrix: (Units=1/GPa)
#
#
# Indices 1 2 3 4 5 6 
#
# 1 0.009072 -0.001507 -0.002377 0.000000 0.000000 0.000000
# 2 -0.001507 0.030530 -0.003686 0.000000 0.000000 0.000000
# 3 -0.002377 -0.003686 0.008211 0.000000 0.000000 0.000000
# 4 0.000000 0.000000 0.000000 -0.024572 0.000000 0.000000
# 5 0.000000 0.000000 0.000000 0.000000 0.023395 0.000000
# 6 0.000000 0.000000 0.000000 0.000000 0.000000 0.087858
#
#
# Mechanical properties :
#
#
# Convention : Reuss Voigt Hill
#
# Bulk Modulus (GPa) = 30.60713 49.03505 39.82109
# Shear Modulus (GPa) = 31.14777 18.00824 24.57801
#
# Velocity S-wave (km/s) = 3.94085 2.99648 3.50065
# Velocity P-wave (km/s) = 5.99731 6.03496 6.01616
#
# Compressibility (1/GPa) = 0.03267212
#
# Stress axis : x y z
#
# Youngs Moduli (GPa) = 110.23506 32.75431 121.78654
#
# Poissons Ratio (x) = 0.04936 0.28948
# Poissons Ratio (y) = 0.16613 0.44896
# Poissons Ratio (z) = 0.26202 0.12075
#
# Static dielectric constant tensor:
#      x y z
#    x 1.724840 0.000000 0.000000 
#    y 0.000000 1.691000 0.000000 
#    z 0.000000 0.000000 1.742510 
# 
# From -- ./inp_files/27226.got.cif
#   From: 2010.05.17/outbox.cif.g08.bks.cpg/sg54_14_cif.got.tgz:27226.got - 2010.06.03 13:09:01.
