data_PCOD9420168
_publ_section_title
;
Structure prediction by ZEFSAII (Michael W. Deem and Ramdas Pophale) SiO2 
 PCOD9420168
Probable space group: P M N A
;
_chemical_formula_sum "Si O2"
_cell_formula_units_Z 64
_cell_length_a 9.000000
_cell_length_b 21.000000
_cell_length_c 18.000000
_cell_angle_alpha 90.000000
_cell_angle_beta 90.000000
_cell_angle_gamma 90.000000
_cell_volume 3402.000000
_symmetry_space_group_name_H-M "P M N A"
_symmetry_group_IT_number 53
_symmetry_cell_setting 'orthorhombic'
loop_
_space_group_symop_operation_xyz
x,y,z
1/2-x,-y,1/2+z
x,-y,-z
1/2-x,y,1/2-z
-x,-y,-z
1/2+x,y,1/2-z
-x,y,z
1/2+x,-y,1/2+z
loop_
_atom_site_type_symbol
_atom_site_label
_atom_site_fract_x
_atom_site_fract_y
_atom_site_fract_z
Si Si1 0.322574 0.748326 0.673370
Si Si2 0.679612 0.127060 0.900296
Si Si3 0.823453 0.138761 0.061513
Si Si4 0.820869 0.483505 0.670096
Si Si5 0.679066 0.742446 0.172462
Si Si6 0.679649 0.376923 0.108419
Si Si7 0.819590 0.631027 0.437088
Si Si8 0.828317 0.988074 0.589530
O O1 0.250000 0.770288 0.750000
O O2 0.500000 0.744223 0.680662
O O3 0.286672 0.799022 0.609106
O O4 0.255339 0.679952 0.652849
O O5 0.500000 0.126003 0.906320
O O6 0.722454 0.185187 0.847388
O O7 0.724829 0.055452 0.877127
O O8 0.744959 0.140871 0.981611
O O9 0.767481 0.074626 0.102247
O O10 0.000000 0.135273 0.051239
O O11 0.750000 0.471479 0.750000
O O12 0.782403 0.554050 0.641392
O O13 0.773001 0.430235 0.610713
O O14 0.000000 0.480118 0.676115
O O15 0.750000 0.722356 0.250000
O O16 0.500000 0.739640 0.178003
O O17 0.725568 0.694775 0.106526
O O18 0.500000 0.370090 0.111779
O O19 0.728038 0.372339 0.022348
O O20 0.000000 0.630444 0.438624
O O21 0.000000 0.976599 0.610281
O O22 0.825624 0.000000 0.500000
#
# Coordination Sequence:
#
# PCOD9420168 Si02
#       8
#     8   8   8   8   8   8   8   8
#     4  11  24  39  54  76 106 138 174 216 264 317
#     4   9  18  33  53  77 104 137 175 211 254 312
#     4  10  20  33  52  79 105 130 168 218 263 304
#     4  10  20  34  54  81 111 141 175 213 256 308
#     4  10  20  34  52  74 103 138 175 213 256 307
#     4  10  20  36  59  81 103 136 177 220 261 304
#     4   9  18  34  56  80 105 138 178 215 254 306
#     4   8  15  29  50  75 103 135 170 208 253 309
#
# _framework density 18.812463000000001
#
# number of rings (size 3 to 8) (size 9 to 14) (size 15 to 20)
#    0.000    2.375    0.000    3.375    0.000    8.750 
#    0.000    1.875    0.000    4.500    0.000    0.000 
#    0.000    0.000    0.000    0.000    0.000    0.000 
#
# Total GULP energy -357160.780188 kJ/mol
# GULP energy per Si atom -5580.637190 kJ/mol
# Density = 1.876965 g / cm^3
# Si number density = 18.812463 Si / 1000 Ang^3
#
#
#
# Elastic Constant Matrix: (Units=GPa)
#
#
# Indices 1 2 3 4 5 6 
#
# 1 3.8725 9.9726 3.2285 0.0000 0.0000 0.0000
# 2 9.9726 63.7167 -13.3361 0.0000 0.0000 0.0000
# 3 3.2285 -13.3361 44.7028 0.0000 0.0000 0.0000
# 4 0.0000 0.0000 0.0000 6.3992 0.0000 0.0000
# 5 0.0000 0.0000 0.0000 0.0000 25.3697 0.0000
# 6 0.0000 0.0000 0.0000 0.0000 0.0000 -1.0728
#
#
#
# Elastic Compliance Matrix: (Units=1/GPa)
#
#
# Indices 1 2 3 4 5 6 
#
# 1 0.610713 -0.111798 -0.077459 0.000000 0.000000 0.000000
# 2 -0.111798 0.037205 0.019174 0.000000 0.000000 0.000000
# 3 -0.077459 0.019174 0.033684 0.000000 0.000000 0.000000
# 4 0.000000 0.000000 0.000000 0.156270 0.000000 0.000000
# 5 0.000000 0.000000 0.000000 0.000000 0.039417 0.000000
# 6 0.000000 0.000000 0.000000 0.000000 0.000000 -0.932168
#
#
# Mechanical properties :
#
#
# Convention : Reuss Voigt Hill
#
# Bulk Modulus (GPa) = 2.92880 12.44687 7.68784
# Shear Modulus (GPa) = 12.52819 13.63435 13.08127
#
# Velocity S-wave (km/s) = 2.58340 2.69504 2.63981
# Velocity P-wave (km/s) = 3.23401 4.03918 3.65881
#
# Compressibility (1/GPa) = 0.34143714
#
# Stress axis : x y z
#
# Youngs Moduli (GPa) = 1.63743 26.87777 29.68758
#
# Poissons Ratio (x) = 3.00487 2.29956
# Poissons Ratio (y) = 0.18306 -0.56922
# Poissons Ratio (z) = 0.12683 -0.51534
#
# Static dielectric constant tensor:
#      x y z
#    x 1.627820 0.000000 0.000000 
#    y 0.000000 1.666810 0.000000 
#    z 0.000000 0.000000 1.637540 
# 
# From -- ./inp_files/26764.got.cif
#   From: 2010.05.17/outbox.ucp.g08.bks.cvg/sg53_14_cif.got.tgz:26764.got - 2010.06.11 16:32:34.
