data_PCOD9420944
_publ_section_title
;
Structure prediction by ZEFSAII (Michael W. Deem and Ramdas Pophale) SiO2 
 PCOD9420944
Probable space group: P C C A
;
_chemical_formula_sum "Si O2"
_cell_formula_units_Z 48
_cell_length_a 14.137482
_cell_length_b 28.802729
_cell_length_c 5.229538
_cell_angle_alpha 90.000000
_cell_angle_beta 90.000000
_cell_angle_gamma 90.000000
_cell_volume 2129.457743
_symmetry_space_group_name_H-M "P C C A"
_symmetry_group_IT_number 54
_symmetry_cell_setting 'orthorhombic'
loop_
_space_group_symop_operation_xyz
x,y,z
1/2-x,-y,z
1/2+x,-y,1/2-z
-x,y,1/2-z
-x,-y,-z
1/2+x,y,-z
1/2-x,y,1/2+z
x,-y,1/2+z
loop_
_atom_site_type_symbol
_atom_site_label
_atom_site_fract_x
_atom_site_fract_y
_atom_site_fract_z
Si Si1 0.893706 0.481101 0.045087
Si Si2 0.190604 0.286169 0.387823
Si Si3 0.887181 0.813572 0.748356
Si Si4 0.384671 0.972274 0.753082
Si Si5 0.185674 0.613335 0.796231
Si Si6 0.384305 0.866862 0.751137
O O1 0.849946 0.486354 0.764323
O O2 0.883944 0.429178 0.147575
O O3 0.000000 0.500000 0.000000
O O4 0.222502 0.286282 0.683517
O O5 0.138174 0.238978 0.319472
O O6 0.141106 0.335469 0.331241
O O7 0.854070 0.847477 0.522771
O O8 0.000000 0.816809 0.750000
O O9 0.854966 0.831819 0.024064
O O10 0.500000 0.970825 0.750000
O O11 0.352077 0.919556 0.793478
O O12 0.356615 0.993926 0.482726
O O13 0.233311 0.610451 0.517050
O O14 0.500000 0.867764 0.750000
#
# Coordination Sequence:
#
# PCOD9420944 Si02
#       6
#     8   8   8   8   8   8
#     4  10  21  37  56  82 116 144 179 222 270 313
#     4  10  21  38  58  80 110 140 180 230 271 317
#     4  10  19  33  52  77 105 140 179 215 279 329
#     4   9  15  23  37  61  96 138 176 209 264 323
#     4  10  21  37  59  83 109 145 184 222 271 321
#     4   9  17  28  45  69 106 140 174 224 268 326
#
# _framework density 22.540948
#
# number of rings (size 3 to 8) (size 9 to 14) (size 15 to 20)
#    0.000    2.333    0.000    3.000    0.000    6.000 
#    3.000    0.000    7.333    0.000    0.000    0.000 
#    0.000   46.667    0.000    0.000    0.000    0.000 
#
# Total GULP energy -268172.128071 kJ/mol
# GULP energy per Si atom -5586.919335 kJ/mol
# Density = 2.248964 g / cm^3
# Si number density = 22.540948 Si / 1000 Ang^3
#
#
#
# Elastic Constant Matrix: (Units=GPa)
#
#
# Indices 1 2 3 4 5 6 
#
# 1 60.9157 5.1978 -15.7837 0.0000 0.0000 0.0000
# 2 5.1978 158.7312 19.3068 0.0000 0.0000 0.0000
# 3 -15.7837 19.3068 122.9202 0.0000 0.0000 0.0000
# 4 0.0000 0.0000 0.0000 37.9959 0.0000 0.0000
# 5 0.0000 0.0000 0.0000 0.0000 -2.6679 0.0000
# 6 0.0000 0.0000 0.0000 0.0000 0.0000 -1.6787
#
#
#
# Elastic Compliance Matrix: (Units=1/GPa)
#
#
# Indices 1 2 3 4 5 6 
#
# 1 0.017091 -0.000843 0.002327 0.000000 0.000000 0.000000
# 2 -0.000843 0.006464 -0.001124 0.000000 0.000000 0.000000
# 3 0.002327 -0.001124 0.008611 0.000000 0.000000 0.000000
# 4 0.000000 0.000000 0.000000 0.026319 0.000000 0.000000
# 5 0.000000 0.000000 0.000000 0.000000 -0.374825 0.000000
# 6 0.000000 0.000000 0.000000 0.000000 0.000000 -0.595716
#
#
# Mechanical properties :
#
#
# Convention : Reuss Voigt Hill
#
# Bulk Modulus (GPa) = 30.40692 40.00100 35.20396
# Shear Modulus (GPa) = -5.54437 28.98628 11.72095
#
# Velocity S-wave (km/s) = -1.57004 3.58989 2.28279
# Velocity P-wave (km/s) = 3.19878 5.91333 4.75393
#
# Compressibility (1/GPa) = 0.03288725
#
# Stress axis : x y z
#
# Youngs Moduli (GPa) = 58.51042 154.69794 116.13566
#
# Poissons Ratio (x) = 0.13036 -0.27024
# Poissons Ratio (y) = 0.04931 0.13048
# Poissons Ratio (z) = -0.13615 0.17381
#
# Static dielectric constant tensor:
#      x y z
#    x 1.219800 0.000000 0.000000 
#    y 0.000000 1.815130 0.000000 
#    z 0.000000 0.000000 1.850790 
# 
# From -- ./inp_files/1019.got.cif
#   From: 2010.05.17/outbox.cif.g08.bks.cpg/sg54_1_cif.got.tgz:1019.got - 2010.06.03 13:09:01.
