data_PCOD9420678
_publ_section_title
;
Structure prediction by ZEFSAII (Michael W. Deem and Ramdas Pophale) SiO2 
 PCOD9420678
Probable space group: P C C A
;
_chemical_formula_sum "Si O2"
_cell_formula_units_Z 64
_cell_length_a 9.249064
_cell_length_b 17.408415
_cell_length_c 21.218797
_cell_angle_alpha 90.000000
_cell_angle_beta 90.000000
_cell_angle_gamma 90.000000
_cell_volume 3416.471277
_symmetry_space_group_name_H-M "P C C A"
_symmetry_group_IT_number 54
_symmetry_cell_setting 'orthorhombic'
loop_
_space_group_symop_operation_xyz
x,y,z
1/2-x,-y,z
1/2+x,-y,1/2-z
-x,y,1/2-z
-x,-y,-z
1/2+x,y,-z
1/2-x,y,1/2+z
x,-y,1/2+z
loop_
_atom_site_type_symbol
_atom_site_label
_atom_site_fract_x
_atom_site_fract_y
_atom_site_fract_z
Si Si1 0.937276 0.418944 0.427026
Si Si2 0.638966 0.766674 0.786784
Si Si3 0.104022 0.832852 0.526755
Si Si4 0.708612 0.812357 0.170624
Si Si5 0.905400 0.408424 0.939835
Si Si6 0.532572 0.748869 0.599806
Si Si7 0.578390 0.273724 0.850964
Si Si8 0.828585 0.081260 0.054857
O O1 0.767930 0.404309 0.442429
O O2 0.948473 0.509031 0.410941
O O3 0.974465 0.356691 0.374336
O O4 0.031245 0.405998 0.489570
O O5 0.500000 0.730488 0.750000
O O6 0.708537 0.824878 0.736268
O O7 0.567873 0.796339 0.851477
O O8 0.778545 0.718278 0.808375
O O9 0.117887 0.777195 0.586797
O O10 0.249764 0.865350 0.496938
O O11 0.036194 0.783181 0.469738
O O12 0.998111 0.904211 0.542857
O O13 0.552853 0.773807 0.179390
O O14 0.698553 0.884971 0.124781
O O15 0.808113 0.753776 0.129750
O O16 0.970202 0.336543 0.902887
O O17 0.750000 0.000000 0.050262
#
# Coordination Sequence:
#
# PCOD9420678 Si02
#       8
#     8   8   8   8   8   8   8   8
#     4  10  21  31  51  79 117 151 176 226 288 344
#     4  10  20  36  56  77 105 148 190 234 269 316
#     4  10  20  31  56  88 109 142 181 222 295 342
#     4   9  22  34  55  81 101 147 195 232 280 323
#     4  10  20  33  48  81 117 149 179 222 291 348
#     4  10  18  34  57  79 114 140 187 236 273 340
#     4  11  19  34  57  81 114 140 188 244 275 337
#     4  10  20  35  53  79 116 146 176 232 285 348
#
# _framework density 18.732780000000002
#
# number of rings (size 3 to 8) (size 9 to 14) (size 15 to 20)
#    0.000    2.000    2.500    1.500    1.750    0.000 
#    0.000    0.000    0.000   25.500    0.000    0.000 
#    0.000    0.000    0.000    0.000    0.000    0.000 
#
# Total GULP energy -356461.408061 kJ/mol
# GULP energy per Si atom -5569.709501 kJ/mol
# Density = 1.869014 g / cm^3
# Si number density = 18.732780 Si / 1000 Ang^3
#
#
#
# Elastic Constant Matrix: (Units=GPa)
#
#
# Indices 1 2 3 4 5 6 
#
# 1 77.0200 19.3731 24.8032 0.0000 0.0000 0.0000
# 2 19.3731 48.3059 8.9162 0.0000 0.0000 0.0000
# 3 24.8032 8.9162 75.1112 0.0000 0.0000 0.0000
# 4 0.0000 0.0000 0.0000 9.6181 0.0000 0.0000
# 5 0.0000 0.0000 0.0000 0.0000 29.4344 0.0000
# 6 0.0000 0.0000 0.0000 0.0000 0.0000 17.1392
#
#
#
# Elastic Compliance Matrix: (Units=1/GPa)
#
#
# Indices 1 2 3 4 5 6 
#
# 1 0.015844 -0.005509 -0.004578 0.000000 0.000000 0.000000
# 2 -0.005509 0.023081 -0.000921 0.000000 0.000000 0.000000
# 3 -0.004578 -0.000921 0.014935 0.000000 0.000000 0.000000
# 4 0.000000 0.000000 0.000000 0.103970 0.000000 0.000000
# 5 0.000000 0.000000 0.000000 0.000000 0.033974 0.000000
# 6 0.000000 0.000000 0.000000 0.000000 0.000000 0.058346
#
#
# Mechanical properties :
#
#
# Convention : Reuss Voigt Hill
#
# Bulk Modulus (GPa) = 31.40341 34.06914 32.73627
# Shear Modulus (GPa) = 17.68168 21.06133 19.37150
#
# Velocity S-wave (km/s) = 3.07561 3.35670 3.21923
# Velocity P-wave (km/s) = 5.42336 5.76625 5.59743
#
# Compressibility (1/GPa) = 0.03184368
#
# Stress axis : x y z
#
# Youngs Moduli (GPa) = 63.11696 43.32617 66.95864
#
# Poissons Ratio (x) = 0.23869 0.30653
# Poissons Ratio (y) = 0.34772 0.06164
# Poissons Ratio (z) = 0.28894 0.03989
#
# Static dielectric constant tensor:
#      x y z
#    x 1.689040 0.000000 0.000000 
#    y 0.000000 1.638930 0.000000 
#    z 0.000000 0.000000 1.666890 
# 
# From -- ./inp_files/20676.got.cif
#   From: 2010.05.17/outbox.cif.g08.bks.cpg/sg54_11_cif.got.tgz:20676.got - 2010.06.03 13:09:01.
