data_PCOD9420075
_publ_section_title
;
Structure prediction by ZEFSAII (Michael W. Deem and Ramdas Pophale) SiO2 
 PCOD9420075
Probable space group: P M N A
;
_chemical_formula_sum "Si O2"
_cell_formula_units_Z 32
_cell_length_a 11.402829
_cell_length_b 15.285369
_cell_length_c 7.145118
_cell_angle_alpha 90.000000
_cell_angle_beta 90.000000
_cell_angle_gamma 90.000000
_cell_volume 1245.368694
_symmetry_space_group_name_H-M "P M N A"
_symmetry_group_IT_number 53
_symmetry_cell_setting 'orthorhombic'
loop_
_space_group_symop_operation_xyz
x,y,z
1/2-x,-y,1/2+z
x,-y,-z
1/2-x,y,1/2-z
-x,-y,-z
1/2+x,y,1/2-z
-x,y,z
1/2+x,-y,1/2+z
loop_
_atom_site_type_symbol
_atom_site_label
_atom_site_fract_x
_atom_site_fract_y
_atom_site_fract_z
Si Si1 0.126376 0.970011 0.217827
Si Si2 0.372121 0.835756 0.846910
Si Si3 0.127702 0.395659 0.983056
Si Si4 0.626470 0.331023 0.945283
O O1 0.250000 0.922831 0.250000
O O2 0.130559 0.058879 0.342874
O O3 0.000000 0.926801 0.252588
O O4 0.125408 0.000000 0.000000
O O5 0.250000 0.812281 0.750000
O O6 0.500000 0.817527 0.753598
O O7 0.372244 0.773813 0.027749
O O8 0.127405 0.362309 0.768164
O O9 0.257000 0.365691 0.045660
O O10 0.000000 0.365693 0.059768
O O11 0.128028 0.500000 0.000000
O O12 0.500000 0.362459 0.021482
#
# Coordination Sequence:
#
# PCOD9420075 Si02
#       4
#     8   8   8   8
#     4   9  18  34  60  92 124 159 203 252 306 371
#     4   9  18  34  57  84 116 154 196 246 302 360
#     4   9  18  34  56  82 113 149 195 249 304 362
#     4   9  18  34  56  82 113 151 196 245 300 360
#
# _framework density 25.6952
#
# number of rings (size 3 to 8) (size 9 to 14) (size 15 to 20)
#    0.000    3.000    0.000    0.000    0.000    2.000 
#    4.500    0.000   22.000    0.000    0.000    0.000 
#    0.000    0.000    0.000    0.000    0.000    0.000 
#
# Total GULP energy -178277.684465 kJ/mol
# GULP energy per Si atom -5571.177640 kJ/mol
# Density = 2.563672 g / cm^3
# Si number density = 25.695200 Si / 1000 Ang^3
#
#
#
# Elastic Constant Matrix: (Units=GPa)
#
#
# Indices 1 2 3 4 5 6 
#
# 1 377.1766 44.1763 31.0347 0.0000 0.0000 0.0000
# 2 44.1763 109.0753 57.1693 0.0000 0.0000 0.0000
# 3 31.0347 57.1693 121.6464 0.0000 0.0000 0.0000
# 4 0.0000 0.0000 0.0000 47.6577 0.0000 0.0000
# 5 0.0000 0.0000 0.0000 0.0000 -5.7693 0.0000
# 6 0.0000 0.0000 0.0000 0.0000 0.0000 27.2120
#
#
#
# Elastic Compliance Matrix: (Units=1/GPa)
#
#
# Indices 1 2 3 4 5 6 
#
# 1 0.002789 -0.001004 -0.000240 0.000000 0.000000 0.000000
# 2 -0.001004 0.012526 -0.005630 0.000000 0.000000 0.000000
# 3 -0.000240 -0.005630 0.010928 0.000000 0.000000 0.000000
# 4 0.000000 0.000000 0.000000 0.020983 0.000000 0.000000
# 5 0.000000 0.000000 0.000000 0.000000 -0.173332 0.000000
# 6 0.000000 0.000000 0.000000 0.000000 0.000000 0.036748
#
#
# Mechanical properties :
#
#
# Convention : Reuss Voigt Hill
#
# Bulk Modulus (GPa) = 80.03777 96.96211 88.49994
# Shear Modulus (GPa) = -69.98282 45.52128 -12.23077
#
# Velocity S-wave (km/s) = -5.22445 4.21359 -2.18410
# Velocity P-wave (km/s) = 2.27522 7.84155 5.30628
#
# Compressibility (1/GPa) = 0.01249410
#
# Stress axis : x y z
#
# Youngs Moduli (GPa) = 358.60746 79.83649 91.50951
#
# Poissons Ratio (x) = 0.08014 0.02193
# Poissons Ratio (y) = 0.35996 0.51524
# Poissons Ratio (z) = 0.08596 0.44952
#
# Static dielectric constant tensor:
#      x y z
#    x 2.094100 0.000000 0.000000 
#    y 0.000000 1.944570 0.000000 
#    z 0.000000 0.000000 2.046950 
# 
# From -- ./inp_files/7320.got.cif
#   From: 2010.05.17/outbox.cif.g08.bks.cpg/sg53_4_cif.got.tgz:7320.got - 2010.06.03 12:45:16.
