data_PCOD9420844
_publ_section_title
;
Structure prediction by ZEFSAII (Michael W. Deem and Ramdas Pophale) SiO2 
 PCOD9420844
Probable space group: P C C A
;
_chemical_formula_sum "Si O2"
_cell_formula_units_Z 52
_cell_length_a 5.194036
_cell_length_b 24.161197
_cell_length_c 34.116537
_cell_angle_alpha 90.000000
_cell_angle_beta 90.000000
_cell_angle_gamma 90.000000
_cell_volume 4281.425028
_symmetry_space_group_name_H-M "P C C A"
_symmetry_group_IT_number 54
_symmetry_cell_setting 'orthorhombic'
loop_
_space_group_symop_operation_xyz
x,y,z
1/2-x,-y,z
1/2+x,-y,1/2-z
-x,y,1/2-z
-x,-y,-z
1/2+x,y,-z
1/2-x,y,1/2+z
x,-y,1/2+z
loop_
_atom_site_type_symbol
_atom_site_label
_atom_site_fract_x
_atom_site_fract_y
_atom_site_fract_z
Si Si1 0.250037 0.067256 0.726426
Si Si2 0.260900 0.798021 0.972176
Si Si3 0.253450 0.898626 0.413168
Si Si4 0.750000 0.000000 0.026886
Si Si5 0.806348 0.558466 0.026766
Si Si6 0.246730 0.932612 0.134691
Si Si7 0.189993 0.325235 0.474128
O O1 0.500000 0.086223 0.750000
O O2 0.249952 0.081679 0.680704
O O3 0.000000 0.086209 0.750000
O O4 0.250000 0.000000 0.727350
O O5 0.250264 0.841531 0.937044
O O6 0.242005 0.734922 0.956253
O O7 0.520826 0.805202 0.997809
O O8 0.506106 0.908066 0.387141
O O9 0.006074 0.908870 0.386076
O O10 0.250846 0.946445 0.445873
O O11 0.500000 0.000000 0.000000
O O12 0.750000 0.500000 0.047713
O O13 0.593247 0.558326 0.991384
O O14 0.752323 0.617109 0.047650
O O15 0.250000 0.000000 0.130920
O O16 0.397397 0.326603 0.510109
#
# Coordination Sequence:
#
# PCOD9420844 Si02
#       7
#     8   8   8   4   8   8   8
#     4   9  17  29  46  64  78  92 106 123 157 216
#     4  10  19  31  41  51  67  92 127 159 185 216
#     4  12  21  32  43  56  72  94 118 153 188 216
#     4  12  22  32  42  52  66  90 122 154 188 218
#     4   8  12  18  29  46  64  80 100 130 173 218
#     4  11  20  33  45  60  78  92 109 139 182 220
#     4   8  14  23  35  47  62  84 110 143 179 211
#
# _framework density 12.145489
#
# number of rings (size 3 to 8) (size 9 to 14) (size 15 to 20)
#    0.000    2.154    1.538    3.692    0.000    2.462 
#    0.000    0.000    0.000    0.000    0.000    0.000 
#    0.000    0.000    0.000    0.000    0.000    0.000 
#
# Total GULP energy -289564.365084 kJ/mol
# GULP energy per Si atom -5568.545482 kJ/mol
# Density = 1.211785 g / cm^3
# Si number density = 12.145489 Si / 1000 Ang^3
#
#
#
# Elastic Constant Matrix: (Units=GPa)
#
#
# Indices 1 2 3 4 5 6 
#
# 1 103.1139 13.8590 38.7303 0.0000 0.0000 0.0000
# 2 13.8590 99.0081 33.8934 0.0000 0.0000 0.0000
# 3 38.7303 33.8934 70.8046 0.0000 0.0000 0.0000
# 4 0.0000 0.0000 0.0000 -7.3711 0.0000 0.0000
# 5 0.0000 0.0000 0.0000 0.0000 34.8951 0.0000
# 6 0.0000 0.0000 0.0000 0.0000 0.0000 7.3645
#
#
#
# Elastic Compliance Matrix: (Units=1/GPa)
#
#
# Indices 1 2 3 4 5 6 
#
# 1 0.012245 0.000692 -0.007030 0.000000 0.000000 0.000000
# 2 0.000692 0.012119 -0.006180 0.000000 0.000000 0.000000
# 3 -0.007030 -0.006180 0.020927 0.000000 0.000000 0.000000
# 4 0.000000 0.000000 0.000000 -0.135666 0.000000 0.000000
# 5 0.000000 0.000000 0.000000 0.000000 0.028657 0.000000
# 6 0.000000 0.000000 0.000000 0.000000 0.000000 0.135787
#
#
# Mechanical properties :
#
#
# Convention : Reuss Voigt Hill
#
# Bulk Modulus (GPa) = 49.36642 49.54357 49.45499
# Shear Modulus (GPa) = 47.23372 19.40729 33.32050
#
# Velocity S-wave (km/s) = 6.24294 4.00171 5.24347
# Velocity P-wave (km/s) = 9.62808 7.88872 8.80147
#
# Compressibility (1/GPa) = 0.02025669
#
# Stress axis : x y z
#
# Youngs Moduli (GPa) = 81.66367 82.51629 47.78542
#
# Poissons Ratio (x) = -0.05713 0.33592
# Poissons Ratio (y) = -0.05654 0.29531
# Poissons Ratio (z) = 0.57407 0.50994
#
# Static dielectric constant tensor:
#      x y z
#    x 1.422100 0.000000 0.000000 
#    y 0.000000 1.433690 0.000000 
#    z 0.000000 0.000000 1.348790 
# 
# From -- ./inp_files/27331.got.cif
#   From: 2010.05.17/outbox.cif.g08.bks.cpg/sg54_14_cif.got.tgz:27331.got - 2010.06.03 13:09:01.
