data_PCOD9420797
_publ_section_title
;
Structure prediction by ZEFSAII (Michael W. Deem and Ramdas Pophale) SiO2 
 PCOD9420797
Probable space group: P C C A
;
_chemical_formula_sum "Si O2"
_cell_formula_units_Z 48
_cell_length_a 13.900054
_cell_length_b 14.506817
_cell_length_c 11.390558
_cell_angle_alpha 90.000000
_cell_angle_beta 90.000000
_cell_angle_gamma 90.000000
_cell_volume 2296.855215
_symmetry_space_group_name_H-M "P C C A"
_symmetry_group_IT_number 54
_symmetry_cell_setting 'orthorhombic'
loop_
_space_group_symop_operation_xyz
x,y,z
1/2-x,-y,z
1/2+x,-y,1/2-z
-x,y,1/2-z
-x,-y,-z
1/2+x,y,-z
1/2-x,y,1/2+z
x,-y,1/2+z
loop_
_atom_site_type_symbol
_atom_site_label
_atom_site_fract_x
_atom_site_fract_y
_atom_site_fract_z
Si Si1 0.900644 0.215675 0.034850
Si Si2 0.294742 0.773295 0.832656
Si Si3 0.946296 0.546644 0.879424
Si Si4 0.402254 0.641083 0.671156
Si Si5 0.279074 0.895579 0.640163
Si Si6 0.393394 0.757294 0.075517
O O1 0.916500 0.302875 0.949028
O O2 0.860853 0.134681 0.951647
O O3 0.001391 0.200413 0.097772
O O4 0.812984 0.236494 0.120892
O O5 0.321127 0.694892 0.740816
O O6 0.312330 0.871638 0.771340
O O7 0.368029 0.762820 0.938557
O O8 0.874008 0.463246 0.853819
O O9 0.000000 0.555079 0.750000
O O10 0.901793 0.647766 0.898626
O O11 0.000000 0.500000 0.000000
O O12 0.500000 0.643193 0.750000
O O13 0.189902 0.823385 0.626715
O O14 0.250000 0.000000 0.623506
#
# Coordination Sequence:
#
# PCOD9420797 Si02
#       6
#     8   8   8   8   8   8
#     4  10  21  39  69  95 130 173 232 283 355 427
#     4  10  22  41  64  93 135 179 226 290 346 433
#     4  11  22  38  71 105 142 189 239 287 350 441
#     4  10  18  39  67  93 134 187 222 274 352 422
#     4  10  25  43  63  97 130 171 233 303 363 433
#     4  11  22  42  69  96 134 183 224 295 363 421
#
# _framework density 20.898139
#
# number of rings (size 3 to 8) (size 9 to 14) (size 15 to 20)
#    0.000    1.667    3.333    1.000    2.333    3.333 
#    0.000   10.833    0.000    0.000    0.000    0.000 
#    0.000    0.000    0.000    0.000    0.000    0.000 
#
# Total GULP energy -267367.555882 kJ/mol
# GULP energy per Si atom -5570.157414 kJ/mol
# Density = 2.085057 g / cm^3
# Si number density = 20.898139 Si / 1000 Ang^3
#
#
#
# Elastic Constant Matrix: (Units=GPa)
#
#
# Indices 1 2 3 4 5 6 
#
# 1 75.5622 22.7168 5.0468 0.0000 0.0000 0.0000
# 2 22.7168 164.1140 22.9294 0.0000 0.0000 0.0000
# 3 5.0468 22.9294 70.4117 0.0000 0.0000 0.0000
# 4 0.0000 0.0000 0.0000 13.2065 0.0000 0.0000
# 5 0.0000 0.0000 0.0000 0.0000 22.1889 0.0000
# 6 0.0000 0.0000 0.0000 0.0000 0.0000 27.9113
#
#
#
# Elastic Compliance Matrix: (Units=1/GPa)
#
#
# Indices 1 2 3 4 5 6 
#
# 1 0.013819 -0.001859 -0.000385 0.000000 0.000000 0.000000
# 2 -0.001859 0.006634 -0.002027 0.000000 0.000000 0.000000
# 3 -0.000385 -0.002027 0.014890 0.000000 0.000000 0.000000
# 4 0.000000 0.000000 0.000000 0.075720 0.000000 0.000000
# 5 0.000000 0.000000 0.000000 0.000000 0.045067 0.000000
# 6 0.000000 0.000000 0.000000 0.000000 0.000000 0.035828
#
#
# Mechanical properties :
#
#
# Convention : Reuss Voigt Hill
#
# Bulk Modulus (GPa) = 37.31314 45.71932 41.51623
# Shear Modulus (GPa) = 23.87393 29.95435 26.91414
#
# Velocity S-wave (km/s) = 3.38360 3.79007 3.59259
# Velocity P-wave (km/s) = 5.75834 6.40918 6.09246
#
# Compressibility (1/GPa) = 0.02680021
#
# Stress axis : x y z
#
# Youngs Moduli (GPa) = 72.36552 150.74174 67.15962
#
# Poissons Ratio (x) = 0.28023 0.02586
# Poissons Ratio (y) = 0.13453 0.13614
# Poissons Ratio (z) = 0.02787 0.30556
#
# Static dielectric constant tensor:
#      x y z
#    x 1.749790 0.000000 0.000000 
#    y 0.000000 1.729150 0.000000 
#    z 0.000000 0.000000 1.885870 
# 
# From -- ./inp_files/8361.got.cif
#   From: 2010.05.17/outbox.cif.g08.bks.cpg/sg54_5_cif.got.tgz:8361.got - 2010.06.03 13:09:01.
