data_PCOD9420811
_publ_section_title
;
Structure prediction by ZEFSAII (Michael W. Deem and Ramdas Pophale) SiO2 
 PCOD9420811
Probable space group: P C C A
;
_chemical_formula_sum "Si O2"
_cell_formula_units_Z 36
_cell_length_a 15.157529
_cell_length_b 10.707589
_cell_length_c 9.794096
_cell_angle_alpha 90.000000
_cell_angle_beta 90.000000
_cell_angle_gamma 90.000000
_cell_volume 1589.587567
_symmetry_space_group_name_H-M "P C C A"
_symmetry_group_IT_number 54
_symmetry_cell_setting 'orthorhombic'
loop_
_space_group_symop_operation_xyz
x,y,z
1/2-x,-y,z
1/2+x,-y,1/2-z
-x,y,1/2-z
-x,-y,-z
1/2+x,y,-z
1/2-x,y,1/2+z
x,-y,1/2+z
loop_
_atom_site_type_symbol
_atom_site_label
_atom_site_fract_x
_atom_site_fract_y
_atom_site_fract_z
Si Si1 0.000000 0.335276 0.750000
Si Si2 0.468949 0.094467 0.388406
Si Si3 0.291264 0.293074 0.021470
Si Si4 0.724940 0.135552 0.206368
Si Si5 0.341554 0.531467 0.893834
O O1 0.079996 0.420369 0.801460
O O2 0.986708 0.232383 0.872587
O O3 0.500000 0.029218 0.250000
O O4 0.500000 0.000000 0.500000
O O5 0.365215 0.117340 0.378060
O O6 0.250000 0.500000 0.311561
O O7 0.295113 0.190358 0.900935
O O8 0.356897 0.406844 0.982566
O O9 0.196065 0.361555 0.994647
O O10 0.708890 0.229678 0.331490
O O11 0.750000 0.000000 0.261782
#
# Coordination Sequence:
#
# PCOD9420811 Si02
#       5
#     4   8   8   8   8
#     4  10  18  42  80 108 154 208 258 330 408 464
#     4  10  24  42  70 107 159 192 251 315 390 475
#     4   9  22  41  67 107 144 190 255 321 379 469
#     4  12  24  41  75 104 146 200 254 314 403 461
#     4   8  19  41  72 106 154 193 264 326 388 471
#
# _framework density 22.647383999999999
#
# number of rings (size 3 to 8) (size 9 to 14) (size 15 to 20)
#    2.000    0.000    2.222    0.667    6.222    3.556 
#    0.000    1.111    7.333    0.000    0.000    0.000 
#    0.000    0.000    0.000    0.000    0.000    0.000 
#
# Total GULP energy -200560.311096 kJ/mol
# GULP energy per Si atom -5571.119753 kJ/mol
# Density = 2.259584 g / cm^3
# Si number density = 22.647384 Si / 1000 Ang^3
#
#
#
# Elastic Constant Matrix: (Units=GPa)
#
#
# Indices 1 2 3 4 5 6 
#
# 1 94.3872 64.7255 51.9047 0.0000 0.0000 0.0000
# 2 64.7255 176.0391 87.5921 0.0000 0.0000 0.0000
# 3 51.9047 87.5921 125.2118 0.0000 0.0000 0.0000
# 4 0.0000 0.0000 0.0000 -309.0131 0.0000 0.0000
# 5 0.0000 0.0000 0.0000 0.0000 25.0528 0.0000
# 6 0.0000 0.0000 0.0000 0.0000 0.0000 13.4604
#
#
#
# Elastic Compliance Matrix: (Units=1/GPa)
#
#
# Indices 1 2 3 4 5 6 
#
# 1 0.015189 -0.003761 -0.003666 0.000000 0.000000 0.000000
# 2 -0.003761 0.009645 -0.005188 0.000000 0.000000 0.000000
# 3 -0.003666 -0.005188 0.013135 0.000000 0.000000 0.000000
# 4 0.000000 0.000000 0.000000 -0.003236 0.000000 0.000000
# 5 0.000000 0.000000 0.000000 0.000000 0.039916 0.000000
# 6 0.000000 0.000000 0.000000 0.000000 0.000000 0.074292
#
#
# Mechanical properties :
#
#
# Convention : Reuss Voigt Hill
#
# Bulk Modulus (GPa) = 78.49009 89.34252 83.91631
# Shear Modulus (GPa) = 28.02424 -41.33892 -6.65734
#
# Velocity S-wave (km/s) = 3.52151 -4.27702 -1.71638
# Velocity P-wave (km/s) = 7.16013 3.89159 5.76246
#
# Compressibility (1/GPa) = 0.01274046
#
# Stress axis : x y z
#
# Youngs Moduli (GPa) = 65.83523 103.68349 76.13106
#
# Poissons Ratio (x) = 0.38994 0.27907
# Poissons Ratio (y) = 0.24760 0.39497
# Poissons Ratio (z) = 0.24133 0.53791
#
# Static dielectric constant tensor:
#      x y z
#    x 1.904480 0.000000 0.000000 
#    y 0.000000 1.903050 0.000000 
#    z 0.000000 0.000000 1.854000 
# 
# From -- ./inp_files/9335.got.cif
#   From: 2010.05.17/outbox.cif.g08.bks.cpg/sg54_5_cif.got.tgz:9335.got - 2010.06.03 13:09:01.
