data_PCOD9420889
_publ_section_title
;
Structure prediction by ZEFSAII (Michael W. Deem and Ramdas Pophale) SiO2 
 PCOD9420889
Probable space group: P C C A
;
_chemical_formula_sum "Si O2"
_cell_formula_units_Z 52
_cell_length_a 28.156959
_cell_length_b 11.258327
_cell_length_c 9.234926
_cell_angle_alpha 90.000000
_cell_angle_beta 90.000000
_cell_angle_gamma 90.000000
_cell_volume 2927.473867
_symmetry_space_group_name_H-M "P C C A"
_symmetry_group_IT_number 54
_symmetry_cell_setting 'orthorhombic'
loop_
_space_group_symop_operation_xyz
x,y,z
1/2-x,-y,z
1/2+x,-y,1/2-z
-x,y,1/2-z
-x,-y,-z
1/2+x,y,-z
1/2-x,y,1/2+z
x,-y,1/2+z
loop_
_atom_site_type_symbol
_atom_site_label
_atom_site_fract_x
_atom_site_fract_y
_atom_site_fract_z
Si Si1 0.750000 0.000000 0.349190
Si Si2 0.896388 0.877176 0.163178
Si Si3 0.970233 0.073608 0.118339
Si Si4 0.891030 0.768742 0.478150
Si Si5 0.817605 0.929764 0.598230
Si Si6 0.453042 0.350273 0.436184
Si Si7 0.559158 0.561725 0.872478
O O1 0.716544 0.071215 0.459193
O O2 0.785541 0.067873 0.241103
O O3 0.935220 0.978580 0.192637
O O4 0.881995 0.819752 0.316151
O O5 0.925831 0.776370 0.072295
O O6 0.851870 0.951603 0.096594
O O7 0.000000 0.127732 0.250000
O O8 0.938593 0.168354 0.035802
O O9 0.000000 0.000000 0.000000
O O10 0.850851 0.815783 0.584401
O O11 0.900316 0.630419 0.460151
O O12 0.444575 0.426392 0.579555
O O13 0.432983 0.421430 0.297186
O O14 0.509917 0.366010 0.408611
#
# Coordination Sequence:
#
# PCOD9420889 Si02
#       7
#     4   8   8   8   8   8   8
#     4  10  20  36  56  76 108 124 158 208 262 340
#     4  10  19  32  52  72 104 135 170 211 251 303
#     4  11  20  30  44  69 102 140 169 200 253 296
#     4  10  19  33  50  74 104 132 173 213 248 302
#     4  10  20  35  54  82 102 129 162 203 270 323
#     4   9  18  33  51  69 101 142 182 211 246 279
#     4   9  18  34  49  71 101 142 181 215 242 283
#
# _framework density 17.762754999999999
#
# number of rings (size 3 to 8) (size 9 to 14) (size 15 to 20)
#    0.000    2.154    3.077    0.923    2.154    0.000 
#   11.077    0.000    0.000    0.000    0.000    6.462 
#    0.000    0.000    0.000    0.000    0.000    0.000 
#
# Total GULP energy -289482.428643 kJ/mol
# GULP energy per Si atom -5566.969782 kJ/mol
# Density = 1.772233 g / cm^3
# Si number density = 17.762755 Si / 1000 Ang^3
#
#
#
# Elastic Constant Matrix: (Units=GPa)
#
#
# Indices 1 2 3 4 5 6 
#
# 1 61.9236 10.2870 18.8616 0.0000 0.0000 0.0000
# 2 10.2870 45.2615 5.5862 0.0000 0.0000 0.0000
# 3 18.8616 5.5862 52.2949 0.0000 0.0000 0.0000
# 4 0.0000 0.0000 0.0000 14.3514 0.0000 0.0000
# 5 0.0000 0.0000 0.0000 0.0000 32.0974 0.0000
# 6 0.0000 0.0000 0.0000 0.0000 0.0000 9.9854
#
#
#
# Elastic Compliance Matrix: (Units=1/GPa)
#
#
# Indices 1 2 3 4 5 6 
#
# 1 0.018661 -0.003456 -0.006361 0.000000 0.000000 0.000000
# 2 -0.003456 0.023029 -0.001213 0.000000 0.000000 0.000000
# 3 -0.006361 -0.001213 0.021546 0.000000 0.000000 0.000000
# 4 0.000000 0.000000 0.000000 0.069680 0.000000 0.000000
# 5 0.000000 0.000000 0.000000 0.000000 0.031155 0.000000
# 6 0.000000 0.000000 0.000000 0.000000 0.000000 0.100147
#
#
# Mechanical properties :
#
#
# Convention : Reuss Voigt Hill
#
# Bulk Modulus (GPa) = 24.28692 25.43884 24.86288
# Shear Modulus (GPa) = 16.66644 19.60316 18.13480
#
# Velocity S-wave (km/s) = 3.06646 3.32567 3.19869
# Velocity P-wave (km/s) = 5.12252 5.39438 5.26020
#
# Compressibility (1/GPa) = 0.04117442
#
# Stress axis : x y z
#
# Youngs Moduli (GPa) = 53.58857 43.42332 46.41159
#
# Poissons Ratio (x) = 0.15007 0.29524
# Poissons Ratio (y) = 0.18520 0.05632
# Poissons Ratio (z) = 0.34089 0.05269
#
# Static dielectric constant tensor:
#      x y z
#    x 1.645230 0.000000 0.000000 
#    y 0.000000 1.605790 0.000000 
#    z 0.000000 0.000000 1.635950 
# 
# From -- ./inp_files/5911.got.cif
#   From: 2010.05.17/outbox.cif.g08.bks.cpg/sg54_3_cif.got.tgz:5911.got - 2010.06.03 13:09:01.
