data_PCOD9420946
_publ_section_title
;
Structure prediction by ZEFSAII (Michael W. Deem and Ramdas Pophale) SiO2 
 PCOD9420946
Probable space group: P C C A
;
_chemical_formula_sum "Si O2"
_cell_formula_units_Z 48
_cell_length_a 31.192568
_cell_length_b 10.943548
_cell_length_c 5.242531
_cell_angle_alpha 90.000000
_cell_angle_beta 90.000000
_cell_angle_gamma 90.000000
_cell_volume 1789.576569
_symmetry_space_group_name_H-M "P C C A"
_symmetry_group_IT_number 54
_symmetry_cell_setting 'orthorhombic'
loop_
_space_group_symop_operation_xyz
x,y,z
1/2-x,-y,z
1/2+x,-y,1/2-z
-x,y,1/2-z
-x,-y,-z
1/2+x,y,-z
1/2-x,y,1/2+z
x,-y,1/2+z
loop_
_atom_site_type_symbol
_atom_site_label
_atom_site_fract_x
_atom_site_fract_y
_atom_site_fract_z
Si Si1 0.200699 0.039804 0.356851
Si Si2 0.769388 0.635033 0.273424
Si Si3 0.632015 0.793789 0.333312
Si Si4 0.131514 0.646964 0.168608
Si Si5 0.455252 0.643390 0.806907
Si Si6 0.955279 0.810709 0.693635
O O1 0.178854 0.150460 0.206430
O O2 0.250000 0.000000 0.393212
O O3 0.184912 0.058990 0.645694
O O4 0.750000 0.500000 0.280053
O O5 0.751448 0.698433 0.527572
O O6 0.819917 0.610275 0.271168
O O7 0.625864 0.754680 0.622413
O O8 0.590727 0.873783 0.245999
O O9 0.630673 0.684703 0.126119
O O10 0.088671 0.572518 0.241275
O O11 0.500000 0.576285 0.750000
O O12 0.455593 0.751211 0.587893
O O13 0.455662 0.703216 0.088147
O O14 0.000000 0.879236 0.750000
#
# Coordination Sequence:
#
# PCOD9420946 Si02
#       6
#     8   8   8   8   8   8
#     4  10  21  38  50  65  94 137 172 202 265 307
#     4  10  21  38  53  73 106 143 173 202 257 305
#     4  10  19  33  53  75 102 129 172 220 246 295
#     4  10  19  33  52  82 102 128 177 216 248 295
#     4   8  14  25  44  71 104 128 153 203 258 297
#     4   8  14  25  44  70  98 127 155 199 258 299
#
# _framework density 26.821985000000002
#
# number of rings (size 3 to 8) (size 9 to 14) (size 15 to 20)
#    0.000    2.667    0.000    2.000    0.000    0.000 
#   18.000    0.000    0.000    1.000    0.000    4.667 
#    0.000    0.000    0.000    0.000    0.000    0.333 
#
# Total GULP energy -267390.648687 kJ/mol
# GULP energy per Si atom -5570.638514 kJ/mol
# Density = 2.676094 g / cm^3
# Si number density = 26.821985 Si / 1000 Ang^3
#
#
#
# Elastic Constant Matrix: (Units=GPa)
#
#
# Indices 1 2 3 4 5 6 
#
# 1 246.6989 24.1800 15.9792 0.0000 0.0000 0.0000
# 2 24.1800 14.0313 12.1346 0.0000 0.0000 0.0000
# 3 15.9792 12.1346 201.0448 0.0000 0.0000 0.0000
# 4 0.0000 0.0000 0.0000 42.5273 0.0000 0.0000
# 5 0.0000 0.0000 0.0000 0.0000 117.3773 0.0000
# 6 0.0000 0.0000 0.0000 0.0000 0.0000 -16.4792
#
#
#
# Elastic Compliance Matrix: (Units=1/GPa)
#
#
# Indices 1 2 3 4 5 6 
#
# 1 0.004880 -0.008520 0.000126 0.000000 0.000000 0.000000
# 2 -0.008520 0.090067 -0.004759 0.000000 0.000000 0.000000
# 3 0.000126 -0.004759 0.005251 0.000000 0.000000 0.000000
# 4 0.000000 0.000000 0.000000 0.023514 0.000000 0.000000
# 5 0.000000 0.000000 0.000000 0.000000 0.008520 0.000000
# 6 0.000000 0.000000 0.000000 0.000000 0.000000 -0.060683
#
#
# Mechanical properties :
#
#
# Convention : Reuss Voigt Hill
#
# Bulk Modulus (GPa) = 13.53295 62.92920 38.23108
# Shear Modulus (GPa) = 40.82116 55.98383 48.40249
#
# Velocity S-wave (km/s) = 3.90542 4.57358 4.25265
# Velocity P-wave (km/s) = 5.03913 7.16959 6.19661
#
# Compressibility (1/GPa) = 0.07389371
#
# Stress axis : x y z
#
# Youngs Moduli (GPa) = 204.90199 11.10287 190.43178
#
# Poissons Ratio (x) = 0.09459 -0.02406
# Poissons Ratio (y) = 1.74568 0.90628
# Poissons Ratio (z) = -0.02588 0.05284
#
# Static dielectric constant tensor:
#      x y z
#    x 2.224080 0.000000 0.000000 
#    y 0.000000 1.786730 0.000000 
#    z 0.000000 0.000000 2.298230 
# 
# From -- ./inp_files/2135.got.cif
#   From: 2010.05.17/outbox.cif.g08.bks.cpg/sg54_2_cif.got.tgz:2135.got - 2010.06.03 13:09:01.
