data_PCOD9420909
_publ_section_title
;
Structure prediction by ZEFSAII (Michael W. Deem and Ramdas Pophale) SiO2 
 PCOD9420909
Probable space group: P C C A
;
_chemical_formula_sum "Si O2"
_cell_formula_units_Z 36
_cell_length_a 5.155753
_cell_length_b 17.192640
_cell_length_c 19.731115
_cell_angle_alpha 90.000000
_cell_angle_beta 90.000000
_cell_angle_gamma 90.000000
_cell_volume 1748.985868
_symmetry_space_group_name_H-M "P C C A"
_symmetry_group_IT_number 54
_symmetry_cell_setting 'orthorhombic'
loop_
_space_group_symop_operation_xyz
x,y,z
1/2-x,-y,z
1/2+x,-y,1/2-z
-x,y,1/2-z
-x,-y,-z
1/2+x,y,-z
1/2-x,y,1/2+z
x,-y,1/2+z
loop_
_atom_site_type_symbol
_atom_site_label
_atom_site_fract_x
_atom_site_fract_y
_atom_site_fract_z
Si Si1 0.489316 0.913565 0.529894
Si Si2 0.841668 0.670271 0.549065
Si Si3 0.042875 0.874488 0.322715
Si Si4 0.250000 0.500000 0.951959
Si Si5 0.536897 0.772087 0.324779
O O1 0.240898 0.871860 0.499397
O O2 0.491187 0.921852 0.609772
O O3 0.500000 0.000000 0.500000
O O4 0.572796 0.679809 0.506841
O O5 0.791778 0.583756 0.581875
O O6 0.934954 0.722748 0.611886
O O7 0.832710 0.803544 0.328250
O O8 0.000000 0.913209 0.250000
O O9 0.337477 0.844819 0.324194
O O10 0.500000 0.500000 0.000000
O O11 0.500000 0.734574 0.250000
#
# Coordination Sequence:
#
# PCOD9420909 Si02
#       5
#     8   8   8   4   8
#     4  10  21  37  55  79 106 133 170 219 264 310
#     4  10  19  32  53  79 105 141 182 219 262 314
#     4  10  21  37  55  76 106 142 173 212 271 328
#     4   8  16  30  48  72 104 136 172 214 254 302
#     4  10  21  35  53  79 110 140 175 222 269 317
#
# _framework density 20.583356999999999
#
# number of rings (size 3 to 8) (size 9 to 14) (size 15 to 20)
#    0.000    2.222    0.000    2.667    0.000    5.333 
#    0.000    4.444    0.000   12.000    0.000    0.000 
#    0.000    0.000    0.000    0.000    0.000    0.000 
#
# Total GULP energy -200468.527129 kJ/mol
# GULP energy per Si atom -5568.570198 kJ/mol
# Density = 2.053651 g / cm^3
# Si number density = 20.583357 Si / 1000 Ang^3
#
#
#
# Elastic Constant Matrix: (Units=GPa)
#
#
# Indices 1 2 3 4 5 6 
#
# 1 145.5362 -4.8320 9.2720 0.0000 0.0000 0.0000
# 2 -4.8320 34.5872 36.1099 0.0000 0.0000 0.0000
# 3 9.2720 36.1099 175.8734 0.0000 0.0000 0.0000
# 4 0.0000 0.0000 0.0000 2.7417 0.0000 0.0000
# 5 0.0000 0.0000 0.0000 0.0000 22.8718 0.0000
# 6 0.0000 0.0000 0.0000 0.0000 0.0000 0.1368
#
#
#
# Elastic Compliance Matrix: (Units=1/GPa)
#
#
# Indices 1 2 3 4 5 6 
#
# 1 0.006975 0.001729 -0.000723 0.000000 0.000000 0.000000
# 2 0.001729 0.037229 -0.007735 0.000000 0.000000 0.000000
# 3 -0.000723 -0.007735 0.007312 0.000000 0.000000 0.000000
# 4 0.000000 0.000000 0.000000 0.364743 0.000000 0.000000
# 5 0.000000 0.000000 0.000000 0.000000 0.043722 0.000000
# 6 0.000000 0.000000 0.000000 0.000000 0.000000 7.308676
#
#
# Mechanical properties :
#
#
# Convention : Reuss Voigt Hill
#
# Bulk Modulus (GPa) = 26.27528 48.56628 37.42078
# Shear Modulus (GPa) = 0.64145 26.17986 13.41066
#
# Velocity S-wave (km/s) = 0.55885 3.57023 2.55528
# Velocity P-wave (km/s) = 3.63448 6.37507 5.18898
#
# Compressibility (1/GPa) = 0.03805859
#
# Stress axis : x y z
#
# Youngs Moduli (GPa) = 143.37773 26.86043 136.75886
#
# Poissons Ratio (x) = -0.04644 0.09883
# Poissons Ratio (y) = -0.24788 1.05783
# Poissons Ratio (z) = 0.10361 0.20777
#
# Static dielectric constant tensor:
#      x y z
#    x 1.768480 0.000000 0.000000 
#    y 0.000000 1.681930 0.000000 
#    z 0.000000 0.000000 1.737800 
# 
# From -- ./inp_files/10804.got.cif
#   From: 2010.05.17/outbox.cif.g08.bks.cpg/sg54_6_cif.got.tgz:10804.got - 2010.06.03 13:09:01.
