data_PCOD9420279
_publ_section_title
;
Structure prediction by ZEFSAII (Michael W. Deem and Ramdas Pophale) SiO2 
 PCOD9420279
Probable space group: P M N A
;
_chemical_formula_sum "Si O2"
_cell_formula_units_Z 48
_cell_length_a 9.000000
_cell_length_b 15.000000
_cell_length_c 18.000000
_cell_angle_alpha 90.000000
_cell_angle_beta 90.000000
_cell_angle_gamma 90.000000
_cell_volume 2430.000000
_symmetry_space_group_name_H-M "P M N A"
_symmetry_group_IT_number 53
_symmetry_cell_setting 'orthorhombic'
loop_
_space_group_symop_operation_xyz
x,y,z
1/2-x,-y,1/2+z
x,-y,-z
1/2-x,y,1/2-z
-x,-y,-z
1/2+x,y,1/2-z
-x,y,z
1/2+x,-y,1/2+z
loop_
_atom_site_type_symbol
_atom_site_label
_atom_site_fract_x
_atom_site_fract_y
_atom_site_fract_z
Si Si1 0.822421 0.816436 0.906283
Si Si2 0.825352 0.870597 0.076372
Si Si3 0.676762 0.981603 0.827968
Si Si4 0.675742 0.470097 0.917888
Si Si5 0.175039 0.309963 0.830751
Si Si6 0.675612 0.347210 0.169455
O O1 0.753994 0.721098 0.886605
O O2 0.000000 0.816054 0.895460
O O3 0.745950 0.887259 0.851723
O O4 0.792820 0.844831 0.991348
O O5 0.725341 0.949134 0.108480
O O6 0.803766 0.784515 0.128395
O O7 0.000000 0.897329 0.080255
O O8 0.750000 0.010119 0.750000
O O9 0.500000 0.976724 0.820731
O O10 0.500000 0.448938 0.923534
O O11 0.759257 0.386212 0.883685
O O12 0.693360 0.553523 0.862625
O O13 0.726664 0.500000 0.000000
O O14 0.250000 0.311304 0.750000
O O15 0.000000 0.324756 0.821223
O O16 0.750000 0.338970 0.250000
O O17 0.500000 0.327498 0.174227
#
# Coordination Sequence:
#
# PCOD9420279 Si02
#       6
#     8   8   8   8   8   8
#     4  11  23  41  64  89 121 157 196 245 299 355
#     4  10  23  42  63  90 122 157 197 244 298 353
#     4  12  25  41  63  90 121 158 200 245 295 352
#     4  10  22  40  62  89 121 157 198 247 300 353
#     4  11  23  39  61  89 121 158 200 245 295 352
#     4  11  23  39  60  87 120 157 200 247 296 353
#
# _framework density 19.753086
#
# number of rings (size 3 to 8) (size 9 to 14) (size 15 to 20)
#    0.000    1.167    0.000    6.000    0.000    9.000 
#    0.000    0.000    0.000    0.000    0.000    0.000 
#    0.000    0.000    0.000    0.000    0.000    0.000 
#
# Total GULP energy -268635.065714 kJ/mol
# GULP energy per Si atom -5596.563869 kJ/mol
# Density = 1.970813 g / cm^3
# Si number density = 19.753086 Si / 1000 Ang^3
#
#
#
# Elastic Constant Matrix: (Units=GPa)
#
#
# Indices 1 2 3 4 5 6 
#
# 1 82.0945 36.6837 21.0096 0.0000 0.0000 0.0000
# 2 36.6837 40.1601 -15.6811 0.0000 0.0000 0.0000
# 3 21.0096 -15.6811 69.5185 0.0000 0.0000 0.0000
# 4 0.0000 0.0000 0.0000 29.7168 0.0000 0.0000
# 5 0.0000 0.0000 0.0000 0.0000 30.5693 0.0000
# 6 0.0000 0.0000 0.0000 0.0000 0.0000 28.1033
#
#
#
# Elastic Compliance Matrix: (Units=1/GPa)
#
#
# Indices 1 2 3 4 5 6 
#
# 1 0.034610 -0.039146 -0.019290 0.000000 0.000000 0.000000
# 2 -0.039146 0.071582 0.027977 0.000000 0.000000 0.000000
# 3 -0.019290 0.027977 0.026525 0.000000 0.000000 0.000000
# 4 0.000000 0.000000 0.000000 0.033651 0.000000 0.000000
# 5 0.000000 0.000000 0.000000 0.000000 0.032713 0.000000
# 6 0.000000 0.000000 0.000000 0.000000 0.000000 0.035583
#
#
# Mechanical properties :
#
#
# Convention : Reuss Voigt Hill
#
# Bulk Modulus (GPa) = 13.92769 30.64419 22.28594
# Shear Modulus (GPa) = 15.64877 27.66195 21.65536
#
# Velocity S-wave (km/s) = 2.81769 3.74623 3.31464
# Velocity P-wave (km/s) = 4.20143 5.85317 5.09469
#
# Compressibility (1/GPa) = 0.07179942
#
# Stress axis : x y z
#
# Youngs Moduli (GPa) = 28.89337 13.97003 37.70021
#
# Poissons Ratio (x) = 0.54687 0.72723
# Poissons Ratio (y) = 1.13106 -1.05474
# Poissons Ratio (z) = 0.55735 -0.39084
#
# Static dielectric constant tensor:
#      x y z
#    x 1.660500 0.000000 0.000000 
#    y 0.000000 1.677750 0.000000 
#    z 0.000000 0.000000 1.675100 
# 
# From -- ./inp_files/26286.got.cif
#   From: 2010.05.17/outbox.ucp.g08.bks.cvg/sg53_14_cif.got.tgz:26286.got - 2010.06.11 16:32:34.
