data_PCOD9420538
_publ_section_title
;
Structure prediction by ZEFSAII (Michael W. Deem and Ramdas Pophale) SiO2 
 PCOD9420538
Probable space group: P C C A
;
_chemical_formula_sum "Si O2"
_cell_formula_units_Z 32
_cell_length_a 5.272742
_cell_length_b 17.948849
_cell_length_c 13.761234
_cell_angle_alpha 90.000000
_cell_angle_beta 90.000000
_cell_angle_gamma 90.000000
_cell_volume 1302.358369
_symmetry_space_group_name_H-M "P C C A"
_symmetry_group_IT_number 54
_symmetry_cell_setting 'orthorhombic'
loop_
_space_group_symop_operation_xyz
x,y,z
1/2-x,-y,z
1/2+x,-y,1/2-z
-x,y,1/2-z
-x,-y,-z
1/2+x,y,-z
1/2-x,y,1/2+z
x,-y,1/2+z
loop_
_atom_site_type_symbol
_atom_site_label
_atom_site_fract_x
_atom_site_fract_y
_atom_site_fract_z
Si Si1 0.495593 0.955749 0.867063
Si Si2 0.210692 0.791848 0.368035
Si Si3 0.779879 0.733116 0.853471
Si Si4 0.836770 0.423102 0.432102
O O1 0.500000 0.957561 0.750000
O O2 0.425895 0.870232 0.888423
O O3 0.250000 0.000000 0.899995
O O4 0.750000 0.000000 0.896198
O O5 0.247205 0.770596 0.253015
O O6 0.498233 0.782300 0.402476
O O7 0.997984 0.734379 0.401109
O O8 0.848872 0.646987 0.859585
O O9 0.750000 0.500000 0.380379
O O10 0.608814 0.420528 0.512887
#
# Coordination Sequence:
#
# PCOD9420538 Si02
#       4
#     8   8   8   8
#     4  10  18  26  43  68 106 144 165 197 240 303
#     4  10  19  32  48  77 113 136 162 208 258 317
#     4  10  19  32  51  73 105 139 163 208 267 306
#     4  10  21  38  57  76  99 131 177 224 257 299
#
# _framework density 24.570808
#
# number of rings (size 3 to 8) (size 9 to 14) (size 15 to 20)
#    0.000    2.000    2.500    3.000    7.000    0.000 
#    0.000    5.000    0.000    0.000    0.000    0.000 
#    0.000  106.000    0.000    0.000    0.000    0.000 
#
# Total GULP energy -178255.286894 kJ/mol
# GULP energy per Si atom -5570.477715 kJ/mol
# Density = 2.451488 g / cm^3
# Si number density = 24.570808 Si / 1000 Ang^3
#
#
#
# Elastic Constant Matrix: (Units=GPa)
#
#
# Indices 1 2 3 4 5 6 
#
# 1 223.9923 32.8063 -13.8796 0.0000 0.0000 0.0000
# 2 32.8063 162.9364 1.9271 0.0000 0.0000 0.0000
# 3 -13.8796 1.9271 81.6882 0.0000 0.0000 0.0000
# 4 0.0000 0.0000 0.0000 -58.5098 0.0000 0.0000
# 5 0.0000 0.0000 0.0000 0.0000 -249.8706 0.0000
# 6 0.0000 0.0000 0.0000 0.0000 0.0000 39.3801
#
#
#
# Elastic Compliance Matrix: (Units=1/GPa)
#
#
# Indices 1 2 3 4 5 6 
#
# 1 0.004653 -0.000947 0.000813 0.000000 0.000000 0.000000
# 2 -0.000947 0.006332 -0.000310 0.000000 0.000000 0.000000
# 3 0.000813 -0.000310 0.012387 0.000000 0.000000 0.000000
# 4 0.000000 0.000000 0.000000 -0.017091 0.000000 0.000000
# 5 0.000000 0.000000 0.000000 0.000000 -0.004002 0.000000
# 6 0.000000 0.000000 0.000000 0.000000 0.000000 0.025394
#
#
# Mechanical properties :
#
#
# Convention : Reuss Voigt Hill
#
# Bulk Modulus (GPa) = 44.47476 56.70273 50.58874
# Shear Modulus (GPa) = 138.67724 -23.94920 57.36402
#
# Velocity S-wave (km/s) = 7.52080 -3.12541 4.83705
# Velocity P-wave (km/s) = 9.67246 3.17854 7.19929
#
# Compressibility (1/GPa) = 0.02248466
#
# Stress axis : x y z
#
# Youngs Moduli (GPa) = 214.89430 157.93758 80.72900
#
# Poissons Ratio (x) = 0.14950 -0.06563
# Poissons Ratio (y) = 0.20341 0.02504
# Poissons Ratio (z) = -0.17471 0.04899
#
# Static dielectric constant tensor:
#      x y z
#    x 2.044830 0.000000 0.000000 
#    y 0.000000 2.232720 0.000000 
#    z 0.000000 0.000000 1.729230 
# 
# From -- ./inp_files/15667.got.cif
#   From: 2010.05.17/outbox.cif.g08.bks.cpg/sg54_8_cif.got.tgz:15667.got - 2010.06.03 13:09:01.
