data_PCOD9420095
_publ_section_title
;
Structure prediction by ZEFSAII (Michael W. Deem and Ramdas Pophale) SiO2 
 PCOD9420095
Probable space group: P M N A
;
_chemical_formula_sum "Si O2"
_cell_formula_units_Z 64
_cell_length_a 9.000000
_cell_length_b 15.000000
_cell_length_c 24.000000
_cell_angle_alpha 90.000000
_cell_angle_beta 90.000000
_cell_angle_gamma 90.000000
_cell_volume 3240.000000
_symmetry_space_group_name_H-M "P M N A"
_symmetry_group_IT_number 53
_symmetry_cell_setting 'orthorhombic'
loop_
_space_group_symop_operation_xyz
x,y,z
1/2-x,-y,1/2+z
x,-y,-z
1/2-x,y,1/2-z
-x,-y,-z
1/2+x,y,1/2-z
-x,y,z
1/2+x,-y,1/2+z
loop_
_atom_site_type_symbol
_atom_site_label
_atom_site_fract_x
_atom_site_fract_y
_atom_site_fract_z
Si Si1 0.680255 0.199185 0.370601
Si Si2 0.671966 0.153115 0.492304
Si Si3 0.679065 0.093123 0.609654
Si Si4 0.177430 0.045658 0.307541
Si Si5 0.322528 0.613684 0.896350
Si Si6 0.676338 0.257704 0.692192
Si Si7 0.323068 0.417220 0.870077
Si Si8 0.173222 0.364976 0.986294
O O1 0.500000 0.198166 0.368737
O O2 0.731363 0.153777 0.429498
O O3 0.752961 0.141773 0.322086
O O4 0.739732 0.299968 0.372185
O O5 0.500000 0.125087 0.487490
O O6 0.732481 0.100667 0.545617
O O7 0.674791 0.257379 0.509403
O O8 0.500000 0.075603 0.610067
O O9 0.701324 0.186166 0.642755
O O10 0.765925 0.019523 0.644062
O O11 0.250000 0.013728 0.250000
O O12 0.000000 0.048160 0.303926
O O13 0.500000 0.629144 0.899835
O O14 0.296519 0.522695 0.862470
O O15 0.256484 0.600791 0.958604
O O16 0.750000 0.227452 0.750000
O O17 0.500000 0.266480 0.699529
O O18 0.746812 0.351500 0.673730
O O19 0.500000 0.402226 0.870465
O O20 0.254774 0.393181 0.930264
O O21 0.000000 0.392180 0.985903
#
# Coordination Sequence:
#
# PCOD9420095 Si02
#       8
#     8   8   8   8   8   8   8   8
#     4  10  21  40  65  91 121 159 200 248 301 357
#     4   8  16  33  58  89 123 158 194 234 290 354
#     4  10  20  39  64  91 122 156 196 243 294 357
#     4  12  26  44  65  90 118 153 200 251 301 359
#     4  10  21  36  55  85 122 158 197 247 300 352
#     4  11  23  39  60  84 118 158 203 252 302 358
#     4  11  22  35  54  82 119 159 201 246 298 351
#     4  10  18  32  54  84 119 160 203 243 291 351
#
# _framework density 19.753086
#
# number of rings (size 3 to 8) (size 9 to 14) (size 15 to 20)
#    0.000    1.750    1.250    4.500    0.000    6.000 
#    0.000    4.375    0.000    3.000    0.000    0.000 
#    0.000    0.000    0.000    0.000    0.000    0.000 
#
# Total GULP energy -357543.333631 kJ/mol
# GULP energy per Si atom -5586.614588 kJ/mol
# Density = 1.970813 g / cm^3
# Si number density = 19.753086 Si / 1000 Ang^3
#
#
#
# Elastic Constant Matrix: (Units=GPa)
#
#
# Indices 1 2 3 4 5 6 
#
# 1 97.9323 40.3517 19.8209 0.0000 0.0000 0.0000
# 2 40.3517 64.8819 28.1706 0.0000 0.0000 0.0000
# 3 19.8209 28.1706 39.3016 0.0000 0.0000 0.0000
# 4 0.0000 0.0000 0.0000 22.3007 0.0000 0.0000
# 5 0.0000 0.0000 0.0000 0.0000 -8.8126 0.0000
# 6 0.0000 0.0000 0.0000 0.0000 0.0000 23.0268
#
#
#
# Elastic Compliance Matrix: (Units=1/GPa)
#
#
# Indices 1 2 3 4 5 6 
#
# 1 0.013766 -0.008054 -0.001170 0.000000 0.000000 0.000000
# 2 -0.008054 0.027088 -0.015354 0.000000 0.000000 0.000000
# 3 -0.001170 -0.015354 0.037040 0.000000 0.000000 0.000000
# 4 0.000000 0.000000 0.000000 0.044842 0.000000 0.000000
# 5 0.000000 0.000000 0.000000 0.000000 -0.113473 0.000000
# 6 0.000000 0.000000 0.000000 0.000000 0.000000 0.043428
#
#
# Mechanical properties :
#
#
# Convention : Reuss Voigt Hill
#
# Bulk Modulus (GPa) = 34.79696 42.08914 38.44305
# Shear Modulus (GPa) = 44.87269 14.88780 29.88024
#
# Velocity S-wave (km/s) = 4.77139 2.74833 3.89355
# Velocity P-wave (km/s) = 6.92885 5.60580 6.30214
#
# Compressibility (1/GPa) = 0.02873815
#
# Stress axis : x y z
#
# Youngs Moduli (GPa) = 72.64097 36.91673 26.99772
#
# Poissons Ratio (x) = 0.29731 0.03159
# Poissons Ratio (y) = 0.58502 0.41454
# Poissons Ratio (z) = 0.08500 0.56684
#
# Static dielectric constant tensor:
#      x y z
#    x 1.650790 0.000000 0.000000 
#    y 0.000000 1.728190 0.000000 
#    z 0.000000 0.000000 1.697200 
# 
# From -- ./inp_files/34328.got.cif
#   From: 2010.05.17/outbox.ucp.g08.bks.cvg/sg53_18_cif.got.tgz:34328.got - 2010.06.11 16:32:34.
