data_PCOD9420667
_publ_section_title
;
Structure prediction by ZEFSAII (Michael W. Deem and Ramdas Pophale) SiO2 
 PCOD9420667
Probable space group: P C C A
;
_chemical_formula_sum "Si O2"
_cell_formula_units_Z 60
_cell_length_a 9.252913
_cell_length_b 11.712704
_cell_length_c 30.274192
_cell_angle_alpha 90.000000
_cell_angle_beta 90.000000
_cell_angle_gamma 90.000000
_cell_volume 3281.014938
_symmetry_space_group_name_H-M "P C C A"
_symmetry_group_IT_number 54
_symmetry_cell_setting 'orthorhombic'
loop_
_space_group_symop_operation_xyz
x,y,z
1/2-x,-y,z
1/2+x,-y,1/2-z
-x,y,1/2-z
-x,-y,-z
1/2+x,y,-z
1/2-x,y,1/2+z
x,-y,1/2+z
loop_
_atom_site_type_symbol
_atom_site_label
_atom_site_fract_x
_atom_site_fract_y
_atom_site_fract_z
Si Si1 0.884160 0.780325 0.641335
Si Si2 0.421277 0.980713 0.296211
Si Si3 0.529245 0.933552 0.060218
Si Si4 0.968244 0.597088 0.899720
Si Si5 0.442679 0.146581 0.376951
Si Si6 0.360533 0.657114 0.584356
Si Si7 0.378063 0.412265 0.986784
Si Si8 0.750000 0.000000 0.490778
O O1 0.931668 0.853703 0.683571
O O2 0.957573 0.846893 0.600311
O O3 0.712842 0.795371 0.632611
O O4 0.943438 0.651940 0.640474
O O5 0.500000 0.994137 0.250000
O O6 0.250000 0.000000 0.291260
O O7 0.475959 0.070875 0.333372
O O8 0.369848 0.936356 0.038915
O O9 0.565291 0.056162 0.082818
O O10 0.649978 0.920493 0.022118
O O11 0.945812 0.460562 0.903339
O O12 0.805178 0.643770 0.901115
O O13 0.061348 0.639454 0.942111
O O14 0.559128 0.239295 0.392097
O O15 0.354663 0.663082 0.530534
O O16 0.250000 0.500000 0.977155
O O17 0.500000 0.500000 0.000000
#
# Coordination Sequence:
#
# PCOD9420667 Si02
#       8
#     8   8   8   8   8   8   8   4
#     4  10  21  37  57  81 111 144 181 231 282 337
#     4   9  20  41  65  91 113 137 175 225 288 358
#     4  10  20  38  47  73 108 144 187 227 272 326
#     4  10  22  35  52  77 112 151 198 238 279 317
#     4  10  21  37  58  79 113 144 180 231 285 332
#     4  10  21  37  50  77 113 150 196 243 274 322
#     4  10  18  34  49  69 106 153 206 243 270 305
#     4  10  20  32  52  70 108 150 184 222 276 328
#
# _framework density 18.287023999999999
#
# number of rings (size 3 to 8) (size 9 to 14) (size 15 to 20)
#    0.000    2.133    4.000    0.800    5.600    3.200 
#    2.400    0.000    0.000    0.800    0.000    0.000 
#    0.000    0.000    0.000    0.000    0.000    0.000 
#
# Total GULP energy -334396.322624 kJ/mol
# GULP energy per Si atom -5573.272044 kJ/mol
# Density = 1.824540 g / cm^3
# Si number density = 18.287024 Si / 1000 Ang^3
#
#
#
# Elastic Constant Matrix: (Units=GPa)
#
#
# Indices 1 2 3 4 5 6 
#
# 1 79.8043 27.5720 32.5108 0.0000 0.0000 0.0000
# 2 27.5720 80.6134 31.4958 0.0000 0.0000 0.0000
# 3 32.5108 31.4958 85.9234 0.0000 0.0000 0.0000
# 4 0.0000 0.0000 0.0000 18.4626 0.0000 0.0000
# 5 0.0000 0.0000 0.0000 0.0000 34.6380 0.0000
# 6 0.0000 0.0000 0.0000 0.0000 0.0000 25.7910
#
#
#
# Elastic Compliance Matrix: (Units=1/GPa)
#
#
# Indices 1 2 3 4 5 6 
#
# 1 0.015636 -0.003544 -0.004617 0.000000 0.000000 0.000000
# 2 -0.003544 0.015282 -0.004261 0.000000 0.000000 0.000000
# 3 -0.004617 -0.004261 0.014947 0.000000 0.000000 0.000000
# 4 0.000000 0.000000 0.000000 0.054164 0.000000 0.000000
# 5 0.000000 0.000000 0.000000 0.000000 0.028870 0.000000
# 6 0.000000 0.000000 0.000000 0.000000 0.000000 0.038773
#
#
# Mechanical properties :
#
#
# Convention : Reuss Voigt Hill
#
# Bulk Modulus (GPa) = 47.57116 47.72203 47.64660
# Shear Modulus (GPa) = 25.05988 26.09583 25.57785
#
# Velocity S-wave (km/s) = 3.70586 3.78168 3.74396
# Velocity P-wave (km/s) = 6.66193 6.72465 6.69336
#
# Compressibility (1/GPa) = 0.02102114
#
# Stress axis : x y z
#
# Youngs Moduli (GPa) = 63.95490 65.43785 66.90296
#
# Poissons Ratio (x) = 0.23191 0.30890
# Poissons Ratio (y) = 0.22666 0.28505
# Poissons Ratio (z) = 0.29529 0.27881
#
# Static dielectric constant tensor:
#      x y z
#    x 1.625140 0.000000 0.000000 
#    y 0.000000 1.668670 0.000000 
#    z 0.000000 0.000000 1.597560 
# 
# From -- ./inp_files/27903.got.cif
#   From: 2010.05.17/outbox.cif.g08.bks.cpg/sg54_14_cif.got.tgz:27903.got - 2010.06.03 13:09:01.
