data_PCOD9420796
_publ_section_title
;
Structure prediction by ZEFSAII (Michael W. Deem and Ramdas Pophale) SiO2 
 PCOD9420796
Probable space group: P C C A
;
_chemical_formula_sum "Si O2"
_cell_formula_units_Z 44
_cell_length_a 9.873645
_cell_length_b 7.291927
_cell_length_c 23.592865
_cell_angle_alpha 90.000000
_cell_angle_beta 90.000000
_cell_angle_gamma 90.000000
_cell_volume 1698.636701
_symmetry_space_group_name_H-M "P C C A"
_symmetry_group_IT_number 54
_symmetry_cell_setting 'orthorhombic'
loop_
_space_group_symop_operation_xyz
x,y,z
1/2-x,-y,z
1/2+x,-y,1/2-z
-x,y,1/2-z
-x,-y,-z
1/2+x,y,-z
1/2-x,y,1/2+z
x,-y,1/2+z
loop_
_atom_site_type_symbol
_atom_site_label
_atom_site_fract_x
_atom_site_fract_y
_atom_site_fract_z
Si Si1 0.149233 0.654562 0.762708
Si Si2 0.247411 0.276327 0.470812
Si Si3 0.953299 0.211129 0.624980
Si Si4 0.953668 0.341921 0.119982
Si Si5 0.752791 0.274861 0.398072
Si Si6 0.750000 0.000000 0.710942
O O1 0.250000 0.500000 0.743937
O O2 0.187941 0.853913 0.745061
O O3 0.000000 0.591859 0.750000
O O4 0.152019 0.694231 0.830195
O O5 0.250000 0.500000 0.470768
O O6 0.366632 0.186267 0.433242
O O7 0.255336 0.220613 0.535610
O O8 0.106412 0.255782 0.437130
O O9 0.872479 0.096998 0.673586
O O10 0.954484 0.436509 0.624952
O O11 0.115612 0.183575 0.625056
O O12 0.099237 0.252530 0.129187
O O13 0.750000 0.500000 0.397622
#
# Coordination Sequence:
#
# PCOD9420796 Si02
#       6
#     8   8   8   8   8   4
#     4  12  27  51  79 104 135 180 229 287 354 419
#     4   9  15  30  59  92 133 185 235 280 336 398
#     4  10  19  35  64  90 136 186 222 278 347 402
#     4  10  18  39  64  95 137 178 227 286 342 404
#     4   9  18  29  58 102 133 178 241 284 331 399
#     4  12  24  48  72 102 138 180 222 284 354 420
#
# _framework density 25.903123999999998
#
# number of rings (size 3 to 8) (size 9 to 14) (size 15 to 20)
#    0.000    1.818    3.636    1.636    0.000    7.273 
#    3.273    0.909    0.000    0.000    0.000    0.000 
#    0.000    0.000    0.000    0.000    0.000    0.000 
#
# Total GULP energy -245464.767315 kJ/mol
# GULP energy per Si atom -5578.744712 kJ/mol
# Density = 2.584417 g / cm^3
# Si number density = 25.903124 Si / 1000 Ang^3
#
#
#
# Elastic Constant Matrix: (Units=GPa)
#
#
# Indices 1 2 3 4 5 6 
#
# 1 204.3337 67.2368 32.0163 0.0000 0.0000 0.0000
# 2 67.2368 130.7911 18.3841 0.0000 0.0000 0.0000
# 3 32.0163 18.3841 82.2397 0.0000 0.0000 0.0000
# 4 0.0000 0.0000 0.0000 -128.8056 0.0000 0.0000
# 5 0.0000 0.0000 0.0000 0.0000 43.8370 0.0000
# 6 0.0000 0.0000 0.0000 0.0000 0.0000 21.2911
#
#
#
# Elastic Compliance Matrix: (Units=1/GPa)
#
#
# Indices 1 2 3 4 5 6 
#
# 1 0.006121 -0.002903 -0.001734 0.000000 0.000000 0.000000
# 2 -0.002903 0.009271 -0.000942 0.000000 0.000000 0.000000
# 3 -0.001734 -0.000942 0.013045 0.000000 0.000000 0.000000
# 4 0.000000 0.000000 0.000000 -0.007764 0.000000 0.000000
# 5 0.000000 0.000000 0.000000 0.000000 0.022812 0.000000
# 6 0.000000 0.000000 0.000000 0.000000 0.000000 0.046968
#
#
# Mechanical properties :
#
#
# Convention : Reuss Voigt Hill
#
# Bulk Modulus (GPa) = 57.87556 72.51542 65.19549
# Shear Modulus (GPa) = 46.56776 7.24632 26.90704
#
# Velocity S-wave (km/s) = 4.24461 1.67438 3.22647
# Velocity P-wave (km/s) = 6.81277 5.63859 6.25330
#
# Compressibility (1/GPa) = 0.01727845
#
# Stress axis : x y z
#
# Youngs Moduli (GPa) = 163.37624 107.86878 76.65627
#
# Poissons Ratio (x) = 0.31313 0.13292
# Poissons Ratio (y) = 0.47426 0.07223
# Poissons Ratio (z) = 0.28329 0.10164
#
# Static dielectric constant tensor:
#      x y z
#    x 2.253720 0.000000 0.000000 
#    y 0.000000 1.801690 0.000000 
#    z 0.000000 0.000000 2.130900 
# 
# From -- ./inp_files/27634.got.cif
#   From: 2010.05.17/outbox.cif.g08.bks.cpg/sg54_14_cif.got.tgz:27634.got - 2010.06.03 13:09:01.
