data_PCOD9420744
_publ_section_title
;
Structure prediction by ZEFSAII (Michael W. Deem and Ramdas Pophale) SiO2 
 PCOD9420744
Probable space group: P C C A
;
_chemical_formula_sum "Si O2"
_cell_formula_units_Z 56
_cell_length_a 10.873442
_cell_length_b 17.218349
_cell_length_c 14.538581
_cell_angle_alpha 90.000000
_cell_angle_beta 90.000000
_cell_angle_gamma 90.000000
_cell_volume 2721.952668
_symmetry_space_group_name_H-M "P C C A"
_symmetry_group_IT_number 54
_symmetry_cell_setting 'orthorhombic'
loop_
_space_group_symop_operation_xyz
x,y,z
1/2-x,-y,z
1/2+x,-y,1/2-z
-x,y,1/2-z
-x,-y,-z
1/2+x,y,-z
1/2-x,y,1/2+z
x,-y,1/2+z
loop_
_atom_site_type_symbol
_atom_site_label
_atom_site_fract_x
_atom_site_fract_y
_atom_site_fract_z
Si Si1 0.987084 0.842129 0.355201
Si Si2 0.822369 0.295579 0.910676
Si Si3 0.379446 0.465378 0.127872
Si Si4 0.374283 0.050046 0.004656
Si Si5 0.372088 0.473491 0.833486
Si Si6 0.259196 0.191684 0.912509
Si Si7 0.359479 0.701290 0.255947
O O1 0.118928 0.838682 0.406276
O O2 0.000000 0.863947 0.250000
O O3 0.924406 0.758588 0.363816
O O4 0.893690 0.901147 0.402868
O O5 0.882571 0.380240 0.914835
O O6 0.706274 0.303103 0.842436
O O7 0.782092 0.252706 0.004267
O O8 0.250000 0.500000 0.098121
O O9 0.503605 0.512832 0.110878
O O10 0.373648 0.471578 0.241027
O O11 0.250000 0.000000 0.006185
O O12 0.349400 0.117920 0.928977
O O13 0.500000 0.000000 0.000000
O O14 0.250000 0.500000 0.884912
O O15 0.363437 0.384994 0.799773
O O16 0.287137 0.238922 0.820176
O O17 0.500000 0.727689 0.250000
#
# Coordination Sequence:
#
# PCOD9420744 Si02
#       7
#     8   8   8   8   8   8   8
#     4  11  24  45  71 107 137 179 235 278 353 422
#     4  11  24  40  68  95 143 186 231 297 347 416
#     4  10  18  36  60  87 128 186 233 281 343 397
#     4  11  24  50  77  99 145 181 215 286 348 416
#     4  10  19  33  59  91 127 183 235 286 350 387
#     4  11  27  44  70 107 136 183 230 286 355 422
#     4  12  23  41  66  96 140 185 237 291 346 420
#
# _framework density 20.573466
#
# number of rings (size 3 to 8) (size 9 to 14) (size 15 to 20)
#    0.000    1.143    7.143    0.000    8.000    0.000 
#    2.571    1.429    0.000    0.000    0.000    0.000 
#    0.000    0.000    0.000    0.000    0.000    0.000 
#
# Total GULP energy -312590.280907 kJ/mol
# GULP energy per Si atom -5581.969302 kJ/mol
# Density = 2.052664 g / cm^3
# Si number density = 20.573466 Si / 1000 Ang^3
#
#
#
# Elastic Constant Matrix: (Units=GPa)
#
#
# Indices 1 2 3 4 5 6 
#
# 1 128.2420 31.1798 -4.5152 0.0000 0.0000 0.0000
# 2 31.1798 116.5423 8.7060 0.0000 0.0000 0.0000
# 3 -4.5152 8.7060 43.0525 0.0000 0.0000 0.0000
# 4 0.0000 0.0000 0.0000 9.8244 0.0000 0.0000
# 5 0.0000 0.0000 0.0000 0.0000 18.0860 0.0000
# 6 0.0000 0.0000 0.0000 0.0000 0.0000 41.0411
#
#
#
# Elastic Compliance Matrix: (Units=1/GPa)
#
#
# Indices 1 2 3 4 5 6 
#
# 1 0.008418 -0.002354 0.001359 0.000000 0.000000 0.000000
# 2 -0.002354 0.009370 -0.002142 0.000000 0.000000 0.000000
# 3 0.001359 -0.002142 0.023803 0.000000 0.000000 0.000000
# 4 0.000000 0.000000 0.000000 0.101787 0.000000 0.000000
# 5 0.000000 0.000000 0.000000 0.000000 0.055292 0.000000
# 6 0.000000 0.000000 0.000000 0.000000 0.000000 0.024366
#
#
# Mechanical properties :
#
#
# Convention : Reuss Voigt Hill
#
# Bulk Modulus (GPa) = 28.31408 39.84200 34.07804
# Shear Modulus (GPa) = 20.73986 30.62136 25.68061
#
# Velocity S-wave (km/s) = 3.17848 3.86215 3.53688
# Velocity P-wave (km/s) = 5.22136 6.26866 5.76883
#
# Compressibility (1/GPa) = 0.03531812
#
# Stress axis : x y z
#
# Youngs Moduli (GPa) = 118.79529 106.72069 42.01139
#
# Poissons Ratio (x) = 0.25118 -0.05708
# Poissons Ratio (y) = 0.27960 0.08997
# Poissons Ratio (z) = -0.16142 0.22856
#
# Static dielectric constant tensor:
#      x y z
#    x 1.792590 0.000000 0.000000 
#    y 0.000000 1.751810 0.000000 
#    z 0.000000 0.000000 1.755030 
# 
# From -- ./inp_files/12737.got.cif
#   From: 2010.05.17/outbox.cif.g08.bks.cpg/sg54_7_cif.got.tgz:12737.got - 2010.06.03 13:09:01.
