data_PCOD9420056
_publ_section_title
;
Structure prediction by ZEFSAII (Michael W. Deem and Ramdas Pophale) SiO2 
 PCOD9420056
Probable space group: P M N A
;
_chemical_formula_sum "Si O2"
_cell_formula_units_Z 40
_cell_length_a 7.478911
_cell_length_b 27.687288
_cell_length_c 9.568200
_cell_angle_alpha 90.000000
_cell_angle_beta 90.000000
_cell_angle_gamma 90.000000
_cell_volume 1981.294472
_symmetry_space_group_name_H-M "P M N A"
_symmetry_group_IT_number 53
_symmetry_cell_setting 'orthorhombic'
loop_
_space_group_symop_operation_xyz
x,y,z
1/2-x,-y,1/2+z
x,-y,-z
1/2-x,y,1/2-z
-x,-y,-z
1/2+x,y,1/2-z
-x,y,z
1/2+x,-y,1/2+z
loop_
_atom_site_type_symbol
_atom_site_label
_atom_site_fract_x
_atom_site_fract_y
_atom_site_fract_z
Si Si1 0.214676 0.744052 0.584705
Si Si2 0.714701 0.953986 0.915412
Si Si3 0.214300 0.545590 0.414201
Si Si4 0.786200 0.151036 0.416386
Si Si5 0.714350 0.652457 0.085650
O O1 0.250000 0.739512 0.750000
O O2 0.282608 0.796751 0.533955
O O3 0.284803 0.697672 0.502116
O O4 0.000000 0.744968 0.567340
O O5 0.750000 0.958873 0.750000
O O6 0.500000 0.953069 0.932344
O O7 0.782643 0.901218 0.965509
O O8 0.784418 0.000000 0.000000
O O9 0.285198 0.500000 0.500000
O O10 0.250000 0.539272 0.250000
O O11 0.282603 0.599010 0.454928
O O12 0.000000 0.546637 0.433470
O O13 0.750000 0.151090 0.250000
O O14 0.000000 0.151018 0.437567
O O15 0.750000 0.659053 0.250000
O O16 0.500000 0.651436 0.067001
#
# Coordination Sequence:
#
# PCOD9420056 Si02
#       5
#     8   8   8   8   8
#     4   9  17  29  46  67  88 111 143 181 216 252
#     4   9  17  29  45  64  86 113 144 177 214 256
#     4   9  18  32  48  66  89 116 146 179 214 254
#     4   8  14  26  43  61  83 111 141 174 212 252
#     4   9  18  32  47  64  89 119 146 174 213 258
#
# _framework density 20.188821000000001
#
# number of rings (size 3 to 8) (size 9 to 14) (size 15 to 20)
#    0.000    3.200    0.000    0.000    0.000    2.400 
#    0.000    1.000    0.000    0.000    0.000    0.000 
#    0.000    0.000    0.000    0.000    0.000    0.000 
#
# Total GULP energy -222798.369125 kJ/mol
# GULP energy per Si atom -5569.959228 kJ/mol
# Density = 2.014287 g / cm^3
# Si number density = 20.188821 Si / 1000 Ang^3
#
#
#
# Elastic Constant Matrix: (Units=GPa)
#
#
# Indices 1 2 3 4 5 6 
#
# 1 62.2940 15.0461 -3.6422 0.0000 0.0000 0.0000
# 2 15.0461 296.2888 96.4363 0.0000 0.0000 0.0000
# 3 -3.6422 96.4363 45.8637 0.0000 0.0000 0.0000
# 4 0.0000 0.0000 0.0000 33.7803 0.0000 0.0000
# 5 0.0000 0.0000 0.0000 0.0000 17.8900 0.0000
# 6 0.0000 0.0000 0.0000 0.0000 0.0000 13.1896
#
#
#
# Elastic Compliance Matrix: (Units=1/GPa)
#
#
# Indices 1 2 3 4 5 6 
#
# 1 0.017702 -0.004298 0.010442 0.000000 0.000000 0.000000
# 2 -0.004298 0.011737 -0.025020 0.000000 0.000000 0.000000
# 3 0.010442 -0.025020 0.075242 0.000000 0.000000 0.000000
# 4 0.000000 0.000000 0.000000 0.029603 0.000000 0.000000
# 5 0.000000 0.000000 0.000000 0.000000 0.055897 0.000000
# 6 0.000000 0.000000 0.000000 0.000000 0.000000 0.075817
#
#
# Mechanical properties :
#
#
# Convention : Reuss Voigt Hill
#
# Bulk Modulus (GPa) = 14.94105 68.90301 41.92203
# Shear Modulus (GPa) = 15.33465 32.74573 24.04019
#
# Velocity S-wave (km/s) = 2.75900 4.03174 3.45449
# Velocity P-wave (km/s) = 4.19120 7.47507 6.05982
#
# Compressibility (1/GPa) = 0.06692972
#
# Stress axis : x y z
#
# Youngs Moduli (GPa) = 56.49236 85.20119 13.29041
#
# Poissons Ratio (x) = 0.36617 -0.13878
# Poissons Ratio (y) = 0.24279 0.33253
# Poissons Ratio (z) = -0.58992 2.13175
#
# Static dielectric constant tensor:
#      x y z
#    x 1.729020 0.000000 0.000000 
#    y 0.000000 1.801830 0.000000 
#    z 0.000000 0.000000 1.642630 
# 
# From -- ./inp_files/756.got.cif
#   From: 2010.05.17/outbox.cif.g08.bks.cpg/sg53_1_cif.got.tgz:756.got - 2010.06.03 12:45:16.
