data_PCOD9420339
_publ_section_title
;
Structure prediction by ZEFSAII (Michael W. Deem and Ramdas Pophale) SiO2 
 PCOD9420339
Probable space group: P C C A
;
_chemical_formula_sum "Si O2"
_cell_formula_units_Z 52
_cell_length_a 19.466491
_cell_length_b 23.041730
_cell_length_c 5.376456
_cell_angle_alpha 90.000000
_cell_angle_beta 90.000000
_cell_angle_gamma 90.000000
_cell_volume 2411.564336
_symmetry_space_group_name_H-M "P C C A"
_symmetry_group_IT_number 54
_symmetry_cell_setting 'orthorhombic'
loop_
_space_group_symop_operation_xyz
x,y,z
1/2-x,-y,z
1/2+x,-y,1/2-z
-x,y,1/2-z
-x,-y,-z
1/2+x,y,-z
1/2-x,y,1/2+z
x,-y,1/2+z
loop_
_atom_site_type_symbol
_atom_site_label
_atom_site_fract_x
_atom_site_fract_y
_atom_site_fract_z
Si Si1 0.223187 0.210213 0.746897
Si Si2 0.572136 0.216376 0.402306
Si Si3 0.918169 0.962180 0.010645
Si Si4 0.579858 0.475281 0.503885
Si Si5 0.500000 0.867595 0.250000
Si Si6 0.455001 0.655725 0.498514
Si Si7 0.275312 0.079776 0.680569
O O1 0.248830 0.240031 0.494007
O O2 0.141336 0.200612 0.743460
O O3 0.259922 0.147271 0.726638
O O4 0.500000 0.214428 0.250000
O O5 0.558540 0.173270 0.632389
O O6 0.583221 0.282894 0.485499
O O7 0.971690 0.910545 0.960938
O O8 0.845140 0.932135 0.963593
O O9 0.924148 0.007144 0.777424
O O10 0.500000 0.500000 0.500000
O O11 0.611429 0.502173 0.749943
O O12 0.581901 0.406034 0.515094
O O13 0.500000 0.659273 0.250000
O O14 0.500000 0.652269 0.750000
O O15 0.221999 0.057187 0.466907
#
# Coordination Sequence:
#
# PCOD9420339 Si02
#       7
#     8   8   8   8   4   8   8
#     4  10  23  43  68  93 125 164 214 260 314 389
#     4  11  27  40  69 100 135 172 216 267 334 389
#     4  12  28  45  65  90 121 154 201 258 317 384
#     4  10  15  25  47  72 117 174 212 244 314 366
#     4  12  26  44  66  88 130 170 200 244 332 410
#     4  11  19  33  49  86 128 167 208 266 308 379
#     4  10  21  39  65  86 113 144 196 245 303 362
#
# _framework density 21.562767000000001
#
# number of rings (size 3 to 8) (size 9 to 14) (size 15 to 20)
#    0.000    1.231    3.846    3.231    8.615    1.846 
#    0.000    0.000    0.000    0.000    0.000    0.000 
#    0.000    3.692    0.000    0.000    0.000    0.000 
#
# Total GULP energy -290326.973837 kJ/mol
# GULP energy per Si atom -5583.211035 kJ/mol
# Density = 2.151369 g / cm^3
# Si number density = 21.562767 Si / 1000 Ang^3
#
#
#
# Elastic Constant Matrix: (Units=GPa)
#
#
# Indices 1 2 3 4 5 6 
#
# 1 81.2204 10.9884 9.5472 0.0000 0.0000 0.0000
# 2 10.9884 136.2745 14.5583 0.0000 0.0000 0.0000
# 3 9.5472 14.5583 158.8281 0.0000 0.0000 0.0000
# 4 0.0000 0.0000 0.0000 -73.3099 0.0000 0.0000
# 5 0.0000 0.0000 0.0000 0.0000 22.9225 0.0000
# 6 0.0000 0.0000 0.0000 0.0000 0.0000 7.2306
#
#
#
# Elastic Compliance Matrix: (Units=1/GPa)
#
#
# Indices 1 2 3 4 5 6 
#
# 1 0.012517 -0.000938 -0.000666 0.000000 0.000000 0.000000
# 2 -0.000938 0.007481 -0.000629 0.000000 0.000000 0.000000
# 3 -0.000666 -0.000629 0.006394 0.000000 0.000000 0.000000
# 4 0.000000 0.000000 0.000000 -0.013641 0.000000 0.000000
# 5 0.000000 0.000000 0.000000 0.000000 0.043625 0.000000
# 6 0.000000 0.000000 0.000000 0.000000 0.000000 0.138301
#
#
# Mechanical properties :
#
#
# Convention : Reuss Voigt Hill
#
# Bulk Modulus (GPa) = 45.61108 49.61233 47.61170
# Shear Modulus (GPa) = 24.21851 14.11724 19.16787
#
# Velocity S-wave (km/s) = 3.35500 2.56150 2.98473
# Velocity P-wave (km/s) = 6.01720 5.63974 5.83152
#
# Compressibility (1/GPa) = 0.02192450
#
# Stress axis : x y z
#
# Youngs Moduli (GPa) = 79.88856 133.67184 156.40010
#
# Poissons Ratio (x) = 0.12540 0.10423
# Poissons Ratio (y) = 0.07495 0.09843
# Poissons Ratio (z) = 0.05324 0.08412
#
# Static dielectric constant tensor:
#      x y z
#    x 1.823910 0.000000 0.000000 
#    y 0.000000 1.815420 0.000000 
#    z 0.000000 0.000000 1.892590 
# 
# From -- ./inp_files/1382.got.cif
#   From: 2010.05.17/outbox.cif.g08.bks.cpg/sg54_1_cif.got.tgz:1382.got - 2010.06.03 13:09:01.
