data_PCOD9420300
_publ_section_title
;
Structure prediction by ZEFSAII (Michael W. Deem and Ramdas Pophale) SiO2 
 PCOD9420300
Probable space group: P C C A
;
_chemical_formula_sum "Si O2"
_cell_formula_units_Z 40
_cell_length_a 13.462870
_cell_length_b 25.097361
_cell_length_c 5.279868
_cell_angle_alpha 90.000000
_cell_angle_beta 90.000000
_cell_angle_gamma 90.000000
_cell_volume 1783.975044
_symmetry_space_group_name_H-M "P C C A"
_symmetry_group_IT_number 54
_symmetry_cell_setting 'orthorhombic'
loop_
_space_group_symop_operation_xyz
x,y,z
1/2-x,-y,z
1/2+x,-y,1/2-z
-x,y,1/2-z
-x,-y,-z
1/2+x,y,-z
1/2-x,y,1/2+z
x,-y,1/2+z
loop_
_atom_site_type_symbol
_atom_site_label
_atom_site_fract_x
_atom_site_fract_y
_atom_site_fract_z
Si Si1 0.889540 0.477570 0.027136
Si Si2 0.817514 0.248209 0.125080
Si Si3 0.817360 0.364717 0.137239
Si Si4 0.135036 0.978528 0.874662
Si Si5 0.315712 0.138398 0.006088
O O1 0.845397 0.485872 0.749025
O O2 0.885150 0.416288 0.104955
O O3 0.000000 0.500000 0.000000
O O4 0.767398 0.246903 0.403649
O O5 0.867051 0.306328 0.107342
O O6 0.873531 0.193123 0.061174
O O7 0.763181 0.367472 0.409037
O O8 0.132104 0.917828 0.964510
O O9 0.250000 0.000000 0.842459
O O10 0.093168 0.984472 0.595108
O O11 0.228588 0.138794 0.790089
#
# Coordination Sequence:
#
# PCOD9420300 Si02
#       5
#     8   8   8   8   8
#     4  10  21  35  50  70  94 118 143 178 223 275
#     4   8  16  25  36  52  72 100 131 169 213 242
#     4  10  19  32  48  68  91 115 149 185 221 265
#     4  10  14  18  24  38  56  81 119 159 199 228
#     4  10  14  20  29  40  61  88 120 162 205 235
#
# _framework density 22.421837
#
# number of rings (size 3 to 8) (size 9 to 14) (size 15 to 20)
#    0.000    2.400    4.000    1.200    0.000    2.400 
#    0.000    0.000    0.000    0.000    0.000    0.000 
#    0.000    0.000    0.000    0.000    0.000    0.000 
#
# Total GULP energy -222845.563459 kJ/mol
# GULP energy per Si atom -5571.139086 kJ/mol
# Density = 2.237080 g / cm^3
# Si number density = 22.421837 Si / 1000 Ang^3
#
#
#
# Elastic Constant Matrix: (Units=GPa)
#
#
# Indices 1 2 3 4 5 6 
#
# 1 32.8023 -7.3375 -10.6863 0.0000 0.0000 0.0000
# 2 -7.3375 179.0829 -23.1865 0.0000 0.0000 0.0000
# 3 -10.6863 -23.1865 141.8421 0.0000 0.0000 0.0000
# 4 0.0000 0.0000 0.0000 34.9085 0.0000 0.0000
# 5 0.0000 0.0000 0.0000 0.0000 2.7027 0.0000
# 6 0.0000 0.0000 0.0000 0.0000 0.0000 1.3253
#
#
#
# Elastic Compliance Matrix: (Units=1/GPa)
#
#
# Indices 1 2 3 4 5 6 
#
# 1 0.031719 0.001644 0.002658 0.000000 0.000000 0.000000
# 2 0.001644 0.005790 0.001070 0.000000 0.000000 0.000000
# 3 0.002658 0.001070 0.007425 0.000000 0.000000 0.000000
# 4 0.000000 0.000000 0.000000 0.028646 0.000000 0.000000
# 5 0.000000 0.000000 0.000000 0.000000 0.369996 0.000000
# 6 0.000000 0.000000 0.000000 0.000000 0.000000 0.754538
#
#
# Mechanical properties :
#
#
# Convention : Reuss Voigt Hill
#
# Bulk Modulus (GPa) = 17.95983 30.14521 24.05252
# Shear Modulus (GPa) = 4.14618 34.11648 19.13133
#
# Velocity S-wave (km/s) = 1.36132 3.90497 2.92421
# Velocity P-wave (km/s) = 3.24010 5.81425 4.70658
#
# Compressibility (1/GPa) = 0.05567980
#
# Stress axis : x y z
#
# Youngs Moduli (GPa) = 31.52643 172.71357 134.67402
#
# Poissons Ratio (x) = -0.28391 -0.35802
# Poissons Ratio (y) = -0.05182 -0.14414
# Poissons Ratio (z) = -0.08381 -0.18486
#
# Static dielectric constant tensor:
#      x y z
#    x 1.881040 0.000000 0.000000 
#    y 0.000000 1.892860 0.000000 
#    z 0.000000 0.000000 1.905130 
# 
# From -- ./inp_files/515.got.cif
#   From: 2010.05.17/outbox.cif.g08.bks.cpg/sg54_1_cif.got.tgz:515.got - 2010.06.03 13:09:01.
