data_PCOD9420354
_publ_section_title
;
Structure prediction by ZEFSAII (Michael W. Deem and Ramdas Pophale) SiO2 
 PCOD9420354
Probable space group: P C C A
;
_chemical_formula_sum "Si O2"
_cell_formula_units_Z 48
_cell_length_a 5.342849
_cell_length_b 22.764803
_cell_length_c 19.589009
_cell_angle_alpha 90.000000
_cell_angle_beta 90.000000
_cell_angle_gamma 90.000000
_cell_volume 2382.589714
_symmetry_space_group_name_H-M "P C C A"
_symmetry_group_IT_number 54
_symmetry_cell_setting 'orthorhombic'
loop_
_space_group_symop_operation_xyz
x,y,z
1/2-x,-y,z
1/2+x,-y,1/2-z
-x,y,1/2-z
-x,-y,-z
1/2+x,y,-z
1/2-x,y,1/2+z
x,-y,1/2+z
loop_
_atom_site_type_symbol
_atom_site_label
_atom_site_fract_x
_atom_site_fract_y
_atom_site_fract_z
Si Si1 0.972668 0.397939 0.175756
Si Si2 0.275216 0.069039 0.582799
Si Si3 0.218420 0.881107 0.429943
Si Si4 0.840741 0.256625 0.539289
Si Si5 0.524096 0.321591 0.325731
Si Si6 0.504349 0.565905 0.471456
O O1 0.196149 0.349148 0.169714
O O2 0.007458 0.437169 0.109499
O O3 0.000000 0.426603 0.250000
O O4 0.693237 0.371413 0.173387
O O5 0.275399 0.081932 0.500910
O O6 0.527047 0.100789 0.607192
O O7 0.026974 0.099812 0.610200
O O8 0.250000 0.000000 0.594157
O O9 0.185344 0.813806 0.451574
O O10 0.558770 0.272976 0.515376
O O11 0.943906 0.281776 0.610696
O O12 0.500000 0.293614 0.250000
O O13 0.500000 0.500000 0.500000
O O14 0.251958 0.595552 0.498669
#
# Coordination Sequence:
#
# PCOD9420354 Si02
#       6
#     8   8   8   8   8   8
#     4  10  21  40  60  80 110 149 187 227 268 324
#     4  10  16  25  41  61  97 143 171 207 268 320
#     4  10  16  27  38  63  98 131 167 217 265 320
#     4  12  21  34  52  78 109 143 178 230 284 331
#     4  10  23  39  57  81 110 148 192 229 271 329
#     4  10  21  37  58  87 119 146 177 228 277 321
#
# _framework density 20.146145000000001
#
# number of rings (size 3 to 8) (size 9 to 14) (size 15 to 20)
#    0.000    1.667    3.333    4.500    0.000    4.000 
#    0.000    3.333    0.000    0.000    0.000    0.000 
#    0.000    4.000    0.000    0.333    0.000    0.000 
#
# Total GULP energy -267590.188884 kJ/mol
# GULP energy per Si atom -5574.795602 kJ/mol
# Density = 2.010029 g / cm^3
# Si number density = 20.146145 Si / 1000 Ang^3
#
#
#
# Elastic Constant Matrix: (Units=GPa)
#
#
# Indices 1 2 3 4 5 6 
#
# 1 171.4942 8.1864 14.7729 0.0000 0.0000 0.0000
# 2 8.1864 41.7676 21.1076 0.0000 0.0000 0.0000
# 3 14.7729 21.1076 118.8255 0.0000 0.0000 0.0000
# 4 0.0000 0.0000 0.0000 -4.8677 0.0000 0.0000
# 5 0.0000 0.0000 0.0000 0.0000 19.4561 0.0000
# 6 0.0000 0.0000 0.0000 0.0000 0.0000 -0.7786
#
#
#
# Elastic Compliance Matrix: (Units=1/GPa)
#
#
# Indices 1 2 3 4 5 6 
#
# 1 0.005923 -0.000867 -0.000582 0.000000 0.000000 0.000000
# 2 -0.000867 0.026430 -0.004587 0.000000 0.000000 0.000000
# 3 -0.000582 -0.004587 0.009303 0.000000 0.000000 0.000000
# 4 0.000000 0.000000 0.000000 -0.205435 0.000000 0.000000
# 5 0.000000 0.000000 0.000000 0.000000 0.051398 0.000000
# 6 0.000000 0.000000 0.000000 0.000000 0.000000 -1.284342
#
#
# Mechanical properties :
#
#
# Convention : Reuss Voigt Hill
#
# Bulk Modulus (GPa) = 33.80273 46.69123 40.24698
# Shear Modulus (GPa) = -3.63692 21.96332 9.16320
#
# Velocity S-wave (km/s) = -1.34506 3.30540 2.13500
# Velocity P-wave (km/s) = 3.79512 6.14769 5.10867
#
# Compressibility (1/GPa) = 0.02958341
#
# Stress axis : x y z
#
# Youngs Moduli (GPa) = 168.84380 37.83582 107.49283
#
# Poissons Ratio (x) = 0.03278 0.06260
# Poissons Ratio (y) = 0.14630 0.49309
# Poissons Ratio (z) = 0.09834 0.17356
#
# Static dielectric constant tensor:
#      x y z
#    x 2.315430 0.000000 0.000000 
#    y 0.000000 1.818810 0.000000 
#    z 0.000000 0.000000 1.723460 
# 
# From -- ./inp_files/15919.got.cif
#   From: 2010.05.17/outbox.cif.g08.bks.cpg/sg54_8_cif.got.tgz:15919.got - 2010.06.03 13:09:01.
