data_PCOD9420341
_publ_section_title
;
Structure prediction by ZEFSAII (Michael W. Deem and Ramdas Pophale) SiO2 
 PCOD9420341
Probable space group: P C C A
;
_chemical_formula_sum "Si O2"
_cell_formula_units_Z 64
_cell_length_a 18.085455
_cell_length_b 29.893752
_cell_length_c 5.584305
_cell_angle_alpha 90.000000
_cell_angle_beta 90.000000
_cell_angle_gamma 90.000000
_cell_volume 3019.110419
_symmetry_space_group_name_H-M "P C C A"
_symmetry_group_IT_number 54
_symmetry_cell_setting 'orthorhombic'
loop_
_space_group_symop_operation_xyz
x,y,z
1/2-x,-y,z
1/2+x,-y,1/2-z
-x,y,1/2-z
-x,-y,-z
1/2+x,y,-z
1/2-x,y,1/2+z
x,-y,1/2+z
loop_
_atom_site_type_symbol
_atom_site_label
_atom_site_fract_x
_atom_site_fract_y
_atom_site_fract_z
Si Si1 0.416209 0.484787 0.771001
Si Si2 0.393507 0.350414 0.377347
Si Si3 0.834834 0.124800 0.159400
Si Si4 0.665056 0.982170 0.159722
Si Si5 0.097628 0.380636 0.375576
Si Si6 0.704164 0.263405 0.161146
Si Si7 0.256690 0.582470 0.908592
Si Si8 0.664636 0.839440 0.659437
O O1 0.500000 0.503591 0.750000
O O2 0.383108 0.491991 0.506729
O O3 0.420588 0.432656 0.835140
O O4 0.426587 0.353621 0.642367
O O5 0.355239 0.302809 0.343755
O O6 0.331300 0.389451 0.401503
O O7 0.431560 0.362854 0.127324
O O8 0.834009 0.071320 0.159594
O O9 0.868304 0.142798 0.409027
O O10 0.749737 0.142423 0.159323
O O11 0.868318 0.142741 0.909703
O O12 0.750000 0.000000 0.159799
O O13 0.631739 0.999965 0.409795
O O14 0.187980 0.382012 0.399316
O O15 0.749352 0.267335 0.412157
O O16 0.669116 0.213994 0.159968
O O17 0.251247 0.557408 0.658227
#
# Coordination Sequence:
#
# PCOD9420341 Si02
#       8
#     8   8   8   8   8   8   8   8
#     4  10  21  37  57  77  92 109 135 166 198 238
#     4  10  19  28  45  64  87 117 138 167 184 229
#     4  10  16  25  30  41  61  82 112 150 205 246
#     4  10  16  22  31  41  49  71 106 151 197 253
#     4  10  18  32  48  67  90 112 134 161 202 220
#     4  12  18  27  38  57  78 101 142 160 191 224
#     4   8  14  25  39  59  80 111 134 155 184 212
#     4  10  16  24  31  44  61  91 109 152 188 236
#
# _framework density 21.198295999999999
#
# number of rings (size 3 to 8) (size 9 to 14) (size 15 to 20)
#    0.000    2.000    2.500    7.500    0.000    0.000 
#    0.000    0.000    0.000   20.250    0.000    0.000 
#    0.000    0.000    0.000    0.000    0.000    0.000 
#
# Total GULP energy -356995.340347 kJ/mol
# GULP energy per Si atom -5578.052193 kJ/mol
# Density = 2.115005 g / cm^3
# Si number density = 21.198296 Si / 1000 Ang^3
#
#
#
# Elastic Constant Matrix: (Units=GPa)
#
#
# Indices 1 2 3 4 5 6 
#
# 1 30.0634 -0.9204 20.3971 0.0000 0.0000 0.0000
# 2 -0.9204 160.2248 74.0126 0.0000 0.0000 0.0000
# 3 20.3971 74.0126 295.2594 0.0000 0.0000 0.0000
# 4 0.0000 0.0000 0.0000 37.0187 0.0000 0.0000
# 5 0.0000 0.0000 0.0000 0.0000 19.7797 0.0000
# 6 0.0000 0.0000 0.0000 0.0000 0.0000 7.4855
#
#
#
# Elastic Compliance Matrix: (Units=1/GPa)
#
#
# Indices 1 2 3 4 5 6 
#
# 1 0.035215 0.001500 -0.002809 0.000000 0.000000 0.000000
# 2 0.001500 0.007122 -0.001889 0.000000 0.000000 0.000000
# 3 -0.002809 -0.001889 0.004054 0.000000 0.000000 0.000000
# 4 0.000000 0.000000 0.000000 0.027013 0.000000 0.000000
# 5 0.000000 0.000000 0.000000 0.000000 0.050557 0.000000
# 6 0.000000 0.000000 0.000000 0.000000 0.000000 0.133592
#
#
# Mechanical properties :
#
#
# Convention : Reuss Voigt Hill
#
# Bulk Modulus (GPa) = 25.00282 74.72513 49.86398
# Shear Modulus (GPa) = 18.03224 38.99400 28.51312
#
# Velocity S-wave (km/s) = 2.91975 4.29358 3.67149
# Velocity P-wave (km/s) = 4.81528 7.73995 6.44568
#
# Compressibility (1/GPa) = 0.03999548
#
# Stress axis : x y z
#
# Youngs Moduli (GPa) = 28.39739 140.40174 246.64653
#
# Poissons Ratio (x) = -0.21056 0.69273
# Poissons Ratio (y) = -0.04259 0.46591
# Poissons Ratio (z) = 0.07976 0.26522
#
# Static dielectric constant tensor:
#      x y z
#    x 1.792550 0.000000 0.000000 
#    y 0.000000 1.696810 0.000000 
#    z 0.000000 0.000000 1.913350 
# 
# From -- ./inp_files/1491.got.cif
#   From: 2010.05.17/outbox.cif.g08.bks.cpg/sg54_1_cif.got.tgz:1491.got - 2010.06.03 13:09:01.
