data_PCOD9420968
_publ_section_title
;
Structure prediction by ZEFSAII (Michael W. Deem and Ramdas Pophale) SiO2 
 PCOD9420968
Probable space group: P C C A
;
_chemical_formula_sum "Si O2"
_cell_formula_units_Z 32
_cell_length_a 5.591118
_cell_length_b 12.942706
_cell_length_c 18.568373
_cell_angle_alpha 90.000000
_cell_angle_beta 90.000000
_cell_angle_gamma 90.000000
_cell_volume 1343.685392
_symmetry_space_group_name_H-M "P C C A"
_symmetry_group_IT_number 54
_symmetry_cell_setting 'orthorhombic'
loop_
_space_group_symop_operation_xyz
x,y,z
1/2-x,-y,z
1/2+x,-y,1/2-z
-x,y,1/2-z
-x,-y,-z
1/2+x,y,-z
1/2-x,y,1/2+z
x,-y,1/2+z
loop_
_atom_site_type_symbol
_atom_site_label
_atom_site_fract_x
_atom_site_fract_y
_atom_site_fract_z
Si Si1 0.129112 0.648123 0.003883
Si Si2 0.250000 0.000000 0.046052
Si Si3 0.343073 0.796328 0.638915
Si Si4 0.750000 0.500000 0.707409
Si Si5 0.157747 0.272256 0.350135
O O1 0.133774 0.731181 0.937915
O O2 0.379602 0.592292 0.002313
O O3 0.126402 0.707289 0.079015
O O4 0.220492 0.901210 0.097861
O O5 0.500000 0.000000 0.000000
O O6 0.609406 0.793695 0.672872
O O7 0.101594 0.761871 0.679472
O O8 0.500000 0.517473 0.750000
O O9 0.797477 0.606613 0.665426
#
# Coordination Sequence:
#
# PCOD9420968 Si02
#       5
#     8   4   8   4   8
#     4   8  14  27  46  71 108 143 169 202 251 320
#     4  12  20  30  54  90 132 174 198 218 254 328
#     4  10  19  33  54  87 125 159 187 220 269 340
#     4  12  26  44  64  86 102 138 204 266 318 358
#     4  10  20  37  56  79 115 149 189 242 292 348
#
# _framework density 23.815100000000001
#
# number of rings (size 3 to 8) (size 9 to 14) (size 15 to 20)
#    0.000    2.000    0.000    7.500    0.000    0.000 
#    0.000   11.250    0.000    0.000    0.000   17.500 
#    0.000    0.000    0.000    0.000    0.000    0.000 
#
# Total GULP energy -178500.551424 kJ/mol
# GULP energy per Si atom -5578.142232 kJ/mol
# Density = 2.376090 g / cm^3
# Si number density = 23.815100 Si / 1000 Ang^3
#
#
#
# Elastic Constant Matrix: (Units=GPa)
#
#
# Indices 1 2 3 4 5 6 
#
# 1 309.9481 68.0863 28.5856 0.0000 0.0000 0.0000
# 2 68.0863 120.4946 2.4909 0.0000 0.0000 0.0000
# 3 28.5856 2.4909 53.7466 0.0000 0.0000 0.0000
# 4 0.0000 0.0000 0.0000 -2.3711 0.0000 0.0000
# 5 0.0000 0.0000 0.0000 0.0000 36.6000 0.0000
# 6 0.0000 0.0000 0.0000 0.0000 0.0000 38.6338
#
#
#
# Elastic Compliance Matrix: (Units=1/GPa)
#
#
# Indices 1 2 3 4 5 6 
#
# 1 0.003880 -0.002152 -0.001964 0.000000 0.000000 0.000000
# 2 -0.002152 0.009501 0.000704 0.000000 0.000000 0.000000
# 3 -0.001964 0.000704 0.019618 0.000000 0.000000 0.000000
# 4 0.000000 0.000000 0.000000 -0.421753 0.000000 0.000000
# 5 0.000000 0.000000 0.000000 0.000000 0.027322 0.000000
# 6 0.000000 0.000000 0.000000 0.000000 0.000000 0.025884
#
#
# Mechanical properties :
#
#
# Convention : Reuss Voigt Hill
#
# Bulk Modulus (GPa) = 38.20426 75.83499 57.01962
# Shear Modulus (GPa) = -15.62503 40.24099 12.30798
#
# Velocity S-wave (km/s) = -2.56422 4.11509 2.27582
# Velocity P-wave (km/s) = 2.70368 7.38180 5.55882
#
# Compressibility (1/GPa) = 0.02617509
#
# Stress axis : x y z
#
# Youngs Moduli (GPa) = 257.71911 105.25730 50.97425
#
# Poissons Ratio (x) = 0.22651 0.10011
# Poissons Ratio (y) = 0.55459 -0.03590
# Poissons Ratio (z) = 0.50616 -0.07413
#
# Static dielectric constant tensor:
#      x y z
#    x 2.054340 0.000000 0.000000 
#    y 0.000000 2.855930 0.000000 
#    z 0.000000 0.000000 1.944780 
# 
# From -- ./inp_files/15679.got.cif
#   From: 2010.05.17/outbox.cif.g08.bks.cpg/sg54_8_cif.got.tgz:15679.got - 2010.06.03 13:09:01.
