data_PCOD9420195
_publ_section_title
;
Structure prediction by ZEFSAII (Michael W. Deem and Ramdas Pophale) SiO2 
 PCOD9420195
Probable space group: P M N A
;
_chemical_formula_sum "Si O2"
_cell_formula_units_Z 64
_cell_length_a 18.000000
_cell_length_b 21.000000
_cell_length_c 9.000000
_cell_angle_alpha 90.000000
_cell_angle_beta 90.000000
_cell_angle_gamma 90.000000
_cell_volume 3402.000000
_symmetry_space_group_name_H-M "P M N A"
_symmetry_group_IT_number 53
_symmetry_cell_setting 'orthorhombic'
loop_
_space_group_symop_operation_xyz
x,y,z
1/2-x,-y,1/2+z
x,-y,-z
1/2-x,y,1/2-z
-x,-y,-z
1/2+x,y,1/2-z
-x,y,z
1/2+x,-y,1/2+z
loop_
_atom_site_type_symbol
_atom_site_label
_atom_site_fract_x
_atom_site_fract_y
_atom_site_fract_z
Si Si1 0.087994 0.112798 0.668710
Si Si2 0.587743 0.878626 0.817646
Si Si3 0.589334 0.372248 0.323081
Si Si4 0.590458 0.496355 0.829066
Si Si5 0.910529 0.365356 0.827734
Si Si6 0.169897 0.253626 0.325662
Si Si7 0.830939 0.245473 0.680035
Si Si8 0.169584 0.995763 0.824232
O O1 0.099948 0.103956 0.491486
O O2 0.121734 0.181565 0.706707
O O3 0.128368 0.057431 0.758462
O O4 0.000000 0.111499 0.696349
O O5 0.500000 0.873946 0.793446
O O6 0.625497 0.810832 0.788081
O O7 0.623085 0.933563 0.719381
O O8 0.500000 0.367977 0.306212
O O9 0.613630 0.440499 0.258761
O O10 0.606523 0.367729 0.497474
O O11 0.626779 0.314982 0.234657
O O12 0.500000 0.496033 0.828132
O O13 0.613598 0.431124 0.750173
O O14 0.614655 0.500000 0.000000
O O15 0.871580 0.305601 0.752312
O O16 0.000000 0.359880 0.811317
O O17 0.250000 0.251119 0.250000
O O18 0.175828 0.255916 0.503590
O O19 0.750000 0.237579 0.750000
O O20 0.250000 0.991039 0.750000
O O21 0.177259 0.000000 0.000000
#
# Coordination Sequence:
#
# PCOD9420195 Si02
#       8
#     8   8   8   8   8   8   8   8
#     4  10  22  41  64  89 118 152 191 237 287 340
#     4  10  22  41  64  89 118 152 191 237 287 340
#     4  10  20  35  57  85 116 150 190 237 287 340
#     4   9  17  31  54  83 114 149 190 235 283 339
#     4  10  20  35  57  85 116 150 190 237 287 340
#     4  11  23  39  59  84 115 152 193 236 287 344
#     4  11  23  39  59  84 115 152 193 236 287 344
#     4  12  25  40  61  89 121 157 195 236 285 340
#
# _framework density 18.812463000000001
#
# number of rings (size 3 to 8) (size 9 to 14) (size 15 to 20)
#    0.000    1.625    0.000    4.875    0.000   10.000 
#    0.000    0.625    0.000    0.000    0.000    0.000 
#    0.000    0.000    0.000    0.000    0.000    0.000 
#
# Total GULP energy -357811.154760 kJ/mol
# GULP energy per Si atom -5590.799293 kJ/mol
# Density = 1.876965 g / cm^3
# Si number density = 18.812463 Si / 1000 Ang^3
#
#
#
# Elastic Constant Matrix: (Units=GPa)
#
#
# Indices 1 2 3 4 5 6 
#
# 1 8.3362 -36.3382 -3.9572 0.0000 0.0000 0.0000
# 2 -36.3382 -12.3205 -25.4527 0.0000 0.0000 0.0000
# 3 -3.9572 -25.4527 24.2519 0.0000 0.0000 0.0000
# 4 0.0000 0.0000 0.0000 89.9524 0.0000 0.0000
# 5 0.0000 0.0000 0.0000 0.0000 29.4432 0.0000
# 6 0.0000 0.0000 0.0000 0.0000 0.0000 128.1666
#
#
#
# Elastic Compliance Matrix: (Units=1/GPa)
#
#
# Indices 1 2 3 4 5 6 
#
# 1 0.020123 -0.020875 -0.018625 0.000000 0.000000 0.000000
# 2 -0.020875 -0.003965 -0.007567 0.000000 0.000000 0.000000
# 3 -0.018625 -0.007567 0.030253 0.000000 0.000000 0.000000
# 4 0.000000 0.000000 0.000000 0.011117 0.000000 0.000000
# 5 0.000000 0.000000 0.000000 0.000000 0.033964 0.000000
# 6 0.000000 0.000000 0.000000 0.000000 0.000000 0.007802
#
#
# Mechanical properties :
#
#
# Convention : Reuss Voigt Hill
#
# Bulk Modulus (GPa) = -20.95479 -12.35873 -16.65676
# Shear Modulus (GPa) = 28.16583 55.24682 41.70633
#
# Velocity S-wave (km/s) = 3.87355 5.42502 4.71356
# Velocity P-wave (km/s) = 2.97370 5.71467 4.55524
#
# Compressibility (1/GPa) = -0.04772179
#
# Stress axis : x y z
#
# Youngs Moduli (GPa) = 49.69446 -252.22487 33.05460
#
# Poissons Ratio (x) = -5.26511 0.61563
# Poissons Ratio (y) = 1.03735 0.25013
# Poissons Ratio (z) = 0.92554 -1.90863
#
# Static dielectric constant tensor:
#      x y z
#    x 1.627870 0.000000 0.000000 
#    y 0.000000 1.612960 0.000000 
#    z 0.000000 0.000000 1.629770 
# 
# From -- ./inp_files/10230.got.cif
#   From: 2010.05.17/outbox.ucp.g08.bks.cvg/sg53_6_cif.got.tgz:10230.got - 2010.06.11 16:32:34.
