data_PCOD9420504
_publ_section_title
;
Structure prediction by ZEFSAII (Michael W. Deem and Ramdas Pophale) SiO2 
 PCOD9420504
Probable space group: P C C A
;
_chemical_formula_sum "Si O2"
_cell_formula_units_Z 40
_cell_length_a 8.112987
_cell_length_b 8.692007
_cell_length_c 27.718527
_cell_angle_alpha 90.000000
_cell_angle_beta 90.000000
_cell_angle_gamma 90.000000
_cell_volume 1954.658962
_symmetry_space_group_name_H-M "P C C A"
_symmetry_group_IT_number 54
_symmetry_cell_setting 'orthorhombic'
loop_
_space_group_symop_operation_xyz
x,y,z
1/2-x,-y,z
1/2+x,-y,1/2-z
-x,y,1/2-z
-x,-y,-z
1/2+x,y,-z
1/2-x,y,1/2+z
x,-y,1/2+z
loop_
_atom_site_type_symbol
_atom_site_label
_atom_site_fract_x
_atom_site_fract_y
_atom_site_fract_z
Si Si1 0.690009 0.824176 0.942940
Si Si2 0.245287 0.317836 0.852763
Si Si3 0.803531 0.178424 0.544095
Si Si4 0.118992 0.196233 0.661309
Si Si5 0.953333 0.861709 0.803690
O O1 0.497361 0.824615 0.951505
O O2 0.704215 0.756185 0.889549
O O3 0.750000 0.000000 0.940445
O O4 0.764600 0.752931 0.991409
O O5 0.250000 0.500000 0.849955
O O6 0.263631 0.263237 0.908624
O O7 0.396232 0.238689 0.824209
O O8 0.061114 0.271308 0.834520
O O9 0.750000 0.000000 0.545203
O O10 0.272005 0.218029 0.697809
O O11 0.072911 0.014162 0.663797
O O12 0.000000 0.913267 0.750000
#
# Coordination Sequence:
#
# PCOD9420504 Si02
#       5
#     8   8   8   8   8
#     4  10  17  32  57  94 122 159 200 274 317 365
#     4  11  25  44  61  92 139 176 207 259 318 391
#     4  10  20  32  62  89 121 165 216 258 313 372
#     4  10  23  41  69 100 126 157 219 272 325 372
#     4  11  24  42  71  96 120 164 215 281 324 372
#
# _framework density 20.463927000000002
#
# number of rings (size 3 to 8) (size 9 to 14) (size 15 to 20)
#    0.000    1.600    2.000    5.400    8.400    0.800 
#    3.600    4.000    0.000    0.000    0.000    0.000 
#    0.000    0.000    0.000    0.000    0.000    0.000 
#
# Total GULP energy -222949.061950 kJ/mol
# GULP energy per Si atom -5573.726549 kJ/mol
# Density = 2.041735 g / cm^3
# Si number density = 20.463927 Si / 1000 Ang^3
#
#
#
# Elastic Constant Matrix: (Units=GPa)
#
#
# Indices 1 2 3 4 5 6 
#
# 1 91.1872 35.8613 36.4173 0.0000 0.0000 0.0000
# 2 35.8613 70.9712 16.3567 0.0000 0.0000 0.0000
# 3 36.4173 16.3567 77.5728 0.0000 0.0000 0.0000
# 4 0.0000 0.0000 0.0000 7.2887 0.0000 0.0000
# 5 0.0000 0.0000 0.0000 0.0000 40.3655 0.0000
# 6 0.0000 0.0000 0.0000 0.0000 0.0000 9.7967
#
#
#
# Elastic Compliance Matrix: (Units=1/GPa)
#
#
# Indices 1 2 3 4 5 6 
#
# 1 0.016044 -0.006697 -0.006120 0.000000 0.000000 0.000000
# 2 -0.006697 0.017605 -0.000568 0.000000 0.000000 0.000000
# 3 -0.006120 -0.000568 0.015884 0.000000 0.000000 0.000000
# 4 0.000000 0.000000 0.000000 0.137198 0.000000 0.000000
# 5 0.000000 0.000000 0.000000 0.000000 0.024774 0.000000
# 6 0.000000 0.000000 0.000000 0.000000 0.000000 0.102075
#
#
# Mechanical properties :
#
#
# Convention : Reuss Voigt Hill
#
# Bulk Modulus (GPa) = 43.93044 46.33352 45.13198
# Shear Modulus (GPa) = 14.37038 21.56324 17.96681
#
# Velocity S-wave (km/s) = 2.65284 3.24963 2.96628
# Velocity P-wave (km/s) = 5.55853 6.06389 5.81670
#
# Compressibility (1/GPa) = 0.02276326
#
# Stress axis : x y z
#
# Youngs Moduli (GPa) = 62.32798 56.80229 62.95610
#
# Poissons Ratio (x) = 0.38038 0.38530
# Poissons Ratio (y) = 0.41738 0.03578
# Poissons Ratio (z) = 0.38145 0.03228
#
# Static dielectric constant tensor:
#      x y z
#    x 1.746160 0.000000 0.000000 
#    y 0.000000 1.704420 0.000000 
#    z 0.000000 0.000000 1.952590 
# 
# From -- ./inp_files/25748.got.cif
#   From: 2010.05.17/outbox.cif.g08.bks.cpg/sg54_13_cif.got.tgz:25748.got - 2010.06.03 13:09:01.
