data_PCOD9420157
_publ_section_title
;
Structure prediction by ZEFSAII (Michael W. Deem and Ramdas Pophale) SiO2 
 PCOD9420157
Probable space group: P M N A
;
_chemical_formula_sum "Si O2"
_cell_formula_units_Z 48
_cell_length_a 9.000000
_cell_length_b 12.000000
_cell_length_c 24.000000
_cell_angle_alpha 90.000000
_cell_angle_beta 90.000000
_cell_angle_gamma 90.000000
_cell_volume 2592.000000
_symmetry_space_group_name_H-M "P M N A"
_symmetry_group_IT_number 53
_symmetry_cell_setting 'orthorhombic'
loop_
_space_group_symop_operation_xyz
x,y,z
1/2-x,-y,1/2+z
x,-y,-z
1/2-x,y,1/2-z
-x,-y,-z
1/2+x,y,1/2-z
-x,y,z
1/2+x,-y,1/2+z
loop_
_atom_site_type_symbol
_atom_site_label
_atom_site_fract_x
_atom_site_fract_y
_atom_site_fract_z
Si Si1 0.322109 0.488929 0.807991
Si Si2 0.827329 0.369820 0.484486
Si Si3 0.173222 0.133301 0.692945
Si Si4 0.319842 0.700320 0.102797
Si Si5 0.175530 0.312659 0.129815
Si Si6 0.673508 0.131956 0.191854
O O1 0.250000 0.452109 0.750000
O O2 0.500000 0.493838 0.802917
O O3 0.284021 0.405597 0.858620
O O4 0.255225 0.606996 0.825674
O O5 0.828848 0.500000 0.500000
O O6 0.767921 0.308677 0.539657
O O7 0.729159 0.348781 0.430885
O O8 0.000000 0.338450 0.472530
O O9 0.250000 0.168691 0.750000
O O10 0.232222 0.194522 0.638345
O O11 0.000000 0.163383 0.697909
O O12 0.184648 0.001074 0.687509
O O13 0.500000 0.701907 0.098118
O O14 0.237530 0.190792 0.142976
O O15 0.000000 0.319535 0.135907
O O16 0.750000 0.164359 0.250000
O O17 0.500000 0.163074 0.191501
#
# Coordination Sequence:
#
# PCOD9420157 Si02
#       6
#     8   8   8   8   8   8
#     4  11  21  35  54  81 113 144 177 221 275 330
#     4  10  19  37  60  80 106 148 187 224 272 324
#     4   9  18  34  57  84 111 142 179 222 270 327
#     4   9  18  34  57  82 110 142 181 221 269 329
#     4  12  24  37  54  79 110 144 185 230 273 323
#     4  10  20  36  58  82 110 144 182 224 274 326
#
# _framework density 18.518519000000001
#
# number of rings (size 3 to 8) (size 9 to 14) (size 15 to 20)
#    0.000    1.833    1.667    3.500    0.000    1.000 
#    0.000    2.500    0.000    5.000    0.000    0.000 
#    0.000    0.000    0.000    0.000    0.000    0.000 
#
# Total GULP energy -267849.679168 kJ/mol
# GULP energy per Si atom -5580.201649 kJ/mol
# Density = 1.847637 g / cm^3
# Si number density = 18.518519 Si / 1000 Ang^3
#
#
#
# Elastic Constant Matrix: (Units=GPa)
#
#
# Indices 1 2 3 4 5 6 
#
# 1 75.2705 37.6593 34.2792 0.0000 0.0000 0.0000
# 2 37.6593 30.3304 30.9849 0.0000 0.0000 0.0000
# 3 34.2792 30.9849 76.7230 0.0000 0.0000 0.0000
# 4 0.0000 0.0000 0.0000 1.5248 0.0000 0.0000
# 5 0.0000 0.0000 0.0000 0.0000 28.3066 0.0000
# 6 0.0000 0.0000 0.0000 0.0000 0.0000 8.2355
#
#
#
# Elastic Compliance Matrix: (Units=1/GPa)
#
#
# Indices 1 2 3 4 5 6 
#
# 1 0.035560 -0.047533 0.003308 0.000000 0.000000 0.000000
# 2 -0.047533 0.119662 -0.027089 0.000000 0.000000 0.000000
# 3 0.003308 -0.027089 0.022496 0.000000 0.000000 0.000000
# 4 0.000000 0.000000 0.000000 0.655805 0.000000 0.000000
# 5 0.000000 0.000000 0.000000 0.000000 0.035327 0.000000
# 6 0.000000 0.000000 0.000000 0.000000 0.000000 0.121426
#
#
# Mechanical properties :
#
#
# Convention : Reuss Voigt Hill
#
# Bulk Modulus (GPa) = 28.49687 43.13008 35.81347
# Shear Modulus (GPa) = 4.36833 12.90674 8.63754
#
# Velocity S-wave (km/s) = 1.53754 2.64287 2.16203
# Velocity P-wave (km/s) = 4.30973 5.71435 5.06101
#
# Compressibility (1/GPa) = 0.03509157
#
# Stress axis : x y z
#
# Youngs Moduli (GPa) = 28.12116 8.35685 44.45276
#
# Poissons Ratio (x) = 0.39722 -0.14706
# Poissons Ratio (y) = 1.33668 1.20418
# Poissons Ratio (z) = -0.09303 0.22638
#
# Static dielectric constant tensor:
#      x y z
#    x 1.620660 0.000000 0.000000 
#    y 0.000000 1.670100 0.000000 
#    z 0.000000 0.000000 1.653630 
# 
# From -- ./inp_files/33903.got.cif
#   From: 2010.05.17/outbox.ucp.g08.bks.cvg/sg53_17_cif.got.tgz:33903.got - 2010.06.11 16:32:34.
